REMARK SMILES C=C[C@@H]1[C@@H](O)C[C@H]2[C@]3(CC[C@]4(C)[C@@H]([C@H](C)CCC=C(C)C)CC[C@]24C)C[C@]13CCC(=O)NCCCCCCNC(=O)c1ccc(-c2c3nc(c(-c4cc(S(=O)(=O)[O-])ccc4F)c4ccc([nH]4)c(-c4cc(S(=O)(=O)[O-])ccc4F)c4nc(c(-c5cc(S(=O)(=O)[O-])ccc5F)c5ccc2[nH]5)C=C4)C=C3)cc1
REMARK SMILES IDX 34 1 33 2 32 3 30 4 31 5 29 7 28 8 27 9 3 10 4 11 6 12 8 13
REMARK SMILES IDX 26 14 7 15 9 16 24 17 10 18 11 19 23 20 25 21 13 22 12 23
REMARK SMILES IDX 22 24 2 25 1 26 5 27 14 29 15 30 16 31 17 32 18 33 19 34
REMARK SMILES IDX 20 35 21 36 35 37 36 38 37 39 38 40 39 41 40 42 41 44 42 45
REMARK SMILES IDX 43 46 104 47 44 48 103 49 45 50 46 51 47 52 97 53 48 54
REMARK SMILES IDX 102 55 96 56 98 57 49 58 101 59 95 60 94 61 50 63 82 64
REMARK SMILES IDX 62 65 81 66 63 67 66 68 80 69 99 70 64 71 65 72 79 74 100 75
REMARK SMILES IDX 67 76 51 77 52 78 60 79 53 80 59 81 61 82 58 83 54 84 55 85
REMARK SMILES IDX 56 86 57 87 83 88 84 89 92 90 85 91 91 92 93 93 90 94 86 95
REMARK SMILES IDX 87 96 88 97 89 98 68 99 69 100 77 101 70 102 76 103 78 104
REMARK SMILES IDX 75 105 71 106 72 107 73 108 74 109
REMARK H PARENT 32 6 5 28 39 43 98 62 66 73
REMARK Flexibility Score: inf
ROOT
ATOM      1  C   UNL     1       2.572  -1.246  -1.026  1.00  0.00     0.021 C 
ENDROOT
BRANCH   1   2
ATOM      2  C   UNL     1       2.700  -1.711   0.498  1.00  0.00     0.116 C 
BRANCH   2   3
ATOM      3  N   UNL     1       2.348  -0.741   1.742  1.00  0.00    -0.356 N 
ATOM      4  C   UNL     1       1.471   0.020   2.513  1.00  0.00     0.220 C 
ATOM      5  O   UNL     1       2.104   0.472   3.501  1.00  0.00    -0.275 OA
ATOM      6  H   UNL     1       3.214  -0.626   2.197  1.00  0.00     0.163 HD
BRANCH   4   7
ATOM      7  C   UNL     1      -0.193   0.427   2.572  1.00  0.00     0.100 C 
BRANCH   7   8
ATOM      8  C   UNL     1      -1.370   1.279   1.626  1.00  0.00     0.018 C 
BRANCH   8   9
ATOM      9  C   UNL     1      -1.973   0.536   0.306  1.00  0.00    -0.014 C 
ATOM     10  C   UNL     1      -1.505  -0.874   0.425  1.00  0.00     0.047 C 
ATOM     11  C   UNL     1      -2.229  -1.984  -0.321  1.00  0.00     0.122 C 
ATOM     12  C   UNL     1      -2.589  -1.567  -1.714  1.00  0.00     0.037 C 
ATOM     13  C   UNL     1      -2.994   0.889  -0.872  1.00  0.00    -0.019 C 
ATOM     14  C   UNL     1      -1.589   1.218  -1.046  1.00  0.00     0.016 C 
ATOM     15  C   UNL     1      -3.523  -0.333  -1.733  1.00  0.00     0.005 C 
ATOM     16  C   UNL     1      -3.731   2.191  -1.075  1.00  0.00     0.008 C 
ATOM     17  C   UNL     1      -3.904   0.016  -3.247  1.00  0.00    -0.023 C 
ATOM     18  C   UNL     1      -3.747   2.460  -2.594  1.00  0.00     0.008 C 
ATOM     19  C   UNL     1      -4.606   1.423  -3.343  1.00  0.00    -0.024 C 
ATOM     20  C   UNL     1      -5.053  -0.930  -3.713  1.00  0.00     0.008 C 
ATOM     21  C   UNL     1      -2.682  -0.174  -4.189  1.00  0.00     0.012 C 
ATOM     22  C   UNL     1      -5.967   1.084  -2.653  1.00  0.00    -0.002 C 
ATOM     23  C   UNL     1      -4.838   1.863  -4.818  1.00  0.00     0.012 C 
ATOM     24  C   UNL     1      -6.374  -0.248  -3.312  1.00  0.00     0.005 C 
BRANCH  10  25
ATOM     25  C   UNL     1      -0.036  -0.769   0.137  1.00  0.00    -0.028 C 
ATOM     26  C   UNL     1       0.657   0.399  -0.044  1.00  0.00     0.004 C 
ENDBRANCH  10  25
BRANCH  11  27
ATOM     27  O   UNL     1      -3.406  -2.398   0.379  1.00  0.00    -0.392 OA
ATOM     28  H   UNL     1      -4.026  -1.655   0.438  1.00  0.00     0.210 HD
ENDBRANCH  11  27
BRANCH  22  29
ATOM     29  C   UNL     1      -7.033   2.174  -2.330  1.00  0.00    -0.010 C 
ATOM     30  C   UNL     1      -8.457   1.657  -2.528  1.00  0.00     0.008 C 
BRANCH  29  31
ATOM     31  C   UNL     1      -6.847   3.572  -2.955  1.00  0.00     0.008 C 
BRANCH  31  32
ATOM     32  C   UNL     1      -7.605   4.721  -2.269  1.00  0.00     0.027 C 
BRANCH  32  33
ATOM     33  C   UNL     1      -7.089   5.063  -0.887  1.00  0.00    -0.028 C 
ATOM     34  C   UNL     1      -6.647   6.265  -0.465  1.00  0.00    -0.080 C 
ATOM     35  C   UNL     1      -6.192   6.481   0.954  1.00  0.00     0.039 C 
ATOM     36  C   UNL     1      -6.591   7.481  -1.347  1.00  0.00     0.039 C 
ENDBRANCH  32  33
ENDBRANCH  31  32
ENDBRANCH  29  31
ENDBRANCH  22  29
ENDBRANCH   8   9
ENDBRANCH   7   8
ENDBRANCH   4   7
ENDBRANCH   2   3
ENDBRANCH   1   2
BRANCH   1  37
ATOM     37  C   UNL     1       3.559  -1.600  -2.125  1.00  0.00     0.002 C 
BRANCH  37  38
ATOM     38  C   UNL     1       3.465  -2.997  -2.707  1.00  0.00     0.002 C 
BRANCH  38  39
ATOM     39  C   UNL     1       2.152  -3.371  -3.417  1.00  0.00     0.021 C 
BRANCH  39  40
ATOM     40  C   UNL     1       1.675  -2.432  -4.531  1.00  0.00     0.116 C 
BRANCH  40  41
ATOM     41  N   UNL     1       2.719  -2.179  -5.515  1.00  0.00    -0.352 N 
ATOM     42  C   UNL     1       2.932  -2.798  -6.718  1.00  0.00     0.251 C 
ATOM     43  H   UNL     1       3.358  -1.467  -5.284  1.00  0.00     0.163 HD
ATOM     44  O   UNL     1       4.046  -2.740  -7.254  1.00  0.00    -0.269 OA
BRANCH  42  45
ATOM     45  C   UNL     1       1.829  -3.523  -7.372  1.00  0.00     0.039 A 
ATOM     46  C   UNL     1       2.040  -4.809  -7.876  1.00  0.00     0.014 A 
ATOM     47  C   UNL     1       0.579  -2.909  -7.498  1.00  0.00     0.014 A 
ATOM     48  C   UNL     1       0.975  -5.504  -8.455  1.00  0.00     0.010 A 
ATOM     49  C   UNL     1      -0.494  -3.628  -8.011  1.00  0.00     0.010 A 
ATOM     50  C   UNL     1      -0.307  -4.931  -8.500  1.00  0.00    -0.014 A 
BRANCH  50  51
ATOM     51  C   UNL     1      -1.468  -5.668  -9.061  1.00  0.00     0.031 A 
ATOM     52  C   UNL     1      -2.175  -5.137 -10.279  1.00  0.00     0.074 A 
ATOM     53  C   UNL     1      -1.933  -6.762  -8.427  1.00  0.00     0.049 A 
ATOM     54  N   UNL     1      -3.264  -5.568 -10.860  1.00  0.00    -0.248 NA
ATOM     55  C   UNL     1      -1.595  -3.937 -10.902  1.00  0.00     0.031 C 
ATOM     56  C   UNL     1      -1.355  -7.341  -7.212  1.00  0.00     0.029 A 
ATOM     57  N   UNL     1      -3.007  -7.572  -8.701  1.00  0.00    -0.354 N 
ATOM     58  C   UNL     1      -3.514  -4.681 -11.902  1.00  0.00     0.074 A 
ATOM     59  C   UNL     1      -2.495  -3.655 -11.831  1.00  0.00     0.031 C 
ATOM     60  C   UNL     1      -2.070  -8.421  -6.856  1.00  0.00     0.029 A 
ATOM     61  C   UNL     1      -3.186  -8.582  -7.783  1.00  0.00     0.049 A 
ATOM     62  H   UNL     1      -3.594  -7.443  -9.480  1.00  0.00     0.167 HD
ATOM     63  C   UNL     1      -4.491  -4.731 -12.841  1.00  0.00     0.034 A 
ATOM     64  C   UNL     1      -4.151  -9.518  -7.686  1.00  0.00     0.034 A 
ATOM     65  C   UNL     1      -5.490  -5.771 -12.894  1.00  0.00     0.049 A 
ATOM     66  C   UNL     1      -5.238  -9.547  -8.730  1.00  0.00     0.074 A 
ATOM     67  C   UNL     1      -6.484  -5.964 -13.837  1.00  0.00     0.029 A 
ATOM     68  N   UNL     1      -5.633  -6.787 -11.956  1.00  0.00    -0.354 N 
ATOM     69  N   UNL     1      -5.426  -8.739  -9.749  1.00  0.00    -0.248 NA
ATOM     70  C   UNL     1      -6.234 -10.619  -8.620  1.00  0.00     0.031 C 
ATOM     71  C   UNL     1      -7.277  -7.039 -13.424  1.00  0.00     0.029 A 
ATOM     72  C   UNL     1      -6.723  -7.583 -12.275  1.00  0.00     0.049 A 
ATOM     73  H   UNL     1      -5.046  -6.922 -11.177  1.00  0.00     0.167 HD
ATOM     74  C   UNL     1      -6.545  -9.226 -10.419  1.00  0.00     0.074 A 
ATOM     75  C   UNL     1      -6.979 -10.403  -9.694  1.00  0.00     0.031 C 
ATOM     76  C   UNL     1      -7.153  -8.748 -11.536  1.00  0.00     0.034 A 
BRANCH  63  77
ATOM     77  C   UNL     1      -4.543  -3.610 -13.855  1.00  0.00     0.023 A 
ATOM     78  C   UNL     1      -3.474  -3.348 -14.731  1.00  0.00     0.031 A 
ATOM     79  C   UNL     1      -5.665  -2.764 -13.923  1.00  0.00     0.131 A 
ATOM     80  C   UNL     1      -3.510  -2.222 -15.567  1.00  0.00     0.055 A 
ATOM     81  C   UNL     1      -5.734  -1.700 -14.825  1.00  0.00     0.041 A 
ATOM     82  F   UNL     1      -6.709  -2.946 -13.100  1.00  0.00    -0.206 F 
ATOM     83  C   UNL     1      -4.644  -1.412 -15.641  1.00  0.00     0.022 A 
BRANCH  80  84
ATOM     84  S   UNL     1      -1.989  -1.735 -16.428  1.00  0.00     0.124 S 
ATOM     85  O   UNL     1      -1.058  -1.575 -15.314  1.00  0.00    -0.237 OA
ATOM     86  O   UNL     1      -1.745  -2.874 -17.306  1.00  0.00    -0.237 OA
ATOM     87  O   UNL     1      -2.360  -0.493 -17.103  1.00  0.00    -0.744 OA
ENDBRANCH  80  84
ENDBRANCH  63  77
BRANCH  64  88
ATOM     88  C   UNL     1      -4.144 -10.488  -6.553  1.00  0.00     0.023 A 
ATOM     89  C   UNL     1      -3.967 -11.864  -6.772  1.00  0.00     0.031 A 
ATOM     90  C   UNL     1      -4.334 -10.052  -5.229  1.00  0.00     0.131 A 
ATOM     91  C   UNL     1      -4.022 -12.757  -5.690  1.00  0.00     0.055 A 
ATOM     92  C   UNL     1      -4.333 -10.938  -4.151  1.00  0.00     0.041 A 
ATOM     93  F   UNL     1      -4.502  -8.747  -4.962  1.00  0.00    -0.206 F 
ATOM     94  C   UNL     1      -4.188 -12.302  -4.380  1.00  0.00     0.022 A 
BRANCH  91  95
ATOM     95  S   UNL     1      -3.950 -14.538  -6.028  1.00  0.00     0.124 S 
ATOM     96  O   UNL     1      -5.098 -14.720  -6.909  1.00  0.00    -0.237 OA
ATOM     97  O   UNL     1      -2.636 -14.676  -6.647  1.00  0.00    -0.237 OA
ATOM     98  O   UNL     1      -4.078 -15.141  -4.703  1.00  0.00    -0.744 OA
ENDBRANCH  91  95
ENDBRANCH  64  88
BRANCH  76  99
ATOM     99  C   UNL     1      -8.326  -9.534 -12.072  1.00  0.00     0.023 A 
ATOM    100  C   UNL     1      -9.532  -9.653 -11.360  1.00  0.00     0.031 A 
ATOM    101  C   UNL     1      -8.232 -10.173 -13.322  1.00  0.00     0.131 A 
ATOM    102  C   UNL     1     -10.574 -10.439 -11.877  1.00  0.00     0.055 A 
ATOM    103  C   UNL     1      -9.296 -10.895 -13.862  1.00  0.00     0.041 A 
ATOM    104  F   UNL     1      -7.102 -10.099 -14.044  1.00  0.00    -0.206 F 
ATOM    105  C   UNL     1     -10.471 -11.043 -13.133  1.00  0.00     0.022 A 
BRANCH 102 106
ATOM    106  S   UNL     1     -12.030 -10.747 -10.840  1.00  0.00     0.124 S 
ATOM    107  O   UNL     1     -11.436 -11.365  -9.659  1.00  0.00    -0.237 OA
ATOM    108  O   UNL     1     -12.571  -9.404 -10.654  1.00  0.00    -0.237 OA
ATOM    109  O   UNL     1     -12.851 -11.637 -11.659  1.00  0.00    -0.744 OA
ENDBRANCH 102 106
ENDBRANCH  76  99
ENDBRANCH  50  51
ENDBRANCH  42  45
ENDBRANCH  40  41
ENDBRANCH  39  40
ENDBRANCH  38  39
ENDBRANCH  37  38
ENDBRANCH   1  37
TORSDOF 24
