REMARK SMILES O=C(NCCCCCCNC(=O)[C@H]1[NH2+]CC[C@H]1c1cccc(Oc2ccccc2)c1)c1ccc(-c2c3nc(c(-c4cc(S(=O)(=O)[O-])ccc4F)c4ccc([nH]4)c(-c4cc(S(=O)(=O)[O-])ccc4F)c4nc(c(-c5cc(S(=O)(=O)[O-])ccc5F)c5ccc2[nH]5)C=C4)C=C3)cc1
REMARK SMILES IDX 6 1 5 2 4 3 3 4 1 5 2 6 31 8 32 9 93 10 33 11 92 12 34 13
REMARK SMILES IDX 35 14 36 15 86 16 37 17 91 18 85 19 87 20 38 21 90 22 84 23
REMARK SMILES IDX 83 24 39 26 71 27 51 28 70 29 52 30 55 31 69 32 88 33 53 34
REMARK SMILES IDX 54 35 68 37 89 38 56 39 40 40 41 41 49 42 42 43 48 44 50 45
REMARK SMILES IDX 47 46 43 47 44 48 45 49 46 50 72 51 73 52 81 53 74 54 80 55
REMARK SMILES IDX 82 56 79 57 75 58 76 59 77 60 78 61 57 62 58 63 66 64 59 65
REMARK SMILES IDX 65 66 67 67 64 68 60 69 61 70 62 71 63 72 7 73 8 74 9 75
REMARK SMILES IDX 10 76 11 77 12 79 13 80 14 81 17 82 15 83 16 86 18 87 19 88
REMARK SMILES IDX 30 89 20 90 22 91 21 92 23 93 24 94 25 95 29 96 26 97 28 98
REMARK SMILES IDX 27 99
REMARK H PARENT 3 7 87 25 55 36 10 78 14 84 14 85
REMARK Flexibility Score: inf
ROOT
ATOM      1  C   UNL     1       4.125  -3.420   1.916  1.00  0.00     0.002 C 
ENDROOT
BRANCH   1   2
ATOM      2  C   UNL     1       4.545  -1.951   1.944  1.00  0.00     0.021 C 
BRANCH   2   3
ATOM      3  C   UNL     1       4.320  -1.192   0.642  1.00  0.00     0.116 C 
BRANCH   3   4
ATOM      4  N   UNL     1       2.914  -1.083   0.293  1.00  0.00    -0.352 N 
ATOM      5  O   UNL     1       0.987  -0.012  -0.182  1.00  0.00    -0.269 OA
ATOM      6  C   UNL     1       2.203   0.040  -0.061  1.00  0.00     0.251 C 
ATOM      7  H   UNL     1       2.403  -1.924   0.313  1.00  0.00     0.163 HD
BRANCH   6   8
ATOM      8  C   UNL     1       2.924   1.315  -0.272  1.00  0.00     0.039 A 
ATOM      9  C   UNL     1       4.087   1.355  -1.046  1.00  0.00     0.014 A 
ATOM     10  C   UNL     1       2.432   2.481   0.320  1.00  0.00     0.014 A 
ATOM     11  C   UNL     1       4.824   2.532  -1.126  1.00  0.00     0.010 A 
ATOM     12  C   UNL     1       3.132   3.681   0.172  1.00  0.00     0.010 A 
ATOM     13  C   UNL     1       4.346   3.712  -0.532  1.00  0.00    -0.014 A 
BRANCH  13  14
ATOM     14  C   UNL     1       5.101   4.979  -0.714  1.00  0.00     0.031 A 
ATOM     15  C   UNL     1       5.736   5.680   0.454  1.00  0.00     0.074 A 
ATOM     16  C   UNL     1       5.219   5.485  -1.958  1.00  0.00     0.049 A 
ATOM     17  N   UNL     1       6.413   6.799   0.475  1.00  0.00    -0.248 NA
ATOM     18  C   UNL     1       5.582   5.046   1.771  1.00  0.00     0.031 C 
ATOM     19  C   UNL     1       4.641   4.888  -3.165  1.00  0.00     0.029 A 
ATOM     20  N   UNL     1       5.868   6.601  -2.418  1.00  0.00    -0.354 N 
ATOM     21  C   UNL     1       6.756   7.016   1.806  1.00  0.00     0.074 A 
ATOM     22  C   UNL     1       6.179   5.924   2.565  1.00  0.00     0.031 C 
ATOM     23  C   UNL     1       4.992   5.622  -4.230  1.00  0.00     0.029 A 
ATOM     24  C   UNL     1       5.758   6.777  -3.778  1.00  0.00     0.049 A 
ATOM     25  H   UNL     1       6.365   7.216  -1.833  1.00  0.00     0.167 HD
ATOM     26  C   UNL     1       7.488   8.027   2.338  1.00  0.00     0.034 A 
ATOM     27  C   UNL     1       6.200   7.771  -4.572  1.00  0.00     0.034 A 
ATOM     28  C   UNL     1       8.052   9.107   1.561  1.00  0.00     0.049 A 
ATOM     29  C   UNL     1       6.969   8.904  -3.950  1.00  0.00     0.074 A 
ATOM     30  C   UNL     1       8.832  10.166   1.994  1.00  0.00     0.029 A 
ATOM     31  N   UNL     1       7.886   9.275   0.191  1.00  0.00    -0.354 N 
ATOM     32  N   UNL     1       7.296   9.086  -2.691  1.00  0.00    -0.248 NA
ATOM     33  C   UNL     1       7.430   9.963  -4.855  1.00  0.00     0.031 C 
ATOM     34  C   UNL     1       9.081  11.006   0.902  1.00  0.00     0.029 A 
ATOM     35  C   UNL     1       8.521  10.435  -0.230  1.00  0.00     0.049 A 
ATOM     36  H   UNL     1       7.389   8.661  -0.396  1.00  0.00     0.167 HD
ATOM     37  C   UNL     1       8.019  10.273  -2.657  1.00  0.00     0.074 A 
ATOM     38  C   UNL     1       8.097  10.750  -4.024  1.00  0.00     0.031 C 
ATOM     39  C   UNL     1       8.571  10.910  -1.593  1.00  0.00     0.034 A 
BRANCH  26  40
ATOM     40  C   UNL     1       7.678   8.034   3.838  1.00  0.00     0.023 A 
ATOM     41  C   UNL     1       8.388   7.018   4.502  1.00  0.00     0.031 A 
ATOM     42  C   UNL     1       7.125   9.065   4.618  1.00  0.00     0.131 A 
ATOM     43  C   UNL     1       8.467   7.018   5.904  1.00  0.00     0.055 A 
ATOM     44  C   UNL     1       7.271   9.101   6.007  1.00  0.00     0.041 A 
ATOM     45  F   UNL     1       6.419  10.053   4.045  1.00  0.00    -0.206 F 
ATOM     46  C   UNL     1       7.934   8.065   6.659  1.00  0.00     0.022 A 
BRANCH  43  47
ATOM     47  S   UNL     1       9.156   5.560   6.735  1.00  0.00     0.124 S 
ATOM     48  O   UNL     1       8.287   4.496   6.237  1.00  0.00    -0.237 OA
ATOM     49  O   UNL     1      10.531   5.540   6.250  1.00  0.00    -0.237 OA
ATOM     50  O   UNL     1       9.000   5.868   8.155  1.00  0.00    -0.744 OA
ENDBRANCH  43  47
ENDBRANCH  26  40
BRANCH  27  51
ATOM     51  C   UNL     1       5.894   7.755  -6.029  1.00  0.00     0.023 A 
ATOM     52  C   UNL     1       6.915   7.642  -6.984  1.00  0.00     0.031 A 
ATOM     53  C   UNL     1       4.568   7.868  -6.488  1.00  0.00     0.131 A 
ATOM     54  C   UNL     1       6.599   7.681  -8.351  1.00  0.00     0.055 A 
ATOM     55  C   UNL     1       4.254   7.853  -7.847  1.00  0.00     0.041 A 
ATOM     56  F   UNL     1       3.554   7.973  -5.615  1.00  0.00    -0.206 F 
ATOM     57  C   UNL     1       5.275   7.771  -8.788  1.00  0.00     0.022 A 
BRANCH  54  58
ATOM     58  S   UNL     1       7.955   7.686  -9.555  1.00  0.00     0.124 S 
ATOM     59  O   UNL     1       8.709   8.866  -9.150  1.00  0.00    -0.237 OA
ATOM     60  O   UNL     1       8.592   6.398  -9.298  1.00  0.00    -0.237 OA
ATOM     61  O   UNL     1       7.268   7.793 -10.840  1.00  0.00    -0.744 OA
ENDBRANCH  54  58
ENDBRANCH  27  51
BRANCH  39  62
ATOM     62  C   UNL     1       9.338  12.176  -1.886  1.00  0.00     0.023 A 
ATOM     63  C   UNL     1       8.696  13.339  -2.347  1.00  0.00     0.031 A 
ATOM     64  C   UNL     1      10.735  12.208  -1.730  1.00  0.00     0.131 A 
ATOM     65  C   UNL     1       9.456  14.466  -2.691  1.00  0.00     0.055 A 
ATOM     66  C   UNL     1      11.480  13.352  -2.018  1.00  0.00     0.041 A 
ATOM     67  F   UNL     1      11.399  11.124  -1.298  1.00  0.00    -0.206 F 
ATOM     68  C   UNL     1      10.842  14.485  -2.515  1.00  0.00     0.022 A 
BRANCH  65  69
ATOM     69  S   UNL     1       8.620  15.878  -3.465  1.00  0.00     0.124 S 
ATOM     70  O   UNL     1       8.038  15.270  -4.657  1.00  0.00    -0.237 OA
ATOM     71  O   UNL     1       7.675  16.287  -2.430  1.00  0.00    -0.237 OA
ATOM     72  O   UNL     1       9.706  16.823  -3.718  1.00  0.00    -0.744 OA
ENDBRANCH  65  69
ENDBRANCH  39  62
ENDBRANCH  13  14
ENDBRANCH   6   8
ENDBRANCH   3   4
ENDBRANCH   2   3
ENDBRANCH   1   2
BRANCH   1  73
ATOM     73  C   UNL     1       4.727  -4.249   0.779  1.00  0.00     0.002 C 
BRANCH  73  74
ATOM     74  C   UNL     1       6.254  -4.176   0.643  1.00  0.00     0.021 C 
BRANCH  74  75
ATOM     75  C   UNL     1       7.037  -4.571   1.897  1.00  0.00     0.116 C 
BRANCH  75  76
ATOM     76  N   UNL     1       6.798  -5.963   2.216  1.00  0.00    -0.351 N 
ATOM     77  C   UNL     1       7.701  -6.979   2.198  1.00  0.00     0.278 C 
ATOM     78  H   UNL     1       5.879  -6.201   2.476  1.00  0.00     0.163 HD
ATOM     79  O   UNL     1       7.293  -8.080   1.814  1.00  0.00    -0.268 OA
BRANCH  77  80
ATOM     80  C   UNL     1       9.173  -6.764   2.555  1.00  0.00     0.280 C 
ATOM     81  N   UNL     1       9.503  -5.525   3.308  1.00  0.00    -0.335 N 
ATOM     82  C   UNL     1       9.813  -7.869   3.430  1.00  0.00     0.093 C 
ATOM     83  C   UNL     1      10.895  -5.722   3.751  1.00  0.00     0.262 C 
ATOM     84  H   UNL     1       8.882  -5.413   4.109  1.00  0.00     0.346 HD
ATOM     85  H   UNL     1       9.393  -4.685   2.740  1.00  0.00     0.346 HD
ATOM     86  C   UNL     1      11.191  -7.219   3.623  1.00  0.00     0.076 C 
BRANCH  82  87
ATOM     87  C   UNL     1       9.079  -8.217   4.737  1.00  0.00    -0.034 A 
ATOM     88  C   UNL     1       9.554  -7.890   6.016  1.00  0.00     0.004 A 
ATOM     89  C   UNL     1       7.871  -8.939   4.672  1.00  0.00     0.051 A 
ATOM     90  C   UNL     1       8.846  -8.252   7.167  1.00  0.00     0.004 A 
ATOM     91  C   UNL     1       7.134  -9.279   5.813  1.00  0.00     0.127 A 
ATOM     92  C   UNL     1       7.637  -8.937   7.065  1.00  0.00     0.047 A 
BRANCH  91  93
ATOM     93  O   UNL     1       5.928  -9.953   5.826  1.00  0.00    -0.457 OA
BRANCH  93  94
ATOM     94  C   UNL     1       5.255 -10.126   4.641  1.00  0.00     0.127 A 
ATOM     95  C   UNL     1       4.085  -9.397   4.423  1.00  0.00     0.047 A 
ATOM     96  C   UNL     1       5.679 -11.073   3.707  1.00  0.00     0.047 A 
ATOM     97  C   UNL     1       3.372  -9.572   3.235  1.00  0.00     0.004 A 
ATOM     98  C   UNL     1       4.981 -11.226   2.510  1.00  0.00     0.004 A 
ATOM     99  C   UNL     1       3.829 -10.474   2.273  1.00  0.00     0.000 A 
ENDBRANCH  93  94
ENDBRANCH  91  93
ENDBRANCH  82  87
ENDBRANCH  77  80
ENDBRANCH  75  76
ENDBRANCH  74  75
ENDBRANCH  73  74
ENDBRANCH   1  73
TORSDOF 19
