REMARK SMILES C[C@@H](C[N@H+](C)[C@H]1CSCC(C)(C)C1)C(=O)NCCCCCCNC(=O)c1ccc(-c2c3nc(c(-c4cc(S(=O)(=O)[O-])ccc4F)c4ccc([nH]4)c(-c4cc(S(=O)(=O)[O-])ccc4F)c4nc(c(-c5cc(S(=O)(=O)[O-])ccc5F)c5ccc2[nH]5)C=C4)C=C3)cc1
REMARK SMILES IDX 19 1 18 2 17 3 16 4 14 5 15 6 2 8 1 9 3 10 4 11 5 12 6 14
REMARK SMILES IDX 7 15 13 16 8 17 10 18 9 19 11 20 12 21 20 22 21 23 22 24
REMARK SMILES IDX 23 25 24 26 25 28 26 29 27 30 88 31 28 32 87 33 29 34 30 35
REMARK SMILES IDX 31 36 81 37 32 38 86 39 80 40 82 41 33 42 85 43 79 44 78 45
REMARK SMILES IDX 34 47 66 48 46 49 65 50 47 51 50 52 64 53 83 54 48 55 49 56
REMARK SMILES IDX 63 58 84 59 51 60 35 61 36 62 44 63 37 64 43 65 45 66 42 67
REMARK SMILES IDX 38 68 39 69 40 70 41 71 67 72 68 73 76 74 69 75 75 76 77 77
REMARK SMILES IDX 74 78 70 79 71 80 72 81 73 82 52 83 53 84 61 85 54 86 60 87
REMARK SMILES IDX 62 88 59 89 55 90 56 91 57 92 58 93
REMARK H PARENT 16 7 4 13 23 27 82 46 50 57
REMARK Flexibility Score: inf
ROOT
ATOM      1  C   UNL     1      -0.281  -4.329   3.847  1.00  0.00     0.002 C 
ENDROOT
BRANCH   1   2
ATOM      2  C   UNL     1      -0.743  -3.148   4.711  1.00  0.00     0.021 C 
BRANCH   2   3
ATOM      3  C   UNL     1      -0.603  -1.766   4.073  1.00  0.00     0.116 C 
BRANCH   3   4
ATOM      4  N   UNL     1      -1.438  -1.600   2.901  1.00  0.00    -0.356 N 
ATOM      5  C   UNL     1      -1.843  -0.466   2.272  1.00  0.00     0.228 C 
ATOM      6  O   UNL     1      -2.419  -0.603   1.186  1.00  0.00    -0.275 OA
ATOM      7  H   UNL     1      -1.762  -2.438   2.498  1.00  0.00     0.163 HD
BRANCH   5   8
ATOM      8  C   UNL     1      -1.663   0.929   2.861  1.00  0.00     0.130 C 
ATOM      9  C   UNL     1      -2.472   1.079   4.155  1.00  0.00     0.024 C 
BRANCH   8  10
ATOM     10  C   UNL     1      -0.248   1.567   2.946  1.00  0.00     0.275 C 
BRANCH  10  11
ATOM     11  N   UNL     1       0.972   0.742   2.827  1.00  0.00    -0.334 N 
ATOM     12  C   UNL     1       2.122   1.437   3.413  1.00  0.00     0.333 C 
ATOM     13  H   UNL     1       0.820  -0.109   3.368  1.00  0.00     0.348 HD
BRANCH  11  14
ATOM     14  C   UNL     1       1.221   0.259   1.439  1.00  0.00     0.194 C 
ATOM     15  C   UNL     1       1.763   1.280   0.420  1.00  0.00     0.134 C 
ATOM     16  C   UNL     1       2.160  -0.970   1.443  1.00  0.00     0.073 C 
ATOM     17  S   UNL     1       1.685   0.630  -1.287  1.00  0.00    -0.155 SA
ATOM     18  C   UNL     1       2.078  -1.815   0.142  1.00  0.00    -0.021 C 
ATOM     19  C   UNL     1       2.542  -0.967  -1.060  1.00  0.00     0.076 C 
ATOM     20  C   UNL     1       0.659  -2.376  -0.110  1.00  0.00     0.012 C 
ATOM     21  C   UNL     1       3.035  -3.024   0.266  1.00  0.00     0.012 C 
ENDBRANCH  11  14
ENDBRANCH  10  11
ENDBRANCH   8  10
ENDBRANCH   5   8
ENDBRANCH   3   4
ENDBRANCH   2   3
ENDBRANCH   1   2
BRANCH   1  22
ATOM     22  C   UNL     1       1.128  -4.217   3.273  1.00  0.00     0.002 C 
BRANCH  22  23
ATOM     23  C   UNL     1       2.259  -3.951   4.261  1.00  0.00     0.021 C 
BRANCH  23  24
ATOM     24  C   UNL     1       2.430  -5.047   5.294  1.00  0.00     0.116 C 
BRANCH  24  25
ATOM     25  N   UNL     1       2.758  -6.329   4.689  1.00  0.00    -0.352 N 
ATOM     26  C   UNL     1       3.627  -7.290   5.141  1.00  0.00     0.251 C 
ATOM     27  H   UNL     1       2.296  -6.534   3.844  1.00  0.00     0.163 HD
ATOM     28  O   UNL     1       3.918  -8.243   4.423  1.00  0.00    -0.269 OA
BRANCH  26  29
ATOM     29  C   UNL     1       4.231  -7.140   6.481  1.00  0.00     0.039 A 
ATOM     30  C   UNL     1       5.590  -7.408   6.649  1.00  0.00     0.014 A 
ATOM     31  C   UNL     1       3.458  -6.701   7.560  1.00  0.00     0.014 A 
ATOM     32  C   UNL     1       6.182  -7.188   7.893  1.00  0.00     0.010 A 
ATOM     33  C   UNL     1       4.072  -6.378   8.762  1.00  0.00     0.010 A 
ATOM     34  C   UNL     1       5.435  -6.643   8.950  1.00  0.00    -0.014 A 
BRANCH  34  35
ATOM     35  C   UNL     1       6.045  -6.396  10.280  1.00  0.00     0.031 A 
ATOM     36  C   UNL     1       5.512  -7.127  11.484  1.00  0.00     0.074 A 
ATOM     37  C   UNL     1       7.036  -5.493  10.406  1.00  0.00     0.049 A 
ATOM     38  N   UNL     1       5.848  -7.007  12.742  1.00  0.00    -0.248 NA
ATOM     39  C   UNL     1       4.428  -8.095  11.244  1.00  0.00     0.031 C 
ATOM     40  C   UNL     1       7.596  -4.693   9.314  1.00  0.00     0.029 A 
ATOM     41  N   UNL     1       7.748  -5.092  11.507  1.00  0.00    -0.354 N 
ATOM     42  C   UNL     1       5.018  -7.880  13.438  1.00  0.00     0.074 A 
ATOM     43  C   UNL     1       4.100  -8.447  12.476  1.00  0.00     0.031 C 
ATOM     44  C   UNL     1       8.587  -3.925   9.794  1.00  0.00     0.029 A 
ATOM     45  C   UNL     1       8.701  -4.138  11.233  1.00  0.00     0.049 A 
ATOM     46  H   UNL     1       7.592  -5.453  12.410  1.00  0.00     0.167 HD
ATOM     47  C   UNL     1       5.045  -8.210  14.753  1.00  0.00     0.034 A 
ATOM     48  C   UNL     1       9.562  -3.503  12.054  1.00  0.00     0.034 A 
ATOM     49  C   UNL     1       5.976  -7.640  15.693  1.00  0.00     0.049 A 
ATOM     50  C   UNL     1       9.555  -3.868  13.520  1.00  0.00     0.074 A 
ATOM     51  C   UNL     1       6.112  -7.905  17.044  1.00  0.00     0.029 A 
ATOM     52  N   UNL     1       6.938  -6.687  15.377  1.00  0.00    -0.354 N 
ATOM     53  N   UNL     1       8.787  -4.723  14.157  1.00  0.00    -0.248 NA
ATOM     54  C   UNL     1      10.545  -3.198  14.372  1.00  0.00     0.031 C 
ATOM     55  C   UNL     1       7.110  -7.070  17.556  1.00  0.00     0.029 A 
ATOM     56  C   UNL     1       7.658  -6.344  16.510  1.00  0.00     0.049 A 
ATOM     57  H   UNL     1       7.086  -6.311  14.480  1.00  0.00     0.167 HD
ATOM     58  C   UNL     1       9.232  -4.723  15.476  1.00  0.00     0.074 A 
ATOM     59  C   UNL     1      10.346  -3.799  15.535  1.00  0.00     0.031 C 
ATOM     60  C   UNL     1       8.768  -5.421  16.544  1.00  0.00     0.034 A 
BRANCH  47  61
ATOM     61  C   UNL     1       4.036  -9.226  15.233  1.00  0.00     0.023 A 
ATOM     62  C   UNL     1       4.016 -10.538  14.724  1.00  0.00     0.031 A 
ATOM     63  C   UNL     1       3.060  -8.878  16.183  1.00  0.00     0.131 A 
ATOM     64  C   UNL     1       2.997 -11.424  15.102  1.00  0.00     0.055 A 
ATOM     65  C   UNL     1       2.102  -9.794  16.624  1.00  0.00     0.041 A 
ATOM     66  F   UNL     1       3.010  -7.636  16.688  1.00  0.00    -0.206 F 
ATOM     67  C   UNL     1       2.056 -11.071  16.071  1.00  0.00     0.022 A 
BRANCH  64  68
ATOM     68  S   UNL     1       2.829 -12.986  14.196  1.00  0.00     0.124 S 
ATOM     69  O   UNL     1       2.604 -12.512  12.833  1.00  0.00    -0.237 OA
ATOM     70  O   UNL     1       4.111 -13.635  14.444  1.00  0.00    -0.237 OA
ATOM     71  O   UNL     1       1.674 -13.624  14.825  1.00  0.00    -0.744 OA
ENDBRANCH  64  68
ENDBRANCH  47  61
BRANCH  48  72
ATOM     72  C   UNL     1      10.494  -2.463  11.529  1.00  0.00     0.023 A 
ATOM     73  C   UNL     1      11.886  -2.621  11.624  1.00  0.00     0.031 A 
ATOM     74  C   UNL     1      10.007  -1.261  10.984  1.00  0.00     0.131 A 
ATOM     75  C   UNL     1      12.739  -1.570  11.251  1.00  0.00     0.055 A 
ATOM     76  C   UNL     1      10.861  -0.246  10.549  1.00  0.00     0.041 A 
ATOM     77  F   UNL     1       8.685  -1.056  10.862  1.00  0.00    -0.206 F 
ATOM     78  C   UNL     1      12.236  -0.389  10.700  1.00  0.00     0.022 A 
BRANCH  75  79
ATOM     79  S   UNL     1      14.510  -1.719  11.615  1.00  0.00     0.124 S 
ATOM     80  O   UNL     1      14.495  -1.981  13.050  1.00  0.00    -0.237 OA
ATOM     81  O   UNL     1      14.900  -2.837  10.762  1.00  0.00    -0.237 OA
ATOM     82  O   UNL     1      15.047  -0.419  11.223  1.00  0.00    -0.744 OA
ENDBRANCH  75  79
ENDBRANCH  48  72
BRANCH  60  83
ATOM     83  C   UNL     1       9.513  -5.255  17.847  1.00  0.00     0.023 A 
ATOM     84  C   UNL     1       9.556  -4.026  18.527  1.00  0.00     0.031 A 
ATOM     85  C   UNL     1      10.209  -6.343  18.403  1.00  0.00     0.131 A 
ATOM     86  C   UNL     1      10.341  -3.895  19.682  1.00  0.00     0.055 A 
ATOM     87  C   UNL     1      10.927  -6.226  19.593  1.00  0.00     0.041 A 
ATOM     88  F   UNL     1      10.204  -7.541  17.796  1.00  0.00    -0.206 F 
ATOM     89  C   UNL     1      11.011  -4.991  20.230  1.00  0.00     0.022 A 
BRANCH  86  90
ATOM     90  S   UNL     1      10.571  -2.241  20.390  1.00  0.00     0.124 S 
ATOM     91  O   UNL     1      11.116  -1.500  19.258  1.00  0.00    -0.237 OA
ATOM     92  O   UNL     1       9.215  -1.883  20.793  1.00  0.00    -0.237 OA
ATOM     93  O   UNL     1      11.505  -2.468  21.491  1.00  0.00    -0.744 OA
ENDBRANCH  86  90
ENDBRANCH  60  83
ENDBRANCH  34  35
ENDBRANCH  26  29
ENDBRANCH  24  25
ENDBRANCH  23  24
ENDBRANCH  22  23
ENDBRANCH   1  22
TORSDOF 19
