REMARK SMILES CC(C)=CC(=O)Nc1ccc(C(=O)NCCCCCCNC(=O)c2ccc(-c3c4nc(c(-c5cc(S(=O)(=O)[O-])ccc5F)c5ccc([nH]5)c(-c5cc(S(=O)(=O)[O-])ccc5F)c5nc(c(-c6cc(S(=O)(=O)[O-])ccc6F)c6ccc3[nH]6)C=C5)C=C4)cc2)cc1
REMARK SMILES IDX 18 1 17 2 16 3 15 4 14 5 12 6 13 7 11 9 8 10 9 11 88 12
REMARK SMILES IDX 10 13 87 14 7 15 5 16 6 17 4 19 1 20 2 21 3 22 19 23 20 24
REMARK SMILES IDX 21 25 22 26 23 28 24 29 25 30 86 31 26 32 85 33 27 34 28 35
REMARK SMILES IDX 29 36 79 37 30 38 84 39 78 40 80 41 31 42 83 43 77 44 76 45
REMARK SMILES IDX 32 47 64 48 44 49 63 50 45 51 48 52 62 53 81 54 46 55 47 56
REMARK SMILES IDX 61 58 82 59 49 60 33 61 34 62 42 63 35 64 41 65 43 66 40 67
REMARK SMILES IDX 36 68 37 69 38 70 39 71 65 72 66 73 74 74 67 75 73 76 75 77
REMARK SMILES IDX 72 78 68 79 69 80 70 81 71 82 50 83 51 84 59 85 52 86 58 87
REMARK SMILES IDX 60 88 57 89 53 90 54 91 55 92 56 93
REMARK H PARENT 14 8 7 18 21 27 80 46 48 57
REMARK Flexibility Score: inf
ROOT
ATOM      1  C   UNL     1       1.290  -1.977   6.761  1.00  0.00     0.002 C 
ENDROOT
BRANCH   1   2
ATOM      2  C   UNL     1       2.390  -1.033   6.263  1.00  0.00     0.002 C 
BRANCH   2   3
ATOM      3  C   UNL     1       2.576  -1.014   4.740  1.00  0.00     0.021 C 
BRANCH   3   4
ATOM      4  C   UNL     1       1.367  -0.444   3.996  1.00  0.00     0.116 C 
BRANCH   4   5
ATOM      5  N   UNL     1       1.339   1.002   4.142  1.00  0.00    -0.352 N 
ATOM      6  C   UNL     1       1.757   2.019   3.322  1.00  0.00     0.251 C 
ATOM      7  O   UNL     1       1.650   3.176   3.726  1.00  0.00    -0.269 OA
ATOM      8  H   UNL     1       0.946   1.310   4.991  1.00  0.00     0.163 HD
BRANCH   6   9
ATOM      9  C   UNL     1       2.212   1.776   1.927  1.00  0.00     0.039 A 
ATOM     10  C   UNL     1       2.444   1.212  -0.790  1.00  0.00     0.041 A 
ATOM     11  C   UNL     1       2.005   2.473  -0.388  1.00  0.00     0.027 A 
ATOM     12  C   UNL     1       2.964   0.323   0.148  1.00  0.00     0.027 A 
ATOM     13  C   UNL     1       1.849   2.737   0.972  1.00  0.00     0.016 A 
ATOM     14  C   UNL     1       2.891   0.630   1.508  1.00  0.00     0.016 A 
BRANCH  10  15
ATOM     15  N   UNL     1       2.264   0.869  -2.131  1.00  0.00    -0.323 N 
ATOM     16  C   UNL     1       1.824  -0.300  -2.679  1.00  0.00     0.248 C 
ATOM     17  O   UNL     1       1.898  -0.457  -3.899  1.00  0.00    -0.270 OA
ATOM     18  H   UNL     1       2.487   1.577  -2.778  1.00  0.00     0.170 HD
BRANCH  16  19
ATOM     19  C   UNL     1       1.200  -1.385  -1.866  1.00  0.00     0.070 C 
ATOM     20  C   UNL     1      -0.444  -0.081  -0.412  1.00  0.00     0.039 C 
ATOM     21  C   UNL     1       0.227  -1.322  -0.931  1.00  0.00    -0.071 C 
ATOM     22  C   UNL     1      -0.339  -2.592  -0.344  1.00  0.00     0.039 C 
ENDBRANCH  16  19
ENDBRANCH  10  15
ENDBRANCH   6   9
ENDBRANCH   4   5
ENDBRANCH   3   4
ENDBRANCH   2   3
ENDBRANCH   1   2
BRANCH   1  23
ATOM     23  C   UNL     1       1.446  -3.437   6.327  1.00  0.00     0.021 C 
BRANCH  23  24
ATOM     24  C   UNL     1       2.749  -4.092   6.779  1.00  0.00     0.116 C 
BRANCH  24  25
ATOM     25  N   UNL     1       2.832  -4.181   8.229  1.00  0.00    -0.352 N 
ATOM     26  C   UNL     1       2.913  -5.294   9.031  1.00  0.00     0.251 C 
ATOM     27  H   UNL     1       2.830  -3.319   8.704  1.00  0.00     0.163 HD
ATOM     28  O   UNL     1       2.731  -5.192  10.238  1.00  0.00    -0.269 OA
BRANCH  26  29
ATOM     29  C   UNL     1       3.196  -6.613   8.424  1.00  0.00     0.039 A 
ATOM     30  C   UNL     1       2.429  -7.716   8.806  1.00  0.00     0.014 A 
ATOM     31  C   UNL     1       4.211  -6.758   7.473  1.00  0.00     0.014 A 
ATOM     32  C   UNL     1       2.626  -8.946   8.175  1.00  0.00     0.010 A 
ATOM     33  C   UNL     1       4.358  -7.966   6.797  1.00  0.00     0.010 A 
ATOM     34  C   UNL     1       3.559  -9.070   7.133  1.00  0.00    -0.014 A 
BRANCH  34  35
ATOM     35  C   UNL     1       3.691 -10.332   6.358  1.00  0.00     0.031 A 
ATOM     36  C   UNL     1       4.979 -11.107   6.383  1.00  0.00     0.074 A 
ATOM     37  C   UNL     1       2.671 -10.737   5.575  1.00  0.00     0.049 A 
ATOM     38  N   UNL     1       5.317 -12.169   5.699  1.00  0.00    -0.248 NA
ATOM     39  C   UNL     1       6.032 -10.604   7.276  1.00  0.00     0.031 C 
ATOM     40  C   UNL     1       1.381 -10.053   5.449  1.00  0.00     0.029 A 
ATOM     41  N   UNL     1       2.558 -11.812   4.728  1.00  0.00    -0.354 N 
ATOM     42  C   UNL     1       6.625 -12.460   6.073  1.00  0.00     0.074 A 
ATOM     43  C   UNL     1       7.034 -11.425   7.000  1.00  0.00     0.031 C 
ATOM     44  C   UNL     1       0.603 -10.735   4.594  1.00  0.00     0.029 A 
ATOM     45  C   UNL     1       1.353 -11.869   4.064  1.00  0.00     0.049 A 
ATOM     46  H   UNL     1       3.271 -12.479   4.606  1.00  0.00     0.167 HD
ATOM     47  C   UNL     1       7.402 -13.505   5.692  1.00  0.00     0.034 A 
ATOM     48  C   UNL     1       0.911 -12.721   3.117  1.00  0.00     0.034 A 
ATOM     49  C   UNL     1       6.976 -14.527   4.767  1.00  0.00     0.049 A 
ATOM     50  C   UNL     1       1.820 -13.834   2.661  1.00  0.00     0.074 A 
ATOM     51  C   UNL     1       7.662 -15.657   4.356  1.00  0.00     0.029 A 
ATOM     52  N   UNL     1       5.761 -14.536   4.093  1.00  0.00    -0.354 N 
ATOM     53  N   UNL     1       3.035 -14.127   3.066  1.00  0.00    -0.248 NA
ATOM     54  C   UNL     1       1.299 -14.732   1.622  1.00  0.00     0.031 C 
ATOM     55  C   UNL     1       6.901 -16.300   3.375  1.00  0.00     0.029 A 
ATOM     56  C   UNL     1       5.700 -15.623   3.234  1.00  0.00     0.049 A 
ATOM     57  H   UNL     1       5.047 -13.868   4.208  1.00  0.00     0.167 HD
ATOM     58  C   UNL     1       3.412 -15.257   2.345  1.00  0.00     0.074 A 
ATOM     59  C   UNL     1       2.288 -15.604   1.500  1.00  0.00     0.031 C 
ATOM     60  C   UNL     1       4.581 -15.946   2.378  1.00  0.00     0.034 A 
BRANCH  47  61
ATOM     61  C   UNL     1       8.804 -13.573   6.253  1.00  0.00     0.023 A 
ATOM     62  C   UNL     1       9.043 -13.709   7.632  1.00  0.00     0.031 A 
ATOM     63  C   UNL     1       9.918 -13.485   5.400  1.00  0.00     0.131 A 
ATOM     64  C   UNL     1      10.357 -13.678   8.123  1.00  0.00     0.055 A 
ATOM     65  C   UNL     1      11.226 -13.541   5.886  1.00  0.00     0.041 A 
ATOM     66  F   UNL     1       9.755 -13.331   4.076  1.00  0.00    -0.206 F 
ATOM     67  C   UNL     1      11.451 -13.623   7.257  1.00  0.00     0.022 A 
BRANCH  64  68
ATOM     68  S   UNL     1      10.608 -13.560   9.915  1.00  0.00     0.124 S 
ATOM     69  O   UNL     1       9.877 -12.337  10.235  1.00  0.00    -0.237 OA
ATOM     70  O   UNL     1      10.018 -14.803  10.398  1.00  0.00    -0.237 OA
ATOM     71  O   UNL     1      12.060 -13.463  10.051  1.00  0.00    -0.744 OA
ENDBRANCH  64  68
ENDBRANCH  47  61
BRANCH  48  72
ATOM     72  C   UNL     1      -0.439 -12.542   2.508  1.00  0.00     0.023 A 
ATOM     73  C   UNL     1      -1.429 -13.528   2.643  1.00  0.00     0.031 A 
ATOM     74  C   UNL     1      -0.745 -11.403   1.741  1.00  0.00     0.131 A 
ATOM     75  C   UNL     1      -2.658 -13.381   1.981  1.00  0.00     0.055 A 
ATOM     76  C   UNL     1      -1.991 -11.233   1.135  1.00  0.00     0.041 A 
ATOM     77  F   UNL     1       0.164 -10.428   1.578  1.00  0.00    -0.206 F 
ATOM     78  C   UNL     1      -2.952 -12.233   1.242  1.00  0.00     0.022 A 
BRANCH  75  79
ATOM     79  S   UNL     1      -3.835 -14.760   2.020  1.00  0.00     0.124 S 
ATOM     80  O   UNL     1      -3.044 -15.841   1.442  1.00  0.00    -0.237 OA
ATOM     81  O   UNL     1      -4.127 -14.868   3.445  1.00  0.00    -0.237 OA
ATOM     82  O   UNL     1      -4.942 -14.285   1.193  1.00  0.00    -0.744 OA
ENDBRANCH  75  79
ENDBRANCH  48  72
BRANCH  60  83
ATOM     83  C   UNL     1       4.689 -17.161   1.488  1.00  0.00     0.023 A 
ATOM     84  C   UNL     1       4.691 -17.049   0.086  1.00  0.00     0.031 A 
ATOM     85  C   UNL     1       4.790 -18.447   2.048  1.00  0.00     0.131 A 
ATOM     86  C   UNL     1       4.738 -18.204  -0.708  1.00  0.00     0.055 A 
ATOM     87  C   UNL     1       4.904 -19.588   1.253  1.00  0.00     0.041 A 
ATOM     88  F   UNL     1       4.788 -18.615   3.380  1.00  0.00    -0.206 F 
ATOM     89  C   UNL     1       4.866 -19.472  -0.134  1.00  0.00     0.022 A 
BRANCH  86  90
ATOM     90  S   UNL     1       4.540 -18.036  -2.503  1.00  0.00     0.124 S 
ATOM     91  O   UNL     1       3.223 -17.416  -2.604  1.00  0.00    -0.237 OA
ATOM     92  O   UNL     1       5.673 -17.191  -2.865  1.00  0.00    -0.237 OA
ATOM     93  O   UNL     1       4.616 -19.413  -2.987  1.00  0.00    -0.744 OA
ENDBRANCH  86  90
ENDBRANCH  60  83
ENDBRANCH  34  35
ENDBRANCH  26  29
ENDBRANCH  24  25
ENDBRANCH  23  24
ENDBRANCH   1  23
TORSDOF 18
