REMARK SMILES Cc1cccc(C[NH2+]Cc2c(C(=O)NCCCCCCNC(=O)c3ccc(-c4c5nc(c(-c6cc(S(=O)(=O)[O-])ccc6F)c6ccc([nH]6)c(-c6cc(S(=O)(=O)[O-])ccc6F)c6nc(c(-c7cc(S(=O)(=O)[O-])ccc7F)c7ccc4[nH]7)C=C6)C=C5)cc3)c(C)n(Cc3cccc(F)c3)c2C)c1
REMARK SMILES IDX 17 1 16 2 15 3 14 4 12 5 13 6 11 8 10 9 98 10 87 11 89 12
REMARK SMILES IDX 99 13 88 14 9 15 8 16 7 19 6 20 1 21 2 22 3 23 100 24 4 25
REMARK SMILES IDX 5 26 90 27 91 28 92 29 97 30 93 31 95 32 94 33 96 34 18 35
REMARK SMILES IDX 19 36 20 37 21 38 22 39 23 41 24 42 25 43 86 44 26 45 85 46
REMARK SMILES IDX 27 47 28 48 29 49 79 50 30 51 84 52 78 53 80 54 31 55 83 56
REMARK SMILES IDX 77 57 76 58 32 60 64 61 44 62 63 63 45 64 48 65 62 66 81 67
REMARK SMILES IDX 46 68 47 69 61 71 82 72 49 73 33 74 34 75 42 76 35 77 41 78
REMARK SMILES IDX 43 79 40 80 36 81 37 82 38 83 39 84 65 85 66 86 74 87 67 88
REMARK SMILES IDX 73 89 75 90 72 91 68 92 69 93 70 94 71 95 50 96 51 97 59 98
REMARK SMILES IDX 52 99 58 100 60 101 57 102 53 103 54 104 55 105 56 106
REMARK H PARENT 14 7 8 17 8 18 21 40 80 59 48 70
REMARK Flexibility Score: inf
ROOT
ATOM      1  C   UNL     1      -7.835   5.743  -0.181  1.00  0.00     0.002 C 
ENDROOT
BRANCH   1   2
ATOM      2  C   UNL     1      -6.396   5.215  -0.323  1.00  0.00     0.021 C 
BRANCH   2   3
ATOM      3  C   UNL     1      -5.608   5.844  -1.477  1.00  0.00     0.116 C 
BRANCH   3   4
ATOM      4  N   UNL     1      -4.872   6.995  -1.022  1.00  0.00    -0.352 N 
ATOM      5  C   UNL     1      -3.575   7.360  -0.827  1.00  0.00     0.253 C 
ATOM      6  O   UNL     1      -3.486   8.546  -0.482  1.00  0.00    -0.269 OA
ATOM      7  H   UNL     1      -5.482   7.729  -0.783  1.00  0.00     0.163 HD
BRANCH   5   8
ATOM      8  C   UNL     1      -2.341   6.542  -1.026  1.00  0.00     0.069 A 
ATOM      9  C   UNL     1      -2.015   5.108  -0.986  1.00  0.00     0.040 A 
ATOM     10  C   UNL     1      -0.624   5.011  -1.157  1.00  0.00     0.025 A 
ATOM     11  C   UNL     1      -1.109   7.206  -1.204  1.00  0.00     0.028 A 
ATOM     12  N   UNL     1      -0.114   6.276  -1.383  1.00  0.00    -0.343 N 
ATOM     13  C   UNL     1       0.293   3.835  -1.073  1.00  0.00     0.065 C 
ATOM     14  C   UNL     1      -0.856   8.689  -1.196  1.00  0.00     0.065 C 
BRANCH   9  15
ATOM     15  C   UNL     1      -3.016   3.990  -0.760  1.00  0.00     0.300 C 
BRANCH  15  16
ATOM     16  N   UNL     1      -2.523   2.625  -0.659  1.00  0.00    -0.339 N 
ATOM     17  H   UNL     1      -3.284   2.001  -0.927  1.00  0.00     0.346 HD
ATOM     18  H   UNL     1      -1.706   2.589  -1.269  1.00  0.00     0.346 HD
BRANCH  16  19
ATOM     19  C   UNL     1      -2.043   2.198   0.646  1.00  0.00     0.297 C 
BRANCH  19  20
ATOM     20  C   UNL     1      -1.283   0.887   0.503  1.00  0.00     0.006 A 
ATOM     21  C   UNL     1       2.342  -0.292   0.284  1.00  0.00     0.044 C 
ATOM     22  C   UNL     1       0.843  -0.308   0.281  1.00  0.00    -0.051 A 
ATOM     23  C   UNL     1       0.145  -1.481  -0.017  1.00  0.00     0.003 A 
ATOM     24  C   UNL     1       0.118   0.853   0.585  1.00  0.00     0.013 A 
ATOM     25  C   UNL     1      -1.250  -1.479  -0.049  1.00  0.00     0.001 A 
ATOM     26  C   UNL     1      -1.959  -0.300   0.193  1.00  0.00     0.009 A 
ENDBRANCH  19  20
ENDBRANCH  16  19
ENDBRANCH  15  16
ENDBRANCH   9  15
BRANCH  12  27
ATOM     27  C   UNL     1       1.305   6.571  -1.649  1.00  0.00     0.157 C 
BRANCH  27  28
ATOM     28  C   UNL     1       1.862   5.928  -2.904  1.00  0.00    -0.025 A 
ATOM     29  C   UNL     1       3.226   5.580  -2.938  1.00  0.00     0.006 A 
ATOM     30  C   UNL     1       1.068   5.643  -4.024  1.00  0.00     0.044 A 
ATOM     31  C   UNL     1       3.765   4.903  -4.034  1.00  0.00     0.003 A 
ATOM     32  C   UNL     1       1.613   4.958  -5.105  1.00  0.00     0.123 A 
ATOM     33  C   UNL     1       2.950   4.579  -5.115  1.00  0.00     0.039 A 
ATOM     34  F   UNL     1       0.833   4.642  -6.147  1.00  0.00    -0.207 F 
ENDBRANCH  27  28
ENDBRANCH  12  27
ENDBRANCH   5   8
ENDBRANCH   3   4
ENDBRANCH   2   3
ENDBRANCH   1   2
BRANCH   1  35
ATOM     35  C   UNL     1      -8.740   5.592  -1.417  1.00  0.00     0.002 C 
BRANCH  35  36
ATOM     36  C   UNL     1      -8.723   4.221  -2.092  1.00  0.00     0.021 C 
BRANCH  36  37
ATOM     37  C   UNL     1      -9.389   3.127  -1.263  1.00  0.00     0.116 C 
BRANCH  37  38
ATOM     38  N   UNL     1     -10.671   2.690  -1.805  1.00  0.00    -0.352 N 
ATOM     39  C   UNL     1     -11.517   1.692  -1.347  1.00  0.00     0.251 C 
ATOM     40  H   UNL     1     -10.979   3.171  -2.607  1.00  0.00     0.163 HD
ATOM     41  O   UNL     1     -12.539   1.396  -1.933  1.00  0.00    -0.269 OA
BRANCH  39  42
ATOM     42  C   UNL     1     -11.210   1.075  -0.034  1.00  0.00     0.039 A 
ATOM     43  C   UNL     1     -12.176   1.217   0.969  1.00  0.00     0.014 A 
ATOM     44  C   UNL     1      -9.929   0.620   0.266  1.00  0.00     0.014 A 
ATOM     45  C   UNL     1     -11.786   1.135   2.301  1.00  0.00     0.010 A 
ATOM     46  C   UNL     1      -9.523   0.615   1.587  1.00  0.00     0.010 A 
ATOM     47  C   UNL     1     -10.434   0.951   2.596  1.00  0.00    -0.014 A 
BRANCH  47  48
ATOM     48  C   UNL     1      -9.874   1.270   3.906  1.00  0.00     0.031 A 
ATOM     49  C   UNL     1      -9.475   0.202   4.842  1.00  0.00     0.074 A 
ATOM     50  C   UNL     1      -9.739   2.564   4.272  1.00  0.00     0.049 A 
ATOM     51  N   UNL     1      -9.382   0.349   6.121  1.00  0.00    -0.248 NA
ATOM     52  C   UNL     1      -9.242  -1.169   4.407  1.00  0.00     0.031 C 
ATOM     53  C   UNL     1      -9.030   3.092   5.433  1.00  0.00     0.029 A 
ATOM     54  N   UNL     1     -10.466   3.648   3.785  1.00  0.00    -0.354 N 
ATOM     55  C   UNL     1      -8.821  -0.793   6.644  1.00  0.00     0.074 A 
ATOM     56  C   UNL     1      -8.876  -1.740   5.558  1.00  0.00     0.031 C 
ATOM     57  C   UNL     1      -9.532   4.300   5.733  1.00  0.00     0.029 A 
ATOM     58  C   UNL     1     -10.665   4.534   4.855  1.00  0.00     0.049 A 
ATOM     59  H   UNL     1     -10.782   3.770   2.861  1.00  0.00     0.167 HD
ATOM     60  C   UNL     1      -8.264  -0.743   7.889  1.00  0.00     0.034 A 
ATOM     61  C   UNL     1     -11.923   4.863   5.267  1.00  0.00     0.034 A 
ATOM     62  C   UNL     1      -8.657   0.490   8.589  1.00  0.00     0.049 A 
ATOM     63  C   UNL     1     -12.222   4.452   6.692  1.00  0.00     0.074 A 
ATOM     64  C   UNL     1      -7.996   1.668   8.894  1.00  0.00     0.029 A 
ATOM     65  N   UNL     1     -10.006   0.722   8.858  1.00  0.00    -0.354 N 
ATOM     66  N   UNL     1     -11.494   3.623   7.389  1.00  0.00    -0.248 NA
ATOM     67  C   UNL     1     -13.383   4.934   7.434  1.00  0.00     0.031 C 
ATOM     68  C   UNL     1      -8.972   2.636   9.262  1.00  0.00     0.029 A 
ATOM     69  C   UNL     1     -10.220   2.038   9.223  1.00  0.00     0.049 A 
ATOM     70  H   UNL     1     -10.712   0.038   8.797  1.00  0.00     0.167 HD
ATOM     71  C   UNL     1     -12.076   3.416   8.615  1.00  0.00     0.074 A 
ATOM     72  C   UNL     1     -13.235   4.294   8.606  1.00  0.00     0.031 C 
ATOM     73  C   UNL     1     -11.567   2.523   9.520  1.00  0.00     0.034 A 
BRANCH  60  74
ATOM     74  C   UNL     1      -7.160  -1.669   8.399  1.00  0.00     0.023 A 
ATOM     75  C   UNL     1      -6.404  -1.276   9.530  1.00  0.00     0.031 A 
ATOM     76  C   UNL     1      -6.715  -2.863   7.790  1.00  0.00     0.131 A 
ATOM     77  C   UNL     1      -5.264  -1.995   9.952  1.00  0.00     0.055 A 
ATOM     78  C   UNL     1      -5.584  -3.577   8.208  1.00  0.00     0.041 A 
ATOM     79  F   UNL     1      -7.339  -3.429   6.757  1.00  0.00    -0.206 F 
ATOM     80  C   UNL     1      -4.842  -3.140   9.287  1.00  0.00     0.022 A 
BRANCH  77  81
ATOM     81  S   UNL     1      -4.293  -1.396  11.365  1.00  0.00     0.124 S 
ATOM     82  O   UNL     1      -3.870  -0.076  10.911  1.00  0.00    -0.237 OA
ATOM     83  O   UNL     1      -5.269  -1.431  12.448  1.00  0.00    -0.237 OA
ATOM     84  O   UNL     1      -3.216  -2.380  11.478  1.00  0.00    -0.744 OA
ENDBRANCH  77  81
ENDBRANCH  60  74
BRANCH  61  85
ATOM     85  C   UNL     1     -12.912   4.933   4.154  1.00  0.00     0.023 A 
ATOM     86  C   UNL     1     -12.654   5.860   3.120  1.00  0.00     0.031 A 
ATOM     87  C   UNL     1     -13.832   3.909   3.901  1.00  0.00     0.131 A 
ATOM     88  C   UNL     1     -13.188   5.662   1.840  1.00  0.00     0.055 A 
ATOM     89  C   UNL     1     -14.409   3.747   2.634  1.00  0.00     0.041 A 
ATOM     90  F   UNL     1     -14.091   2.977   4.830  1.00  0.00    -0.206 F 
ATOM     91  C   UNL     1     -14.055   4.598   1.586  1.00  0.00     0.022 A 
BRANCH  88  92
ATOM     92  S   UNL     1     -12.542   6.644   0.452  1.00  0.00     0.124 S 
ATOM     93  O   UNL     1     -13.523   7.719   0.356  1.00  0.00    -0.237 OA
ATOM     94  O   UNL     1     -11.213   7.037   0.915  1.00  0.00    -0.237 OA
ATOM     95  O   UNL     1     -12.535   5.692  -0.657  1.00  0.00    -0.744 OA
ENDBRANCH  88  92
ENDBRANCH  61  85
BRANCH  73  96
ATOM     96  C   UNL     1     -12.253   2.083  10.803  1.00  0.00     0.023 A 
ATOM     97  C   UNL     1     -13.620   2.272  11.060  1.00  0.00     0.031 A 
ATOM     98  C   UNL     1     -11.541   1.380  11.806  1.00  0.00     0.131 A 
ATOM     99  C   UNL     1     -14.200   1.876  12.281  1.00  0.00     0.055 A 
ATOM    100  C   UNL     1     -12.136   0.912  12.983  1.00  0.00     0.041 A 
ATOM    101  F   UNL     1     -10.233   1.108  11.684  1.00  0.00    -0.206 F 
ATOM    102  C   UNL     1     -13.472   1.177  13.238  1.00  0.00     0.022 A 
BRANCH  99 103
ATOM    103  S   UNL     1     -15.914   2.364  12.617  1.00  0.00     0.124 S 
ATOM    104  O   UNL     1     -15.824   3.821  12.581  1.00  0.00    -0.237 OA
ATOM    105  O   UNL     1     -16.639   1.746  11.511  1.00  0.00    -0.237 OA
ATOM    106  O   UNL     1     -16.185   1.793  13.935  1.00  0.00    -0.744 OA
ENDBRANCH  99 103
ENDBRANCH  73  96
ENDBRANCH  47  48
ENDBRANCH  39  42
ENDBRANCH  37  38
ENDBRANCH  36  37
ENDBRANCH  35  36
ENDBRANCH   1  35
TORSDOF 22
