REMARK SMILES CCC[C@@]1(C(=O)N[C@@](C)(C(=O)NCCCCCCNC(=O)c2ccc(-c3c4nc(c(-c5cc(S(=O)(=O)[O-])ccc5F)c5ccc([nH]5)c(-c5cc(S(=O)(=O)[O-])ccc5F)c5nc(c(-c6cc(S(=O)(=O)[O-])ccc6F)c6ccc3[nH]6)C=C5)C=C4)cc2)C(F)(F)F)CC[NH2+]C1
REMARK SMILES IDX 15 1 14 2 13 3 12 4 10 5 11 6 8 8 9 9 7 10 5 11 6 12 4 14
REMARK SMILES IDX 89 15 92 16 90 17 91 18 3 21 2 22 1 23 85 24 86 25 87 26
REMARK SMILES IDX 88 27 16 28 17 29 18 30 19 31 20 32 21 34 22 35 23 36 84 37
REMARK SMILES IDX 24 38 83 39 25 40 26 41 27 42 77 43 28 44 82 45 76 46 78 47
REMARK SMILES IDX 29 48 81 49 75 50 74 51 30 53 62 54 42 55 61 56 43 57 46 58
REMARK SMILES IDX 60 59 79 60 44 61 45 62 59 64 80 65 47 66 31 67 32 68 40 69
REMARK SMILES IDX 33 70 39 71 41 72 38 73 34 74 35 75 36 76 37 77 63 78 64 79
REMARK SMILES IDX 72 80 65 81 71 82 73 83 70 84 66 85 67 86 68 87 69 88 48 89
REMARK SMILES IDX 49 90 57 91 50 92 56 93 58 94 55 95 51 96 52 97 53 98 54 99
REMARK H PARENT 12 7 7 13 91 19 91 20 19 33 78 52 46 63
REMARK Flexibility Score: inf
ROOT
ATOM      1  C   UNL     1       5.329  -0.887   3.419  1.00  0.00     0.002 C 
ENDROOT
BRANCH   1   2
ATOM      2  C   UNL     1       4.434   0.351   3.289  1.00  0.00     0.021 C 
BRANCH   2   3
ATOM      3  C   UNL     1       4.875   1.351   2.226  1.00  0.00     0.116 C 
BRANCH   3   4
ATOM      4  N   UNL     1       4.923   0.716   0.928  1.00  0.00    -0.354 N 
ATOM      5  C   UNL     1       4.466   1.069  -0.297  1.00  0.00     0.254 C 
ATOM      6  O   UNL     1       4.398   0.129  -1.096  1.00  0.00    -0.272 OA
ATOM      7  H   UNL     1       5.383  -0.154   0.936  1.00  0.00     0.163 HD
BRANCH   5   8
ATOM      8  C   UNL     1       3.963   2.486  -0.642  1.00  0.00     0.212 C 
ATOM      9  C   UNL     1       4.844   3.617  -0.061  1.00  0.00     0.056 C 
BRANCH   8  10
ATOM     10  N   UNL     1       2.598   2.616   0.019  1.00  0.00    -0.334 N 
ATOM     11  C   UNL     1       1.265   2.640  -0.193  1.00  0.00     0.233 C 
ATOM     12  O   UNL     1       0.614   2.589   0.861  1.00  0.00    -0.274 OA
ATOM     13  H   UNL     1       2.747   2.726   0.986  1.00  0.00     0.164 HD
BRANCH  11  14
ATOM     14  C   UNL     1       0.533   2.712  -1.539  1.00  0.00     0.103 C 
ATOM     15  C   UNL     1       0.735   1.391  -2.288  1.00  0.00     0.084 C 
ATOM     16  C   UNL     1       1.159   3.763  -2.437  1.00  0.00     0.277 C 
ATOM     17  C   UNL     1       0.866   1.796  -3.746  1.00  0.00     0.261 C 
ATOM     18  N   UNL     1       1.249   3.208  -3.784  1.00  0.00    -0.345 N 
ATOM     19  H   UNL     1       0.621   3.716  -4.406  1.00  0.00     0.346 HD
ATOM     20  H   UNL     1       2.205   3.296  -4.128  1.00  0.00     0.346 HD
BRANCH  14  21
ATOM     21  C   UNL     1      -1.019   2.917  -1.359  1.00  0.00     0.023 C 
BRANCH  21  22
ATOM     22  C   UNL     1      -1.565   4.355  -1.303  1.00  0.00    -0.002 C 
ATOM     23  C   UNL     1      -1.992   4.890  -2.671  1.00  0.00     0.004 C 
ENDBRANCH  21  22
ENDBRANCH  14  21
ENDBRANCH  11  14
ENDBRANCH   8  10
BRANCH   8  24
ATOM     24  C   UNL     1       4.228   2.549  -2.174  1.00  0.00     0.420 C 
ATOM     25  F   UNL     1       3.486   1.708  -2.908  1.00  0.00    -0.168 F 
ATOM     26  F   UNL     1       4.069   3.803  -2.663  1.00  0.00    -0.168 F 
ATOM     27  F   UNL     1       5.534   2.249  -2.439  1.00  0.00    -0.168 F 
ENDBRANCH   8  24
ENDBRANCH   5   8
ENDBRANCH   3   4
ENDBRANCH   2   3
ENDBRANCH   1   2
BRANCH   1  28
ATOM     28  C   UNL     1       6.829  -0.601   3.538  1.00  0.00     0.002 C 
BRANCH  28  29
ATOM     29  C   UNL     1       7.211   0.395   4.633  1.00  0.00     0.021 C 
BRANCH  29  30
ATOM     30  C   UNL     1       6.651   0.059   6.005  1.00  0.00     0.116 C 
BRANCH  30  31
ATOM     31  N   UNL     1       7.152  -1.211   6.497  1.00  0.00    -0.352 N 
ATOM     32  C   UNL     1       7.722  -1.479   7.714  1.00  0.00     0.251 C 
ATOM     33  H   UNL     1       7.072  -1.974   5.880  1.00  0.00     0.163 HD
ATOM     34  O   UNL     1       8.301  -2.547   7.901  1.00  0.00    -0.269 OA
BRANCH  32  35
ATOM     35  C   UNL     1       7.652  -0.457   8.778  1.00  0.00     0.039 A 
ATOM     36  C   UNL     1       8.799  -0.166   9.517  1.00  0.00     0.014 A 
ATOM     37  C   UNL     1       6.457   0.228   9.023  1.00  0.00     0.014 A 
ATOM     38  C   UNL     1       8.754   0.839  10.484  1.00  0.00     0.010 A 
ATOM     39  C   UNL     1       6.442   1.291   9.917  1.00  0.00     0.010 A 
ATOM     40  C   UNL     1       7.582   1.589  10.678  1.00  0.00    -0.014 A 
BRANCH  40  41
ATOM     41  C   UNL     1       7.511   2.649  11.715  1.00  0.00     0.031 A 
ATOM     42  C   UNL     1       6.553   2.500  12.866  1.00  0.00     0.074 A 
ATOM     43  C   UNL     1       8.270   3.755  11.599  1.00  0.00     0.049 A 
ATOM     44  N   UNL     1       6.306   3.323  13.853  1.00  0.00    -0.248 NA
ATOM     45  C   UNL     1       5.738   1.276  12.888  1.00  0.00     0.031 C 
ATOM     46  C   UNL     1       9.211   4.024  10.510  1.00  0.00     0.029 A 
ATOM     47  N   UNL     1       8.375   4.857  12.409  1.00  0.00    -0.354 N 
ATOM     48  C   UNL     1       5.295   2.725  14.599  1.00  0.00     0.074 A 
ATOM     49  C   UNL     1       4.924   1.513  13.903  1.00  0.00     0.031 C 
ATOM     50  C   UNL     1       9.830   5.192  10.745  1.00  0.00     0.029 A 
ATOM     51  C   UNL     1       9.297   5.778  11.971  1.00  0.00     0.049 A 
ATOM     52  H   UNL     1       7.840   4.977  13.226  1.00  0.00     0.167 HD
ATOM     53  C   UNL     1       4.748   3.135  15.770  1.00  0.00     0.034 A 
ATOM     54  C   UNL     1       9.668   6.961  12.499  1.00  0.00     0.034 A 
ATOM     55  C   UNL     1       5.143   4.345  16.451  1.00  0.00     0.049 A 
ATOM     56  C   UNL     1       9.022   7.418  13.782  1.00  0.00     0.074 A 
ATOM     57  C   UNL     1       4.703   4.832  17.669  1.00  0.00     0.029 A 
ATOM     58  N   UNL     1       6.064   5.266  15.965  1.00  0.00    -0.354 N 
ATOM     59  N   UNL     1       8.105   6.819  14.508  1.00  0.00    -0.248 NA
ATOM     60  C   UNL     1       9.472   8.706  14.323  1.00  0.00     0.031 C 
ATOM     61  C   UNL     1       5.290   6.085  17.876  1.00  0.00     0.029 A 
ATOM     62  C   UNL     1       6.173   6.338  16.839  1.00  0.00     0.049 A 
ATOM     63  H   UNL     1       6.566   5.172  15.124  1.00  0.00     0.167 HD
ATOM     64  C   UNL     1       7.901   7.639  15.614  1.00  0.00     0.074 A 
ATOM     65  C   UNL     1       8.794   8.770  15.460  1.00  0.00     0.031 C 
ATOM     66  C   UNL     1       7.061   7.467  16.668  1.00  0.00     0.034 A 
BRANCH  53  67
ATOM     67  C   UNL     1       3.640   2.284  16.352  1.00  0.00     0.023 A 
ATOM     68  C   UNL     1       3.838   0.931  16.684  1.00  0.00     0.031 A 
ATOM     69  C   UNL     1       2.348   2.813  16.515  1.00  0.00     0.131 A 
ATOM     70  C   UNL     1       2.746   0.131  17.052  1.00  0.00     0.055 A 
ATOM     71  C   UNL     1       1.286   2.036  16.983  1.00  0.00     0.041 A 
ATOM     72  F   UNL     1       2.085   4.090  16.196  1.00  0.00    -0.206 F 
ATOM     73  C   UNL     1       1.476   0.680  17.232  1.00  0.00     0.022 A 
BRANCH  70  74
ATOM     74  S   UNL     1       2.971  -1.669  17.092  1.00  0.00     0.124 S 
ATOM     75  O   UNL     1       3.457  -1.935  15.739  1.00  0.00    -0.237 OA
ATOM     76  O   UNL     1       3.942  -1.842  18.166  1.00  0.00    -0.237 OA
ATOM     77  O   UNL     1       1.629  -2.176  17.372  1.00  0.00    -0.744 OA
ENDBRANCH  70  74
ENDBRANCH  53  67
BRANCH  54  78
ATOM     78  C   UNL     1      10.714   7.787  11.832  1.00  0.00     0.023 A 
ATOM     79  C   UNL     1      11.946   8.030  12.461  1.00  0.00     0.031 A 
ATOM     80  C   UNL     1      10.493   8.365  10.570  1.00  0.00     0.131 A 
ATOM     81  C   UNL     1      12.893   8.863  11.846  1.00  0.00     0.055 A 
ATOM     82  C   UNL     1      11.460   9.149   9.938  1.00  0.00     0.041 A 
ATOM     83  F   UNL     1       9.335   8.159   9.923  1.00  0.00    -0.206 F 
ATOM     84  C   UNL     1      12.665   9.412  10.582  1.00  0.00     0.022 A 
BRANCH  81  85
ATOM     85  S   UNL     1      14.405   9.279  12.757  1.00  0.00     0.124 S 
ATOM     86  O   UNL     1      13.865   9.933  13.944  1.00  0.00    -0.237 OA
ATOM     87  O   UNL     1      15.006   7.966  12.964  1.00  0.00    -0.237 OA
ATOM     88  O   UNL     1      15.127  10.153  11.835  1.00  0.00    -0.744 OA
ENDBRANCH  81  85
ENDBRANCH  54  78
BRANCH  66  89
ATOM     89  C   UNL     1       7.117   8.501  17.770  1.00  0.00     0.023 A 
ATOM     90  C   UNL     1       6.746   9.840  17.558  1.00  0.00     0.031 A 
ATOM     91  C   UNL     1       7.563   8.135  19.053  1.00  0.00     0.131 A 
ATOM     92  C   UNL     1       6.889  10.777  18.593  1.00  0.00     0.055 A 
ATOM     93  C   UNL     1       7.634   9.056  20.099  1.00  0.00     0.041 A 
ATOM     94  F   UNL     1       7.936   6.872  19.314  1.00  0.00    -0.206 F 
ATOM     95  C   UNL     1       7.311  10.390  19.867  1.00  0.00     0.022 A 
BRANCH  92  96
ATOM     96  S   UNL     1       6.627  12.533  18.220  1.00  0.00     0.124 S 
ATOM     97  O   UNL     1       7.579  12.758  17.137  1.00  0.00    -0.237 OA
ATOM     98  O   UNL     1       5.217  12.566  17.847  1.00  0.00    -0.237 OA
ATOM     99  O   UNL     1       6.951  13.203  19.479  1.00  0.00    -0.744 OA
ENDBRANCH  92  96
ENDBRANCH  66  89
ENDBRANCH  40  41
ENDBRANCH  32  35
ENDBRANCH  30  31
ENDBRANCH  29  30
ENDBRANCH  28  29
ENDBRANCH   1  28
TORSDOF 21
