REMARK SMILES CC(C)(C[S@](=O)c1cccc(Cl)c1)C(=O)NCCCCCCNC(=O)c1ccc(-c2c3nc(c(-c4cc(S(=O)(=O)[O-])ccc4F)c4ccc([nH]4)c(-c4cc(S(=O)(=O)[O-])ccc4F)c4nc(c(-c5cc(S(=O)(=O)[O-])ccc5F)c5ccc2[nH]5)C=C4)C=C3)cc1
REMARK SMILES IDX 19 1 18 2 17 3 16 4 14 5 15 6 2 8 1 9 3 10 4 11 5 12 6 13
REMARK SMILES IDX 7 14 8 15 13 16 9 17 11 18 10 19 12 20 20 21 21 22 22 23
REMARK SMILES IDX 23 24 24 25 25 27 26 28 27 29 88 30 28 31 87 32 29 33 30 34
REMARK SMILES IDX 31 35 81 36 32 37 86 38 80 39 82 40 33 41 85 42 79 43 78 44
REMARK SMILES IDX 34 46 66 47 46 48 65 49 47 50 50 51 64 52 83 53 48 54 49 55
REMARK SMILES IDX 63 57 84 58 51 59 35 60 36 61 44 62 37 63 43 64 45 65 42 66
REMARK SMILES IDX 38 67 39 68 40 69 41 70 67 71 68 72 76 73 69 74 75 75 77 76
REMARK SMILES IDX 74 77 70 78 71 79 72 80 73 81 52 82 53 83 61 84 54 85 60 86
REMARK SMILES IDX 62 87 59 88 55 89 56 90 57 91 58 92
REMARK H PARENT 16 7 23 26 82 45 50 56
REMARK Flexibility Score: inf
ROOT
ATOM      1  C   UNL     1      -3.462  -0.452   5.114  1.00  0.00     0.002 C 
ENDROOT
BRANCH   1   2
ATOM      2  C   UNL     1      -3.720  -1.332   3.888  1.00  0.00     0.021 C 
BRANCH   2   3
ATOM      3  C   UNL     1      -4.651  -0.728   2.840  1.00  0.00     0.116 C 
BRANCH   3   4
ATOM      4  N   UNL     1      -4.078   0.426   2.180  1.00  0.00    -0.356 N 
ATOM      5  C   UNL     1      -3.877   0.738   0.874  1.00  0.00     0.226 C 
ATOM      6  O   UNL     1      -3.481   1.887   0.643  1.00  0.00    -0.274 OA
ATOM      7  H   UNL     1      -3.772   1.124   2.804  1.00  0.00     0.163 HD
BRANCH   5   8
ATOM      8  C   UNL     1      -4.182  -0.240  -0.280  1.00  0.00     0.055 C 
ATOM      9  C   UNL     1      -3.875   0.471  -1.621  1.00  0.00     0.022 C 
ATOM     10  C   UNL     1      -5.706  -0.505  -0.323  1.00  0.00     0.022 C 
BRANCH   8  11
ATOM     11  C   UNL     1      -3.427  -1.587  -0.205  1.00  0.00     0.126 C 
BRANCH  11  12
ATOM     12  S   UNL     1      -1.643  -1.592   0.175  1.00  0.00     0.054 S 
ATOM     13  O   UNL     1      -1.291  -0.414   1.027  1.00  0.00    -0.254 OA
BRANCH  12  14
ATOM     14  C   UNL     1      -0.967  -1.269  -1.459  1.00  0.00     0.040 A 
ATOM     15  C   UNL     1      -0.866  -2.317  -2.382  1.00  0.00     0.018 A 
ATOM     16  C   UNL     1      -0.523   0.008  -1.815  1.00  0.00     0.038 A 
ATOM     17  C   UNL     1      -0.379  -2.077  -3.668  1.00  0.00     0.003 A 
ATOM     18  C   UNL     1      -0.070   0.249  -3.109  1.00  0.00     0.042 A 
ATOM     19  C   UNL     1       0.002  -0.787  -4.038  1.00  0.00     0.020 A 
ATOM     20  Cl  UNL     1       0.375   1.844  -3.578  1.00  0.00    -0.084 Cl
ENDBRANCH  12  14
ENDBRANCH  11  12
ENDBRANCH   8  11
ENDBRANCH   5   8
ENDBRANCH   3   4
ENDBRANCH   2   3
ENDBRANCH   1   2
BRANCH   1  21
ATOM     21  C   UNL     1      -4.709   0.050   5.849  1.00  0.00     0.002 C 
BRANCH  21  22
ATOM     22  C   UNL     1      -5.725  -1.023   6.254  1.00  0.00     0.021 C 
BRANCH  22  23
ATOM     23  C   UNL     1      -5.178  -2.156   7.119  1.00  0.00     0.116 C 
BRANCH  23  24
ATOM     24  N   UNL     1      -4.636  -1.680   8.379  1.00  0.00    -0.352 N 
ATOM     25  C   UNL     1      -4.896  -2.091   9.661  1.00  0.00     0.251 C 
ATOM     26  H   UNL     1      -3.982  -0.949   8.301  1.00  0.00     0.163 HD
ATOM     27  O   UNL     1      -4.454  -1.430  10.602  1.00  0.00    -0.269 OA
BRANCH  25  28
ATOM     28  C   UNL     1      -5.717  -3.295   9.927  1.00  0.00     0.039 A 
ATOM     29  C   UNL     1      -6.645  -3.251  10.972  1.00  0.00     0.014 A 
ATOM     30  C   UNL     1      -5.562  -4.471   9.186  1.00  0.00     0.014 A 
ATOM     31  C   UNL     1      -7.451  -4.360  11.236  1.00  0.00     0.010 A 
ATOM     32  C   UNL     1      -6.414  -5.555   9.408  1.00  0.00     0.010 A 
ATOM     33  C   UNL     1      -7.367  -5.512  10.436  1.00  0.00    -0.014 A 
BRANCH  33  34
ATOM     34  C   UNL     1      -8.289  -6.658  10.664  1.00  0.00     0.031 A 
ATOM     35  C   UNL     1      -7.761  -7.990  11.123  1.00  0.00     0.074 A 
ATOM     36  C   UNL     1      -9.606  -6.501  10.423  1.00  0.00     0.049 A 
ATOM     37  N   UNL     1      -8.415  -9.096  11.377  1.00  0.00    -0.248 NA
ATOM     38  C   UNL     1      -6.306  -8.102  11.295  1.00  0.00     0.031 C 
ATOM     39  C   UNL     1     -10.230  -5.274   9.921  1.00  0.00     0.029 A 
ATOM     40  N   UNL     1     -10.657  -7.371  10.565  1.00  0.00    -0.354 N 
ATOM     41  C   UNL     1      -7.453 -10.036  11.733  1.00  0.00     0.074 A 
ATOM     42  C   UNL     1      -6.167  -9.383  11.602  1.00  0.00     0.031 C 
ATOM     43  C   UNL     1     -11.556  -5.460   9.829  1.00  0.00     0.029 A 
ATOM     44  C   UNL     1     -11.875  -6.827  10.228  1.00  0.00     0.049 A 
ATOM     45  H   UNL     1     -10.550  -8.298  10.880  1.00  0.00     0.167 HD
ATOM     46  C   UNL     1      -7.628 -11.316  12.151  1.00  0.00     0.034 A 
ATOM     47  C   UNL     1     -13.110  -7.366  10.237  1.00  0.00     0.034 A 
ATOM     48  C   UNL     1      -8.919 -11.950  12.282  1.00  0.00     0.049 A 
ATOM     49  C   UNL     1     -13.278  -8.787  10.709  1.00  0.00     0.074 A 
ATOM     50  C   UNL     1      -9.214 -13.218  12.753  1.00  0.00     0.029 A 
ATOM     51  N   UNL     1     -10.132 -11.368  11.934  1.00  0.00    -0.354 N 
ATOM     52  N   UNL     1     -12.363  -9.641  11.106  1.00  0.00    -0.248 NA
ATOM     53  C   UNL     1     -14.649  -9.309  10.749  1.00  0.00     0.031 C 
ATOM     54  C   UNL     1     -10.592 -13.428  12.625  1.00  0.00     0.029 A 
ATOM     55  C   UNL     1     -11.172 -12.263  12.147  1.00  0.00     0.049 A 
ATOM     56  H   UNL     1     -10.239 -10.454  11.586  1.00  0.00     0.167 HD
ATOM     57  C   UNL     1     -13.053 -10.796  11.464  1.00  0.00     0.074 A 
ATOM     58  C   UNL     1     -14.461 -10.514  11.265  1.00  0.00     0.031 C 
ATOM     59  C   UNL     1     -12.570 -11.982  11.916  1.00  0.00     0.034 A 
BRANCH  46  60
ATOM     60  C   UNL     1      -6.387 -12.119  12.471  1.00  0.00     0.023 A 
ATOM     61  C   UNL     1      -5.514 -11.750  13.510  1.00  0.00     0.031 A 
ATOM     62  C   UNL     1      -6.062 -13.259  11.715  1.00  0.00     0.131 A 
ATOM     63  C   UNL     1      -4.325 -12.467  13.716  1.00  0.00     0.055 A 
ATOM     64  C   UNL     1      -4.918 -14.016  11.977  1.00  0.00     0.041 A 
ATOM     65  F   UNL     1      -6.845 -13.651  10.697  1.00  0.00    -0.206 F 
ATOM     66  C   UNL     1      -4.033 -13.613  12.973  1.00  0.00     0.022 A 
BRANCH  63  67
ATOM     67  S   UNL     1      -3.099 -11.799  14.873  1.00  0.00     0.124 S 
ATOM     68  O   UNL     1      -2.826 -10.488  14.289  1.00  0.00    -0.237 OA
ATOM     69  O   UNL     1      -3.825 -11.797  16.137  1.00  0.00    -0.237 OA
ATOM     70  O   UNL     1      -1.993 -12.752  14.789  1.00  0.00    -0.744 OA
ENDBRANCH  63  67
ENDBRANCH  46  60
BRANCH  47  71
ATOM     71  C   UNL     1     -14.286  -6.568   9.787  1.00  0.00     0.023 A 
ATOM     72  C   UNL     1     -15.315  -6.226  10.679  1.00  0.00     0.031 A 
ATOM     73  C   UNL     1     -14.417  -6.171   8.444  1.00  0.00     0.131 A 
ATOM     74  C   UNL     1     -16.453  -5.552  10.208  1.00  0.00     0.055 A 
ATOM     75  C   UNL     1     -15.527  -5.455   7.992  1.00  0.00     0.041 A 
ATOM     76  F   UNL     1     -13.459  -6.467   7.552  1.00  0.00    -0.206 F 
ATOM     77  C   UNL     1     -16.559  -5.153   8.874  1.00  0.00     0.022 A 
BRANCH  74  78
ATOM     78  S   UNL     1     -17.834  -5.277  11.351  1.00  0.00     0.124 S 
ATOM     79  O   UNL     1     -18.151  -6.638  11.768  1.00  0.00    -0.237 OA
ATOM     80  O   UNL     1     -17.222  -4.421  12.363  1.00  0.00    -0.237 OA
ATOM     81  O   UNL     1     -18.842  -4.627  10.516  1.00  0.00    -0.744 OA
ENDBRANCH  74  78
ENDBRANCH  47  71
BRANCH  59  82
ATOM     82  C   UNL     1     -13.589 -13.048  12.241  1.00  0.00     0.023 A 
ATOM     83  C   UNL     1     -14.406 -13.613  11.245  1.00  0.00     0.031 A 
ATOM     84  C   UNL     1     -13.782 -13.469  13.569  1.00  0.00     0.131 A 
ATOM     85  C   UNL     1     -15.430 -14.505  11.600  1.00  0.00     0.055 A 
ATOM     86  C   UNL     1     -14.756 -14.409  13.907  1.00  0.00     0.041 A 
ATOM     87  F   UNL     1     -13.034 -12.963  14.562  1.00  0.00    -0.206 F 
ATOM     88  C   UNL     1     -15.600 -14.918  12.924  1.00  0.00     0.022 A 
BRANCH  85  89
ATOM     89  S   UNL     1     -16.617 -15.016  10.328  1.00  0.00     0.124 S 
ATOM     90  O   UNL     1     -17.121 -13.732   9.850  1.00  0.00    -0.237 OA
ATOM     91  O   UNL     1     -15.774 -15.757   9.395  1.00  0.00    -0.237 OA
ATOM     92  O   UNL     1     -17.584 -15.825  11.067  1.00  0.00    -0.744 OA
ENDBRANCH  85  89
ENDBRANCH  59  82
ENDBRANCH  33  34
ENDBRANCH  25  28
ENDBRANCH  23  24
ENDBRANCH  22  23
ENDBRANCH  21  22
ENDBRANCH   1  21
TORSDOF 19
