REMARK SMILES Cc1ccc(C)c([C@@H](O)[C@@H](C)[C@@H](C)C(=O)NCCCCCCNC(=O)c2ccc(-c3c4nc(c(-c5cc(S(=O)(=O)[O-])ccc5F)c5ccc([nH]5)c(-c5cc(S(=O)(=O)[O-])ccc5F)c5nc(c(-c6cc(S(=O)(=O)[O-])ccc6F)c6ccc3[nH]6)C=C5)C=C4)cc2)c1
REMARK SMILES IDX 19 1 18 2 17 3 16 4 14 5 15 6 12 8 13 9 10 10 11 11 8 12
REMARK SMILES IDX 7 13 1 14 2 15 3 16 89 17 4 18 5 19 6 20 9 21 20 23 21 24
REMARK SMILES IDX 22 25 23 26 24 27 25 29 26 30 27 31 88 32 28 33 87 34 29 35
REMARK SMILES IDX 30 36 31 37 81 38 32 39 86 40 80 41 82 42 33 43 85 44 79 45
REMARK SMILES IDX 78 46 34 48 66 49 46 50 65 51 47 52 50 53 64 54 83 55 48 56
REMARK SMILES IDX 49 57 63 59 84 60 51 61 35 62 36 63 44 64 37 65 43 66 45 67
REMARK SMILES IDX 42 68 38 69 39 70 40 71 41 72 67 73 68 74 76 75 69 76 75 77
REMARK SMILES IDX 77 78 74 79 70 80 71 81 72 82 73 83 52 84 53 85 61 86 54 87
REMARK SMILES IDX 60 88 62 89 59 90 55 91 56 92 57 93 58 94
REMARK H PARENT 16 7 9 22 23 28 82 47 50 58
REMARK Flexibility Score: inf
ROOT
ATOM      1  C   UNL     1      -6.388   0.682   3.697  1.00  0.00     0.002 C 
ENDROOT
BRANCH   1   2
ATOM      2  C   UNL     1      -5.366   0.781   2.562  1.00  0.00     0.021 C 
BRANCH   2   3
ATOM      3  C   UNL     1      -5.435   2.091   1.778  1.00  0.00     0.116 C 
BRANCH   3   4
ATOM      4  N   UNL     1      -4.991   3.222   2.572  1.00  0.00    -0.356 N 
ATOM      5  C   UNL     1      -3.972   4.105   2.393  1.00  0.00     0.223 C 
ATOM      6  O   UNL     1      -3.862   5.021   3.214  1.00  0.00    -0.275 OA
ATOM      7  H   UNL     1      -5.522   3.377   3.386  1.00  0.00     0.163 HD
BRANCH   5   8
ATOM      8  C   UNL     1      -3.020   4.026   1.197  1.00  0.00     0.081 C 
ATOM      9  C   UNL     1      -3.811   4.392  -0.062  1.00  0.00     0.018 C 
BRANCH   8  10
ATOM     10  C   UNL     1      -2.177   2.713   1.188  1.00  0.00     0.031 C 
ATOM     11  C   UNL     1      -1.267   2.690   2.434  1.00  0.00     0.011 C 
BRANCH  10  12
ATOM     12  C   UNL     1      -1.329   2.475  -0.094  1.00  0.00     0.148 C 
BRANCH  12  13
ATOM     13  C   UNL     1      -0.633   1.118  -0.163  1.00  0.00    -0.016 A 
ATOM     14  C   UNL     1       3.003  -0.086  -0.366  1.00  0.00     0.044 C 
ATOM     15  C   UNL     1       1.505  -0.089  -0.269  1.00  0.00    -0.051 A 
ATOM     16  C   UNL     1       0.817  -1.300  -0.247  1.00  0.00     0.004 A 
ATOM     17  C   UNL     1       0.778   1.108  -0.226  1.00  0.00     0.010 A 
ATOM     18  C   UNL     1      -0.575  -1.313  -0.209  1.00  0.00     0.004 A 
ATOM     19  C   UNL     1      -1.317  -0.119  -0.202  1.00  0.00    -0.045 A 
ATOM     20  C   UNL     1      -2.814  -0.265  -0.201  1.00  0.00     0.045 C 
ENDBRANCH  12  13
BRANCH  12  21
ATOM     21  O   UNL     1      -2.100   2.608  -1.289  1.00  0.00    -0.388 OA
ATOM     22  H   UNL     1      -2.767   1.905  -1.323  1.00  0.00     0.211 HD
ENDBRANCH  12  21
ENDBRANCH  10  12
ENDBRANCH   8  10
ENDBRANCH   5   8
ENDBRANCH   3   4
ENDBRANCH   2   3
ENDBRANCH   1   2
BRANCH   1  23
ATOM     23  C   UNL     1      -7.869   0.771   3.301  1.00  0.00     0.002 C 
BRANCH  23  24
ATOM     24  C   UNL     1      -8.383  -0.017   2.083  1.00  0.00     0.021 C 
BRANCH  24  25
ATOM     25  C   UNL     1      -8.422  -1.546   2.145  1.00  0.00     0.116 C 
BRANCH  25  26
ATOM     26  N   UNL     1      -9.144  -2.070   3.308  1.00  0.00    -0.352 N 
ATOM     27  C   UNL     1      -8.914  -3.122   4.184  1.00  0.00     0.251 C 
ATOM     28  H   UNL     1      -9.967  -1.570   3.511  1.00  0.00     0.163 HD
ATOM     29  O   UNL     1      -9.852  -3.546   4.843  1.00  0.00    -0.269 OA
BRANCH  27  30
ATOM     30  C   UNL     1      -7.567  -3.728   4.339  1.00  0.00     0.039 A 
ATOM     31  C   UNL     1      -7.348  -4.936   5.016  1.00  0.00     0.014 A 
ATOM     32  C   UNL     1      -6.473  -3.050   3.834  1.00  0.00     0.014 A 
ATOM     33  C   UNL     1      -6.035  -5.405   5.169  1.00  0.00     0.010 A 
ATOM     34  C   UNL     1      -5.239  -3.616   3.759  1.00  0.00     0.010 A 
ATOM     35  C   UNL     1      -4.987  -4.719   4.544  1.00  0.00    -0.014 A 
BRANCH  35  36
ATOM     36  C   UNL     1      -3.595  -5.131   4.562  1.00  0.00     0.031 A 
ATOM     37  C   UNL     1      -3.341  -6.343   3.771  1.00  0.00     0.074 A 
ATOM     38  C   UNL     1      -2.579  -4.316   4.921  1.00  0.00     0.049 A 
ATOM     39  N   UNL     1      -3.214  -7.543   4.223  1.00  0.00    -0.248 NA
ATOM     40  C   UNL     1      -3.466  -6.259   2.307  1.00  0.00     0.031 C 
ATOM     41  C   UNL     1      -2.655  -2.926   5.379  1.00  0.00     0.029 A 
ATOM     42  N   UNL     1      -1.236  -4.534   4.833  1.00  0.00    -0.354 N 
ATOM     43  C   UNL     1      -2.930  -8.310   3.107  1.00  0.00     0.074 A 
ATOM     44  C   UNL     1      -3.427  -7.555   1.990  1.00  0.00     0.031 C 
ATOM     45  C   UNL     1      -1.419  -2.380   5.364  1.00  0.00     0.029 A 
ATOM     46  C   UNL     1      -0.447  -3.397   4.998  1.00  0.00     0.049 A 
ATOM     47  H   UNL     1      -0.854  -5.426   4.667  1.00  0.00     0.167 HD
ATOM     48  C   UNL     1      -2.016  -9.318   3.170  1.00  0.00     0.034 A 
ATOM     49  C   UNL     1       0.902  -3.300   4.827  1.00  0.00     0.034 A 
ATOM     50  C   UNL     1      -1.632  -9.572   4.551  1.00  0.00     0.049 A 
ATOM     51  C   UNL     1       1.438  -4.680   4.988  1.00  0.00     0.074 A 
ATOM     52  C   UNL     1      -2.331  -9.833   5.717  1.00  0.00     0.029 A 
ATOM     53  N   UNL     1      -0.379  -9.158   4.962  1.00  0.00    -0.354 N 
ATOM     54  N   UNL     1       1.406  -5.333   6.118  1.00  0.00    -0.248 NA
ATOM     55  C   UNL     1       1.588  -5.518   3.805  1.00  0.00     0.031 C 
ATOM     56  C   UNL     1      -1.650  -9.098   6.733  1.00  0.00     0.029 A 
ATOM     57  C   UNL     1      -0.519  -8.509   6.166  1.00  0.00     0.049 A 
ATOM     58  H   UNL     1       0.465  -9.302   4.477  1.00  0.00     0.167 HD
ATOM     59  C   UNL     1       1.068  -6.632   5.773  1.00  0.00     0.074 A 
ATOM     60  C   UNL     1       1.325  -6.716   4.337  1.00  0.00     0.031 C 
ATOM     61  C   UNL     1       0.330  -7.417   6.615  1.00  0.00     0.034 A 
BRANCH  48  62
ATOM     62  C   UNL     1      -1.176  -9.809   2.008  1.00  0.00     0.023 A 
ATOM     63  C   UNL     1      -0.288 -10.862   2.290  1.00  0.00     0.031 A 
ATOM     64  C   UNL     1      -0.997  -9.185   0.752  1.00  0.00     0.131 A 
ATOM     65  C   UNL     1       0.783 -11.157   1.433  1.00  0.00     0.055 A 
ATOM     66  C   UNL     1       0.024  -9.537  -0.136  1.00  0.00     0.041 A 
ATOM     67  F   UNL     1      -1.731  -8.153   0.329  1.00  0.00    -0.206 F 
ATOM     68  C   UNL     1       0.948 -10.501   0.219  1.00  0.00     0.022 A 
BRANCH  65  69
ATOM     69  S   UNL     1       2.060 -12.282   2.039  1.00  0.00     0.124 S 
ATOM     70  O   UNL     1       2.438 -11.636   3.292  1.00  0.00    -0.237 OA
ATOM     71  O   UNL     1       1.322 -13.535   2.156  1.00  0.00    -0.237 OA
ATOM     72  O   UNL     1       3.069 -12.246   0.984  1.00  0.00    -0.744 OA
ENDBRANCH  65  69
ENDBRANCH  48  62
BRANCH  49  73
ATOM     73  C   UNL     1       1.747  -2.127   4.452  1.00  0.00     0.023 A 
ATOM     74  C   UNL     1       3.161  -2.179   4.484  1.00  0.00     0.031 A 
ATOM     75  C   UNL     1       1.186  -0.987   3.834  1.00  0.00     0.131 A 
ATOM     76  C   UNL     1       3.937  -1.136   3.923  1.00  0.00     0.055 A 
ATOM     77  C   UNL     1       1.957   0.057   3.315  1.00  0.00     0.041 A 
ATOM     78  F   UNL     1      -0.134  -0.880   3.623  1.00  0.00    -0.206 F 
ATOM     79  C   UNL     1       3.337  -0.017   3.346  1.00  0.00     0.022 A 
BRANCH  76  80
ATOM     80  S   UNL     1       5.747  -1.278   3.758  1.00  0.00     0.124 S 
ATOM     81  O   UNL     1       6.219  -0.633   4.978  1.00  0.00    -0.237 OA
ATOM     82  O   UNL     1       5.960  -2.717   3.660  1.00  0.00    -0.237 OA
ATOM     83  O   UNL     1       6.019  -0.539   2.523  1.00  0.00    -0.744 OA
ENDBRANCH  76  80
ENDBRANCH  49  73
BRANCH  61  84
ATOM     84  C   UNL     1       0.196  -6.997   8.068  1.00  0.00     0.023 A 
ATOM     85  C   UNL     1      -0.291  -5.745   8.508  1.00  0.00     0.031 A 
ATOM     86  C   UNL     1       0.469  -7.967   9.050  1.00  0.00     0.131 A 
ATOM     87  C   UNL     1      -0.472  -5.501   9.884  1.00  0.00     0.055 A 
ATOM     88  C   UNL     1       0.264  -7.731  10.409  1.00  0.00     0.041 A 
ATOM     89  F   UNL     1       0.911  -9.187   8.699  1.00  0.00    -0.206 F 
ATOM     90  C   UNL     1      -0.202  -6.492  10.832  1.00  0.00     0.022 A 
BRANCH  87  91
ATOM     91  S   UNL     1      -1.054  -3.876  10.467  1.00  0.00     0.124 S 
ATOM     92  O   UNL     1      -0.201  -2.932   9.755  1.00  0.00    -0.237 OA
ATOM     93  O   UNL     1      -2.462  -3.886  10.079  1.00  0.00    -0.237 OA
ATOM     94  O   UNL     1      -0.824  -3.931  11.913  1.00  0.00    -0.744 OA
ENDBRANCH  87  91
ENDBRANCH  61  84
ENDBRANCH  35  36
ENDBRANCH  27  30
ENDBRANCH  25  26
ENDBRANCH  24  25
ENDBRANCH  23  24
ENDBRANCH   1  23
TORSDOF 20
