REMARK SMILES O=C(NCCCCCCNC(=O)[C@@H](Cc1ccccc1Br)CC(F)(F)F)c1ccc(-c2c3nc(c(-c4cc(S(=O)(=O)[O-])ccc4F)c4ccc([nH]4)c(-c4cc(S(=O)(=O)[O-])ccc4F)c4nc(c(-c5cc(S(=O)(=O)[O-])ccc5F)c5ccc2[nH]5)C=C4)C=C3)cc1
REMARK SMILES IDX 6 1 5 2 4 3 3 4 1 5 2 6 27 8 28 9 89 10 29 11 88 12 30 13
REMARK SMILES IDX 31 14 32 15 82 16 33 17 87 18 81 19 83 20 34 21 86 22 80 23
REMARK SMILES IDX 79 24 35 26 67 27 47 28 66 29 48 30 51 31 65 32 84 33 49 34
REMARK SMILES IDX 50 35 64 37 85 38 52 39 36 40 37 41 45 42 38 43 44 44 46 45
REMARK SMILES IDX 43 46 39 47 40 48 41 49 42 50 68 51 69 52 77 53 70 54 76 55
REMARK SMILES IDX 78 56 75 57 71 58 72 59 73 60 74 61 53 62 54 63 62 64 55 65
REMARK SMILES IDX 61 66 63 67 60 68 56 69 57 70 58 71 59 72 7 73 8 74 9 75
REMARK SMILES IDX 10 76 11 77 12 79 13 80 14 81 15 82 16 83 20 84 17 85 19 86
REMARK SMILES IDX 21 87 18 88 22 89 23 90 24 91 25 92 26 93
REMARK H PARENT 3 7 83 25 51 36 10 78
REMARK Flexibility Score: inf
ROOT
ATOM      1  C   UNL     1       3.606  -0.886  -3.828  1.00  0.00     0.002 C 
ENDROOT
BRANCH   1   2
ATOM      2  C   UNL     1       4.305  -1.158  -2.493  1.00  0.00     0.021 C 
BRANCH   2   3
ATOM      3  C   UNL     1       4.210  -0.022  -1.480  1.00  0.00     0.116 C 
BRANCH   3   4
ATOM      4  N   UNL     1       2.831   0.259  -1.111  1.00  0.00    -0.352 N 
ATOM      5  O   UNL     1       0.956   0.128   0.130  1.00  0.00    -0.269 OA
ATOM      6  C   UNL     1       2.187   0.056   0.081  1.00  0.00     0.251 C 
ATOM      7  H   UNL     1       2.278   0.654  -1.824  1.00  0.00     0.163 HD
BRANCH   6   8
ATOM      8  C   UNL     1       2.958  -0.246   1.305  1.00  0.00     0.039 A 
ATOM      9  C   UNL     1       4.128   0.459   1.597  1.00  0.00     0.014 A 
ATOM     10  C   UNL     1       2.484  -1.214   2.196  1.00  0.00     0.014 A 
ATOM     11  C   UNL     1       4.886   0.114   2.710  1.00  0.00     0.010 A 
ATOM     12  C   UNL     1       3.203  -1.498   3.362  1.00  0.00     0.010 A 
ATOM     13  C   UNL     1       4.421  -0.849   3.620  1.00  0.00    -0.014 A 
BRANCH  13  14
ATOM     14  C   UNL     1       5.190  -1.101   4.867  1.00  0.00     0.031 A 
ATOM     15  C   UNL     1       5.819  -2.439   5.138  1.00  0.00     0.074 A 
ATOM     16  C   UNL     1       5.343  -0.089   5.745  1.00  0.00     0.049 A 
ATOM     17  N   UNL     1       6.530  -2.821   6.168  1.00  0.00    -0.248 NA
ATOM     18  C   UNL     1       5.620  -3.484   4.124  1.00  0.00     0.031 C 
ATOM     19  C   UNL     1       4.771   1.252   5.588  1.00  0.00     0.029 A 
ATOM     20  N   UNL     1       6.030  -0.017   6.929  1.00  0.00    -0.354 N 
ATOM     21  C   UNL     1       6.866  -4.150   5.931  1.00  0.00     0.074 A 
ATOM     22  C   UNL     1       6.236  -4.519   4.679  1.00  0.00     0.031 C 
ATOM     23  C   UNL     1       5.168   2.023   6.610  1.00  0.00     0.029 A 
ATOM     24  C   UNL     1       5.955   1.216   7.535  1.00  0.00     0.049 A 
ATOM     25  H   UNL     1       6.530  -0.775   7.310  1.00  0.00     0.167 HD
ATOM     26  C   UNL     1       7.639  -4.976   6.680  1.00  0.00     0.034 A 
ATOM     27  C   UNL     1       6.441   1.646   8.716  1.00  0.00     0.034 A 
ATOM     28  C   UNL     1       8.243  -4.595   7.936  1.00  0.00     0.049 A 
ATOM     29  C   UNL     1       7.234   0.685   9.561  1.00  0.00     0.074 A 
ATOM     30  C   UNL     1       9.044  -5.353   8.774  1.00  0.00     0.029 A 
ATOM     31  N   UNL     1       8.107  -3.352   8.543  1.00  0.00    -0.354 N 
ATOM     32  N   UNL     1       7.555  -0.564   9.312  1.00  0.00    -0.248 NA
ATOM     33  C   UNL     1       7.737   1.193  10.843  1.00  0.00     0.031 C 
ATOM     34  C   UNL     1       9.333  -4.595   9.914  1.00  0.00     0.029 A 
ATOM     35  C   UNL     1       8.784  -3.333   9.754  1.00  0.00     0.049 A 
ATOM     36  H   UNL     1       7.603  -2.594   8.167  1.00  0.00     0.167 HD
ATOM     37  C   UNL     1       8.322  -0.980  10.396  1.00  0.00     0.074 A 
ATOM     38  C   UNL     1       8.435   0.159  11.284  1.00  0.00     0.031 C 
ATOM     39  C   UNL     1       8.881  -2.193  10.637  1.00  0.00     0.034 A 
BRANCH  26  40
ATOM     40  C   UNL     1       7.845  -6.386   6.174  1.00  0.00     0.023 A 
ATOM     41  C   UNL     1       8.512  -6.642   4.963  1.00  0.00     0.031 A 
ATOM     42  C   UNL     1       7.360  -7.487   6.902  1.00  0.00     0.131 A 
ATOM     43  C   UNL     1       8.617  -7.957   4.483  1.00  0.00     0.055 A 
ATOM     44  C   UNL     1       7.539  -8.800   6.459  1.00  0.00     0.041 A 
ATOM     45  F   UNL     1       6.697  -7.307   8.055  1.00  0.00    -0.206 F 
ATOM     46  C   UNL     1       8.158  -9.040   5.236  1.00  0.00     0.022 A 
BRANCH  43  47
ATOM     47  S   UNL     1       9.236  -8.215   2.798  1.00  0.00     0.124 S 
ATOM     48  O   UNL     1       8.290  -7.428   2.010  1.00  0.00    -0.237 OA
ATOM     49  O   UNL     1      10.593  -7.689   2.875  1.00  0.00    -0.237 OA
ATOM     50  O   UNL     1       9.135  -9.662   2.613  1.00  0.00    -0.744 OA
ENDBRANCH  43  47
ENDBRANCH  26  40
BRANCH  27  51
ATOM     51  C   UNL     1       6.161   3.033   9.189  1.00  0.00     0.023 A 
ATOM     52  C   UNL     1       7.202   3.940   9.435  1.00  0.00     0.031 A 
ATOM     53  C   UNL     1       4.845   3.453   9.455  1.00  0.00     0.131 A 
ATOM     54  C   UNL     1       6.916   5.198   9.986  1.00  0.00     0.055 A 
ATOM     55  C   UNL     1       4.560   4.730   9.939  1.00  0.00     0.041 A 
ATOM     56  F   UNL     1       3.809   2.626   9.238  1.00  0.00    -0.206 F 
ATOM     57  C   UNL     1       5.602   5.606  10.225  1.00  0.00     0.022 A 
BRANCH  54  58
ATOM     58  S   UNL     1       8.300   6.253  10.498  1.00  0.00     0.124 S 
ATOM     59  O   UNL     1       9.022   5.372  11.409  1.00  0.00    -0.237 OA
ATOM     60  O   UNL     1       8.954   6.532   9.223  1.00  0.00    -0.237 OA
ATOM     61  O   UNL     1       7.642   7.397  11.124  1.00  0.00    -0.744 OA
ENDBRANCH  54  58
ENDBRANCH  27  51
BRANCH  39  62
ATOM     62  C   UNL     1       9.707  -2.324  11.894  1.00  0.00     0.023 A 
ATOM     63  C   UNL     1       9.133  -2.215  13.173  1.00  0.00     0.031 A 
ATOM     64  C   UNL     1      11.096  -2.529  11.809  1.00  0.00     0.131 A 
ATOM     65  C   UNL     1       9.952  -2.242  14.312  1.00  0.00     0.055 A 
ATOM     66  C   UNL     1      11.896  -2.625  12.948  1.00  0.00     0.041 A 
ATOM     67  F   UNL     1      11.699  -2.637  10.614  1.00  0.00    -0.206 F 
ATOM     68  C   UNL     1      11.328  -2.465  14.208  1.00  0.00     0.022 A 
BRANCH  65  69
ATOM     69  S   UNL     1       9.211  -1.872  15.926  1.00  0.00     0.124 S 
ATOM     70  O   UNL     1       8.654  -0.542  15.706  1.00  0.00    -0.237 OA
ATOM     71  O   UNL     1       8.243  -2.953  16.079  1.00  0.00    -0.237 OA
ATOM     72  O   UNL     1      10.348  -1.924  16.845  1.00  0.00    -0.744 OA
ENDBRANCH  65  69
ENDBRANCH  39  62
ENDBRANCH  13  14
ENDBRANCH   6   8
ENDBRANCH   3   4
ENDBRANCH   2   3
ENDBRANCH   1   2
BRANCH   1  73
ATOM     73  C   UNL     1       4.051   0.384  -4.562  1.00  0.00     0.002 C 
BRANCH  73  74
ATOM     74  C   UNL     1       5.563   0.532  -4.725  1.00  0.00     0.021 C 
BRANCH  74  75
ATOM     75  C   UNL     1       6.213  -0.552  -5.580  1.00  0.00     0.116 C 
BRANCH  75  76
ATOM     76  N   UNL     1       6.439  -0.073  -6.926  1.00  0.00    -0.356 N 
ATOM     77  C   UNL     1       7.572   0.231  -7.598  1.00  0.00     0.223 C 
ATOM     78  H   UNL     1       5.615   0.057  -7.449  1.00  0.00     0.163 HD
ATOM     79  O   UNL     1       7.440   0.742  -8.715  1.00  0.00    -0.275 OA
BRANCH  77  80
ATOM     80  C   UNL     1       8.976  -0.062  -7.070  1.00  0.00     0.092 C 
BRANCH  80  81
ATOM     81  C   UNL     1       9.517   0.976  -6.054  1.00  0.00     0.050 C 
BRANCH  81  82
ATOM     82  C   UNL     1       9.090   0.978  -4.599  1.00  0.00    -0.033 A 
ATOM     83  C   UNL     1       9.333  -0.160  -3.804  1.00  0.00     0.005 A 
ATOM     84  C   UNL     1       8.537   2.103  -3.953  1.00  0.00     0.021 A 
ATOM     85  C   UNL     1       8.934  -0.221  -2.465  1.00  0.00     0.000 A 
ATOM     86  C   UNL     1       8.164   2.049  -2.600  1.00  0.00     0.016 A 
ATOM     87  Br  UNL     1       8.250   3.770  -4.825  1.00  0.00    -0.051 Br
ATOM     88  C   UNL     1       8.339   0.880  -1.865  1.00  0.00     0.001 A 
ENDBRANCH  81  82
ENDBRANCH  80  81
BRANCH  80  89
ATOM     89  C   UNL     1       9.264  -1.540  -6.783  1.00  0.00     0.129 C 
BRANCH  89  90
ATOM     90  C   UNL     1       8.974  -2.443  -7.967  1.00  0.00     0.389 C 
ATOM     91  F   UNL     1       9.636  -2.041  -9.071  1.00  0.00    -0.171 F 
ATOM     92  F   UNL     1       9.377  -3.705  -7.692  1.00  0.00    -0.171 F 
ATOM     93  F   UNL     1       7.659  -2.497  -8.254  1.00  0.00    -0.171 F 
ENDBRANCH  89  90
ENDBRANCH  80  89
ENDBRANCH  77  80
ENDBRANCH  75  76
ENDBRANCH  74  75
ENDBRANCH  73  74
ENDBRANCH   1  73
TORSDOF 20
