REMARK SMILES C[C@H]1CC=C(C2=NN=C(C(=O)NCCCCCCNC(=O)c3ccc(-c4c5nc(c(-c6cc(S(=O)(=O)[O-])ccc6F)c6ccc([nH]6)c(-c6cc(S(=O)(=O)[O-])ccc6F)c6nc(c(-c7cc(S(=O)(=O)[O-])ccc7F)c7ccc4[nH]7)C=C6)C=C5)cc3)C2)O1
REMARK SMILES IDX 16 1 15 2 14 3 13 4 12 5 10 6 11 7 9 9 6 10 7 11 85 12 8 13
REMARK SMILES IDX 5 14 1 15 2 16 3 17 86 18 4 19 17 20 18 21 19 22 20 23 21 25
REMARK SMILES IDX 22 26 23 27 84 28 24 29 83 30 25 31 26 32 27 33 77 34 28 35
REMARK SMILES IDX 82 36 76 37 78 38 29 39 81 40 75 41 74 42 30 44 62 45 42 46
REMARK SMILES IDX 61 47 43 48 46 49 60 50 79 51 44 52 45 53 59 55 80 56 47 57
REMARK SMILES IDX 31 58 32 59 40 60 33 61 39 62 41 63 38 64 34 65 35 66 36 67
REMARK SMILES IDX 37 68 63 69 64 70 72 71 65 72 71 73 73 74 70 75 66 76 67 77
REMARK SMILES IDX 68 78 69 79 48 80 49 81 57 82 50 83 56 84 58 85 55 86 51 87
REMARK SMILES IDX 52 88 53 89 54 90
REMARK H PARENT 12 8 19 24 78 43 46 54
REMARK Flexibility Score: inf
ROOT
ATOM      1  C   UNL     1       2.443  11.981   0.135  1.00  0.00     0.002 C 
ENDROOT
BRANCH   1   2
ATOM      2  C   UNL     1       1.093  11.252   0.201  1.00  0.00     0.002 C 
BRANCH   2   3
ATOM      3  C   UNL     1       0.914  10.075  -0.764  1.00  0.00     0.021 C 
BRANCH   3   4
ATOM      4  C   UNL     1       1.987   8.994  -0.670  1.00  0.00     0.116 C 
BRANCH   4   5
ATOM      5  N   UNL     1       1.946   8.304   0.608  1.00  0.00    -0.351 N 
ATOM      6  C   UNL     1       1.832   6.966   0.882  1.00  0.00     0.267 C 
ATOM      7  O   UNL     1       1.785   6.565   2.042  1.00  0.00    -0.268 OA
ATOM      8  H   UNL     1       2.009   8.887   1.399  1.00  0.00     0.163 HD
BRANCH   6   9
ATOM      9  C   UNL     1       1.787   5.935  -0.208  1.00  0.00     0.134 C 
ATOM     10  C   UNL     1       1.563   3.989  -1.271  1.00  0.00     0.111 C 
ATOM     11  N   UNL     1       2.034   4.860  -2.112  1.00  0.00    -0.151 NA
ATOM     12  C   UNL     1       1.341   4.550   0.095  1.00  0.00     0.126 C 
ATOM     13  N   UNL     1       2.189   6.098  -1.431  1.00  0.00    -0.149 NA
BRANCH  10  14
ATOM     14  C   UNL     1       1.329   2.568  -1.554  1.00  0.00     0.139 C 
ATOM     15  C   UNL     1      -0.662  -0.263  -1.642  1.00  0.00     0.053 C 
ATOM     16  C   UNL     1       0.607   0.484  -1.266  1.00  0.00     0.174 C 
ATOM     17  C   UNL     1       1.653   0.470  -2.389  1.00  0.00     0.076 C 
ATOM     18  O   UNL     1       0.299   1.862  -0.948  1.00  0.00    -0.489 OA
ATOM     19  C   UNL     1       2.134   1.865  -2.346  1.00  0.00     0.025 C 
ENDBRANCH  10  14
ENDBRANCH   6   9
ENDBRANCH   4   5
ENDBRANCH   3   4
ENDBRANCH   2   3
ENDBRANCH   1   2
BRANCH   1  20
ATOM     20  C   UNL     1       2.911  12.437  -1.254  1.00  0.00     0.021 C 
BRANCH  20  21
ATOM     21  C   UNL     1       1.962  13.398  -1.954  1.00  0.00     0.116 C 
BRANCH  21  22
ATOM     22  N   UNL     1       1.893  14.704  -1.306  1.00  0.00    -0.352 N 
ATOM     23  C   UNL     1       1.147  15.795  -1.703  1.00  0.00     0.251 C 
ATOM     24  H   UNL     1       2.439  14.820  -0.495  1.00  0.00     0.163 HD
ATOM     25  O   UNL     1       1.482  16.932  -1.357  1.00  0.00    -0.269 OA
BRANCH  23  26
ATOM     26  C   UNL     1      -0.047  15.583  -2.544  1.00  0.00     0.039 A 
ATOM     27  C   UNL     1      -0.371  16.456  -3.584  1.00  0.00     0.014 A 
ATOM     28  C   UNL     1      -0.847  14.469  -2.287  1.00  0.00     0.014 A 
ATOM     29  C   UNL     1      -1.454  16.145  -4.408  1.00  0.00     0.010 A 
ATOM     30  C   UNL     1      -1.823  14.090  -3.181  1.00  0.00     0.010 A 
ATOM     31  C   UNL     1      -2.162  14.939  -4.224  1.00  0.00    -0.014 A 
BRANCH  31  32
ATOM     32  C   UNL     1      -3.120  14.472  -5.234  1.00  0.00     0.031 A 
ATOM     33  C   UNL     1      -2.568  14.535  -6.613  1.00  0.00     0.074 A 
ATOM     34  C   UNL     1      -4.310  13.877  -4.976  1.00  0.00     0.049 A 
ATOM     35  N   UNL     1      -2.879  15.392  -7.526  1.00  0.00    -0.248 NA
ATOM     36  C   UNL     1      -1.400  13.705  -6.956  1.00  0.00     0.031 C 
ATOM     37  C   UNL     1      -4.884  13.529  -3.673  1.00  0.00     0.029 A 
ATOM     38  N   UNL     1      -5.246  13.382  -5.844  1.00  0.00    -0.354 N 
ATOM     39  C   UNL     1      -2.158  15.021  -8.652  1.00  0.00     0.074 A 
ATOM     40  C   UNL     1      -1.113  14.153  -8.182  1.00  0.00     0.031 C 
ATOM     41  C   UNL     1      -5.943  12.702  -3.837  1.00  0.00     0.029 A 
ATOM     42  C   UNL     1      -6.234  12.583  -5.256  1.00  0.00     0.049 A 
ATOM     43  H   UNL     1      -5.225  13.573  -6.809  1.00  0.00     0.167 HD
ATOM     44  C   UNL     1      -2.674  15.233  -9.894  1.00  0.00     0.034 A 
ATOM     45  C   UNL     1      -7.241  11.894  -5.871  1.00  0.00     0.034 A 
ATOM     46  C   UNL     1      -3.751  16.201  -9.845  1.00  0.00     0.049 A 
ATOM     47  C   UNL     1      -7.473  12.565  -7.170  1.00  0.00     0.074 A 
ATOM     48  C   UNL     1      -3.858  17.505  -9.394  1.00  0.00     0.029 A 
ATOM     49  N   UNL     1      -5.042  15.726  -9.901  1.00  0.00    -0.354 N 
ATOM     50  N   UNL     1      -7.932  13.780  -7.267  1.00  0.00    -0.248 NA
ATOM     51  C   UNL     1      -6.732  12.088  -8.326  1.00  0.00     0.031 C 
ATOM     52  C   UNL     1      -5.121  17.561  -8.730  1.00  0.00     0.029 A 
ATOM     53  C   UNL     1      -5.766  16.335  -8.903  1.00  0.00     0.049 A 
ATOM     54  H   UNL     1      -5.387  15.066 -10.544  1.00  0.00     0.167 HD
ATOM     55  C   UNL     1      -7.152  14.373  -8.245  1.00  0.00     0.074 A 
ATOM     56  C   UNL     1      -6.507  13.256  -8.936  1.00  0.00     0.031 C 
ATOM     57  C   UNL     1      -6.886  15.714  -8.215  1.00  0.00     0.034 A 
BRANCH  44  58
ATOM     58  C   UNL     1      -2.494  14.282 -11.057  1.00  0.00     0.023 A 
ATOM     59  C   UNL     1      -3.063  14.649 -12.292  1.00  0.00     0.031 A 
ATOM     60  C   UNL     1      -2.065  12.937 -10.956  1.00  0.00     0.131 A 
ATOM     61  C   UNL     1      -3.262  13.695 -13.306  1.00  0.00     0.055 A 
ATOM     62  C   UNL     1      -2.204  12.011 -11.992  1.00  0.00     0.041 A 
ATOM     63  F   UNL     1      -1.580  12.411  -9.825  1.00  0.00    -0.206 F 
ATOM     64  C   UNL     1      -2.833  12.379 -13.166  1.00  0.00     0.022 A 
BRANCH  61  65
ATOM     65  S   UNL     1      -4.249  14.165 -14.749  1.00  0.00     0.124 S 
ATOM     66  O   UNL     1      -5.493  14.601 -14.123  1.00  0.00    -0.237 OA
ATOM     67  O   UNL     1      -3.427  15.211 -15.348  1.00  0.00    -0.237 OA
ATOM     68  O   UNL     1      -4.337  12.926 -15.518  1.00  0.00    -0.744 OA
ENDBRANCH  61  65
ENDBRANCH  44  58
BRANCH  45  69
ATOM     69  C   UNL     1      -7.790  10.536  -5.558  1.00  0.00     0.023 A 
ATOM     70  C   UNL     1      -9.015  10.043  -6.077  1.00  0.00     0.031 A 
ATOM     71  C   UNL     1      -6.942   9.585  -4.949  1.00  0.00     0.131 A 
ATOM     72  C   UNL     1      -9.334   8.662  -5.985  1.00  0.00     0.055 A 
ATOM     73  C   UNL     1      -7.258   8.225  -4.872  1.00  0.00     0.041 A 
ATOM     74  F   UNL     1      -5.730   9.932  -4.490  1.00  0.00    -0.206 F 
ATOM     75  C   UNL     1      -8.449   7.755  -5.399  1.00  0.00     0.022 A 
BRANCH  72  76
ATOM     76  S   UNL     1     -10.877   7.988  -6.704  1.00  0.00     0.124 S 
ATOM     77  O   UNL     1     -11.903   8.572  -5.849  1.00  0.00    -0.237 OA
ATOM     78  O   UNL     1     -10.824   8.471  -8.079  1.00  0.00    -0.237 OA
ATOM     79  O   UNL     1     -10.717   6.539  -6.562  1.00  0.00    -0.744 OA
ENDBRANCH  72  76
ENDBRANCH  45  69
BRANCH  57  80
ATOM     80  C   UNL     1      -7.707  16.583  -7.272  1.00  0.00     0.023 A 
ATOM     81  C   UNL     1      -7.847  16.385  -5.876  1.00  0.00     0.031 A 
ATOM     82  C   UNL     1      -8.329  17.716  -7.826  1.00  0.00     0.131 A 
ATOM     83  C   UNL     1      -8.607  17.289  -5.102  1.00  0.00     0.055 A 
ATOM     84  C   UNL     1      -9.056  18.623  -7.054  1.00  0.00     0.041 A 
ATOM     85  F   UNL     1      -8.225  17.977  -9.139  1.00  0.00    -0.206 F 
ATOM     86  C   UNL     1      -9.206  18.407  -5.690  1.00  0.00     0.022 A 
BRANCH  83  87
ATOM     87  S   UNL     1      -8.872  17.008  -3.318  1.00  0.00     0.124 S 
ATOM     88  O   UNL     1      -9.250  15.602  -3.244  1.00  0.00    -0.237 OA
ATOM     89  O   UNL     1      -7.574  17.351  -2.746  1.00  0.00    -0.237 OA
ATOM     90  O   UNL     1      -9.948  17.945  -2.983  1.00  0.00    -0.744 OA
ENDBRANCH  83  87
ENDBRANCH  57  80
ENDBRANCH  31  32
ENDBRANCH  23  26
ENDBRANCH  21  22
ENDBRANCH  20  21
ENDBRANCH   1  20
TORSDOF 17
