REMARK SMILES O=C(Cc1cc(C2CC[NH+](Cc3cccs3)CC2)n[nH]1)NCCCCCCNC(=O)c1ccc(-c2c3nc(c(-c4cc(S(=O)(=O)[O-])ccc4F)c4ccc([nH]4)c(-c4cc(S(=O)(=O)[O-])ccc4F)c4nc(c(-c5cc(S(=O)(=O)[O-])ccc5F)c5ccc2[nH]5)C=C4)C=C3)cc1
REMARK SMILES IDX 24 1 23 2 22 3 21 4 1 5 2 6 3 8 4 9 5 10 20 11 6 12 19 13
REMARK SMILES IDX 7 15 8 16 18 17 9 18 17 19 10 20 11 22 12 23 13 24 16 25
REMARK SMILES IDX 14 26 15 27 25 28 26 29 27 30 28 31 29 32 30 34 31 35 32 36
REMARK SMILES IDX 93 37 33 38 92 39 34 40 35 41 36 42 86 43 37 44 91 45 85 46
REMARK SMILES IDX 87 47 38 48 90 49 84 50 83 51 39 53 71 54 51 55 70 56 52 57
REMARK SMILES IDX 55 58 69 59 88 60 53 61 54 62 68 64 89 65 56 66 40 67 41 68
REMARK SMILES IDX 49 69 42 70 48 71 50 72 47 73 43 74 44 75 45 76 46 77 72 78
REMARK SMILES IDX 73 79 81 80 74 81 80 82 82 83 79 84 75 85 76 86 77 87 78 88
REMARK SMILES IDX 57 89 58 90 66 91 59 92 65 93 67 94 64 95 60 96 61 97 62 98
REMARK SMILES IDX 63 99
REMARK H PARENT 21 7 20 14 10 21 28 33 87 52 55 63
REMARK Flexibility Score: inf
ROOT
ATOM      1  C   UNL     1       4.246  -0.448   3.698  1.00  0.00     0.002 C 
ENDROOT
BRANCH   1   2
ATOM      2  C   UNL     1       2.741  -0.569   3.425  1.00  0.00     0.021 C 
BRANCH   2   3
ATOM      3  C   UNL     1       2.192   0.448   2.425  1.00  0.00     0.116 C 
BRANCH   3   4
ATOM      4  N   UNL     1       2.803   0.285   1.122  1.00  0.00    -0.356 N 
ATOM      5  O   UNL     1       0.847   0.085  -0.070  1.00  0.00    -0.275 OA
ATOM      6  C   UNL     1       2.074   0.084  -0.027  1.00  0.00     0.225 C 
ATOM      7  H   UNL     1       3.785   0.319   1.056  1.00  0.00     0.163 HD
BRANCH   6   8
ATOM      8  C   UNL     1       2.913  -0.198  -1.258  1.00  0.00     0.155 C 
BRANCH   8   9
ATOM      9  C   UNL     1       3.860   0.907  -1.575  1.00  0.00     0.045 A 
ATOM     10  C   UNL     1       5.176   0.858  -1.963  1.00  0.00     0.049 A 
ATOM     11  N   UNL     1       3.534   2.234  -1.569  1.00  0.00    -0.282 N 
ATOM     12  C   UNL     1       5.565   2.196  -2.206  1.00  0.00     0.066 A 
ATOM     13  N   UNL     1       4.549   3.033  -1.948  1.00  0.00    -0.180 NA
ATOM     14  H   UNL     1       2.645   2.573  -1.314  1.00  0.00     0.190 HD
BRANCH  12  15
ATOM     15  C   UNL     1       6.883   2.737  -2.717  1.00  0.00     0.051 C 
ATOM     16  C   UNL     1       7.180   2.340  -4.167  1.00  0.00     0.071 C 
ATOM     17  C   UNL     1       8.091   2.362  -1.854  1.00  0.00     0.071 C 
ATOM     18  C   UNL     1       7.563   0.867  -4.300  1.00  0.00     0.263 C 
ATOM     19  C   UNL     1       8.501   0.896  -2.002  1.00  0.00     0.263 C 
ATOM     20  N   UNL     1       8.630   0.445  -3.391  1.00  0.00    -0.330 N 
ATOM     21  H   UNL     1       9.446   0.950  -3.737  1.00  0.00     0.348 HD
BRANCH  20  22
ATOM     22  C   UNL     1       8.928  -1.003  -3.487  1.00  0.00     0.310 C 
BRANCH  22  23
ATOM     23  C   UNL     1       7.828  -1.931  -3.014  1.00  0.00     0.059 A 
ATOM     24  C   UNL     1       6.679  -2.324  -3.679  1.00  0.00     0.021 A 
ATOM     25  S   UNL     1       7.927  -2.685  -1.472  1.00  0.00    -0.143 S 
ATOM     26  C   UNL     1       5.827  -3.136  -2.875  1.00  0.00     0.012 A 
ATOM     27  C   UNL     1       6.386  -3.405  -1.647  1.00  0.00     0.065 A 
ENDBRANCH  22  23
ENDBRANCH  20  22
ENDBRANCH  12  15
ENDBRANCH   8   9
ENDBRANCH   6   8
ENDBRANCH   3   4
ENDBRANCH   2   3
ENDBRANCH   1   2
BRANCH   1  28
ATOM     28  C   UNL     1       4.708   0.915   4.220  1.00  0.00     0.002 C 
BRANCH  28  29
ATOM     29  C   UNL     1       4.020   1.388   5.502  1.00  0.00     0.021 C 
BRANCH  29  30
ATOM     30  C   UNL     1       4.164   0.446   6.693  1.00  0.00     0.116 C 
BRANCH  30  31
ATOM     31  N   UNL     1       5.548   0.298   7.116  1.00  0.00    -0.352 N 
ATOM     32  C   UNL     1       6.100   0.462   8.363  1.00  0.00     0.251 C 
ATOM     33  H   UNL     1       6.180   0.043   6.405  1.00  0.00     0.163 HD
ATOM     34  O   UNL     1       7.324   0.481   8.486  1.00  0.00    -0.269 OA
BRANCH  32  35
ATOM     35  C   UNL     1       5.228   0.644   9.544  1.00  0.00     0.039 A 
ATOM     36  C   UNL     1       5.560   1.619  10.488  1.00  0.00     0.014 A 
ATOM     37  C   UNL     1       4.087  -0.143   9.725  1.00  0.00     0.014 A 
ATOM     38  C   UNL     1       4.714   1.848  11.576  1.00  0.00     0.010 A 
ATOM     39  C   UNL     1       3.204   0.141  10.765  1.00  0.00     0.010 A 
ATOM     40  C   UNL     1       3.509   1.138  11.704  1.00  0.00    -0.014 A 
BRANCH  40  41
ATOM     41  C   UNL     1       2.558   1.427  12.812  1.00  0.00     0.031 A 
ATOM     42  C   UNL     1       2.236   0.369  13.833  1.00  0.00     0.074 A 
ATOM     43  C   UNL     1       1.944   2.626  12.867  1.00  0.00     0.049 A 
ATOM     44  N   UNL     1       1.404   0.416  14.842  1.00  0.00    -0.248 NA
ATOM     45  C   UNL     1       2.921  -0.922  13.680  1.00  0.00     0.031 C 
ATOM     46  C   UNL     1       2.147   3.723  11.918  1.00  0.00     0.029 A 
ATOM     47  N   UNL     1       1.026   3.125  13.757  1.00  0.00    -0.354 N 
ATOM     48  C   UNL     1       1.454  -0.841  15.435  1.00  0.00     0.074 A 
ATOM     49  C   UNL     1       2.347  -1.645  14.629  1.00  0.00     0.031 C 
ATOM     50  C   UNL     1       1.411   4.778  12.302  1.00  0.00     0.029 A 
ATOM     51  C   UNL     1       0.641   4.419  13.489  1.00  0.00     0.049 A 
ATOM     52  H   UNL     1       0.675   2.606  14.517  1.00  0.00     0.167 HD
ATOM     53  C   UNL     1       0.831  -1.277  16.560  1.00  0.00     0.034 A 
ATOM     54  C   UNL     1      -0.235   5.223  14.122  1.00  0.00     0.034 A 
ATOM     55  C   UNL     1      -0.056  -0.458  17.353  1.00  0.00     0.049 A 
ATOM     56  C   UNL     1      -0.957   4.699  15.339  1.00  0.00     0.074 A 
ATOM     57  C   UNL     1      -0.691  -0.776  18.541  1.00  0.00     0.029 A 
ATOM     58  N   UNL     1      -0.449   0.836  17.031  1.00  0.00    -0.354 N 
ATOM     59  N   UNL     1      -0.853   3.528  15.924  1.00  0.00    -0.248 NA
ATOM     60  C   UNL     1      -1.908   5.612  15.985  1.00  0.00     0.031 C 
ATOM     61  C   UNL     1      -1.533   0.287  18.888  1.00  0.00     0.029 A 
ATOM     62  C   UNL     1      -1.352   1.310  17.971  1.00  0.00     0.049 A 
ATOM     63  H   UNL     1      -0.131   1.343  16.249  1.00  0.00     0.167 HD
ATOM     64  C   UNL     1      -1.698   3.580  17.029  1.00  0.00     0.074 A 
ATOM     65  C   UNL     1      -2.292   4.902  17.034  1.00  0.00     0.031 C 
ATOM     66  C   UNL     1      -1.953   2.625  17.961  1.00  0.00     0.034 A 
BRANCH  53  67
ATOM     67  C   UNL     1       1.061  -2.715  16.968  1.00  0.00     0.023 A 
ATOM     68  C   UNL     1       2.345  -3.205  17.268  1.00  0.00     0.031 A 
ATOM     69  C   UNL     1      -0.012  -3.623  17.015  1.00  0.00     0.131 A 
ATOM     70  C   UNL     1       2.536  -4.575  17.503  1.00  0.00     0.055 A 
ATOM     71  C   UNL     1       0.172  -4.968  17.347  1.00  0.00     0.041 A 
ATOM     72  F   UNL     1      -1.260  -3.225  16.720  1.00  0.00    -0.206 F 
ATOM     73  C   UNL     1       1.455  -5.456  17.572  1.00  0.00     0.022 A 
BRANCH  70  74
ATOM     74  S   UNL     1       4.233  -5.218  17.531  1.00  0.00     0.124 S 
ATOM     75  O   UNL     1       4.736  -4.779  16.231  1.00  0.00    -0.237 OA
ATOM     76  O   UNL     1       4.803  -4.551  18.696  1.00  0.00    -0.237 OA
ATOM     77  O   UNL     1       4.051  -6.662  17.664  1.00  0.00    -0.744 OA
ENDBRANCH  70  74
ENDBRANCH  53  67
BRANCH  54  78
ATOM     78  C   UNL     1      -0.483   6.610  13.632  1.00  0.00     0.023 A 
ATOM     79  C   UNL     1      -0.164   7.721  14.428  1.00  0.00     0.031 A 
ATOM     80  C   UNL     1      -1.081   6.847  12.381  1.00  0.00     0.131 A 
ATOM     81  C   UNL     1      -0.486   9.014  13.990  1.00  0.00     0.055 A 
ATOM     82  C   UNL     1      -1.347   8.139  11.923  1.00  0.00     0.041 A 
ATOM     83  F   UNL     1      -1.407   5.821  11.578  1.00  0.00    -0.206 F 
ATOM     84  C   UNL     1      -1.061   9.232  12.736  1.00  0.00     0.022 A 
BRANCH  81  85
ATOM     85  S   UNL     1      -0.224  10.405  15.124  1.00  0.00     0.124 S 
ATOM     86  O   UNL     1      -1.057  10.022  16.258  1.00  0.00    -0.237 OA
ATOM     87  O   UNL     1       1.218  10.354  15.339  1.00  0.00    -0.237 OA
ATOM     88  O   UNL     1      -0.698  11.558  14.361  1.00  0.00    -0.744 OA
ENDBRANCH  81  85
ENDBRANCH  54  78
BRANCH  66  89
ATOM     89  C   UNL     1      -2.883   2.999  19.092  1.00  0.00     0.023 A 
ATOM     90  C   UNL     1      -4.238   3.305  18.873  1.00  0.00     0.031 A 
ATOM     91  C   UNL     1      -2.397   3.069  20.411  1.00  0.00     0.131 A 
ATOM     92  C   UNL     1      -5.042   3.728  19.943  1.00  0.00     0.055 A 
ATOM     93  C   UNL     1      -3.220   3.421  21.482  1.00  0.00     0.041 A 
ATOM     94  F   UNL     1      -1.111   2.795  20.682  1.00  0.00    -0.206 F 
ATOM     95  C   UNL     1      -4.547   3.769  21.249  1.00  0.00     0.022 A 
BRANCH  92  96
ATOM     96  S   UNL     1      -6.715   4.335  19.589  1.00  0.00     0.124 S 
ATOM     97  O   UNL     1      -6.451   5.422  18.652  1.00  0.00    -0.237 OA
ATOM     98  O   UNL     1      -7.363   3.154  19.028  1.00  0.00    -0.237 OA
ATOM     99  O   UNL     1      -7.213   4.752  20.898  1.00  0.00    -0.744 OA
ENDBRANCH  92  96
ENDBRANCH  66  89
ENDBRANCH  40  41
ENDBRANCH  32  35
ENDBRANCH  30  31
ENDBRANCH  29  30
ENDBRANCH  28  29
ENDBRANCH   1  28
TORSDOF 20
