REMARK SMILES O=C(NCCCCCCNC(=O)c1ccc(C[NH+]2CC3(CCCCCC3)C2)o1)c1ccc(-c2c3nc(c(-c4cc(S(=O)(=O)[O-])ccc4F)c4ccc([nH]4)c(-c4cc(S(=O)(=O)[O-])ccc4F)c4nc(c(-c5cc(S(=O)(=O)[O-])ccc5F)c5ccc2[nH]5)C=C4)C=C3)cc1
REMARK SMILES IDX 8 1 7 2 6 3 5 4 4 5 3 6 1 7 2 8 29 10 30 11 91 12 31 13
REMARK SMILES IDX 90 14 32 15 33 16 34 17 84 18 35 19 89 20 83 21 85 22 36 23
REMARK SMILES IDX 88 24 82 25 81 26 37 28 69 29 49 30 68 31 50 32 53 33 67 34
REMARK SMILES IDX 86 35 51 36 52 37 66 39 87 40 54 41 38 42 39 43 47 44 40 45
REMARK SMILES IDX 46 46 48 47 45 48 41 49 42 50 43 51 44 52 70 53 71 54 79 55
REMARK SMILES IDX 72 56 78 57 80 58 77 59 73 60 74 61 75 62 76 63 55 64 56 65
REMARK SMILES IDX 64 66 57 67 63 68 65 69 62 70 58 71 59 72 60 73 61 74 9 75
REMARK SMILES IDX 10 76 11 77 12 79 13 80 14 81 28 82 15 83 16 84 17 85 18 86
REMARK SMILES IDX 19 87 27 88 20 90 21 91 22 92 26 94 25 95 24 96 23 97
REMARK H PARENT 3 9 85 27 53 38 10 78 18 89
REMARK Flexibility Score: 80.00
ROOT
ATOM      1  C   UNL     1       6.089  -2.776  -3.212  1.00  0.00     0.021 C 
ENDROOT
BRANCH   1   2
ATOM      2  C   UNL     1       4.563  -2.859  -3.150  1.00  0.00     0.002 C 
BRANCH   2   3
ATOM      3  C   UNL     1       3.983  -3.347  -1.820  1.00  0.00     0.002 C 
BRANCH   3   4
ATOM      4  C   UNL     1       4.479  -2.614  -0.573  1.00  0.00     0.021 C 
BRANCH   4   5
ATOM      5  C   UNL     1       4.328  -1.100  -0.608  1.00  0.00     0.116 C 
BRANCH   5   6
ATOM      6  N   UNL     1       2.942  -0.673  -0.704  1.00  0.00    -0.352 N 
ATOM      7  O   UNL     1       1.053   0.379  -0.061  1.00  0.00    -0.269 OA
ATOM      8  C   UNL     1       2.264   0.238   0.071  1.00  0.00     0.251 C 
ATOM      9  H   UNL     1       2.417  -1.094  -1.422  1.00  0.00     0.163 HD
BRANCH   8  10
ATOM     10  C   UNL     1       3.002   1.023   1.086  1.00  0.00     0.039 A 
ATOM     11  C   UNL     1       4.220   1.629   0.770  1.00  0.00     0.014 A 
ATOM     12  C   UNL     1       2.477   1.133   2.377  1.00  0.00     0.014 A 
ATOM     13  C   UNL     1       4.984   2.207   1.777  1.00  0.00     0.010 A 
ATOM     14  C   UNL     1       3.208   1.793   3.369  1.00  0.00     0.010 A 
ATOM     15  C   UNL     1       4.487   2.300   3.088  1.00  0.00    -0.014 A 
BRANCH  15  16
ATOM     16  C   UNL     1       5.319   2.952   4.134  1.00  0.00     0.031 A 
ATOM     17  C   UNL     1       5.838   2.171   5.312  1.00  0.00     0.074 A 
ATOM     18  C   UNL     1       5.645   4.251   3.988  1.00  0.00     0.049 A 
ATOM     19  N   UNL     1       6.612   2.569   6.290  1.00  0.00    -0.248 NA
ATOM     20  C   UNL     1       5.423   0.764   5.413  1.00  0.00     0.031 C 
ATOM     21  C   UNL     1       5.192   5.112   2.892  1.00  0.00     0.029 A 
ATOM     22  N   UNL     1       6.448   5.069   4.740  1.00  0.00    -0.354 N 
ATOM     23  C   UNL     1       6.760   1.472   7.135  1.00  0.00     0.074 A 
ATOM     24  C   UNL     1       5.966   0.402   6.566  1.00  0.00     0.031 C 
ATOM     25  C   UNL     1       5.770   6.316   3.011  1.00  0.00     0.029 A 
ATOM     26  C   UNL     1       6.582   6.336   4.222  1.00  0.00     0.049 A 
ATOM     27  H   UNL     1       6.888   4.777   5.571  1.00  0.00     0.167 HD
ATOM     28  C   UNL     1       7.495   1.368   8.271  1.00  0.00     0.034 A 
ATOM     29  C   UNL     1       7.272   7.400   4.674  1.00  0.00     0.034 A 
ATOM     30  C   UNL     1       8.291   2.443   8.817  1.00  0.00     0.049 A 
ATOM     31  C   UNL     1       8.070   7.260   5.941  1.00  0.00     0.074 A 
ATOM     32  C   UNL     1       9.102   2.433   9.940  1.00  0.00     0.029 A 
ATOM     33  N   UNL     1       8.375   3.723   8.284  1.00  0.00    -0.354 N 
ATOM     34  N   UNL     1       8.216   6.209   6.714  1.00  0.00    -0.248 NA
ATOM     35  C   UNL     1       8.802   8.449   6.391  1.00  0.00     0.031 C 
ATOM     36  C   UNL     1       9.623   3.720  10.120  1.00  0.00     0.029 A 
ATOM     37  C   UNL     1       9.199   4.517   9.069  1.00  0.00     0.049 A 
ATOM     38  H   UNL     1       7.915   4.024   7.466  1.00  0.00     0.167 HD
ATOM     39  C   UNL     1       9.075   6.606   7.733  1.00  0.00     0.074 A 
ATOM     40  C   UNL     1       9.431   7.985   7.461  1.00  0.00     0.031 C 
ATOM     41  C   UNL     1       9.531   5.896   8.796  1.00  0.00     0.034 A 
BRANCH  28  42
ATOM     42  C   UNL     1       7.431   0.058   9.023  1.00  0.00     0.023 A 
ATOM     43  C   UNL     1       7.911  -1.142   8.471  1.00  0.00     0.031 A 
ATOM     44  C   UNL     1       6.856   0.006  10.306  1.00  0.00     0.131 A 
ATOM     45  C   UNL     1       7.744  -2.351   9.165  1.00  0.00     0.055 A 
ATOM     46  C   UNL     1       6.762  -1.188  11.025  1.00  0.00     0.041 A 
ATOM     47  F   UNL     1       6.362   1.115  10.879  1.00  0.00    -0.206 F 
ATOM     48  C   UNL     1       7.194  -2.378  10.449  1.00  0.00     0.022 A 
BRANCH  45  49
ATOM     49  S   UNL     1       8.127  -3.903   8.308  1.00  0.00     0.124 S 
ATOM     50  O   UNL     1       7.260  -3.817   7.135  1.00  0.00    -0.237 OA
ATOM     51  O   UNL     1       9.557  -3.780   8.054  1.00  0.00    -0.237 OA
ATOM     52  O   UNL     1       7.751  -4.932   9.276  1.00  0.00    -0.744 OA
ENDBRANCH  45  49
ENDBRANCH  28  42
BRANCH  29  53
ATOM     53  C   UNL     1       7.229   8.691   3.932  1.00  0.00     0.023 A 
ATOM     54  C   UNL     1       8.383   9.219   3.333  1.00  0.00     0.031 A 
ATOM     55  C   UNL     1       6.035   9.426   3.831  1.00  0.00     0.131 A 
ATOM     56  C   UNL     1       8.327  10.466   2.692  1.00  0.00     0.055 A 
ATOM     57  C   UNL     1       5.973  10.641   3.148  1.00  0.00     0.041 A 
ATOM     58  F   UNL     1       4.902   8.960   4.381  1.00  0.00    -0.206 F 
ATOM     59  C   UNL     1       7.127  11.174   2.584  1.00  0.00     0.022 A 
BRANCH  56  60
ATOM     60  S   UNL     1       9.866  11.186   2.059  1.00  0.00     0.124 S 
ATOM     61  O   UNL     1      10.684  11.248   3.265  1.00  0.00    -0.237 OA
ATOM     62  O   UNL     1      10.271  10.203   1.059  1.00  0.00    -0.237 OA
ATOM     63  O   UNL     1       9.442  12.478   1.524  1.00  0.00    -0.744 OA
ENDBRANCH  56  60
ENDBRANCH  29  53
BRANCH  41  64
ATOM     64  C   UNL     1      10.499   6.601   9.714  1.00  0.00     0.023 A 
ATOM     65  C   UNL     1      10.105   7.695  10.504  1.00  0.00     0.031 A 
ATOM     66  C   UNL     1      11.845   6.196   9.767  1.00  0.00     0.131 A 
ATOM     67  C   UNL     1      11.060   8.390  11.261  1.00  0.00     0.055 A 
ATOM     68  C   UNL     1      12.778   6.854  10.569  1.00  0.00     0.041 A 
ATOM     69  F   UNL     1      12.276   5.159   9.031  1.00  0.00    -0.206 F 
ATOM     70  C   UNL     1      12.391   7.968  11.309  1.00  0.00     0.022 A 
BRANCH  67  71
ATOM     71  S   UNL     1      10.562   9.921  12.097  1.00  0.00     0.124 S 
ATOM     72  O   UNL     1      10.049  10.720  10.989  1.00  0.00    -0.237 OA
ATOM     73  O   UNL     1       9.567   9.444  13.053  1.00  0.00    -0.237 OA
ATOM     74  O   UNL     1      11.806  10.409  12.689  1.00  0.00    -0.744 OA
ENDBRANCH  67  71
ENDBRANCH  41  64
ENDBRANCH  15  16
ENDBRANCH   8  10
ENDBRANCH   5   6
ENDBRANCH   4   5
ENDBRANCH   3   4
ENDBRANCH   2   3
ENDBRANCH   1   2
BRANCH   1  75
ATOM     75  C   UNL     1       6.815  -4.050  -2.796  1.00  0.00     0.116 C 
BRANCH  75  76
ATOM     76  N   UNL     1       6.513  -5.157  -3.683  1.00  0.00    -0.349 N 
ATOM     77  C   UNL     1       7.382  -5.896  -4.456  1.00  0.00     0.286 C 
ATOM     78  H   UNL     1       5.564  -5.415  -3.740  1.00  0.00     0.163 HD
ATOM     79  O   UNL     1       6.906  -6.643  -5.302  1.00  0.00    -0.266 OA
BRANCH  77  80
ATOM     80  C   UNL     1       8.797  -5.730  -4.216  1.00  0.00     0.191 A 
ATOM     81  C   UNL     1       9.536  -5.642  -3.050  1.00  0.00     0.057 A 
ATOM     82  O   UNL     1       9.629  -5.628  -5.295  1.00  0.00    -0.450 OA
ATOM     83  C   UNL     1      10.863  -5.368  -3.431  1.00  0.00     0.052 A 
ATOM     84  C   UNL     1      10.885  -5.425  -4.810  1.00  0.00     0.159 A 
BRANCH  84  85
ATOM     85  C   UNL     1      11.995  -5.380  -5.803  1.00  0.00     0.338 C 
BRANCH  85  86
ATOM     86  N   UNL     1      12.492  -6.738  -6.077  1.00  0.00    -0.327 N 
ATOM     87  C   UNL     1      13.166  -7.312  -4.905  1.00  0.00     0.275 C 
ATOM     88  C   UNL     1      13.747  -6.738  -6.842  1.00  0.00     0.275 C 
ATOM     89  H   UNL     1      11.666  -7.189  -6.469  1.00  0.00     0.348 HD
ATOM     90  C   UNL     1      14.556  -7.042  -5.543  1.00  0.00     0.068 C 
BRANCH  90  91
ATOM     91  C   UNL     1      15.390  -8.328  -5.596  1.00  0.00     0.019 C 
BRANCH  91  92
ATOM     92  C   UNL     1      15.980  -8.699  -4.231  1.00  0.00     0.001 CG0
ATOM     93  G   UNL     1      17.218  -7.873  -3.887  1.00  0.00     0.000 G0
ENDBRANCH  91  92
ENDBRANCH  90  91
BRANCH  90  94
ATOM     94  C   UNL     1      15.369  -5.808  -5.108  1.00  0.00     0.019 C 
BRANCH  94  95
ATOM     95  C   UNL     1      15.673  -5.796  -3.615  1.00  0.00     0.001 C 
BRANCH  95  96
ATOM     96  C   UNL     1      16.958  -6.519  -3.230  1.00  0.00     0.000 C 
BRANCH  96  97
ATOM     97  C   UNL     1      17.218  -7.873  -3.887  1.00  0.00     0.000 CG0
ATOM     98  G   UNL     1      15.980  -8.699  -4.231  1.00  0.00     0.000 G0
ENDBRANCH  96  97
ENDBRANCH  95  96
ENDBRANCH  94  95
ENDBRANCH  90  94
ENDBRANCH  85  86
ENDBRANCH  84  85
ENDBRANCH  77  80
ENDBRANCH  75  76
ENDBRANCH   1  75
TORSDOF 18
