REMARK SMILES CC1(C)Cc2c(-c3ccccc3)c(-c3ccc(Cl)cc3)c(CC(=O)NCCCCCCNC(=O)c3ccc(-c4c5nc(c(-c6cc(S(=O)(=O)[O-])ccc6F)c6ccc([nH]6)c(-c6cc(S(=O)(=O)[O-])ccc6F)c6nc(c(-c7cc(S(=O)(=O)[O-])ccc7F)c7ccc4[nH]7)C=C6)C=C5)cc3)n2C1
REMARK SMILES IDX 29 1 28 2 27 3 26 4 25 5 23 6 24 7 22 9 21 10 1 11 2 12 3 13
REMARK SMILES IDX 4 14 99 15 5 16 98 17 6 18 13 19 7 20 8 21 12 22 9 23 11 24
REMARK SMILES IDX 10 25 14 26 15 27 20 28 16 29 19 30 17 31 18 32 30 33 31 34
REMARK SMILES IDX 32 35 33 36 34 38 35 39 36 40 97 41 37 42 96 43 38 44 39 45
REMARK SMILES IDX 40 46 90 47 41 48 95 49 89 50 91 51 42 52 94 53 88 54 87 55
REMARK SMILES IDX 43 57 75 58 55 59 74 60 56 61 59 62 73 63 92 64 57 65 58 66
REMARK SMILES IDX 72 68 93 69 60 70 44 71 45 72 53 73 46 74 52 75 54 76 51 77
REMARK SMILES IDX 47 78 48 79 49 80 50 81 76 82 77 83 85 84 78 85 84 86 86 87
REMARK SMILES IDX 83 88 79 89 80 90 81 91 82 92 61 93 62 94 70 95 63 96 69 97
REMARK SMILES IDX 71 98 68 99 64 100 65 101 66 102 67 103
REMARK H PARENT 25 8 32 37 91 56 59 67
REMARK Flexibility Score: inf
ROOT
ATOM      1  C   UNL     1      -0.804   0.764  -7.643  1.00  0.00     0.002 C 
ENDROOT
BRANCH   1   2
ATOM      2  C   UNL     1      -0.679  -0.691  -7.159  1.00  0.00     0.002 C 
BRANCH   2   3
ATOM      3  C   UNL     1      -0.749  -0.880  -5.643  1.00  0.00     0.021 C 
BRANCH   3   4
ATOM      4  C   UNL     1      -1.901  -0.136  -4.975  1.00  0.00     0.116 C 
BRANCH   4   5
ATOM      5  N   UNL     1      -3.193  -0.702  -5.285  1.00  0.00    -0.356 N 
ATOM      6  C   UNL     1      -4.101  -1.266  -4.435  1.00  0.00     0.225 C 
ATOM      7  O   UNL     1      -5.200  -1.584  -4.899  1.00  0.00    -0.275 OA
ATOM      8  H   UNL     1      -3.453  -0.679  -6.234  1.00  0.00     0.163 HD
BRANCH   6   9
ATOM      9  C   UNL     1      -3.796  -1.401  -2.950  1.00  0.00     0.154 C 
BRANCH   9  10
ATOM     10  C   UNL     1      -2.570  -2.213  -2.653  1.00  0.00     0.036 A 
ATOM     11  C   UNL     1       0.763   0.079   0.276  1.00  0.00     0.013 C 
ATOM     12  C   UNL     1       0.332  -0.576  -1.038  1.00  0.00    -0.012 C 
ATOM     13  C   UNL     1       1.080   0.109  -2.196  1.00  0.00     0.013 C 
ATOM     14  C   UNL     1       0.628  -2.112  -1.037  1.00  0.00     0.063 C 
ATOM     15  C   UNL     1      -1.208  -0.484  -1.239  1.00  0.00     0.129 C 
ATOM     16  C   UNL     1      -0.536  -2.664  -1.774  1.00  0.00     0.027 A 
ATOM     17  N   UNL     1      -1.529  -1.741  -1.907  1.00  0.00    -0.346 N 
ATOM     18  C   UNL     1      -0.960  -3.833  -2.352  1.00  0.00     0.011 A 
ATOM     19  C   UNL     1      -2.233  -3.532  -2.970  1.00  0.00     0.011 A 
BRANCH  18  20
ATOM     20  C   UNL     1      -0.273  -5.112  -2.275  1.00  0.00    -0.016 A 
ATOM     21  C   UNL     1       0.263  -5.566  -1.063  1.00  0.00     0.009 A 
ATOM     22  C   UNL     1      -0.299  -5.981  -3.370  1.00  0.00     0.009 A 
ATOM     23  C   UNL     1       0.731  -6.876  -0.945  1.00  0.00     0.001 A 
ATOM     24  C   UNL     1       0.087  -7.311  -3.225  1.00  0.00     0.001 A 
ATOM     25  C   UNL     1       0.622  -7.754  -2.019  1.00  0.00     0.000 A 
ENDBRANCH  18  20
BRANCH  19  26
ATOM     26  C   UNL     1      -3.062  -4.448  -3.750  1.00  0.00    -0.016 A 
ATOM     27  C   UNL     1      -3.553  -5.622  -3.162  1.00  0.00     0.010 A 
ATOM     28  C   UNL     1      -3.207  -4.272  -5.132  1.00  0.00     0.010 A 
ATOM     29  C   UNL     1      -4.178  -6.599  -3.944  1.00  0.00     0.021 A 
ATOM     30  C   UNL     1      -3.859  -5.232  -5.910  1.00  0.00     0.021 A 
ATOM     31  C   UNL     1      -4.336  -6.395  -5.313  1.00  0.00     0.041 A 
ATOM     32  Cl  UNL     1      -5.101  -7.598  -6.277  1.00  0.00    -0.084 Cl
ENDBRANCH  19  26
ENDBRANCH   9  10
ENDBRANCH   6   9
ENDBRANCH   4   5
ENDBRANCH   3   4
ENDBRANCH   2   3
ENDBRANCH   1   2
BRANCH   1  33
ATOM     33  C   UNL     1       0.134   1.790  -6.983  1.00  0.00     0.021 C 
BRANCH  33  34
ATOM     34  C   UNL     1       1.594   1.577  -7.337  1.00  0.00     0.116 C 
BRANCH  34  35
ATOM     35  N   UNL     1       1.874   1.850  -8.753  1.00  0.00    -0.352 N 
ATOM     36  C   UNL     1       3.094   1.849  -9.429  1.00  0.00     0.251 C 
ATOM     37  H   UNL     1       1.087   2.064  -9.305  1.00  0.00     0.163 HD
ATOM     38  O   UNL     1       3.227   2.438 -10.480  1.00  0.00    -0.269 OA
BRANCH  36  39
ATOM     39  C   UNL     1       4.209   1.079  -8.842  1.00  0.00     0.039 A 
ATOM     40  C   UNL     1       5.563   1.435  -8.915  1.00  0.00     0.014 A 
ATOM     41  C   UNL     1       3.838  -0.043  -8.144  1.00  0.00     0.014 A 
ATOM     42  C   UNL     1       6.500   0.609  -8.279  1.00  0.00     0.010 A 
ATOM     43  C   UNL     1       4.673  -0.400  -7.148  1.00  0.00     0.010 A 
ATOM     44  C   UNL     1       6.019  -0.371  -7.419  1.00  0.00    -0.014 A 
BRANCH  44  45
ATOM     45  C   UNL     1       6.787  -1.367  -6.687  1.00  0.00     0.031 A 
ATOM     46  C   UNL     1       7.467  -0.829  -5.487  1.00  0.00     0.074 A 
ATOM     47  C   UNL     1       6.543  -2.689  -6.882  1.00  0.00     0.049 A 
ATOM     48  N   UNL     1       8.729  -0.621  -5.312  1.00  0.00    -0.248 NA
ATOM     49  C   UNL     1       6.624  -0.234  -4.430  1.00  0.00     0.031 C 
ATOM     50  C   UNL     1       5.586  -3.316  -7.810  1.00  0.00     0.029 A 
ATOM     51  N   UNL     1       7.017  -3.766  -6.199  1.00  0.00    -0.354 N 
ATOM     52  C   UNL     1       8.836  -0.129  -4.015  1.00  0.00     0.074 A 
ATOM     53  C   UNL     1       7.542   0.391  -3.693  1.00  0.00     0.031 C 
ATOM     54  C   UNL     1       5.418  -4.621  -7.489  1.00  0.00     0.029 A 
ATOM     55  C   UNL     1       6.334  -4.965  -6.414  1.00  0.00     0.049 A 
ATOM     56  H   UNL     1       7.791  -3.704  -5.593  1.00  0.00     0.167 HD
ATOM     57  C   UNL     1       9.859  -0.500  -3.194  1.00  0.00     0.034 A 
ATOM     58  C   UNL     1       6.463  -6.131  -5.713  1.00  0.00     0.034 A 
ATOM     59  C   UNL     1      10.899  -1.162  -3.956  1.00  0.00     0.049 A 
ATOM     60  C   UNL     1       7.742  -6.056  -4.975  1.00  0.00     0.074 A 
ATOM     61  C   UNL     1      11.678  -0.804  -5.042  1.00  0.00     0.029 A 
ATOM     62  N   UNL     1      10.943  -2.540  -3.915  1.00  0.00    -0.354 N 
ATOM     63  N   UNL     1       8.894  -6.036  -5.583  1.00  0.00    -0.248 NA
ATOM     64  C   UNL     1       7.727  -5.439  -3.654  1.00  0.00     0.031 C 
ATOM     65  C   UNL     1      11.701  -1.964  -5.875  1.00  0.00     0.029 A 
ATOM     66  C   UNL     1      11.036  -2.995  -5.210  1.00  0.00     0.049 A 
ATOM     67  H   UNL     1      10.914  -3.097  -3.104  1.00  0.00     0.167 HD
ATOM     68  C   UNL     1       9.600  -5.019  -4.962  1.00  0.00     0.074 A 
ATOM     69  C   UNL     1       8.878  -4.758  -3.713  1.00  0.00     0.031 C 
ATOM     70  C   UNL     1      10.491  -4.258  -5.665  1.00  0.00     0.034 A 
BRANCH  57  71
ATOM     71  C   UNL     1       9.763  -0.630  -1.683  1.00  0.00     0.023 A 
ATOM     72  C   UNL     1      10.933  -1.026  -1.008  1.00  0.00     0.031 A 
ATOM     73  C   UNL     1       8.583  -0.641  -0.899  1.00  0.00     0.131 A 
ATOM     74  C   UNL     1      10.886  -1.502   0.315  1.00  0.00     0.055 A 
ATOM     75  C   UNL     1       8.552  -1.054   0.436  1.00  0.00     0.041 A 
ATOM     76  F   UNL     1       7.373  -0.342  -1.382  1.00  0.00    -0.206 F 
ATOM     77  C   UNL     1       9.701  -1.521   1.042  1.00  0.00     0.022 A 
BRANCH  74  78
ATOM     78  S   UNL     1      12.375  -2.261   1.006  1.00  0.00     0.124 S 
ATOM     79  O   UNL     1      12.712  -3.239  -0.023  1.00  0.00    -0.237 OA
ATOM     80  O   UNL     1      13.267  -1.113   1.124  1.00  0.00    -0.237 OA
ATOM     81  O   UNL     1      11.910  -2.823   2.272  1.00  0.00    -0.744 OA
ENDBRANCH  74  78
ENDBRANCH  57  71
BRANCH  58  82
ATOM     82  C   UNL     1       5.375  -7.086  -5.368  1.00  0.00     0.023 A 
ATOM     83  C   UNL     1       5.551  -8.442  -4.995  1.00  0.00     0.031 A 
ATOM     84  C   UNL     1       4.089  -6.546  -5.186  1.00  0.00     0.131 A 
ATOM     85  C   UNL     1       4.448  -9.200  -4.521  1.00  0.00     0.055 A 
ATOM     86  C   UNL     1       3.012  -7.304  -4.760  1.00  0.00     0.041 A 
ATOM     87  F   UNL     1       3.850  -5.233  -5.327  1.00  0.00    -0.206 F 
ATOM     88  C   UNL     1       3.179  -8.634  -4.425  1.00  0.00     0.022 A 
BRANCH  85  89
ATOM     89  S   UNL     1       4.634 -10.900  -3.874  1.00  0.00     0.124 S 
ATOM     90  O   UNL     1       4.660 -11.698  -5.094  1.00  0.00    -0.237 OA
ATOM     91  O   UNL     1       5.879 -10.827  -3.118  1.00  0.00    -0.237 OA
ATOM     92  O   UNL     1       3.436 -11.081  -3.049  1.00  0.00    -0.744 OA
ENDBRANCH  85  89
ENDBRANCH  58  82
BRANCH  70  93
ATOM     93  C   UNL     1      10.779  -4.676  -7.099  1.00  0.00     0.023 A 
ATOM     94  C   UNL     1       9.828  -4.688  -8.153  1.00  0.00     0.031 A 
ATOM     95  C   UNL     1      12.104  -4.987  -7.426  1.00  0.00     0.131 A 
ATOM     96  C   UNL     1      10.219  -5.022  -9.466  1.00  0.00     0.055 A 
ATOM     97  C   UNL     1      12.493  -5.298  -8.729  1.00  0.00     0.041 A 
ATOM     98  F   UNL     1      13.057  -4.964  -6.480  1.00  0.00    -0.206 F 
ATOM     99  C   UNL     1      11.552  -5.322  -9.753  1.00  0.00     0.022 A 
BRANCH  96 100
ATOM    100  S   UNL     1       8.998  -5.084 -10.824  1.00  0.00     0.124 S 
ATOM    101  O   UNL     1       7.949  -5.950 -10.300  1.00  0.00    -0.237 OA
ATOM    102  O   UNL     1       8.640  -3.679 -10.998  1.00  0.00    -0.237 OA
ATOM    103  O   UNL     1       9.757  -5.655 -11.939  1.00  0.00    -0.744 OA
ENDBRANCH  96 100
ENDBRANCH  70  93
ENDBRANCH  44  45
ENDBRANCH  36  39
ENDBRANCH  34  35
ENDBRANCH  33  34
ENDBRANCH   1  33
TORSDOF 19
