REMARK SMILES O=C(NCCCCCCNC(=O)[C@@H]1CC=CC[C@H]1C(=O)N1CC[NH+](Cc2ccc3c(c2)OCO3)CC1)c1ccc(-c2c3nc(c(-c4cc(S(=O)(=O)[O-])ccc4F)c4ccc([nH]4)c(-c4cc(S(=O)(=O)[O-])ccc4F)c4nc(c(-c5cc(S(=O)(=O)[O-])ccc5F)c5ccc2[nH]5)C=C4)C=C3)cc1
REMARK SMILES IDX 6 1 5 2 4 3 3 4 1 5 2 6 37 8 38 9 99 10 39 11 98 12 40 13
REMARK SMILES IDX 41 14 42 15 92 16 43 17 97 18 91 19 93 20 44 21 96 22 90 23
REMARK SMILES IDX 89 24 45 26 77 27 57 28 76 29 58 30 61 31 75 32 94 33 59 34
REMARK SMILES IDX 60 35 74 37 95 38 62 39 46 40 47 41 55 42 48 43 54 44 56 45
REMARK SMILES IDX 53 46 49 47 50 48 51 49 52 50 78 51 79 52 87 53 80 54 86 55
REMARK SMILES IDX 88 56 85 57 81 58 82 59 83 60 84 61 63 62 64 63 72 64 65 65
REMARK SMILES IDX 71 66 73 67 70 68 66 69 67 70 68 71 69 72 7 73 8 74 9 75
REMARK SMILES IDX 10 76 11 77 12 79 13 80 14 81 18 82 15 83 17 84 16 85 19 86
REMARK SMILES IDX 20 87 21 88 22 89 36 90 23 91 35 92 24 93 25 95 26 96 27 97
REMARK SMILES IDX 31 98 28 99 30 100 29 101 32 102 34 103 33 104
REMARK H PARENT 3 7 93 25 61 36 10 78 24 94
REMARK Flexibility Score: inf
ROOT
ATOM      1  C   UNL     1       5.954   0.253  -2.928  1.00  0.00     0.002 C 
ENDROOT
BRANCH   1   2
ATOM      2  C   UNL     1       4.507  -0.240  -2.917  1.00  0.00     0.021 C 
BRANCH   2   3
ATOM      3  C   UNL     1       3.965  -0.646  -1.552  1.00  0.00     0.116 C 
BRANCH   3   4
ATOM      4  N   UNL     1       3.918   0.456  -0.606  1.00  0.00    -0.352 N 
ATOM      5  O   UNL     1       2.970   1.865   0.882  1.00  0.00    -0.269 OA
ATOM      6  C   UNL     1       2.889   0.829   0.226  1.00  0.00     0.251 C 
ATOM      7  H   UNL     1       4.731   1.009  -0.554  1.00  0.00     0.163 HD
BRANCH   6   8
ATOM      8  C   UNL     1       1.672  -0.010   0.304  1.00  0.00     0.039 A 
ATOM      9  C   UNL     1       1.772  -1.397   0.436  1.00  0.00     0.014 A 
ATOM     10  C   UNL     1       0.417   0.599   0.226  1.00  0.00     0.014 A 
ATOM     11  C   UNL     1       0.628  -2.183   0.348  1.00  0.00     0.010 A 
ATOM     12  C   UNL     1      -0.738  -0.189   0.224  1.00  0.00     0.010 A 
ATOM     13  C   UNL     1      -0.641  -1.589   0.253  1.00  0.00    -0.014 A 
BRANCH  13  14
ATOM     14  C   UNL     1      -1.849  -2.456   0.234  1.00  0.00     0.031 A 
ATOM     15  C   UNL     1      -2.745  -2.518  -0.973  1.00  0.00     0.074 A 
ATOM     16  C   UNL     1      -2.110  -3.221   1.312  1.00  0.00     0.049 A 
ATOM     17  N   UNL     1      -3.818  -3.242  -1.168  1.00  0.00    -0.248 NA
ATOM     18  C   UNL     1      -2.397  -1.646  -2.103  1.00  0.00     0.031 C 
ATOM     19  C   UNL     1      -1.312  -3.239   2.541  1.00  0.00     0.029 A 
ATOM     20  N   UNL     1      -3.095  -4.145   1.544  1.00  0.00    -0.354 N 
ATOM     21  C   UNL     1      -4.286  -2.904  -2.433  1.00  0.00     0.074 A 
ATOM     22  C   UNL     1      -3.395  -1.881  -2.943  1.00  0.00     0.031 C 
ATOM     23  C   UNL     1      -1.805  -4.167   3.372  1.00  0.00     0.029 A 
ATOM     24  C   UNL     1      -2.993  -4.760   2.770  1.00  0.00     0.049 A 
ATOM     25  H   UNL     1      -3.808  -4.348   0.897  1.00  0.00     0.167 HD
ATOM     26  C   UNL     1      -5.352  -3.406  -3.107  1.00  0.00     0.034 A 
ATOM     27  C   UNL     1      -3.775  -5.689   3.353  1.00  0.00     0.034 A 
ATOM     28  C   UNL     1      -6.229  -4.428  -2.580  1.00  0.00     0.049 A 
ATOM     29  C   UNL     1      -4.973  -6.199   2.601  1.00  0.00     0.074 A 
ATOM     30  C   UNL     1      -7.317  -5.031  -3.188  1.00  0.00     0.029 A 
ATOM     31  N   UNL     1      -6.126  -4.990  -1.312  1.00  0.00    -0.354 N 
ATOM     32  N   UNL     1      -5.389  -5.882   1.397  1.00  0.00    -0.248 NA
ATOM     33  C   UNL     1      -5.805  -7.193   3.288  1.00  0.00     0.031 C 
ATOM     34  C   UNL     1      -7.909  -5.905  -2.268  1.00  0.00     0.029 A 
ATOM     35  C   UNL     1      -7.149  -5.907  -1.110  1.00  0.00     0.049 A 
ATOM     36  H   UNL     1      -5.428  -4.770  -0.653  1.00  0.00     0.167 HD
ATOM     37  C   UNL     1      -6.524  -6.655   1.174  1.00  0.00     0.074 A 
ATOM     38  C   UNL     1      -6.710  -7.468   2.361  1.00  0.00     0.031 C 
ATOM     39  C   UNL     1      -7.336  -6.693   0.088  1.00  0.00     0.034 A 
BRANCH  26  40
ATOM     40  C   UNL     1      -5.653  -2.820  -4.468  1.00  0.00     0.023 A 
ATOM     41  C   UNL     1      -4.756  -2.939  -5.544  1.00  0.00     0.031 A 
ATOM     42  C   UNL     1      -6.845  -2.103  -4.685  1.00  0.00     0.131 A 
ATOM     43  C   UNL     1      -5.025  -2.289  -6.759  1.00  0.00     0.055 A 
ATOM     44  C   UNL     1      -7.144  -1.527  -5.922  1.00  0.00     0.041 A 
ATOM     45  F   UNL     1      -7.733  -1.938  -3.693  1.00  0.00    -0.206 F 
ATOM     46  C   UNL     1      -6.224  -1.604  -6.963  1.00  0.00     0.022 A 
BRANCH  43  47
ATOM     47  S   UNL     1      -3.718  -2.226  -8.016  1.00  0.00     0.124 S 
ATOM     48  O   UNL     1      -2.618  -1.614  -7.273  1.00  0.00    -0.237 OA
ATOM     49  O   UNL     1      -3.547  -3.632  -8.365  1.00  0.00    -0.237 OA
ATOM     50  O   UNL     1      -4.291  -1.387  -9.066  1.00  0.00    -0.744 OA
ENDBRANCH  43  47
ENDBRANCH  26  40
BRANCH  27  51
ATOM     51  C   UNL     1      -3.461  -6.178   4.724  1.00  0.00     0.023 A 
ATOM     52  C   UNL     1      -3.108  -7.516   4.951  1.00  0.00     0.031 A 
ATOM     53  C   UNL     1      -3.530  -5.315   5.833  1.00  0.00     0.131 A 
ATOM     54  C   UNL     1      -2.871  -7.963   6.260  1.00  0.00     0.055 A 
ATOM     55  C   UNL     1      -3.243  -5.752   7.126  1.00  0.00     0.041 A 
ATOM     56  F   UNL     1      -3.859  -4.023   5.669  1.00  0.00    -0.206 F 
ATOM     57  C   UNL     1      -2.922  -7.087   7.347  1.00  0.00     0.022 A 
BRANCH  54  58
ATOM     58  S   UNL     1      -2.563  -9.729   6.530  1.00  0.00     0.124 S 
ATOM     59  O   UNL     1      -3.771 -10.331   5.978  1.00  0.00    -0.237 OA
ATOM     60  O   UNL     1      -1.335  -9.942   5.770  1.00  0.00    -0.237 OA
ATOM     61  O   UNL     1      -2.420  -9.831   7.981  1.00  0.00    -0.744 OA
ENDBRANCH  54  58
ENDBRANCH  27  51
BRANCH  39  62
ATOM     62  C   UNL     1      -8.479  -7.678   0.134  1.00  0.00     0.023 A 
ATOM     63  C   UNL     1      -9.545  -7.529   1.039  1.00  0.00     0.031 A 
ATOM     64  C   UNL     1      -8.478  -8.803  -0.709  1.00  0.00     0.131 A 
ATOM     65  C   UNL     1     -10.531  -8.523   1.125  1.00  0.00     0.055 A 
ATOM     66  C   UNL     1      -9.495  -9.757  -0.661  1.00  0.00     0.041 A 
ATOM     67  F   UNL     1      -7.482  -8.996  -1.589  1.00  0.00    -0.206 F 
ATOM     68  C   UNL     1     -10.521  -9.628   0.271  1.00  0.00     0.022 A 
BRANCH  65  69
ATOM     69  S   UNL     1     -11.771  -8.407   2.445  1.00  0.00     0.124 S 
ATOM     70  O   UNL     1     -10.938  -8.379   3.643  1.00  0.00    -0.237 OA
ATOM     71  O   UNL     1     -12.459  -7.162   2.118  1.00  0.00    -0.237 OA
ATOM     72  O   UNL     1     -12.569  -9.619   2.273  1.00  0.00    -0.744 OA
ENDBRANCH  65  69
ENDBRANCH  39  62
ENDBRANCH  13  14
ENDBRANCH   6   8
ENDBRANCH   3   4
ENDBRANCH   2   3
ENDBRANCH   1   2
BRANCH   1  73
ATOM     73  C   UNL     1       6.982  -0.679  -2.279  1.00  0.00     0.002 C 
BRANCH  73  74
ATOM     74  C   UNL     1       6.979  -2.131  -2.771  1.00  0.00     0.021 C 
BRANCH  74  75
ATOM     75  C   UNL     1       7.151  -2.305  -4.275  1.00  0.00     0.116 C 
BRANCH  75  76
ATOM     76  N   UNL     1       8.439  -1.819  -4.734  1.00  0.00    -0.356 N 
ATOM     77  C   UNL     1       9.353  -2.408  -5.555  1.00  0.00     0.224 C 
ATOM     78  H   UNL     1       8.690  -0.928  -4.402  1.00  0.00     0.163 HD
ATOM     79  O   UNL     1      10.369  -1.773  -5.835  1.00  0.00    -0.275 OA
BRANCH  77  80
ATOM     80  C   UNL     1       9.119  -3.829  -6.048  1.00  0.00     0.095 C 
ATOM     81  C   UNL     1       9.708  -4.793  -5.004  1.00  0.00     0.041 C 
ATOM     82  C   UNL     1       9.760  -4.044  -7.425  1.00  0.00     0.095 C 
ATOM     83  C   UNL     1       9.781  -6.207  -5.497  1.00  0.00    -0.030 C 
ATOM     84  C   UNL     1       9.603  -5.508  -7.891  1.00  0.00     0.041 C 
ATOM     85  C   UNL     1       9.721  -6.526  -6.796  1.00  0.00    -0.030 C 
BRANCH  82  86
ATOM     86  C   UNL     1       9.270  -3.161  -8.582  1.00  0.00     0.227 C 
ATOM     87  O   UNL     1      10.090  -2.676  -9.368  1.00  0.00    -0.275 OA
ATOM     88  N   UNL     1       7.916  -3.197  -8.892  1.00  0.00    -0.331 N 
ATOM     89  C   UNL     1       7.564  -3.230 -10.308  1.00  0.00     0.181 C 
ATOM     90  C   UNL     1       6.915  -2.515  -8.080  1.00  0.00     0.181 C 
ATOM     91  C   UNL     1       6.127  -3.739 -10.550  1.00  0.00     0.284 C 
ATOM     92  C   UNL     1       5.507  -3.103  -8.281  1.00  0.00     0.284 C 
ATOM     93  N   UNL     1       5.074  -3.197  -9.681  1.00  0.00    -0.328 N 
ATOM     94  H   UNL     1       4.336  -3.901  -9.698  1.00  0.00     0.348 HD
BRANCH  93  95
ATOM     95  C   UNL     1       4.330  -2.039 -10.193  1.00  0.00     0.299 C 
BRANCH  95  96
ATOM     96  C   UNL     1       5.062  -0.715 -10.176  1.00  0.00     0.010 A 
ATOM     97  C   UNL     1       5.931  -0.364 -11.234  1.00  0.00     0.013 A 
ATOM     98  C   UNL     1       4.952   0.137  -9.062  1.00  0.00     0.060 A 
ATOM     99  C   UNL     1       6.757   0.760 -11.146  1.00  0.00     0.051 A 
ATOM    100  C   UNL     1       5.788   1.231  -8.997  1.00  0.00     0.166 A 
ATOM    101  C   UNL     1       6.676   1.525 -10.004  1.00  0.00     0.165 A 
ATOM    102  O   UNL     1       5.888   2.092  -7.949  1.00  0.00    -0.454 OA
ATOM    103  O   UNL     1       7.445   2.610  -9.718  1.00  0.00    -0.454 OA
ATOM    104  C   UNL     1       6.979   2.924  -8.389  1.00  0.00     0.468 C 
ENDBRANCH  95  96
ENDBRANCH  93  95
ENDBRANCH  82  86
ENDBRANCH  77  80
ENDBRANCH  75  76
ENDBRANCH  74  75
ENDBRANCH  73  74
ENDBRANCH   1  73
TORSDOF 19
