REMARK SMILES COc1ccc(CCNC(=O)c2cccnc2C(=O)NCCCCCCNC(=O)c2ccc(-c3c4nc(c(-c5cc(S(=O)(=O)[O-])ccc5F)c5ccc([nH]5)c(-c5cc(S(=O)(=O)[O-])ccc5F)c5nc(c(-c6cc(S(=O)(=O)[O-])ccc6F)c6ccc3[nH]6)C=C5)C=C4)cc2)cc1OC
REMARK SMILES IDX 22 1 21 2 20 3 18 4 19 5 17 7 12 8 13 9 14 10 16 11 15 12
REMARK SMILES IDX 10 13 9 14 11 16 8 17 7 18 6 19 3 20 4 21 94 22 5 23 93 24
REMARK SMILES IDX 2 25 1 26 95 27 96 28 23 29 24 30 25 31 26 32 27 33 28 34
REMARK SMILES IDX 29 36 30 37 31 38 92 39 32 40 91 41 33 42 34 43 35 44 85 45
REMARK SMILES IDX 36 46 90 47 84 48 86 49 37 50 89 51 83 52 82 53 38 55 70 56
REMARK SMILES IDX 50 57 69 58 51 59 54 60 68 61 87 62 52 63 53 64 67 66 88 67
REMARK SMILES IDX 55 68 39 69 40 70 48 71 41 72 47 73 49 74 46 75 42 76 43 77
REMARK SMILES IDX 44 78 45 79 71 80 72 81 80 82 73 83 79 84 81 85 78 86 74 87
REMARK SMILES IDX 75 88 76 89 77 90 56 91 57 92 65 93 58 94 64 95 66 96 63 97
REMARK SMILES IDX 59 98 60 99 61 100 62 101
REMARK H PARENT 20 6 9 15 27 35 86 54 54 65
REMARK Flexibility Score: inf
ROOT
ATOM      1  C   UNL     1      -2.115  -0.413   6.814  1.00  0.00     0.021 C 
ENDROOT
BRANCH   1   2
ATOM      2  C   UNL     1      -1.616   0.547   7.884  1.00  0.00     0.116 C 
BRANCH   2   3
ATOM      3  N   UNL     1      -2.122   0.344   9.213  1.00  0.00    -0.351 N 
ATOM      4  C   UNL     1      -1.565   0.633  10.442  1.00  0.00     0.270 C 
ATOM      5  O   UNL     1      -2.313   0.435  11.408  1.00  0.00    -0.267 OA
ATOM      6  H   UNL     1      -3.014  -0.070   9.254  1.00  0.00     0.163 HD
BRANCH   4   7
ATOM      7  C   UNL     1      -0.133   1.074  10.718  1.00  0.00     0.140 A 
ATOM      8  C   UNL     1       0.706   1.904   9.973  1.00  0.00     0.071 A 
ATOM      9  C   UNL     1       1.930   2.310  10.541  1.00  0.00     0.018 A 
ATOM     10  C   UNL     1       2.326   1.841  11.786  1.00  0.00     0.021 A 
ATOM     11  N   UNL     1       0.283   0.593  11.941  1.00  0.00    -0.250 NA
ATOM     12  C   UNL     1       1.474   0.982  12.442  1.00  0.00     0.112 A 
BRANCH   8  13
ATOM     13  C   UNL     1       0.364   2.550   8.705  1.00  0.00     0.253 C 
ATOM     14  N   UNL     1       1.115   2.326   7.567  1.00  0.00    -0.352 N 
ATOM     15  H   UNL     1       0.771   2.769   6.758  1.00  0.00     0.163 HD
ATOM     16  O   UNL     1      -0.601   3.315   8.678  1.00  0.00    -0.269 OA
BRANCH  14  17
ATOM     17  C   UNL     1       2.339   1.541   7.357  1.00  0.00     0.121 C 
BRANCH  17  18
ATOM     18  C   UNL     1       2.178   0.233   6.559  1.00  0.00     0.057 C 
BRANCH  18  19
ATOM     19  C   UNL     1       2.042   0.352   5.057  1.00  0.00    -0.042 A 
ATOM     20  C   UNL     1       1.711   0.352   2.245  1.00  0.00     0.160 A 
ATOM     21  C   UNL     1       0.701   0.799   3.100  1.00  0.00     0.051 A 
ATOM     22  C   UNL     1       2.937  -0.032   2.785  1.00  0.00     0.160 A 
ATOM     23  C   UNL     1       0.857   0.801   4.486  1.00  0.00     0.008 A 
ATOM     24  C   UNL     1       3.079  -0.047   4.189  1.00  0.00     0.054 A 
BRANCH  20  25
ATOM     25  O   UNL     1       1.480   0.437   0.901  1.00  0.00    -0.493 OA
ATOM     26  C   UNL     1       0.827  -0.716   0.365  1.00  0.00     0.278 C 
ENDBRANCH  20  25
BRANCH  22  27
ATOM     27  O   UNL     1       4.066  -0.419   2.114  1.00  0.00    -0.493 OA
ATOM     28  C   UNL     1       4.122  -0.207   0.706  1.00  0.00     0.278 C 
ENDBRANCH  22  27
ENDBRANCH  18  19
ENDBRANCH  17  18
ENDBRANCH  14  17
ENDBRANCH   8  13
ENDBRANCH   4   7
ENDBRANCH   2   3
ENDBRANCH   1   2
BRANCH   1  29
ATOM     29  C   UNL     1      -3.555  -0.260   6.320  1.00  0.00     0.002 C 
BRANCH  29  30
ATOM     30  C   UNL     1      -4.074   1.143   5.987  1.00  0.00     0.002 C 
BRANCH  30  31
ATOM     31  C   UNL     1      -3.247   2.025   5.046  1.00  0.00     0.021 C 
BRANCH  31  32
ATOM     32  C   UNL     1      -2.918   1.465   3.663  1.00  0.00     0.116 C 
BRANCH  32  33
ATOM     33  N   UNL     1      -4.078   1.209   2.826  1.00  0.00    -0.352 N 
ATOM     34  C   UNL     1      -4.328   1.549   1.510  1.00  0.00     0.251 C 
ATOM     35  H   UNL     1      -4.803   0.712   3.268  1.00  0.00     0.163 HD
ATOM     36  O   UNL     1      -5.425   1.289   1.026  1.00  0.00    -0.269 OA
BRANCH  34  37
ATOM     37  C   UNL     1      -3.302   2.232   0.676  1.00  0.00     0.039 A 
ATOM     38  C   UNL     1      -3.668   3.278  -0.176  1.00  0.00     0.014 A 
ATOM     39  C   UNL     1      -1.976   1.817   0.692  1.00  0.00     0.014 A 
ATOM     40  C   UNL     1      -2.692   3.954  -0.931  1.00  0.00     0.010 A 
ATOM     41  C   UNL     1      -0.993   2.545   0.015  1.00  0.00     0.010 A 
ATOM     42  C   UNL     1      -1.333   3.621  -0.811  1.00  0.00    -0.014 A 
BRANCH  42  43
ATOM     43  C   UNL     1      -0.245   4.378  -1.504  1.00  0.00     0.031 A 
ATOM     44  C   UNL     1       0.669   3.692  -2.493  1.00  0.00     0.074 A 
ATOM     45  C   UNL     1      -0.003   5.661  -1.163  1.00  0.00     0.049 A 
ATOM     46  N   UNL     1       1.723   4.161  -3.115  1.00  0.00    -0.248 NA
ATOM     47  C   UNL     1       0.374   2.284  -2.803  1.00  0.00     0.031 C 
ATOM     48  C   UNL     1      -0.759   6.426  -0.170  1.00  0.00     0.029 A 
ATOM     49  N   UNL     1       0.960   6.543  -1.594  1.00  0.00    -0.354 N 
ATOM     50  C   UNL     1       2.212   3.115  -3.892  1.00  0.00     0.074 A 
ATOM     51  C   UNL     1       1.381   1.964  -3.603  1.00  0.00     0.031 C 
ATOM     52  C   UNL     1      -0.241   7.661  -0.077  1.00  0.00     0.029 A 
ATOM     53  C   UNL     1       0.908   7.770  -0.971  1.00  0.00     0.049 A 
ATOM     54  H   UNL     1       1.624   6.318  -2.285  1.00  0.00     0.167 HD
ATOM     55  C   UNL     1       3.233   3.117  -4.787  1.00  0.00     0.034 A 
ATOM     56  C   UNL     1       1.701   8.855  -1.091  1.00  0.00     0.034 A 
ATOM     57  C   UNL     1       4.058   4.268  -5.072  1.00  0.00     0.049 A 
ATOM     58  C   UNL     1       2.852   8.825  -2.070  1.00  0.00     0.074 A 
ATOM     59  C   UNL     1       5.087   4.385  -5.993  1.00  0.00     0.029 A 
ATOM     60  N   UNL     1       3.954   5.500  -4.440  1.00  0.00    -0.354 N 
ATOM     61  N   UNL     1       3.252   7.844  -2.845  1.00  0.00    -0.248 NA
ATOM     62  C   UNL     1       3.645  10.055  -2.206  1.00  0.00     0.031 C 
ATOM     63  C   UNL     1       5.645   5.661  -5.874  1.00  0.00     0.029 A 
ATOM     64  C   UNL     1       4.911   6.371  -4.939  1.00  0.00     0.049 A 
ATOM     65  H   UNL     1       3.298   5.722  -3.741  1.00  0.00     0.167 HD
ATOM     66  C   UNL     1       4.308   8.360  -3.594  1.00  0.00     0.074 A 
ATOM     67  C   UNL     1       4.477   9.736  -3.186  1.00  0.00     0.031 C 
ATOM     68  C   UNL     1       5.066   7.749  -4.539  1.00  0.00     0.034 A 
BRANCH  55  69
ATOM     69  C   UNL     1       3.510   1.838  -5.543  1.00  0.00     0.023 A 
ATOM     70  C   UNL     1       2.555   1.285  -6.414  1.00  0.00     0.031 A 
ATOM     71  C   UNL     1       4.747   1.179  -5.424  1.00  0.00     0.131 A 
ATOM     72  C   UNL     1       2.825   0.082  -7.082  1.00  0.00     0.055 A 
ATOM     73  C   UNL     1       5.042   0.026  -6.157  1.00  0.00     0.041 A 
ATOM     74  F   UNL     1       5.695   1.646  -4.596  1.00  0.00    -0.206 F 
ATOM     75  C   UNL     1       4.073  -0.536  -6.984  1.00  0.00     0.022 A 
BRANCH  72  76
ATOM     76  S   UNL     1       1.476  -0.727  -7.983  1.00  0.00     0.124 S 
ATOM     77  O   UNL     1       0.503  -0.949  -6.916  1.00  0.00    -0.237 OA
ATOM     78  O   UNL     1       1.115   0.276  -8.979  1.00  0.00    -0.237 OA
ATOM     79  O   UNL     1       2.096  -1.939  -8.513  1.00  0.00    -0.744 OA
ENDBRANCH  72  76
ENDBRANCH  55  69
BRANCH  56  80
ATOM     80  C   UNL     1       1.450  10.076  -0.268  1.00  0.00     0.023 A 
ATOM     81  C   UNL     1       1.147  11.304  -0.877  1.00  0.00     0.031 A 
ATOM     82  C   UNL     1       1.590  10.055   1.131  1.00  0.00     0.131 A 
ATOM     83  C   UNL     1       1.074  12.472  -0.103  1.00  0.00     0.055 A 
ATOM     84  C   UNL     1       1.442  11.207   1.906  1.00  0.00     0.041 A 
ATOM     85  F   UNL     1       1.877   8.908   1.769  1.00  0.00    -0.206 F 
ATOM     86  C   UNL     1       1.204  12.430   1.286  1.00  0.00     0.022 A 
BRANCH  83  87
ATOM     87  S   UNL     1       0.956  14.067  -0.959  1.00  0.00     0.124 S 
ATOM     88  O   UNL     1       2.109  14.009  -1.850  1.00  0.00    -0.237 OA
ATOM     89  O   UNL     1      -0.353  13.971  -1.596  1.00  0.00    -0.237 OA
ATOM     90  O   UNL     1       1.052  15.041   0.126  1.00  0.00    -0.744 OA
ENDBRANCH  83  87
ENDBRANCH  56  80
BRANCH  68  91
ATOM     91  C   UNL     1       6.095   8.590  -5.257  1.00  0.00     0.023 A 
ATOM     92  C   UNL     1       7.220   9.120  -4.601  1.00  0.00     0.031 A 
ATOM     93  C   UNL     1       5.943   8.862  -6.630  1.00  0.00     0.131 A 
ATOM     94  C   UNL     1       8.120   9.936  -5.304  1.00  0.00     0.055 A 
ATOM     95  C   UNL     1       6.874   9.623  -7.337  1.00  0.00     0.041 A 
ATOM     96  F   UNL     1       4.888   8.385  -7.308  1.00  0.00    -0.206 F 
ATOM     97  C   UNL     1       7.964  10.175  -6.671  1.00  0.00     0.022 A 
BRANCH  94  98
ATOM     98  S   UNL     1       9.458  10.751  -4.389  1.00  0.00     0.124 S 
ATOM     99  O   UNL     1       8.720  11.540  -3.408  1.00  0.00    -0.237 OA
ATOM    100  O   UNL     1      10.209   9.617  -3.859  1.00  0.00    -0.237 OA
ATOM    101  O   UNL     1      10.153  11.527  -5.414  1.00  0.00    -0.744 OA
ENDBRANCH  94  98
ENDBRANCH  68  91
ENDBRANCH  42  43
ENDBRANCH  34  37
ENDBRANCH  32  33
ENDBRANCH  31  32
ENDBRANCH  30  31
ENDBRANCH  29  30
ENDBRANCH   1  29
TORSDOF 22
