REMARK SMILES CC(C)=C1[C@H]2CC[C@@H]1[C@@H](C(=O)Nc1cc(C)cc(C)c1)[C@@H]2C(=O)NCCCCCCNC(=O)c1ccc(-c2c3nc(c(-c4cc(S(=O)(=O)[O-])ccc4F)c4ccc([nH]4)c(-c4cc(S(=O)(=O)[O-])ccc4F)c4nc(c(-c5cc(S(=O)(=O)[O-])ccc5F)c5ccc2[nH]5)C=C4)C=C3)cc1
REMARK SMILES IDX 28 1 27 2 26 3 25 4 24 5 22 6 23 7 21 9 1 10 2 11 3 12 4 13
REMARK SMILES IDX 5 14 8 15 6 16 7 17 9 18 10 19 11 20 12 21 13 23 14 24 20 25
REMARK SMILES IDX 15 26 18 27 16 28 17 29 19 30 29 31 30 32 31 33 32 34 33 36
REMARK SMILES IDX 34 37 35 38 96 39 36 40 95 41 37 42 38 43 39 44 89 45 40 46
REMARK SMILES IDX 94 47 88 48 90 49 41 50 93 51 87 52 86 53 42 55 74 56 54 57
REMARK SMILES IDX 73 58 55 59 58 60 72 61 91 62 56 63 57 64 71 66 92 67 59 68
REMARK SMILES IDX 43 69 44 70 52 71 45 72 51 73 53 74 50 75 46 76 47 77 48 78
REMARK SMILES IDX 49 79 75 80 76 81 84 82 77 83 83 84 85 85 82 86 78 87 79 88
REMARK SMILES IDX 80 89 81 90 60 91 61 92 69 93 62 94 68 95 70 96 67 97 63 98
REMARK SMILES IDX 64 99 65 100 66 101
REMARK H PARENT 24 8 12 22 31 35 90 54 58 65
REMARK Flexibility Score: inf
ROOT
ATOM      1  C   UNL     1      -2.176   7.006   5.098  1.00  0.00     0.002 C 
ENDROOT
BRANCH   1   2
ATOM      2  C   UNL     1      -0.831   6.835   5.812  1.00  0.00     0.002 C 
BRANCH   2   3
ATOM      3  C   UNL     1       0.062   5.678   5.385  1.00  0.00     0.021 C 
BRANCH   3   4
ATOM      4  C   UNL     1       0.187   5.397   3.902  1.00  0.00     0.116 C 
BRANCH   4   5
ATOM      5  N   UNL     1       1.185   6.040   3.123  1.00  0.00    -0.356 N 
ATOM      6  C   UNL     1       1.646   5.595   1.922  1.00  0.00     0.224 C 
ATOM      7  O   UNL     1       2.430   6.354   1.334  1.00  0.00    -0.275 OA
ATOM      8  H   UNL     1       1.573   6.872   3.479  1.00  0.00     0.163 HD
BRANCH   6   9
ATOM      9  C   UNL     1       1.371   4.195   1.306  1.00  0.00     0.098 C 
ATOM     10  C   UNL     1       0.650  -0.408   0.185  1.00  0.00     0.039 C 
ATOM     11  C   UNL     1       0.090   0.988   0.118  1.00  0.00    -0.077 C 
ATOM     12  C   UNL     1      -1.186   1.143  -0.658  1.00  0.00     0.039 C 
ATOM     13  C   UNL     1       0.602   1.987   0.861  1.00  0.00    -0.064 C 
ATOM     14  C   UNL     1       0.050   3.365   1.226  1.00  0.00     0.028 C 
ATOM     15  C   UNL     1       1.636   1.877   1.941  1.00  0.00     0.028 C 
ATOM     16  C   UNL     1      -0.544   2.791   2.514  1.00  0.00     0.009 C 
ATOM     17  C   UNL     1       0.634   1.980   3.116  1.00  0.00     0.009 C 
ATOM     18  C   UNL     1       2.433   3.179   1.742  1.00  0.00     0.099 C 
BRANCH  18  19
ATOM     19  C   UNL     1       3.681   2.943   0.854  1.00  0.00     0.228 C 
ATOM     20  O   UNL     1       4.788   2.938   1.419  1.00  0.00    -0.274 OA
ATOM     21  N   UNL     1       3.699   2.537  -0.452  1.00  0.00    -0.326 N 
ATOM     22  H   UNL     1       4.568   2.168  -0.731  1.00  0.00     0.169 HD
BRANCH  21  23
ATOM     23  C   UNL     1       2.744   2.535  -1.477  1.00  0.00     0.041 A 
ATOM     24  C   UNL     1       2.043   3.678  -1.849  1.00  0.00     0.029 A 
ATOM     25  C   UNL     1       2.527   1.348  -2.181  1.00  0.00     0.029 A 
ATOM     26  C   UNL     1       0.961   3.600  -2.734  1.00  0.00    -0.049 A 
ATOM     27  C   UNL     1       1.481   1.255  -3.113  1.00  0.00    -0.049 A 
ATOM     28  C   UNL     1       0.031   4.766  -2.900  1.00  0.00     0.044 C 
ATOM     29  C   UNL     1       0.681   2.380  -3.356  1.00  0.00     0.007 A 
ATOM     30  C   UNL     1       1.113  -0.064  -3.727  1.00  0.00     0.044 C 
ENDBRANCH  21  23
ENDBRANCH  18  19
ENDBRANCH   6   9
ENDBRANCH   4   5
ENDBRANCH   3   4
ENDBRANCH   2   3
ENDBRANCH   1   2
BRANCH   1  31
ATOM     31  C   UNL     1      -3.102   5.789   4.973  1.00  0.00     0.021 C 
BRANCH  31  32
ATOM     32  C   UNL     1      -3.416   5.012   6.247  1.00  0.00     0.116 C 
BRANCH  32  33
ATOM     33  N   UNL     1      -3.881   5.860   7.326  1.00  0.00    -0.352 N 
ATOM     34  C   UNL     1      -5.001   5.774   8.113  1.00  0.00     0.251 C 
ATOM     35  H   UNL     1      -3.295   6.625   7.529  1.00  0.00     0.163 HD
ATOM     36  O   UNL     1      -5.261   6.702   8.873  1.00  0.00    -0.269 OA
BRANCH  34  37
ATOM     37  C   UNL     1      -5.905   4.601   8.042  1.00  0.00     0.039 A 
ATOM     38  C   UNL     1      -7.285   4.821   8.128  1.00  0.00     0.014 A 
ATOM     39  C   UNL     1      -5.418   3.293   7.957  1.00  0.00     0.014 A 
ATOM     40  C   UNL     1      -8.171   3.741   8.089  1.00  0.00     0.010 A 
ATOM     41  C   UNL     1      -6.306   2.221   7.853  1.00  0.00     0.010 A 
ATOM     42  C   UNL     1      -7.692   2.432   7.931  1.00  0.00    -0.014 A 
BRANCH  42  43
ATOM     43  C   UNL     1      -8.623   1.274   7.887  1.00  0.00     0.031 A 
ATOM     44  C   UNL     1      -8.594   0.244   8.986  1.00  0.00     0.074 A 
ATOM     45  C   UNL     1      -9.462   1.124   6.843  1.00  0.00     0.049 A 
ATOM     46  N   UNL     1      -9.264  -0.875   9.094  1.00  0.00    -0.248 NA
ATOM     47  C   UNL     1      -7.664   0.497  10.097  1.00  0.00     0.031 C 
ATOM     48  C   UNL     1      -9.566   2.042   5.706  1.00  0.00     0.029 A 
ATOM     49  N   UNL     1     -10.382   0.144   6.562  1.00  0.00    -0.354 N 
ATOM     50  C   UNL     1      -8.826  -1.467  10.275  1.00  0.00     0.074 A 
ATOM     51  C   UNL     1      -7.791  -0.610  10.813  1.00  0.00     0.031 C 
ATOM     52  C   UNL     1     -10.509   1.591   4.862  1.00  0.00     0.029 A 
ATOM     53  C   UNL     1     -11.046   0.333   5.372  1.00  0.00     0.049 A 
ATOM     54  H   UNL     1     -10.550  -0.622   7.156  1.00  0.00     0.167 HD
ATOM     55  C   UNL     1      -9.263  -2.608  10.867  1.00  0.00     0.034 A 
ATOM     56  C   UNL     1     -11.974  -0.427   4.756  1.00  0.00     0.034 A 
ATOM     57  C   UNL     1     -10.308  -3.442  10.325  1.00  0.00     0.049 A 
ATOM     58  C   UNL     1     -12.431  -1.701   5.424  1.00  0.00     0.074 A 
ATOM     59  C   UNL     1     -10.856  -4.596  10.858  1.00  0.00     0.029 A 
ATOM     60  N   UNL     1     -10.965  -3.213   9.122  1.00  0.00    -0.354 N 
ATOM     61  N   UNL     1     -12.031  -2.229   6.557  1.00  0.00    -0.248 NA
ATOM     62  C   UNL     1     -13.475  -2.472   4.736  1.00  0.00     0.031 C 
ATOM     63  C   UNL     1     -11.798  -5.096   9.952  1.00  0.00     0.029 A 
ATOM     64  C   UNL     1     -11.894  -4.215   8.887  1.00  0.00     0.049 A 
ATOM     65  H   UNL     1     -10.795  -2.450   8.523  1.00  0.00     0.167 HD
ATOM     66  C   UNL     1     -12.802  -3.375   6.734  1.00  0.00     0.074 A 
ATOM     67  C   UNL     1     -13.697  -3.452   5.598  1.00  0.00     0.031 C 
ATOM     68  C   UNL     1     -12.778  -4.279   7.747  1.00  0.00     0.034 A 
BRANCH  55  69
ATOM     69  C   UNL     1      -8.588  -3.026  12.153  1.00  0.00     0.023 A 
ATOM     70  C   UNL     1      -8.649  -2.230  13.311  1.00  0.00     0.031 A 
ATOM     71  C   UNL     1      -7.849  -4.220  12.216  1.00  0.00     0.131 A 
ATOM     72  C   UNL     1      -7.920  -2.596  14.453  1.00  0.00     0.055 A 
ATOM     73  C   UNL     1      -7.195  -4.622  13.383  1.00  0.00     0.041 A 
ATOM     74  F   UNL     1      -7.736  -5.013  11.138  1.00  0.00    -0.206 F 
ATOM     75  C   UNL     1      -7.215  -3.800  14.506  1.00  0.00     0.022 A 
BRANCH  72  76
ATOM     76  S   UNL     1      -7.789  -1.404  15.813  1.00  0.00     0.124 S 
ATOM     77  O   UNL     1      -7.158  -0.267  15.148  1.00  0.00    -0.237 OA
ATOM     78  O   UNL     1      -9.180  -1.222  16.210  1.00  0.00    -0.237 OA
ATOM     79  O   UNL     1      -6.945  -2.091  16.790  1.00  0.00    -0.744 OA
ENDBRANCH  72  76
ENDBRANCH  55  69
BRANCH  56  80
ATOM     80  C   UNL     1     -12.533  -0.019   3.435  1.00  0.00     0.023 A 
ATOM     81  C   UNL     1     -13.894   0.297   3.292  1.00  0.00     0.031 A 
ATOM     82  C   UNL     1     -11.726   0.011   2.284  1.00  0.00     0.131 A 
ATOM     83  C   UNL     1     -14.418   0.578   2.021  1.00  0.00     0.055 A 
ATOM     84  C   UNL     1     -12.241   0.346   1.030  1.00  0.00     0.041 A 
ATOM     85  F   UNL     1     -10.417  -0.277   2.364  1.00  0.00    -0.206 F 
ATOM     86  C   UNL     1     -13.598   0.617   0.891  1.00  0.00     0.022 A 
BRANCH  83  87
ATOM     87  S   UNL     1     -16.210   0.802   1.851  1.00  0.00     0.124 S 
ATOM     88  O   UNL     1     -16.718  -0.456   2.386  1.00  0.00    -0.237 OA
ATOM     89  O   UNL     1     -16.445   1.989   2.667  1.00  0.00    -0.237 OA
ATOM     90  O   UNL     1     -16.394   0.989   0.413  1.00  0.00    -0.744 OA
ENDBRANCH  83  87
ENDBRANCH  56  80
BRANCH  68  91
ATOM     91  C   UNL     1     -13.791  -5.396   7.693  1.00  0.00     0.023 A 
ATOM     92  C   UNL     1     -13.743  -6.396   6.706  1.00  0.00     0.031 A 
ATOM     93  C   UNL     1     -14.829  -5.450   8.641  1.00  0.00     0.131 A 
ATOM     94  C   UNL     1     -14.747  -7.375   6.655  1.00  0.00     0.055 A 
ATOM     95  C   UNL     1     -15.790  -6.461   8.621  1.00  0.00     0.041 A 
ATOM     96  F   UNL     1     -14.924  -4.520   9.604  1.00  0.00    -0.206 F 
ATOM     97  C   UNL     1     -15.760  -7.423   7.616  1.00  0.00     0.022 A 
BRANCH  94  98
ATOM     98  S   UNL     1     -14.762  -8.534   5.260  1.00  0.00     0.124 S 
ATOM     99  O   UNL     1     -14.853  -7.632   4.116  1.00  0.00    -0.237 OA
ATOM    100  O   UNL     1     -13.492  -9.233   5.421  1.00  0.00    -0.237 OA
ATOM    101  O   UNL     1     -15.952  -9.348   5.503  1.00  0.00    -0.744 OA
ENDBRANCH  94  98
ENDBRANCH  68  91
ENDBRANCH  42  43
ENDBRANCH  34  37
ENDBRANCH  32  33
ENDBRANCH  31  32
ENDBRANCH   1  31
TORSDOF 18
