REMARK SMILES CC[NH2+][C@@]1(C(=O)NCCCCCCNC(=O)c2ccc(-c3c4nc(c(-c5cc(S(=O)(=O)[O-])ccc5F)c5ccc([nH]5)c(-c5cc(S(=O)(=O)[O-])ccc5F)c5nc(c(-c6cc(S(=O)(=O)[O-])ccc6F)c6ccc3[nH]6)C=C5)C=C4)cc2)CCC[C@@H](Sc2ncc(C)cn2)C1
REMARK SMILES IDX 11 1 10 2 9 3 8 4 7 5 5 6 6 7 4 9 80 10 92 11 81 12 83 13
REMARK SMILES IDX 82 14 3 15 2 18 1 19 84 20 85 21 86 22 91 23 87 24 90 25
REMARK SMILES IDX 88 26 89 27 12 28 13 29 14 30 15 31 16 33 17 34 18 35 79 36
REMARK SMILES IDX 19 37 78 38 20 39 21 40 22 41 72 42 23 43 77 44 71 45 73 46
REMARK SMILES IDX 24 47 76 48 70 49 69 50 25 52 57 53 37 54 56 55 38 56 41 57
REMARK SMILES IDX 55 58 74 59 39 60 40 61 54 63 75 64 42 65 26 66 27 67 35 68
REMARK SMILES IDX 28 69 34 70 36 71 33 72 29 73 30 74 31 75 32 76 58 77 59 78
REMARK SMILES IDX 67 79 60 80 66 81 68 82 65 83 61 84 62 85 63 86 64 87 43 88
REMARK SMILES IDX 44 89 52 90 45 91 51 92 53 93 50 94 46 95 47 96 48 97 49 98
REMARK H PARENT 7 8 3 16 3 17 14 32 73 51 41 62
REMARK Flexibility Score: inf
ROOT
ATOM      1  C   UNL     1      -1.119   6.284  -7.664  1.00  0.00     0.002 C 
ENDROOT
BRANCH   1   2
ATOM      2  C   UNL     1       0.297   5.817  -7.306  1.00  0.00     0.002 C 
BRANCH   2   3
ATOM      3  C   UNL     1       0.508   5.445  -5.838  1.00  0.00     0.021 C 
BRANCH   3   4
ATOM      4  C   UNL     1      -0.366   4.284  -5.353  1.00  0.00     0.116 C 
BRANCH   4   5
ATOM      5  N   UNL     1       0.411   3.087  -5.135  1.00  0.00    -0.351 N 
ATOM      6  C   UNL     1       0.767   2.357  -4.055  1.00  0.00     0.281 C 
ATOM      7  O   UNL     1       1.565   1.440  -4.330  1.00  0.00    -0.268 OA
ATOM      8  H   UNL     1       0.766   2.713  -5.973  1.00  0.00     0.163 HD
BRANCH   6   9
ATOM      9  C   UNL     1       0.356   2.602  -2.523  1.00  0.00     0.176 C 
ATOM     10  C   UNL     1      -1.143   2.904  -2.283  1.00  0.00     0.079 C 
ATOM     11  C   UNL     1       1.331   3.654  -1.946  1.00  0.00     0.094 C 
ATOM     12  C   UNL     1      -1.586   4.354  -2.045  1.00  0.00     0.008 C 
ATOM     13  C   UNL     1       0.849   5.088  -2.142  1.00  0.00     0.061 C 
ATOM     14  C   UNL     1      -0.522   5.301  -1.502  1.00  0.00     0.015 C 
BRANCH   9  15
ATOM     15  N   UNL     1       0.649   1.248  -1.925  1.00  0.00    -0.334 N 
ATOM     16  H   UNL     1       0.019   0.585  -2.378  1.00  0.00     0.347 HD
ATOM     17  H   UNL     1       1.650   1.136  -2.086  1.00  0.00     0.347 HD
BRANCH  15  18
ATOM     18  C   UNL     1       0.520   1.034  -0.492  1.00  0.00     0.257 C 
ATOM     19  C   UNL     1       1.229  -0.262  -0.109  1.00  0.00     0.071 C 
ENDBRANCH  15  18
ENDBRANCH   9  15
BRANCH  13  20
ATOM     20  S   UNL     1       2.112   6.319  -1.627  1.00  0.00    -0.083 SA
BRANCH  20  21
ATOM     21  C   UNL     1       1.889   6.317   0.127  1.00  0.00     0.187 A 
ATOM     22  N   UNL     1       2.303   5.240   0.813  1.00  0.00    -0.231 NA
ATOM     23  N   UNL     1       1.278   7.385   0.661  1.00  0.00    -0.231 NA
ATOM     24  C   UNL     1       2.077   5.261   2.140  1.00  0.00     0.119 A 
ATOM     25  C   UNL     1       1.080   7.355   1.991  1.00  0.00     0.119 A 
ATOM     26  C   UNL     1       1.455   6.301   2.796  1.00  0.00    -0.014 A 
ATOM     27  C   UNL     1       1.217   6.304   4.266  1.00  0.00     0.048 C 
ENDBRANCH  20  21
ENDBRANCH  13  20
ENDBRANCH   6   9
ENDBRANCH   4   5
ENDBRANCH   3   4
ENDBRANCH   2   3
ENDBRANCH   1   2
BRANCH   1  28
ATOM     28  C   UNL     1      -1.671   7.450  -6.835  1.00  0.00     0.021 C 
BRANCH  28  29
ATOM     29  C   UNL     1      -0.819   8.720  -6.829  1.00  0.00     0.116 C 
BRANCH  29  30
ATOM     30  N   UNL     1      -0.523   9.186  -8.171  1.00  0.00    -0.352 N 
ATOM     31  C   UNL     1      -0.802  10.375  -8.791  1.00  0.00     0.251 C 
ATOM     32  H   UNL     1      -0.040   8.536  -8.732  1.00  0.00     0.163 HD
ATOM     33  O   UNL     1      -0.648  10.453 -10.011  1.00  0.00    -0.269 OA
BRANCH  31  34
ATOM     34  C   UNL     1      -1.288  11.551  -8.034  1.00  0.00     0.039 A 
ATOM     35  C   UNL     1      -2.232  12.384  -8.642  1.00  0.00     0.014 A 
ATOM     36  C   UNL     1      -0.774  11.889  -6.778  1.00  0.00     0.014 A 
ATOM     37  C   UNL     1      -2.684  13.529  -7.982  1.00  0.00     0.010 A 
ATOM     38  C   UNL     1      -1.272  13.000  -6.092  1.00  0.00     0.010 A 
ATOM     39  C   UNL     1      -2.222  13.838  -6.692  1.00  0.00    -0.014 A 
BRANCH  39  40
ATOM     40  C   UNL     1      -2.731  15.041  -5.984  1.00  0.00     0.031 A 
ATOM     41  C   UNL     1      -1.821  16.207  -5.702  1.00  0.00     0.074 A 
ATOM     42  C   UNL     1      -4.016  15.074  -5.581  1.00  0.00     0.049 A 
ATOM     43  N   UNL     1      -2.095  17.352  -5.129  1.00  0.00    -0.248 NA
ATOM     44  C   UNL     1      -0.412  16.054  -6.094  1.00  0.00     0.031 C 
ATOM     45  C   UNL     1      -4.979  13.983  -5.749  1.00  0.00     0.029 A 
ATOM     46  N   UNL     1      -4.737  16.059  -4.956  1.00  0.00    -0.354 N 
ATOM     47  C   UNL     1      -0.895  18.055  -5.088  1.00  0.00     0.074 A 
ATOM     48  C   UNL     1       0.119  17.180  -5.639  1.00  0.00     0.031 C 
ATOM     49  C   UNL     1      -6.171  14.372  -5.269  1.00  0.00     0.029 A 
ATOM     50  C   UNL     1      -6.053  15.725  -4.736  1.00  0.00     0.049 A 
ATOM     51  H   UNL     1      -4.349  16.924  -4.689  1.00  0.00     0.167 HD
ATOM     52  C   UNL     1      -0.665  19.320  -4.652  1.00  0.00     0.034 A 
ATOM     53  C   UNL     1      -7.053  16.432  -4.175  1.00  0.00     0.034 A 
ATOM     54  C   UNL     1      -1.690  20.182  -4.111  1.00  0.00     0.049 A 
ATOM     55  C   UNL     1      -6.778  17.839  -3.713  1.00  0.00     0.074 A 
ATOM     56  C   UNL     1      -1.581  21.496  -3.689  1.00  0.00     0.029 A 
ATOM     57  N   UNL     1      -3.014  19.812  -3.908  1.00  0.00    -0.354 N 
ATOM     58  N   UNL     1      -5.651  18.513  -3.740  1.00  0.00    -0.248 NA
ATOM     59  C   UNL     1      -7.916  18.585  -3.165  1.00  0.00     0.031 C 
ATOM     60  C   UNL     1      -2.821  21.900  -3.179  1.00  0.00     0.029 A 
ATOM     61  C   UNL     1      -3.724  20.862  -3.343  1.00  0.00     0.049 A 
ATOM     62  H   UNL     1      -3.394  18.932  -4.133  1.00  0.00     0.167 HD
ATOM     63  C   UNL     1      -5.952  19.772  -3.229  1.00  0.00     0.074 A 
ATOM     64  C   UNL     1      -7.370  19.769  -2.930  1.00  0.00     0.031 C 
ATOM     65  C   UNL     1      -5.132  20.835  -3.024  1.00  0.00     0.034 A 
BRANCH  52  66
ATOM     66  C   UNL     1       0.756  19.829  -4.724  1.00  0.00     0.023 A 
ATOM     67  C   UNL     1       1.425  19.980  -5.952  1.00  0.00     0.031 A 
ATOM     68  C   UNL     1       1.464  20.140  -3.550  1.00  0.00     0.131 A 
ATOM     69  C   UNL     1       2.779  20.352  -5.974  1.00  0.00     0.055 A 
ATOM     70  C   UNL     1       2.787  20.586  -3.582  1.00  0.00     0.041 A 
ATOM     71  F   UNL     1       0.886  19.999  -2.346  1.00  0.00    -0.206 F 
ATOM     72  C   UNL     1       3.458  20.679  -4.798  1.00  0.00     0.022 A 
BRANCH  69  73
ATOM     73  S   UNL     1       3.677  20.266  -7.548  1.00  0.00     0.124 S 
ATOM     74  O   UNL     1       3.525  18.856  -7.897  1.00  0.00    -0.237 OA
ATOM     75  O   UNL     1       2.946  21.214  -8.381  1.00  0.00    -0.237 OA
ATOM     76  O   UNL     1       5.035  20.669  -7.189  1.00  0.00    -0.744 OA
ENDBRANCH  69  73
ENDBRANCH  52  66
BRANCH  53  77
ATOM     77  C   UNL     1      -8.408  15.831  -4.027  1.00  0.00     0.023 A 
ATOM     78  C   UNL     1      -9.505  16.334  -4.744  1.00  0.00     0.031 A 
ATOM     79  C   UNL     1      -8.630  14.762  -3.140  1.00  0.00     0.131 A 
ATOM     80  C   UNL     1     -10.784  15.798  -4.530  1.00  0.00     0.055 A 
ATOM     81  C   UNL     1      -9.896  14.202  -2.966  1.00  0.00     0.041 A 
ATOM     82  F   UNL     1      -7.612  14.239  -2.439  1.00  0.00    -0.206 F 
ATOM     83  C   UNL     1     -10.985  14.728  -3.654  1.00  0.00     0.022 A 
BRANCH  80  84
ATOM     84  S   UNL     1     -12.199  16.568  -5.363  1.00  0.00     0.124 S 
ATOM     85  O   UNL     1     -12.114  17.944  -4.886  1.00  0.00    -0.237 OA
ATOM     86  O   UNL     1     -11.874  16.355  -6.769  1.00  0.00    -0.237 OA
ATOM     87  O   UNL     1     -13.342  15.805  -4.867  1.00  0.00    -0.744 OA
ENDBRANCH  80  84
ENDBRANCH  53  77
BRANCH  65  88
ATOM     88  C   UNL     1      -5.772  22.082  -2.466  1.00  0.00     0.023 A 
ATOM     89  C   UNL     1      -6.313  22.112  -1.168  1.00  0.00     0.031 A 
ATOM     90  C   UNL     1      -5.886  23.238  -3.256  1.00  0.00     0.131 A 
ATOM     91  C   UNL     1      -7.007  23.248  -0.725  1.00  0.00     0.055 A 
ATOM     92  C   UNL     1      -6.523  24.388  -2.788  1.00  0.00     0.041 A 
ATOM     93  F   UNL     1      -5.389  23.265  -4.503  1.00  0.00    -0.206 F 
ATOM     94  C   UNL     1      -7.104  24.391  -1.522  1.00  0.00     0.022 A 
BRANCH  91  95
ATOM     95  S   UNL     1      -7.884  23.167   0.861  1.00  0.00     0.124 S 
ATOM     96  O   UNL     1      -8.756  22.013   0.668  1.00  0.00    -0.237 OA
ATOM     97  O   UNL     1      -6.792  22.989   1.812  1.00  0.00    -0.237 OA
ATOM     98  O   UNL     1      -8.571  24.456   0.939  1.00  0.00    -0.744 OA
ENDBRANCH  91  95
ENDBRANCH  65  88
ENDBRANCH  39  40
ENDBRANCH  31  34
ENDBRANCH  29  30
ENDBRANCH  28  29
ENDBRANCH   1  28
TORSDOF 20
