REMARK SMILES CC[C@@H](C)N(C)C(=O)N1[C@@H](C(=O)NCCCCCCNC(=O)c2ccc(-c3c4nc(c(-c5cc(S(=O)(=O)[O-])ccc5F)c5ccc([nH]5)c(-c5cc(S(=O)(=O)[O-])ccc5F)c5nc(c(-c6cc(S(=O)(=O)[O-])ccc6F)c6ccc3[nH]6)C=C5)C=C4)cc2)CC[C@H]2CCCC[C@H]21
REMARK SMILES IDX 16 1 15 2 14 3 13 4 11 5 12 6 10 8 9 9 93 10 86 11 88 12
REMARK SMILES IDX 92 13 87 14 89 15 91 16 90 17 7 18 8 19 5 20 6 21 3 22 4 23
REMARK SMILES IDX 2 24 1 25 17 26 18 27 19 28 20 29 21 30 22 32 23 33 24 34
REMARK SMILES IDX 85 35 25 36 84 37 26 38 27 39 28 40 78 41 29 42 83 43 77 44
REMARK SMILES IDX 79 45 30 46 82 47 76 48 75 49 31 51 63 52 43 53 62 54 44 55
REMARK SMILES IDX 47 56 61 57 80 58 45 59 46 60 60 62 81 63 48 64 32 65 33 66
REMARK SMILES IDX 41 67 34 68 40 69 42 70 39 71 35 72 36 73 37 74 38 75 64 76
REMARK SMILES IDX 65 77 73 78 66 79 72 80 74 81 71 82 67 83 68 84 69 85 70 86
REMARK SMILES IDX 49 87 50 88 58 89 51 90 57 91 59 92 56 93 52 94 53 95 54 96
REMARK SMILES IDX 55 97
REMARK H PARENT 13 7 20 31 79 50 47 61
REMARK Flexibility Score: inf
ROOT
ATOM      1  C   UNL     1      -0.763   3.866   6.564  1.00  0.00     0.002 C 
ENDROOT
BRANCH   1   2
ATOM      2  C   UNL     1      -1.726   2.683   6.707  1.00  0.00     0.021 C 
BRANCH   2   3
ATOM      3  C   UNL     1      -1.308   1.474   5.883  1.00  0.00     0.116 C 
BRANCH   3   4
ATOM      4  N   UNL     1      -0.099   0.886   6.431  1.00  0.00    -0.354 N 
ATOM      5  C   UNL     1       0.156  -0.407   6.758  1.00  0.00     0.242 C 
ATOM      6  O   UNL     1       1.188  -0.649   7.395  1.00  0.00    -0.273 OA
ATOM      7  H   UNL     1       0.641   1.516   6.588  1.00  0.00     0.163 HD
BRANCH   5   8
ATOM      8  C   UNL     1      -0.867  -1.527   6.477  1.00  0.00     0.176 C 
ATOM      9  N   UNL     1      -1.424  -1.603   5.103  1.00  0.00    -0.309 N 
ATOM     10  C   UNL     1      -2.553  -2.541   4.933  1.00  0.00     0.091 C 
ATOM     11  C   UNL     1      -1.969  -1.383   7.558  1.00  0.00     0.036 C 
ATOM     12  C   UNL     1      -3.694  -2.295   5.926  1.00  0.00     0.012 C 
ATOM     13  C   UNL     1      -3.149  -2.738   3.531  1.00  0.00     0.025 C 
ATOM     14  C   UNL     1      -3.166  -2.304   7.363  1.00  0.00     0.008 C 
ATOM     15  C   UNL     1      -4.535  -1.053   5.598  1.00  0.00     0.006 C 
ATOM     16  C   UNL     1      -4.212  -1.718   3.114  1.00  0.00     0.002 C 
ATOM     17  C   UNL     1      -4.537  -0.628   4.131  1.00  0.00     0.000 C 
BRANCH   9  18
ATOM     18  C   UNL     1      -0.890  -0.982   3.991  1.00  0.00     0.320 C 
ATOM     19  O   UNL     1      -1.648  -0.411   3.206  1.00  0.00    -0.248 OA
BRANCH  18  20
ATOM     20  N   UNL     1       0.470  -0.993   3.748  1.00  0.00    -0.325 N 
ATOM     21  C   UNL     1       1.445  -1.862   4.391  1.00  0.00     0.149 C 
BRANCH  20  22
ATOM     22  C   UNL     1       0.985  -0.233   2.574  1.00  0.00     0.083 C 
ATOM     23  C   UNL     1       0.693   1.270   2.659  1.00  0.00     0.031 C 
BRANCH  22  24
ATOM     24  C   UNL     1       0.526  -0.878   1.245  1.00  0.00     0.021 C 
ATOM     25  C   UNL     1       1.054  -0.188  -0.004  1.00  0.00     0.006 C 
ENDBRANCH  22  24
ENDBRANCH  20  22
ENDBRANCH  18  20
ENDBRANCH   9  18
ENDBRANCH   5   8
ENDBRANCH   3   4
ENDBRANCH   2   3
ENDBRANCH   1   2
BRANCH   1  26
ATOM     26  C   UNL     1      -0.562   4.350   5.123  1.00  0.00     0.002 C 
BRANCH  26  27
ATOM     27  C   UNL     1      -1.855   4.701   4.386  1.00  0.00     0.021 C 
BRANCH  27  28
ATOM     28  C   UNL     1      -2.705   5.746   5.098  1.00  0.00     0.116 C 
BRANCH  28  29
ATOM     29  N   UNL     1      -1.978   6.992   5.280  1.00  0.00    -0.352 N 
ATOM     30  C   UNL     1      -2.353   8.266   4.935  1.00  0.00     0.251 C 
ATOM     31  H   UNL     1      -1.096   6.911   5.710  1.00  0.00     0.163 HD
ATOM     32  O   UNL     1      -1.529   9.171   4.939  1.00  0.00    -0.269 OA
BRANCH  30  33
ATOM     33  C   UNL     1      -3.754   8.518   4.542  1.00  0.00     0.039 A 
ATOM     34  C   UNL     1      -4.012   9.301   3.416  1.00  0.00     0.014 A 
ATOM     35  C   UNL     1      -4.806   7.963   5.277  1.00  0.00     0.014 A 
ATOM     36  C   UNL     1      -5.330   9.483   2.996  1.00  0.00     0.010 A 
ATOM     37  C   UNL     1      -6.109   8.075   4.808  1.00  0.00     0.010 A 
ATOM     38  C   UNL     1      -6.386   8.844   3.668  1.00  0.00    -0.014 A 
BRANCH  38  39
ATOM     39  C   UNL     1      -7.787   8.977   3.199  1.00  0.00     0.031 A 
ATOM     40  C   UNL     1      -8.817   9.631   4.077  1.00  0.00     0.074 A 
ATOM     41  C   UNL     1      -8.142   8.458   2.008  1.00  0.00     0.049 A 
ATOM     42  N   UNL     1     -10.098   9.798   3.870  1.00  0.00    -0.248 NA
ATOM     43  C   UNL     1      -8.347  10.132   5.376  1.00  0.00     0.031 C 
ATOM     44  C   UNL     1      -7.238   7.768   1.085  1.00  0.00     0.029 A 
ATOM     45  N   UNL     1      -9.355   8.428   1.369  1.00  0.00    -0.354 N 
ATOM     46  C   UNL     1     -10.589  10.412   5.017  1.00  0.00     0.074 A 
ATOM     47  C   UNL     1      -9.480  10.514   5.942  1.00  0.00     0.031 C 
ATOM     48  C   UNL     1      -7.918   7.423  -0.019  1.00  0.00     0.029 A 
ATOM     49  C   UNL     1      -9.315   7.817   0.138  1.00  0.00     0.049 A 
ATOM     50  H   UNL     1     -10.177   8.809   1.754  1.00  0.00     0.167 HD
ATOM     51  C   UNL     1     -11.841  10.873   5.264  1.00  0.00     0.034 A 
ATOM     52  C   UNL     1     -10.294   7.592  -0.760  1.00  0.00     0.034 A 
ATOM     53  C   UNL     1     -12.933  10.756   4.327  1.00  0.00     0.049 A 
ATOM     54  C   UNL     1     -11.690   8.061  -0.445  1.00  0.00     0.074 A 
ATOM     55  C   UNL     1     -14.226  11.233   4.444  1.00  0.00     0.029 A 
ATOM     56  N   UNL     1     -12.864  10.099   3.103  1.00  0.00    -0.354 N 
ATOM     57  N   UNL     1     -12.131   8.692   0.620  1.00  0.00    -0.248 NA
ATOM     58  C   UNL     1     -12.719   7.792  -1.456  1.00  0.00     0.031 C 
ATOM     59  C   UNL     1     -14.960  10.789   3.338  1.00  0.00     0.029 A 
ATOM     60  C   UNL     1     -14.104  10.118   2.479  1.00  0.00     0.049 A 
ATOM     61  H   UNL     1     -12.054   9.681   2.732  1.00  0.00     0.167 HD
ATOM     62  C   UNL     1     -13.485   8.925   0.389  1.00  0.00     0.074 A 
ATOM     63  C   UNL     1     -13.781   8.375  -0.919  1.00  0.00     0.031 C 
ATOM     64  C   UNL     1     -14.395   9.546   1.183  1.00  0.00     0.034 A 
BRANCH  51  65
ATOM     65  C   UNL     1     -12.090  11.502   6.618  1.00  0.00     0.023 A 
ATOM     66  C   UNL     1     -11.364  12.625   7.057  1.00  0.00     0.031 A 
ATOM     67  C   UNL     1     -13.016  10.934   7.511  1.00  0.00     0.131 A 
ATOM     68  C   UNL     1     -11.491  13.070   8.381  1.00  0.00     0.055 A 
ATOM     69  C   UNL     1     -13.214  11.449   8.795  1.00  0.00     0.041 A 
ATOM     70  F   UNL     1     -13.726   9.850   7.164  1.00  0.00    -0.206 F 
ATOM     71  C   UNL     1     -12.432  12.508   9.245  1.00  0.00     0.022 A 
BRANCH  68  72
ATOM     72  S   UNL     1     -10.268  14.252   9.014  1.00  0.00     0.124 S 
ATOM     73  O   UNL     1      -9.014  13.550   8.745  1.00  0.00    -0.237 OA
ATOM     74  O   UNL     1     -10.525  15.436   8.204  1.00  0.00    -0.237 OA
ATOM     75  O   UNL     1     -10.611  14.375  10.430  1.00  0.00    -0.744 OA
ENDBRANCH  68  72
ENDBRANCH  51  65
BRANCH  52  76
ATOM     76  C   UNL     1      -9.988   6.901  -2.044  1.00  0.00     0.023 A 
ATOM     77  C   UNL     1     -10.104   7.575  -3.269  1.00  0.00     0.031 A 
ATOM     78  C   UNL     1      -9.584   5.554  -2.067  1.00  0.00     0.131 A 
ATOM     79  C   UNL     1      -9.852   6.894  -4.469  1.00  0.00     0.055 A 
ATOM     80  C   UNL     1      -9.284   4.895  -3.260  1.00  0.00     0.041 A 
ATOM     81  F   UNL     1      -9.454   4.864  -0.922  1.00  0.00    -0.206 F 
ATOM     82  C   UNL     1      -9.427   5.563  -4.472  1.00  0.00     0.022 A 
BRANCH  79  83
ATOM     83  S   UNL     1     -10.149   7.756  -6.037  1.00  0.00     0.124 S 
ATOM     84  O   UNL     1     -11.572   8.062  -5.942  1.00  0.00    -0.237 OA
ATOM     85  O   UNL     1      -9.240   8.893  -5.936  1.00  0.00    -0.237 OA
ATOM     86  O   UNL     1      -9.789   6.762  -7.045  1.00  0.00    -0.744 OA
ENDBRANCH  79  83
ENDBRANCH  52  76
BRANCH  64  87
ATOM     87  C   UNL     1     -15.795   9.700   0.633  1.00  0.00     0.023 A 
ATOM     88  C   UNL     1     -16.621   8.591   0.378  1.00  0.00     0.031 A 
ATOM     89  C   UNL     1     -16.304  10.981   0.349  1.00  0.00     0.131 A 
ATOM     90  C   UNL     1     -17.887   8.780  -0.198  1.00  0.00     0.055 A 
ATOM     91  C   UNL     1     -17.591  11.166  -0.158  1.00  0.00     0.041 A 
ATOM     92  F   UNL     1     -15.559  12.077   0.564  1.00  0.00    -0.206 F 
ATOM     93  C   UNL     1     -18.385  10.061  -0.448  1.00  0.00     0.022 A 
BRANCH  90  94
ATOM     94  S   UNL     1     -18.835   7.322  -0.715  1.00  0.00     0.124 S 
ATOM     95  O   UNL     1     -17.918   6.681  -1.652  1.00  0.00    -0.237 OA
ATOM     96  O   UNL     1     -19.048   6.623   0.548  1.00  0.00    -0.237 OA
ATOM     97  O   UNL     1     -20.039   7.892  -1.318  1.00  0.00    -0.744 OA
ENDBRANCH  90  94
ENDBRANCH  64  87
ENDBRANCH  38  39
ENDBRANCH  30  33
ENDBRANCH  28  29
ENDBRANCH  27  28
ENDBRANCH  26  27
ENDBRANCH   1  26
TORSDOF 20
