REMARK SMILES O=C(NCCCCCCNC(=O)c1cccc2cccc([S@](=O)c3ccccc3CO)c12)c1ccc(-c2c3nc(c(-c4cc(S(=O)(=O)[O-])ccc4F)c4ccc([nH]4)c(-c4cc(S(=O)(=O)[O-])ccc4F)c4nc(c(-c5cc(S(=O)(=O)[O-])ccc5F)c5ccc2[nH]5)C=C4)C=C3)cc1
REMARK SMILES IDX 7 1 6 2 5 3 4 4 3 5 1 6 2 7 33 9 34 10 95 11 35 12 94 13
REMARK SMILES IDX 36 14 37 15 38 16 88 17 39 18 93 19 87 20 89 21 40 22 92 23
REMARK SMILES IDX 86 24 85 25 41 27 73 28 53 29 72 30 54 31 57 32 71 33 90 34
REMARK SMILES IDX 55 35 56 36 70 38 91 39 58 40 42 41 43 42 51 43 44 44 50 45
REMARK SMILES IDX 52 46 49 47 45 48 46 49 47 50 48 51 74 52 75 53 83 54 76 55
REMARK SMILES IDX 82 56 84 57 81 58 77 59 78 60 79 61 80 62 59 63 60 64 68 65
REMARK SMILES IDX 61 66 67 67 69 68 66 69 62 70 63 71 64 72 65 73 8 74 9 75
REMARK SMILES IDX 10 76 11 77 12 79 13 80 14 81 32 82 15 83 17 84 21 85 16 86
REMARK SMILES IDX 18 87 20 88 19 89 22 90 23 91 24 92 25 93 29 94 26 95 28 96
REMARK SMILES IDX 27 97 30 98 31 99
REMARK H PARENT 3 8 89 26 57 37 10 78 31 100
REMARK Flexibility Score: inf
ROOT
ATOM      1  C   UNL     1      12.585  -0.912  -9.874  1.00  0.00     0.002 C 
ENDROOT
BRANCH   1   2
ATOM      2  C   UNL     1      14.033  -1.239  -9.496  1.00  0.00     0.002 C 
BRANCH   2   3
ATOM      3  C   UNL     1      15.001  -1.478 -10.655  1.00  0.00     0.021 C 
BRANCH   3   4
ATOM      4  C   UNL     1      15.100  -0.357 -11.683  1.00  0.00     0.116 C 
BRANCH   4   5
ATOM      5  N   UNL     1      15.645   0.876 -11.138  1.00  0.00    -0.352 N 
ATOM      6  O   UNL     1      17.087   2.593 -10.911  1.00  0.00    -0.269 OA
ATOM      7  C   UNL     1      16.703   1.642 -11.580  1.00  0.00     0.251 C 
ATOM      8  H   UNL     1      15.191   1.215 -10.333  1.00  0.00     0.163 HD
BRANCH   7   9
ATOM      9  C   UNL     1      17.393   1.302 -12.848  1.00  0.00     0.039 A 
ATOM     10  C   UNL     1      16.673   0.959 -13.993  1.00  0.00     0.014 A 
ATOM     11  C   UNL     1      18.791   1.337 -12.891  1.00  0.00     0.014 A 
ATOM     12  C   UNL     1      17.345   0.505 -15.125  1.00  0.00     0.010 A 
ATOM     13  C   UNL     1      19.466   0.962 -14.059  1.00  0.00     0.010 A 
ATOM     14  C   UNL     1      18.749   0.504 -15.175  1.00  0.00    -0.014 A 
BRANCH  14  15
ATOM     15  C   UNL     1      19.434   0.048 -16.416  1.00  0.00     0.031 A 
ATOM     16  C   UNL     1      20.294  -1.188 -16.421  1.00  0.00     0.074 A 
ATOM     17  C   UNL     1      19.238   0.737 -17.558  1.00  0.00     0.049 A 
ATOM     18  N   UNL     1      20.920  -1.755 -17.422  1.00  0.00    -0.248 NA
ATOM     19  C   UNL     1      20.486  -1.868 -15.133  1.00  0.00     0.031 C 
ATOM     20  C   UNL     1      18.434   1.956 -17.675  1.00  0.00     0.029 A 
ATOM     21  N   UNL     1      19.672   0.503 -18.837  1.00  0.00    -0.354 N 
ATOM     22  C   UNL     1      21.594  -2.847 -16.886  1.00  0.00     0.074 A 
ATOM     23  C   UNL     1      21.327  -2.839 -15.462  1.00  0.00     0.031 C 
ATOM     24  C   UNL     1      18.384   2.328 -18.963  1.00  0.00     0.029 A 
ATOM     25  C   UNL     1      19.202   1.415 -19.754  1.00  0.00     0.049 A 
ATOM     26  H   UNL     1      20.264  -0.246 -19.078  1.00  0.00     0.167 HD
ATOM     27  C   UNL     1      22.356  -3.774 -17.522  1.00  0.00     0.034 A 
ATOM     28  C   UNL     1      19.410   1.514 -21.081  1.00  0.00     0.034 A 
ATOM     29  C   UNL     1      22.606  -3.772 -18.945  1.00  0.00     0.049 A 
ATOM     30  C   UNL     1      20.282   0.491 -21.757  1.00  0.00     0.074 A 
ATOM     31  C   UNL     1      23.325  -4.687 -19.697  1.00  0.00     0.029 A 
ATOM     32  N   UNL     1      22.156  -2.802 -19.834  1.00  0.00    -0.354 N 
ATOM     33  N   UNL     1      20.889  -0.551 -21.238  1.00  0.00    -0.248 NA
ATOM     34  C   UNL     1      20.494   0.658 -23.199  1.00  0.00     0.031 C 
ATOM     35  C   UNL     1      23.365  -4.236 -21.023  1.00  0.00     0.029 A 
ATOM     36  C   UNL     1      22.610  -3.079 -21.116  1.00  0.00     0.049 A 
ATOM     37  H   UNL     1      21.596  -2.030 -19.588  1.00  0.00     0.167 HD
ATOM     38  C   UNL     1      21.538  -1.176 -22.297  1.00  0.00     0.074 A 
ATOM     39  C   UNL     1      21.231  -0.404 -23.485  1.00  0.00     0.031 C 
ATOM     40  C   UNL     1      22.316  -2.289 -22.290  1.00  0.00     0.034 A 
BRANCH  27  41
ATOM     41  C   UNL     1      23.011  -4.838 -16.672  1.00  0.00     0.023 A 
ATOM     42  C   UNL     1      22.259  -5.781 -15.948  1.00  0.00     0.031 A 
ATOM     43  C   UNL     1      24.413  -4.894 -16.561  1.00  0.00     0.131 A 
ATOM     44  C   UNL     1      22.904  -6.686 -15.091  1.00  0.00     0.055 A 
ATOM     45  C   UNL     1      25.053  -5.848 -15.767  1.00  0.00     0.041 A 
ATOM     46  F   UNL     1      25.185  -4.012 -17.213  1.00  0.00    -0.206 F 
ATOM     47  C   UNL     1      24.298  -6.742 -15.013  1.00  0.00     0.022 A 
BRANCH  44  48
ATOM     48  S   UNL     1      21.892  -7.691 -13.969  1.00  0.00     0.124 S 
ATOM     49  O   UNL     1      21.138  -6.667 -13.250  1.00  0.00    -0.237 OA
ATOM     50  O   UNL     1      21.124  -8.518 -14.893  1.00  0.00    -0.237 OA
ATOM     51  O   UNL     1      22.880  -8.407 -13.164  1.00  0.00    -0.744 OA
ENDBRANCH  44  48
ENDBRANCH  27  41
BRANCH  28  52
ATOM     52  C   UNL     1      18.797   2.628 -21.854  1.00  0.00     0.023 A 
ATOM     53  C   UNL     1      17.833   2.377 -22.843  1.00  0.00     0.031 A 
ATOM     54  C   UNL     1      19.182   3.962 -21.630  1.00  0.00     0.131 A 
ATOM     55  C   UNL     1      17.312   3.441 -23.596  1.00  0.00     0.055 A 
ATOM     56  C   UNL     1      18.625   5.021 -22.346  1.00  0.00     0.041 A 
ATOM     57  F   UNL     1      20.097   4.255 -20.691  1.00  0.00    -0.206 F 
ATOM     58  C   UNL     1      17.691   4.762 -23.344  1.00  0.00     0.022 A 
BRANCH  55  59
ATOM     59  S   UNL     1      16.177   3.066 -24.959  1.00  0.00     0.124 S 
ATOM     60  O   UNL     1      16.992   2.192 -25.794  1.00  0.00    -0.237 OA
ATOM     61  O   UNL     1      15.064   2.431 -24.261  1.00  0.00    -0.237 OA
ATOM     62  O   UNL     1      15.884   4.379 -25.529  1.00  0.00    -0.744 OA
ENDBRANCH  55  59
ENDBRANCH  28  52
BRANCH  40  63
ATOM     63  C   UNL     1      22.854  -2.746 -23.623  1.00  0.00     0.023 A 
ATOM     64  C   UNL     1      23.797  -1.987 -24.339  1.00  0.00     0.031 A 
ATOM     65  C   UNL     1      22.383  -3.936 -24.205  1.00  0.00     0.131 A 
ATOM     66  C   UNL     1      24.190  -2.393 -25.623  1.00  0.00     0.055 A 
ATOM     67  C   UNL     1      22.824  -4.366 -25.457  1.00  0.00     0.041 A 
ATOM     68  F   UNL     1      21.480  -4.698 -23.567  1.00  0.00    -0.206 F 
ATOM     69  C   UNL     1      23.721  -3.585 -26.181  1.00  0.00     0.022 A 
BRANCH  66  70
ATOM     70  S   UNL     1      25.244  -1.286 -26.602  1.00  0.00     0.124 S 
ATOM     71  O   UNL     1      24.444  -0.066 -26.646  1.00  0.00    -0.237 OA
ATOM     72  O   UNL     1      26.460  -1.223 -25.799  1.00  0.00    -0.237 OA
ATOM     73  O   UNL     1      25.381  -1.983 -27.879  1.00  0.00    -0.744 OA
ENDBRANCH  66  70
ENDBRANCH  40  63
ENDBRANCH  14  15
ENDBRANCH   7   9
ENDBRANCH   4   5
ENDBRANCH   3   4
ENDBRANCH   2   3
ENDBRANCH   1   2
BRANCH   1  74
ATOM     74  C   UNL     1      11.889  -1.888 -10.828  1.00  0.00     0.021 C 
BRANCH  74  75
ATOM     75  C   UNL     1      11.913  -3.360 -10.422  1.00  0.00     0.116 C 
BRANCH  75  76
ATOM     76  N   UNL     1      11.269  -3.623  -9.145  1.00  0.00    -0.352 N 
ATOM     77  C   UNL     1      10.258  -4.513  -8.848  1.00  0.00     0.251 C 
ATOM     78  H   UNL     1      11.601  -3.091  -8.386  1.00  0.00     0.163 HD
ATOM     79  O   UNL     1       9.871  -4.686  -7.696  1.00  0.00    -0.269 OA
BRANCH  77  80
ATOM     80  C   UNL     1       9.723  -5.368  -9.922  1.00  0.00     0.048 A 
ATOM     81  C   UNL     1      10.671  -6.308 -10.389  1.00  0.00     0.014 A 
ATOM     82  C   UNL     1       8.366  -5.317 -10.412  1.00  0.00     0.011 A 
ATOM     83  C   UNL     1      10.350  -7.197 -11.395  1.00  0.00     0.001 A 
ATOM     84  C   UNL     1       8.085  -6.295 -11.425  1.00  0.00    -0.016 A 
ATOM     85  C   UNL     1       7.254  -4.450 -10.065  1.00  0.00     0.052 A 
ATOM     86  C   UNL     1       9.062  -7.186 -11.902  1.00  0.00     0.009 A 
ATOM     87  C   UNL     1       6.818  -6.418 -12.009  1.00  0.00     0.009 A 
ATOM     88  C   UNL     1       5.997  -4.607 -10.706  1.00  0.00     0.019 A 
ATOM     89  C   UNL     1       5.773  -5.589 -11.651  1.00  0.00     0.002 A 
BRANCH  85  90
ATOM     90  S   UNL     1       7.225  -3.018  -8.951  1.00  0.00     0.086 S 
ATOM     91  O   UNL     1       8.580  -2.404  -8.872  1.00  0.00    -0.249 OA
BRANCH  90  92
ATOM     92  C   UNL     1       6.758  -3.785  -7.359  1.00  0.00     0.049 A 
ATOM     93  C   UNL     1       5.939  -4.934  -7.343  1.00  0.00     0.018 A 
ATOM     94  C   UNL     1       6.991  -3.133  -6.124  1.00  0.00    -0.006 A 
ATOM     95  C   UNL     1       5.333  -5.402  -6.171  1.00  0.00     0.001 A 
ATOM     96  C   UNL     1       6.348  -3.609  -4.955  1.00  0.00     0.007 A 
ATOM     97  C   UNL     1       5.521  -4.726  -4.978  1.00  0.00     0.000 A 
BRANCH  94  98
ATOM     98  C   UNL     1       7.843  -1.903  -5.947  1.00  0.00     0.192 C 
BRANCH  98  99
ATOM     99  O   UNL     1       7.002  -0.756  -5.918  1.00  0.00    -0.392 OA
ATOM    100  H   UNL     1       6.506  -0.696  -6.750  1.00  0.00     0.211 HD
ENDBRANCH  98  99
ENDBRANCH  94  98
ENDBRANCH  90  92
ENDBRANCH  85  90
ENDBRANCH  77  80
ENDBRANCH  75  76
ENDBRANCH  74  75
ENDBRANCH   1  74
TORSDOF 20
