REMARK SMILES CC(=O)NS(=O)(=O)c1cc(-c2ccn(C(F)F)c(=O)c2)ccc1C(=O)NCCCCCCNC(=O)c1ccc(-c2c3nc(c(-c4cc(S(=O)(=O)[O-])ccc4F)c4ccc([nH]4)c(-c4cc(S(=O)(=O)[O-])ccc4F)c4nc(c(-c5cc(S(=O)(=O)[O-])ccc5F)c5ccc2[nH]5)C=C4)C=C3)cc1
REMARK SMILES IDX 30 1 29 2 28 3 27 4 26 5 24 6 25 7 23 9 8 10 9 11 10 12
REMARK SMILES IDX 22 13 21 14 5 15 6 16 7 17 4 18 1 19 2 20 3 21 11 23 12 24
REMARK SMILES IDX 20 25 13 26 18 27 14 28 19 29 15 30 16 31 17 32 31 33 32 34
REMARK SMILES IDX 33 35 34 36 35 38 36 39 37 40 98 41 38 42 97 43 39 44 40 45
REMARK SMILES IDX 41 46 91 47 42 48 96 49 90 50 92 51 43 52 95 53 89 54 88 55
REMARK SMILES IDX 44 57 76 58 56 59 75 60 57 61 60 62 74 63 93 64 58 65 59 66
REMARK SMILES IDX 73 68 94 69 61 70 45 71 46 72 54 73 47 74 53 75 55 76 52 77
REMARK SMILES IDX 48 78 49 79 50 80 51 81 77 82 78 83 86 84 79 85 85 86 87 87
REMARK SMILES IDX 84 88 80 89 81 90 82 91 83 92 62 93 63 94 71 95 64 96 70 97
REMARK SMILES IDX 72 98 69 99 65 100 66 101 67 102 68 103
REMARK H PARENT 26 8 4 22 33 37 92 56 60 67
REMARK Flexibility Score: inf
ROOT
ATOM      1  C   UNL     1       3.209   7.361   1.932  1.00  0.00     0.002 C 
ENDROOT
BRANCH   1   2
ATOM      2  C   UNL     1       2.107   6.605   2.680  1.00  0.00     0.002 C 
BRANCH   2   3
ATOM      3  C   UNL     1       1.870   5.171   2.196  1.00  0.00     0.021 C 
BRANCH   3   4
ATOM      4  C   UNL     1       2.779   4.115   2.843  1.00  0.00     0.116 C 
BRANCH   4   5
ATOM      5  N   UNL     1       1.984   3.281   3.730  1.00  0.00    -0.352 N 
ATOM      6  C   UNL     1       1.623   1.968   3.704  1.00  0.00     0.252 C 
ATOM      7  O   UNL     1       0.845   1.553   4.565  1.00  0.00    -0.269 OA
ATOM      8  H   UNL     1       1.633   3.766   4.511  1.00  0.00     0.163 HD
BRANCH   6   9
ATOM      9  C   UNL     1       2.179   0.955   2.780  1.00  0.00     0.060 A 
ATOM     10  C   UNL     1       1.825   0.801   1.435  1.00  0.00     0.101 A 
ATOM     11  C   UNL     1       2.033  -0.435   0.794  1.00  0.00     0.031 A 
ATOM     12  C   UNL     1       2.539  -1.533   1.501  1.00  0.00    -0.017 A 
ATOM     13  C   UNL     1       2.812  -0.120   3.440  1.00  0.00     0.016 A 
ATOM     14  C   UNL     1       2.987  -1.355   2.809  1.00  0.00     0.009 A 
BRANCH  10  15
ATOM     15  S   UNL     1       1.020   2.090   0.539  1.00  0.00     0.264 S 
ATOM     16  O   UNL     1       2.078   2.912  -0.006  1.00  0.00    -0.201 OA
ATOM     17  O   UNL     1      -0.047   2.634   1.341  1.00  0.00    -0.201 OA
BRANCH  15  18
ATOM     18  N   UNL     1       0.339   1.355  -0.782  1.00  0.00    -0.249 N 
ATOM     19  C   UNL     1      -1.559   0.120   0.295  1.00  0.00     0.115 C 
ATOM     20  C   UNL     1      -0.937   0.787  -0.897  1.00  0.00     0.230 C 
ATOM     21  O   UNL     1      -1.436   0.702  -2.011  1.00  0.00    -0.274 OA
ATOM     22  H   UNL     1       0.903   1.311  -1.588  1.00  0.00     0.183 HD
ENDBRANCH  15  18
ENDBRANCH  10  15
BRANCH  12  23
ATOM     23  C   UNL     1       2.328  -2.889   0.958  1.00  0.00    -0.011 A 
ATOM     24  C   UNL     1       1.128  -3.630   1.310  1.00  0.00     0.027 A 
ATOM     25  C   UNL     1       3.188  -3.419   0.073  1.00  0.00     0.080 A 
ATOM     26  C   UNL     1       0.842  -4.791   0.715  1.00  0.00     0.095 A 
ATOM     27  C   UNL     1       2.905  -4.745  -0.559  1.00  0.00     0.255 A 
ATOM     28  N   UNL     1       1.696  -5.336  -0.222  1.00  0.00    -0.258 N 
ATOM     29  O   UNL     1       3.734  -5.213  -1.333  1.00  0.00    -0.269 OA
BRANCH  28  30
ATOM     30  C   UNL     1       1.356  -6.574  -0.878  1.00  0.00     0.451 C 
ATOM     31  F   UNL     1       1.355  -6.433  -2.226  1.00  0.00    -0.185 F 
ATOM     32  F   UNL     1       2.234  -7.554  -0.557  1.00  0.00    -0.185 F 
ENDBRANCH  28  30
ENDBRANCH  12  23
ENDBRANCH   6   9
ENDBRANCH   4   5
ENDBRANCH   3   4
ENDBRANCH   2   3
ENDBRANCH   1   2
BRANCH   1  33
ATOM     33  C   UNL     1       3.073   7.443   0.403  1.00  0.00     0.021 C 
BRANCH  33  34
ATOM     34  C   UNL     1       1.695   7.820  -0.151  1.00  0.00     0.116 C 
BRANCH  34  35
ATOM     35  N   UNL     1       1.253   9.131   0.289  1.00  0.00    -0.352 N 
ATOM     36  C   UNL     1       0.736  10.177  -0.435  1.00  0.00     0.251 C 
ATOM     37  H   UNL     1       1.337   9.296   1.256  1.00  0.00     0.163 HD
ATOM     38  O   UNL     1       0.534  11.252   0.125  1.00  0.00    -0.269 OA
BRANCH  36  39
ATOM     39  C   UNL     1       0.444  10.038  -1.881  1.00  0.00     0.039 A 
ATOM     40  C   UNL     1       0.873  11.051  -2.747  1.00  0.00     0.014 A 
ATOM     41  C   UNL     1      -0.293   8.960  -2.383  1.00  0.00     0.014 A 
ATOM     42  C   UNL     1       0.617  10.959  -4.118  1.00  0.00     0.010 A 
ATOM     43  C   UNL     1      -0.531   8.859  -3.757  1.00  0.00     0.010 A 
ATOM     44  C   UNL     1      -0.074   9.854  -4.635  1.00  0.00    -0.014 A 
BRANCH  44  45
ATOM     45  C   UNL     1      -0.323   9.728  -6.093  1.00  0.00     0.031 A 
ATOM     46  C   UNL     1      -1.691   9.990  -6.655  1.00  0.00     0.074 A 
ATOM     47  C   UNL     1       0.670   9.324  -6.906  1.00  0.00     0.049 A 
ATOM     48  N   UNL     1      -2.125   9.836  -7.880  1.00  0.00    -0.248 NA
ATOM     49  C   UNL     1      -2.705  10.472  -5.708  1.00  0.00     0.031 C 
ATOM     50  C   UNL     1       2.037   9.012  -6.484  1.00  0.00     0.029 A 
ATOM     51  N   UNL     1       0.673   9.083  -8.257  1.00  0.00    -0.354 N 
ATOM     52  C   UNL     1      -3.471  10.177  -7.850  1.00  0.00     0.074 A 
ATOM     53  C   UNL     1      -3.780  10.541  -6.481  1.00  0.00     0.031 C 
ATOM     54  C   UNL     1       2.742   8.604  -7.553  1.00  0.00     0.029 A 
ATOM     55  C   UNL     1       1.874   8.609  -8.727  1.00  0.00     0.049 A 
ATOM     56  H   UNL     1      -0.110   9.236  -8.834  1.00  0.00     0.167 HD
ATOM     57  C   UNL     1      -4.370  10.184  -8.867  1.00  0.00     0.034 A 
ATOM     58  C   UNL     1       2.230   8.203  -9.960  1.00  0.00     0.034 A 
ATOM     59  C   UNL     1      -4.062   9.838 -10.232  1.00  0.00     0.049 A 
ATOM     60  C   UNL     1       1.228   8.246 -11.077  1.00  0.00     0.074 A 
ATOM     61  C   UNL     1      -4.893   9.861 -11.340  1.00  0.00     0.029 A 
ATOM     62  N   UNL     1      -2.824   9.398 -10.675  1.00  0.00    -0.354 N 
ATOM     63  N   UNL     1      -0.040   8.575 -11.033  1.00  0.00    -0.248 NA
ATOM     64  C   UNL     1       1.710   7.862 -12.411  1.00  0.00     0.031 C 
ATOM     65  C   UNL     1      -4.163   9.409 -12.449  1.00  0.00     0.029 A 
ATOM     66  C   UNL     1      -2.870   9.132 -12.036  1.00  0.00     0.049 A 
ATOM     67  H   UNL     1      -2.027   9.289 -10.107  1.00  0.00     0.167 HD
ATOM     68  C   UNL     1      -0.509   8.441 -12.334  1.00  0.00     0.074 A 
ATOM     69  C   UNL     1       0.612   8.000 -13.141  1.00  0.00     0.031 C 
ATOM     70  C   UNL     1      -1.753   8.671 -12.819  1.00  0.00     0.034 A 
BRANCH  57  71
ATOM     71  C   UNL     1      -5.788  10.534  -8.510  1.00  0.00     0.023 A 
ATOM     72  C   UNL     1      -6.159  11.847  -8.176  1.00  0.00     0.031 A 
ATOM     73  C   UNL     1      -6.766   9.527  -8.451  1.00  0.00     0.131 A 
ATOM     74  C   UNL     1      -7.466  12.109  -7.740  1.00  0.00     0.055 A 
ATOM     75  C   UNL     1      -8.078   9.803  -8.067  1.00  0.00     0.041 A 
ATOM     76  F   UNL     1      -6.453   8.254  -8.741  1.00  0.00    -0.206 F 
ATOM     77  C   UNL     1      -8.432  11.099  -7.697  1.00  0.00     0.022 A 
BRANCH  74  78
ATOM     78  S   UNL     1      -7.860  13.770  -7.123  1.00  0.00     0.124 S 
ATOM     79  O   UNL     1      -6.936  13.896  -5.999  1.00  0.00    -0.237 OA
ATOM     80  O   UNL     1      -7.577  14.611  -8.280  1.00  0.00    -0.237 OA
ATOM     81  O   UNL     1      -9.270  13.672  -6.753  1.00  0.00    -0.744 OA
ENDBRANCH  74  78
ENDBRANCH  57  71
BRANCH  58  82
ATOM     82  C   UNL     1       3.591   7.666 -10.194  1.00  0.00     0.023 A 
ATOM     83  C   UNL     1       4.598   8.461 -10.760  1.00  0.00     0.031 A 
ATOM     84  C   UNL     1       3.893   6.338  -9.851  1.00  0.00     0.131 A 
ATOM     85  C   UNL     1       5.868   7.912 -10.985  1.00  0.00     0.055 A 
ATOM     86  C   UNL     1       5.160   5.799 -10.066  1.00  0.00     0.041 A 
ATOM     87  F   UNL     1       2.957   5.552  -9.295  1.00  0.00    -0.206 F 
ATOM     88  C   UNL     1       6.156   6.587 -10.639  1.00  0.00     0.022 A 
BRANCH  85  89
ATOM     89  S   UNL     1       7.145   8.957 -11.743  1.00  0.00     0.124 S 
ATOM     90  O   UNL     1       6.550   9.269 -13.038  1.00  0.00    -0.237 OA
ATOM     91  O   UNL     1       7.233  10.064 -10.796  1.00  0.00    -0.237 OA
ATOM     92  O   UNL     1       8.317   8.086 -11.787  1.00  0.00    -0.744 OA
ENDBRANCH  85  89
ENDBRANCH  58  82
BRANCH  70  93
ATOM     93  C   UNL     1      -1.943   8.469 -14.294  1.00  0.00     0.023 A 
ATOM     94  C   UNL     1      -2.135   7.188 -14.836  1.00  0.00     0.031 A 
ATOM     95  C   UNL     1      -1.899   9.570 -15.166  1.00  0.00     0.131 A 
ATOM     96  C   UNL     1      -2.250   7.033 -16.226  1.00  0.00     0.055 A 
ATOM     97  C   UNL     1      -2.034   9.413 -16.545  1.00  0.00     0.041 A 
ATOM     98  F   UNL     1      -1.711  10.810 -14.688  1.00  0.00    -0.206 F 
ATOM     99  C   UNL     1      -2.205   8.138 -17.082  1.00  0.00     0.022 A 
BRANCH  96 100
ATOM    100  S   UNL     1      -2.425   5.360 -16.909  1.00  0.00     0.124 S 
ATOM    101  O   UNL     1      -1.163   4.738 -16.521  1.00  0.00    -0.237 OA
ATOM    102  O   UNL     1      -3.616   4.864 -16.228  1.00  0.00    -0.237 OA
ATOM    103  O   UNL     1      -2.585   5.590 -18.344  1.00  0.00    -0.744 OA
ENDBRANCH  96 100
ENDBRANCH  70  93
ENDBRANCH  44  45
ENDBRANCH  36  39
ENDBRANCH  34  35
ENDBRANCH  33  34
ENDBRANCH   1  33
TORSDOF 20
