REMARK SMILES Cc1c(C(=O)NC(=S)Nc2ccccc2C(=O)NCCCCCCNC(=O)c2ccc(-c3c4nc(c(-c5cc(S(=O)(=O)[O-])ccc5F)c5ccc([nH]5)c(-c5cc(S(=O)(=O)[O-])ccc5F)c5nc(c(-c6cc(S(=O)(=O)[O-])ccc6F)c6ccc3[nH]6)C=C5)C=C4)cc2)cccc1[N+](=O)[O-]
REMARK SMILES IDX 20 1 19 2 18 3 16 4 17 5 15 7 10 8 11 9 12 10 14 11 13 12
REMARK SMILES IDX 9 13 7 15 8 16 6 17 4 18 5 19 3 21 1 22 2 23 94 24 91 25
REMARK SMILES IDX 93 26 92 27 95 28 96 29 97 30 21 31 22 32 23 33 24 34 25 35
REMARK SMILES IDX 26 36 27 38 28 39 29 40 90 41 30 42 89 43 31 44 32 45 33 46
REMARK SMILES IDX 83 47 34 48 88 49 82 50 84 51 35 52 87 53 81 54 80 55 36 57
REMARK SMILES IDX 68 58 48 59 67 60 49 61 52 62 66 63 85 64 50 65 51 66 65 68
REMARK SMILES IDX 86 69 53 70 37 71 38 72 46 73 39 74 45 75 47 76 44 77 40 78
REMARK SMILES IDX 41 79 42 80 43 81 69 82 70 83 78 84 71 85 77 86 79 87 76 88
REMARK SMILES IDX 72 89 73 90 74 91 75 92 54 93 55 94 63 95 56 96 62 97 64 98
REMARK SMILES IDX 61 99 57 100 58 101 59 102 60 103
REMARK H PARENT 18 6 9 14 6 20 25 37 84 56 52 67
REMARK Flexibility Score: inf
ROOT
ATOM      1  C   UNL     1      -0.904  -4.204   2.555  1.00  0.00     0.021 C 
ENDROOT
BRANCH   1   2
ATOM      2  C   UNL     1      -0.565  -2.727   2.735  1.00  0.00     0.116 C 
BRANCH   2   3
ATOM      3  N   UNL     1       0.804  -2.280   3.076  1.00  0.00    -0.352 N 
ATOM      4  C   UNL     1       1.479  -1.040   2.929  1.00  0.00     0.253 C 
ATOM      5  O   UNL     1       2.558  -0.874   3.495  1.00  0.00    -0.269 OA
ATOM      6  H   UNL     1       1.357  -2.983   3.486  1.00  0.00     0.163 HD
BRANCH   4   7
ATOM      7  C   UNL     1       0.973   0.075   2.010  1.00  0.00     0.063 A 
ATOM      8  C   UNL     1       2.030   0.797   0.755  1.00  0.00     0.053 A 
ATOM      9  C   UNL     1       1.378   1.433  -0.843  1.00  0.00     0.027 A 
ATOM     10  C   UNL     1      -0.319   0.814  -1.315  1.00  0.00     0.002 A 
ATOM     11  C   UNL     1      -0.630  -0.142   1.808  1.00  0.00     0.016 A 
ATOM     12  C   UNL     1      -1.317  -0.019   0.242  1.00  0.00     0.001 A 
BRANCH   8  13
ATOM     13  N   UNL     1       3.124  -0.159   0.530  1.00  0.00    -0.332 N 
ATOM     14  H   UNL     1       3.996   0.248   0.319  1.00  0.00     0.169 HD
BRANCH  13  15
ATOM     15  C   UNL     1       3.117  -1.563   0.570  1.00  0.00     0.177 C 
ATOM     16  S   UNL     1       4.602  -2.307   0.853  1.00  0.00    -0.040 S 
BRANCH  15  17
ATOM     17  N   UNL     1       1.987  -2.449   0.226  1.00  0.00    -0.299 N 
ATOM     18  C   UNL     1       0.591  -2.702  -0.438  1.00  0.00     0.257 C 
ATOM     19  O   UNL     1       0.228  -3.847  -0.679  1.00  0.00    -0.269 OA
ATOM     20  H   UNL     1       2.237  -3.321   0.607  1.00  0.00     0.172 HD
BRANCH  18  21
ATOM     21  C   UNL     1      -0.266  -1.520  -0.874  1.00  0.00     0.049 A 
ATOM     22  C   UNL     1       1.657  -0.610  -1.684  1.00  0.00     0.053 C 
ATOM     23  C   UNL     1       0.554  -0.296  -0.120  1.00  0.00     0.039 A 
ATOM     24  C   UNL     1      -0.256   1.514   0.395  1.00  0.00     0.273 A 
ATOM     25  C   UNL     1      -1.765  -1.070  -1.623  1.00  0.00     0.014 A 
ATOM     26  C   UNL     1      -1.880   1.860  -0.399  1.00  0.00     0.086 A 
ATOM     27  C   UNL     1      -2.555   0.549  -1.437  1.00  0.00     0.008 A 
BRANCH  24  28
ATOM     28  N   UNL     1       0.231   2.824   1.021  1.00  0.00     0.063 N 
ATOM     29  O   UNL     1      -0.188   3.862   0.482  1.00  0.00    -0.258 OA
ATOM     30  O   UNL     1       0.939   2.818   2.034  1.00  0.00    -0.258 OA
ENDBRANCH  24  28
ENDBRANCH  18  21
ENDBRANCH  15  17
ENDBRANCH  13  15
ENDBRANCH   8  13
ENDBRANCH   4   7
ENDBRANCH   2   3
ENDBRANCH   1   2
BRANCH   1  31
ATOM     31  C   UNL     1      -0.729  -5.110   3.761  1.00  0.00     0.002 C 
BRANCH  31  32
ATOM     32  C   UNL     1      -1.289  -4.582   5.083  1.00  0.00     0.002 C 
BRANCH  32  33
ATOM     33  C   UNL     1      -2.779  -4.258   5.107  1.00  0.00     0.021 C 
BRANCH  33  34
ATOM     34  C   UNL     1      -3.696  -5.455   4.943  1.00  0.00     0.116 C 
BRANCH  34  35
ATOM     35  N   UNL     1      -3.868  -6.253   6.147  1.00  0.00    -0.352 N 
ATOM     36  C   UNL     1      -4.897  -7.108   6.502  1.00  0.00     0.251 C 
ATOM     37  H   UNL     1      -3.143  -6.174   6.808  1.00  0.00     0.163 HD
ATOM     38  O   UNL     1      -5.048  -7.465   7.668  1.00  0.00    -0.269 OA
BRANCH  36  39
ATOM     39  C   UNL     1      -5.684  -7.795   5.439  1.00  0.00     0.039 A 
ATOM     40  C   UNL     1      -5.885  -9.173   5.635  1.00  0.00     0.014 A 
ATOM     41  C   UNL     1      -5.766  -7.259   4.164  1.00  0.00     0.014 A 
ATOM     42  C   UNL     1      -5.798 -10.028   4.550  1.00  0.00     0.010 A 
ATOM     43  C   UNL     1      -5.481  -8.084   3.119  1.00  0.00     0.010 A 
ATOM     44  C   UNL     1      -5.447  -9.459   3.337  1.00  0.00    -0.014 A 
BRANCH  44  45
ATOM     45  C   UNL     1      -5.172 -10.189   2.130  1.00  0.00     0.031 A 
ATOM     46  C   UNL     1      -6.355 -10.438   1.298  1.00  0.00     0.074 A 
ATOM     47  C   UNL     1      -3.868 -10.320   1.801  1.00  0.00     0.049 A 
ATOM     48  N   UNL     1      -6.459 -11.367   0.429  1.00  0.00    -0.248 NA
ATOM     49  C   UNL     1      -7.599  -9.667   1.437  1.00  0.00     0.031 C 
ATOM     50  C   UNL     1      -3.245 -10.690   0.541  1.00  0.00     0.029 A 
ATOM     51  N   UNL     1      -2.806 -10.328   2.710  1.00  0.00    -0.354 N 
ATOM     52  C   UNL     1      -7.540 -11.042  -0.365  1.00  0.00     0.074 A 
ATOM     53  C   UNL     1      -8.312 -10.104   0.397  1.00  0.00     0.031 C 
ATOM     54  C   UNL     1      -2.029 -11.214   0.798  1.00  0.00     0.029 A 
ATOM     55  C   UNL     1      -1.890 -11.290   2.244  1.00  0.00     0.049 A 
ATOM     56  H   UNL     1      -2.717  -9.771   3.517  1.00  0.00     0.167 HD
ATOM     57  C   UNL     1      -7.510 -11.446  -1.664  1.00  0.00     0.034 A 
ATOM     58  C   UNL     1      -1.742 -12.442   2.969  1.00  0.00     0.034 A 
ATOM     59  C   UNL     1      -6.274 -12.191  -1.896  1.00  0.00     0.049 A 
ATOM     60  C   UNL     1      -2.346 -13.613   2.212  1.00  0.00     0.074 A 
ATOM     61  C   UNL     1      -5.045 -11.824  -2.421  1.00  0.00     0.029 A 
ATOM     62  N   UNL     1      -6.065 -13.356  -1.175  1.00  0.00    -0.354 N 
ATOM     63  N   UNL     1      -3.315 -13.505   1.335  1.00  0.00    -0.248 NA
ATOM     64  C   UNL     1      -1.804 -14.966   2.275  1.00  0.00     0.031 C 
ATOM     65  C   UNL     1      -4.077 -12.746  -1.929  1.00  0.00     0.029 A 
ATOM     66  C   UNL     1      -4.723 -13.662  -1.114  1.00  0.00     0.049 A 
ATOM     67  H   UNL     1      -6.780 -13.893  -0.763  1.00  0.00     0.167 HD
ATOM     68  C   UNL     1      -3.460 -14.691   0.658  1.00  0.00     0.074 A 
ATOM     69  C   UNL     1      -2.505 -15.579   1.304  1.00  0.00     0.031 C 
ATOM     70  C   UNL     1      -4.302 -14.859  -0.411  1.00  0.00     0.034 A 
BRANCH  57  71
ATOM     71  C   UNL     1      -8.381 -10.948  -2.786  1.00  0.00     0.023 A 
ATOM     72  C   UNL     1      -7.894 -11.098  -4.101  1.00  0.00     0.031 A 
ATOM     73  C   UNL     1      -9.646 -10.344  -2.675  1.00  0.00     0.131 A 
ATOM     74  C   UNL     1      -8.605 -10.629  -5.215  1.00  0.00     0.055 A 
ATOM     75  C   UNL     1     -10.353  -9.857  -3.787  1.00  0.00     0.041 A 
ATOM     76  F   UNL     1     -10.283 -10.233  -1.504  1.00  0.00    -0.206 F 
ATOM     77  C   UNL     1      -9.833  -9.996  -5.066  1.00  0.00     0.022 A 
BRANCH  74  78
ATOM     78  S   UNL     1      -7.887 -10.878  -6.858  1.00  0.00     0.124 S 
ATOM     79  O   UNL     1      -6.654 -10.103  -6.773  1.00  0.00    -0.237 OA
ATOM     80  O   UNL     1      -7.737 -12.328  -6.915  1.00  0.00    -0.237 OA
ATOM     81  O   UNL     1      -8.902 -10.327  -7.756  1.00  0.00    -0.744 OA
ENDBRANCH  74  78
ENDBRANCH  57  71
BRANCH  58  82
ATOM     82  C   UNL     1      -1.781 -12.145   4.446  1.00  0.00     0.023 A 
ATOM     83  C   UNL     1      -0.831 -11.193   4.904  1.00  0.00     0.031 A 
ATOM     84  C   UNL     1      -2.948 -12.300   5.206  1.00  0.00     0.131 A 
ATOM     85  C   UNL     1      -1.178 -10.263   5.900  1.00  0.00     0.055 A 
ATOM     86  C   UNL     1      -3.239 -11.434   6.274  1.00  0.00     0.041 A 
ATOM     87  F   UNL     1      -3.893 -13.179   4.840  1.00  0.00    -0.206 F 
ATOM     88  C   UNL     1      -2.390 -10.367   6.578  1.00  0.00     0.022 A 
BRANCH  85  89
ATOM     89  S   UNL     1      -0.185  -8.741   6.049  1.00  0.00     0.124 S 
ATOM     90  O   UNL     1       0.964  -9.198   6.822  1.00  0.00    -0.237 OA
ATOM     91  O   UNL     1       0.081  -8.401   4.653  1.00  0.00    -0.237 OA
ATOM     92  O   UNL     1      -1.075  -7.803   6.734  1.00  0.00    -0.744 OA
ENDBRANCH  85  89
ENDBRANCH  58  82
BRANCH  70  93
ATOM     93  C   UNL     1      -4.787 -16.186  -0.961  1.00  0.00     0.023 A 
ATOM     94  C   UNL     1      -4.581 -17.394  -0.295  1.00  0.00     0.031 A 
ATOM     95  C   UNL     1      -5.589 -16.269  -2.134  1.00  0.00     0.131 A 
ATOM     96  C   UNL     1      -5.049 -18.604  -0.827  1.00  0.00     0.055 A 
ATOM     97  C   UNL     1      -6.168 -17.455  -2.585  1.00  0.00     0.041 A 
ATOM     98  F   UNL     1      -5.862 -15.202  -2.898  1.00  0.00    -0.206 F 
ATOM     99  C   UNL     1      -5.877 -18.643  -1.943  1.00  0.00     0.022 A 
BRANCH  96 100
ATOM    100  S   UNL     1      -4.437 -20.128  -0.077  1.00  0.00     0.124 S 
ATOM    101  O   UNL     1      -3.000 -20.015  -0.314  1.00  0.00    -0.237 OA
ATOM    102  O   UNL     1      -4.861 -19.987   1.312  1.00  0.00    -0.237 OA
ATOM    103  O   UNL     1      -5.112 -21.178  -0.835  1.00  0.00    -0.744 OA
ENDBRANCH  96 100
ENDBRANCH  70  93
ENDBRANCH  44  45
ENDBRANCH  36  39
ENDBRANCH  34  35
ENDBRANCH  33  34
ENDBRANCH  32  33
ENDBRANCH  31  32
ENDBRANCH   1  31
TORSDOF 21
