REMARK SMILES Cc1csc(=O)n1CC(=O)N[C@@H](C(=O)NCCCCCCNC(=O)c1ccc(-c2c3nc(c(-c4cc(S(=O)(=O)[O-])ccc4F)c4ccc([nH]4)c(-c4cc(S(=O)(=O)[O-])ccc4F)c4nc(c(-c5cc(S(=O)(=O)[O-])ccc5F)c5ccc2[nH]5)C=C4)C=C3)cc1)[C@@H](C)O
REMARK SMILES IDX 18 1 17 2 16 3 15 4 13 5 14 6 12 8 11 9 9 10 10 11 8 13 7 14
REMARK SMILES IDX 1 15 2 16 3 17 4 18 5 19 6 20 88 21 89 22 90 23 19 25 20 26
REMARK SMILES IDX 21 27 22 28 23 29 24 31 25 32 26 33 87 34 27 35 86 36 28 37
REMARK SMILES IDX 29 38 30 39 80 40 31 41 85 42 79 43 81 44 32 45 84 46 78 47
REMARK SMILES IDX 77 48 33 50 65 51 45 52 64 53 46 54 49 55 63 56 82 57 47 58
REMARK SMILES IDX 48 59 62 61 83 62 50 63 34 64 35 65 43 66 36 67 42 68 44 69
REMARK SMILES IDX 41 70 37 71 38 72 39 73 40 74 66 75 67 76 75 77 68 78 74 79
REMARK SMILES IDX 76 80 73 81 69 82 70 83 71 84 72 85 51 86 52 87 60 88 53 89
REMARK SMILES IDX 59 90 61 91 58 92 54 93 55 94 56 95 57 96
REMARK H PARENT 15 7 11 12 90 24 22 30 81 49 49 60
REMARK Flexibility Score: inf
ROOT
ATOM      1  C   UNL     1       1.115  -5.877  -3.515  1.00  0.00     0.002 C 
ENDROOT
BRANCH   1   2
ATOM      2  C   UNL     1       0.204  -4.649  -3.572  1.00  0.00     0.021 C 
BRANCH   2   3
ATOM      3  C   UNL     1       0.804  -3.412  -2.922  1.00  0.00     0.116 C 
BRANCH   3   4
ATOM      4  N   UNL     1       1.786  -2.756  -3.756  1.00  0.00    -0.354 N 
ATOM      5  C   UNL     1       1.952  -1.427  -4.030  1.00  0.00     0.245 C 
ATOM      6  O   UNL     1       2.987  -1.115  -4.624  1.00  0.00    -0.273 OA
ATOM      7  H   UNL     1       2.432  -3.357  -4.193  1.00  0.00     0.163 HD
BRANCH   5   8
ATOM      8  C   UNL     1       0.970  -0.373  -3.442  1.00  0.00     0.200 C 
BRANCH   8   9
ATOM      9  N   UNL     1      -0.425  -0.713  -3.730  1.00  0.00    -0.340 N 
ATOM     10  C   UNL     1      -1.524  -0.791  -2.925  1.00  0.00     0.240 C 
ATOM     11  O   UNL     1      -2.595  -1.041  -3.483  1.00  0.00    -0.273 OA
ATOM     12  H   UNL     1      -0.602  -0.924  -4.675  1.00  0.00     0.164 HD
BRANCH  10  13
ATOM     13  C   UNL     1      -1.486  -0.475  -1.414  1.00  0.00     0.226 C 
BRANCH  13  14
ATOM     14  N   UNL     1      -0.713  -1.357  -0.546  1.00  0.00    -0.294 N 
ATOM     15  C   UNL     1       1.107   0.300   0.125  1.00  0.00     0.065 C 
ATOM     16  C   UNL     1       0.440  -1.032   0.159  1.00  0.00     0.029 A 
ATOM     17  C   UNL     1       0.901  -2.035   0.923  1.00  0.00     0.091 A 
ATOM     18  S   UNL     1      -0.147  -3.406   0.906  1.00  0.00    -0.082 S 
ATOM     19  C   UNL     1      -1.232  -2.628  -0.261  1.00  0.00     0.307 A 
ATOM     20  O   UNL     1      -2.216  -3.160  -0.711  1.00  0.00    -0.257 OA
ENDBRANCH  13  14
ENDBRANCH  10  13
ENDBRANCH   8   9
BRANCH   8  21
ATOM     21  C   UNL     1       1.341   1.052  -3.947  1.00  0.00     0.143 C 
ATOM     22  C   UNL     1       0.254   2.098  -3.705  1.00  0.00     0.041 C 
BRANCH  21  23
ATOM     23  O   UNL     1       2.521   1.546  -3.296  1.00  0.00    -0.391 OA
ATOM     24  H   UNL     1       2.348   1.647  -2.346  1.00  0.00     0.211 HD
ENDBRANCH  21  23
ENDBRANCH   8  21
ENDBRANCH   5   8
ENDBRANCH   3   4
ENDBRANCH   2   3
ENDBRANCH   1   2
BRANCH   1  25
ATOM     25  C   UNL     1       1.610  -6.280  -2.114  1.00  0.00     0.002 C 
BRANCH  25  26
ATOM     26  C   UNL     1       0.536  -6.469  -1.034  1.00  0.00     0.021 C 
BRANCH  26  27
ATOM     27  C   UNL     1      -0.425  -7.606  -1.307  1.00  0.00     0.116 C 
BRANCH  27  28
ATOM     28  N   UNL     1       0.219  -8.928  -1.309  1.00  0.00    -0.352 N 
ATOM     29  C   UNL     1      -0.370 -10.173  -1.508  1.00  0.00     0.251 C 
ATOM     30  H   UNL     1       1.191  -8.933  -1.150  1.00  0.00     0.163 HD
ATOM     31  O   UNL     1       0.184 -11.200  -1.133  1.00  0.00    -0.269 OA
BRANCH  29  32
ATOM     32  C   UNL     1      -1.672 -10.213  -2.198  1.00  0.00     0.039 A 
ATOM     33  C   UNL     1      -2.723 -11.081  -1.887  1.00  0.00     0.014 A 
ATOM     34  C   UNL     1      -1.842  -9.234  -3.158  1.00  0.00     0.014 A 
ATOM     35  C   UNL     1      -3.936 -10.904  -2.558  1.00  0.00     0.010 A 
ATOM     36  C   UNL     1      -3.098  -8.810  -3.423  1.00  0.00     0.010 A 
ATOM     37  C   UNL     1      -4.095  -9.757  -3.346  1.00  0.00    -0.014 A 
BRANCH  37  38
ATOM     38  C   UNL     1      -5.273  -9.411  -4.119  1.00  0.00     0.031 A 
ATOM     39  C   UNL     1      -6.477  -9.169  -3.300  1.00  0.00     0.074 A 
ATOM     40  C   UNL     1      -5.174  -9.025  -5.416  1.00  0.00     0.049 A 
ATOM     41  N   UNL     1      -7.511  -9.931  -3.200  1.00  0.00    -0.248 NA
ATOM     42  C   UNL     1      -6.461  -8.060  -2.333  1.00  0.00     0.031 C 
ATOM     43  C   UNL     1      -3.978  -8.910  -6.269  1.00  0.00     0.029 A 
ATOM     44  N   UNL     1      -6.142  -8.532  -6.227  1.00  0.00    -0.354 N 
ATOM     45  C   UNL     1      -8.391  -9.264  -2.360  1.00  0.00     0.074 A 
ATOM     46  C   UNL     1      -7.603  -8.275  -1.675  1.00  0.00     0.031 C 
ATOM     47  C   UNL     1      -4.265  -8.180  -7.372  1.00  0.00     0.029 A 
ATOM     48  C   UNL     1      -5.692  -7.913  -7.393  1.00  0.00     0.049 A 
ATOM     49  H   UNL     1      -7.099  -8.605  -6.008  1.00  0.00     0.167 HD
ATOM     50  C   UNL     1      -9.738  -9.415  -2.499  1.00  0.00     0.034 A 
ATOM     51  C   UNL     1      -6.445  -7.227  -8.299  1.00  0.00     0.034 A 
ATOM     52  C   UNL     1     -10.038 -10.513  -3.397  1.00  0.00     0.049 A 
ATOM     53  C   UNL     1      -7.840  -7.715  -8.112  1.00  0.00     0.074 A 
ATOM     54  C   UNL     1      -9.751 -11.865  -3.393  1.00  0.00     0.029 A 
ATOM     55  N   UNL     1     -10.332 -10.205  -4.710  1.00  0.00    -0.354 N 
ATOM     56  N   UNL     1      -8.186  -8.955  -8.344  1.00  0.00    -0.248 NA
ATOM     57  C   UNL     1      -8.687  -7.013  -7.155  1.00  0.00     0.031 C 
ATOM     58  C   UNL     1      -9.367 -12.157  -4.737  1.00  0.00     0.029 A 
ATOM     59  C   UNL     1      -9.544 -11.003  -5.507  1.00  0.00     0.049 A 
ATOM     60  H   UNL     1     -10.986  -9.536  -5.019  1.00  0.00     0.167 HD
ATOM     61  C   UNL     1      -8.982  -9.320  -7.267  1.00  0.00     0.074 A 
ATOM     62  C   UNL     1      -9.332  -8.055  -6.614  1.00  0.00     0.031 C 
ATOM     63  C   UNL     1      -9.028 -10.610  -6.810  1.00  0.00     0.034 A 
BRANCH  50  64
ATOM     64  C   UNL     1     -10.780  -8.385  -2.133  1.00  0.00     0.023 A 
ATOM     65  C   UNL     1     -12.129  -8.758  -2.287  1.00  0.00     0.031 A 
ATOM     66  C   UNL     1     -10.543  -7.011  -1.908  1.00  0.00     0.131 A 
ATOM     67  C   UNL     1     -13.147  -7.791  -2.314  1.00  0.00     0.055 A 
ATOM     68  C   UNL     1     -11.567  -6.061  -1.869  1.00  0.00     0.041 A 
ATOM     69  F   UNL     1      -9.315  -6.490  -1.813  1.00  0.00    -0.206 F 
ATOM     70  C   UNL     1     -12.875  -6.442  -2.105  1.00  0.00     0.022 A 
BRANCH  67  71
ATOM     71  S   UNL     1     -14.809  -8.309  -2.811  1.00  0.00     0.124 S 
ATOM     72  O   UNL     1     -14.544  -8.999  -4.069  1.00  0.00    -0.237 OA
ATOM     73  O   UNL     1     -15.210  -9.149  -1.687  1.00  0.00    -0.237 OA
ATOM     74  O   UNL     1     -15.534  -7.046  -2.935  1.00  0.00    -0.744 OA
ENDBRANCH  67  71
ENDBRANCH  50  64
BRANCH  51  75
ATOM     75  C   UNL     1      -6.071  -5.960  -9.006  1.00  0.00     0.023 A 
ATOM     76  C   UNL     1      -6.708  -5.482 -10.176  1.00  0.00     0.031 A 
ATOM     77  C   UNL     1      -5.182  -5.061  -8.371  1.00  0.00     0.131 A 
ATOM     78  C   UNL     1      -6.438  -4.172 -10.659  1.00  0.00     0.055 A 
ATOM     79  C   UNL     1      -4.925  -3.772  -8.847  1.00  0.00     0.041 A 
ATOM     80  F   UNL     1      -4.587  -5.379  -7.210  1.00  0.00    -0.206 F 
ATOM     81  C   UNL     1      -5.558  -3.319  -9.991  1.00  0.00     0.022 A 
BRANCH  78  82
ATOM     82  S   UNL     1      -7.286  -3.516 -12.140  1.00  0.00     0.124 S 
ATOM     83  O   UNL     1      -6.743  -4.349 -13.206  1.00  0.00    -0.237 OA
ATOM     84  O   UNL     1      -8.693  -3.715 -11.813  1.00  0.00    -0.237 OA
ATOM     85  O   UNL     1      -6.864  -2.114 -12.186  1.00  0.00    -0.744 OA
ENDBRANCH  78  82
ENDBRANCH  51  75
BRANCH  63  86
ATOM     86  C   UNL     1      -8.309 -11.688  -7.612  1.00  0.00     0.023 A 
ATOM     87  C   UNL     1      -6.918 -11.706  -7.881  1.00  0.00     0.031 A 
ATOM     88  C   UNL     1      -9.049 -12.822  -7.985  1.00  0.00     0.131 A 
ATOM     89  C   UNL     1      -6.325 -12.823  -8.506  1.00  0.00     0.055 A 
ATOM     90  C   UNL     1      -8.456 -13.936  -8.581  1.00  0.00     0.041 A 
ATOM     91  F   UNL     1     -10.367 -12.887  -7.731  1.00  0.00    -0.206 F 
ATOM     92  C   UNL     1      -7.092 -13.940  -8.848  1.00  0.00     0.022 A 
BRANCH  89  93
ATOM     93  S   UNL     1      -4.539 -12.844  -8.887  1.00  0.00     0.124 S 
ATOM     94  O   UNL     1      -4.340 -11.611  -9.640  1.00  0.00    -0.237 OA
ATOM     95  O   UNL     1      -3.926 -12.892  -7.563  1.00  0.00    -0.237 OA
ATOM     96  O   UNL     1      -4.373 -14.069  -9.675  1.00  0.00    -0.744 OA
ENDBRANCH  89  93
ENDBRANCH  63  86
ENDBRANCH  37  38
ENDBRANCH  29  32
ENDBRANCH  27  28
ENDBRANCH  26  27
ENDBRANCH  25  26
ENDBRANCH   1  25
TORSDOF 21
