REMARK SMILES CC(C)Cc1ccc([C@@H](C)C(=O)NCCCCCCNC(=O)c2ccc(-c3c4nc(c(-c5cc(S(=O)(=O)[O-])ccc5F)c5ccc([nH]5)c(-c5cc(S(=O)(=O)[O-])ccc5F)c5nc(c(-c6cc(S(=O)(=O)[O-])ccc6F)c6ccc3[nH]6)C=C5)C=C4)cc2)cc1
REMARK SMILES IDX 16 1 15 2 14 3 13 4 11 5 12 6 9 8 10 9 8 10 5 11 6 12 87 13
REMARK SMILES IDX 7 14 86 15 4 16 2 17 1 18 3 19 17 20 18 21 19 22 20 23 21 24
REMARK SMILES IDX 22 26 23 27 24 28 85 29 25 30 84 31 26 32 27 33 28 34 78 35
REMARK SMILES IDX 29 36 83 37 77 38 79 39 30 40 82 41 76 42 75 43 31 45 63 46
REMARK SMILES IDX 43 47 62 48 44 49 47 50 61 51 80 52 45 53 46 54 60 56 81 57
REMARK SMILES IDX 48 58 32 59 33 60 41 61 34 62 40 63 42 64 39 65 35 66 36 67
REMARK SMILES IDX 37 68 38 69 64 70 65 71 73 72 66 73 72 74 74 75 71 76 67 77
REMARK SMILES IDX 68 78 69 79 70 80 49 81 50 82 58 83 51 84 57 85 59 86 56 87
REMARK SMILES IDX 52 88 53 89 54 90 55 91
REMARK H PARENT 13 7 20 25 79 44 47 55
REMARK Flexibility Score: inf
ROOT
ATOM      1  C   UNL     1      -5.071   2.992   5.289  1.00  0.00     0.002 C 
ENDROOT
BRANCH   1   2
ATOM      2  C   UNL     1      -3.795   2.236   4.908  1.00  0.00     0.021 C 
BRANCH   2   3
ATOM      3  C   UNL     1      -3.330   1.239   5.971  1.00  0.00     0.116 C 
BRANCH   3   4
ATOM      4  N   UNL     1      -3.954  -0.056   5.804  1.00  0.00    -0.356 N 
ATOM      5  C   UNL     1      -3.489  -1.212   5.257  1.00  0.00     0.227 C 
ATOM      6  O   UNL     1      -4.291  -2.152   5.183  1.00  0.00    -0.274 OA
ATOM      7  H   UNL     1      -4.875  -0.111   6.147  1.00  0.00     0.163 HD
BRANCH   5   8
ATOM      8  C   UNL     1      -2.046  -1.397   4.768  1.00  0.00     0.105 C 
ATOM      9  C   UNL     1      -0.993  -1.251   5.867  1.00  0.00     0.023 C 
BRANCH   8  10
ATOM     10  C   UNL     1      -1.747  -0.678   3.462  1.00  0.00    -0.036 A 
ATOM     11  C   UNL     1      -1.207   0.583   0.988  1.00  0.00    -0.048 A 
ATOM     12  C   UNL     1      -0.974   1.248   2.194  1.00  0.00     0.004 A 
ATOM     13  C   UNL     1      -1.741  -0.709   1.021  1.00  0.00     0.004 A 
ATOM     14  C   UNL     1      -1.204   0.610   3.412  1.00  0.00     0.005 A 
ATOM     15  C   UNL     1      -2.022  -1.324   2.244  1.00  0.00     0.005 A 
BRANCH  11  16
ATOM     16  C   UNL     1      -0.799   1.230  -0.313  1.00  0.00     0.038 C 
BRANCH  16  17
ATOM     17  C   UNL     1       0.730   1.424  -0.404  1.00  0.00    -0.013 C 
ATOM     18  C   UNL     1       1.473   0.085  -0.421  1.00  0.00     0.008 C 
ATOM     19  C   UNL     1       1.092   2.245  -1.639  1.00  0.00     0.008 C 
ENDBRANCH  16  17
ENDBRANCH  11  16
ENDBRANCH   8  10
ENDBRANCH   5   8
ENDBRANCH   3   4
ENDBRANCH   2   3
ENDBRANCH   1   2
BRANCH   1  20
ATOM     20  C   UNL     1      -4.955   3.869   6.543  1.00  0.00     0.002 C 
BRANCH  20  21
ATOM     21  C   UNL     1      -3.814   4.891   6.527  1.00  0.00     0.021 C 
BRANCH  21  22
ATOM     22  C   UNL     1      -3.887   5.910   5.392  1.00  0.00     0.116 C 
BRANCH  22  23
ATOM     23  N   UNL     1      -5.092   6.719   5.476  1.00  0.00    -0.352 N 
ATOM     24  C   UNL     1      -5.226   8.075   5.644  1.00  0.00     0.251 C 
ATOM     25  H   UNL     1      -5.938   6.221   5.402  1.00  0.00     0.163 HD
ATOM     26  O   UNL     1      -6.317   8.542   5.957  1.00  0.00    -0.269 OA
BRANCH  24  27
ATOM     27  C   UNL     1      -4.059   8.965   5.458  1.00  0.00     0.039 A 
ATOM     28  C   UNL     1      -3.852  10.011   6.361  1.00  0.00     0.014 A 
ATOM     29  C   UNL     1      -3.190   8.790   4.377  1.00  0.00     0.014 A 
ATOM     30  C   UNL     1      -2.743  10.848   6.210  1.00  0.00     0.010 A 
ATOM     31  C   UNL     1      -2.050   9.583   4.266  1.00  0.00     0.010 A 
ATOM     32  C   UNL     1      -1.816  10.623   5.179  1.00  0.00    -0.014 A 
BRANCH  32  33
ATOM     33  C   UNL     1      -0.605  11.473   5.030  1.00  0.00     0.031 A 
ATOM     34  C   UNL     1      -0.434  12.331   3.805  1.00  0.00     0.074 A 
ATOM     35  C   UNL     1       0.362  11.430   5.968  1.00  0.00     0.049 A 
ATOM     36  N   UNL     1       0.586  13.068   3.445  1.00  0.00    -0.248 NA
ATOM     37  C   UNL     1      -1.550  12.341   2.845  1.00  0.00     0.031 C 
ATOM     38  C   UNL     1       0.321  10.617   7.186  1.00  0.00     0.029 A 
ATOM     39  N   UNL     1       1.571  12.075   6.044  1.00  0.00    -0.354 N 
ATOM     40  C   UNL     1       0.239  13.623   2.218  1.00  0.00     0.074 A 
ATOM     41  C   UNL     1      -1.059  13.088   1.867  1.00  0.00     0.031 C 
ATOM     42  C   UNL     1       1.442  10.828   7.895  1.00  0.00     0.029 A 
ATOM     43  C   UNL     1       2.304  11.751   7.163  1.00  0.00     0.049 A 
ATOM     44  H   UNL     1       1.885  12.711   5.361  1.00  0.00     0.167 HD
ATOM     45  C   UNL     1       0.930  14.515   1.464  1.00  0.00     0.034 A 
ATOM     46  C   UNL     1       3.537  12.139   7.546  1.00  0.00     0.034 A 
ATOM     47  C   UNL     1       2.219  15.049   1.832  1.00  0.00     0.049 A 
ATOM     48  C   UNL     1       4.300  13.103   6.670  1.00  0.00     0.074 A 
ATOM     49  C   UNL     1       2.990  15.980   1.159  1.00  0.00     0.029 A 
ATOM     50  N   UNL     1       2.928  14.698   2.974  1.00  0.00    -0.354 N 
ATOM     51  N   UNL     1       3.942  13.644   5.528  1.00  0.00    -0.248 NA
ATOM     52  C   UNL     1       5.628  13.519   7.140  1.00  0.00     0.031 C 
ATOM     53  C   UNL     1       4.190  16.146   1.859  1.00  0.00     0.029 A 
ATOM     54  C   UNL     1       4.137  15.377   3.010  1.00  0.00     0.049 A 
ATOM     55  H   UNL     1       2.619  14.061   3.657  1.00  0.00     0.167 HD
ATOM     56  C   UNL     1       4.985  14.493   5.167  1.00  0.00     0.074 A 
ATOM     57  C   UNL     1       5.976  14.404   6.219  1.00  0.00     0.031 C 
ATOM     58  C   UNL     1       5.114  15.278   4.068  1.00  0.00     0.034 A 
BRANCH  45  59
ATOM     59  C   UNL     1       0.309  14.955   0.160  1.00  0.00     0.023 A 
ATOM     60  C   UNL     1      -0.896  15.678   0.126  1.00  0.00     0.031 A 
ATOM     61  C   UNL     1       0.928  14.649  -1.065  1.00  0.00     0.131 A 
ATOM     62  C   UNL     1      -1.477  16.014  -1.106  1.00  0.00     0.055 A 
ATOM     63  C   UNL     1       0.385  15.054  -2.285  1.00  0.00     0.041 A 
ATOM     64  F   UNL     1       2.070  13.943  -1.096  1.00  0.00    -0.206 F 
ATOM     65  C   UNL     1      -0.831  15.731  -2.312  1.00  0.00     0.022 A 
BRANCH  62  66
ATOM     66  S   UNL     1      -3.147  16.720  -1.113  1.00  0.00     0.124 S 
ATOM     67  O   UNL     1      -3.921  15.650  -0.489  1.00  0.00    -0.237 OA
ATOM     68  O   UNL     1      -2.981  17.934  -0.322  1.00  0.00    -0.237 OA
ATOM     69  O   UNL     1      -3.423  16.933  -2.533  1.00  0.00    -0.744 OA
ENDBRANCH  62  66
ENDBRANCH  45  59
BRANCH  46  70
ATOM     70  C   UNL     1       4.147  11.617   8.804  1.00  0.00     0.023 A 
ATOM     71  C   UNL     1       4.492  12.483   9.853  1.00  0.00     0.031 A 
ATOM     72  C   UNL     1       4.463  10.254   8.947  1.00  0.00     0.131 A 
ATOM     73  C   UNL     1       5.192  11.993  10.966  1.00  0.00     0.055 A 
ATOM     74  C   UNL     1       5.102   9.759  10.086  1.00  0.00     0.041 A 
ATOM     75  F   UNL     1       4.154   9.378   7.978  1.00  0.00    -0.206 F 
ATOM     76  C   UNL     1       5.488  10.635  11.096  1.00  0.00     0.022 A 
BRANCH  73  77
ATOM     77  S   UNL     1       5.820  13.180  12.186  1.00  0.00     0.124 S 
ATOM     78  O   UNL     1       6.611  14.075  11.348  1.00  0.00    -0.237 OA
ATOM     79  O   UNL     1       4.585  13.734  12.731  1.00  0.00    -0.237 OA
ATOM     80  O   UNL     1       6.588  12.346  13.108  1.00  0.00    -0.744 OA
ENDBRANCH  73  77
ENDBRANCH  46  70
BRANCH  58  81
ATOM     81  C   UNL     1       6.346  16.145   3.984  1.00  0.00     0.023 A 
ATOM     82  C   UNL     1       7.631  15.596   3.836  1.00  0.00     0.031 A 
ATOM     83  C   UNL     1       6.229  17.545   4.065  1.00  0.00     0.131 A 
ATOM     84  C   UNL     1       8.754  16.437   3.833  1.00  0.00     0.055 A 
ATOM     85  C   UNL     1       7.344  18.380   3.998  1.00  0.00     0.041 A 
ATOM     86  F   UNL     1       5.026  18.123   4.207  1.00  0.00    -0.206 F 
ATOM     87  C   UNL     1       8.617  17.827   3.896  1.00  0.00     0.022 A 
BRANCH  84  88
ATOM     88  S   UNL     1      10.405  15.686   3.838  1.00  0.00     0.124 S 
ATOM     89  O   UNL     1      10.367  14.878   5.053  1.00  0.00    -0.237 OA
ATOM     90  O   UNL     1      10.414  14.945   2.581  1.00  0.00    -0.237 OA
ATOM     91  O   UNL     1      11.305  16.837   3.885  1.00  0.00    -0.744 OA
ENDBRANCH  84  88
ENDBRANCH  58  81
ENDBRANCH  32  33
ENDBRANCH  24  27
ENDBRANCH  22  23
ENDBRANCH  21  22
ENDBRANCH  20  21
ENDBRANCH   1  20
TORSDOF 19
