REMARK SMILES CC1=C(C#N)C(=O)N(C)C(=O)/C1=C\Nc1ccc(C(=O)NCCCCCCNC(=O)c2ccc(-c3c4nc(c(-c5cc(S(=O)(=O)[O-])ccc5F)c5ccc([nH]5)c(-c5cc(S(=O)(=O)[O-])ccc5F)c5nc(c(-c6cc(S(=O)(=O)[O-])ccc6F)c6ccc3[nH]6)C=C5)C=C4)cc2)c(O)c1
REMARK SMILES IDX 24 1 23 2 22 3 21 4 19 5 20 6 18 8 15 9 16 10 96 11 17 12
REMARK SMILES IDX 94 13 14 14 13 16 1 17 2 18 3 19 12 20 6 21 10 22 7 23 8 24
REMARK SMILES IDX 11 25 9 26 4 27 5 28 95 29 25 31 26 32 27 33 28 34 29 35
REMARK SMILES IDX 30 37 31 38 32 39 93 40 33 41 92 42 34 43 35 44 36 45 86 46
REMARK SMILES IDX 37 47 91 48 85 49 87 50 38 51 90 52 84 53 83 54 39 56 71 57
REMARK SMILES IDX 51 58 70 59 52 60 55 61 69 62 88 63 53 64 54 65 68 67 89 68
REMARK SMILES IDX 56 69 40 70 41 71 49 72 42 73 48 74 50 75 47 76 43 77 44 78
REMARK SMILES IDX 45 79 46 80 72 81 73 82 81 83 74 84 80 85 82 86 79 87 75 88
REMARK SMILES IDX 76 89 77 90 78 91 57 92 58 93 66 94 59 95 65 96 67 97 64 98
REMARK SMILES IDX 60 99 61 100 62 101 63 102
REMARK H PARENT 21 7 14 15 95 30 28 36 87 55 55 66
REMARK Flexibility Score: inf
ROOT
ATOM      1  C   UNL     1      -5.387   9.902  -2.500  1.00  0.00     0.002 C 
ENDROOT
BRANCH   1   2
ATOM      2  C   UNL     1      -5.076   8.438  -2.175  1.00  0.00     0.021 C 
BRANCH   2   3
ATOM      3  C   UNL     1      -3.950   7.792  -2.979  1.00  0.00     0.116 C 
BRANCH   3   4
ATOM      4  N   UNL     1      -2.672   8.475  -2.861  1.00  0.00    -0.352 N 
ATOM      5  C   UNL     1      -1.396   7.970  -2.902  1.00  0.00     0.255 C 
ATOM      6  O   UNL     1      -0.445   8.730  -2.728  1.00  0.00    -0.269 OA
ATOM      7  H   UNL     1      -2.731   9.449  -2.731  1.00  0.00     0.163 HD
BRANCH   5   8
ATOM      8  C   UNL     1      -1.137   6.524  -3.102  1.00  0.00     0.081 A 
ATOM      9  C   UNL     1      -0.604   3.751  -3.234  1.00  0.00     0.042 A 
ATOM     10  C   UNL     1       0.094   4.569  -2.342  1.00  0.00     0.027 A 
ATOM     11  C   UNL     1      -1.536   4.351  -4.092  1.00  0.00     0.073 A 
ATOM     12  C   UNL     1      -0.168   5.942  -2.275  1.00  0.00     0.020 A 
ATOM     13  C   UNL     1      -1.766   5.726  -4.059  1.00  0.00     0.130 A 
BRANCH   9  14
ATOM     14  N   UNL     1      -0.460   2.359  -3.281  1.00  0.00    -0.361 N 
ATOM     15  H   UNL     1      -0.764   1.933  -4.114  1.00  0.00     0.166 HD
BRANCH  14  16
ATOM     16  C   UNL     1       0.043   1.502  -2.334  1.00  0.00     0.097 C 
ATOM     17  C   UNL     1       0.969  -0.005   0.037  1.00  0.00     0.047 C 
ATOM     18  C   UNL     1       0.613  -0.667  -1.279  1.00  0.00    -0.013 C 
ATOM     19  C   UNL     1       0.719  -1.999  -1.445  1.00  0.00     0.121 C 
ATOM     20  C   UNL     1       0.130   0.156  -2.387  1.00  0.00     0.060 C 
ATOM     21  C   UNL     1       0.391  -2.675  -2.723  1.00  0.00     0.271 C 
ATOM     22  C   UNL     1      -0.320  -0.513  -3.667  1.00  0.00     0.262 C 
ATOM     23  O   UNL     1       0.567  -3.886  -2.839  1.00  0.00    -0.268 OA
ATOM     24  N   UNL     1      -0.108  -1.882  -3.744  1.00  0.00    -0.277 N 
ATOM     25  O   UNL     1      -0.833   0.134  -4.581  1.00  0.00    -0.269 OA
ATOM     26  C   UNL     1      -0.443  -2.562  -4.984  1.00  0.00     0.157 C 
BRANCH  19  27
ATOM     27  C   UNL     1       1.241  -2.889  -0.330  1.00  0.00     0.105 C 
ATOM     28  N   UNL     1       1.675  -3.628   0.596  1.00  0.00    -0.192 NA
ENDBRANCH  19  27
ENDBRANCH  14  16
ENDBRANCH   9  14
BRANCH  13  29
ATOM     29  O   UNL     1      -2.595   6.206  -5.034  1.00  0.00    -0.507 OA
ATOM     30  H   UNL     1      -2.793   7.121  -5.072  1.00  0.00     0.293 HD
ENDBRANCH  13  29
ENDBRANCH   5   8
ENDBRANCH   3   4
ENDBRANCH   2   3
ENDBRANCH   1   2
BRANCH   1  31
ATOM     31  C   UNL     1      -5.570  10.261  -3.977  1.00  0.00     0.002 C 
BRANCH  31  32
ATOM     32  C   UNL     1      -6.594   9.440  -4.762  1.00  0.00     0.021 C 
BRANCH  32  33
ATOM     33  C   UNL     1      -7.982   9.323  -4.141  1.00  0.00     0.116 C 
BRANCH  33  34
ATOM     34  N   UNL     1      -8.611  10.612  -3.913  1.00  0.00    -0.352 N 
ATOM     35  C   UNL     1      -9.865  11.048  -4.258  1.00  0.00     0.251 C 
ATOM     36  H   UNL     1      -8.053  11.272  -3.440  1.00  0.00     0.163 HD
ATOM     37  O   UNL     1     -10.156  12.233  -4.092  1.00  0.00    -0.269 OA
BRANCH  35  38
ATOM     38  C   UNL     1     -10.851  10.120  -4.858  1.00  0.00     0.039 A 
ATOM     39  C   UNL     1     -11.610  10.561  -5.945  1.00  0.00     0.014 A 
ATOM     40  C   UNL     1     -11.040   8.828  -4.356  1.00  0.00     0.014 A 
ATOM     41  C   UNL     1     -12.507   9.690  -6.568  1.00  0.00     0.010 A 
ATOM     42  C   UNL     1     -11.882   7.938  -5.024  1.00  0.00     0.010 A 
ATOM     43  C   UNL     1     -12.623   8.358  -6.139  1.00  0.00    -0.014 A 
BRANCH  43  44
ATOM     44  C   UNL     1     -13.504   7.397  -6.859  1.00  0.00     0.031 A 
ATOM     45  C   UNL     1     -14.690   6.783  -6.165  1.00  0.00     0.074 A 
ATOM     46  C   UNL     1     -13.205   7.045  -8.126  1.00  0.00     0.049 A 
ATOM     47  N   UNL     1     -15.542   5.896  -6.614  1.00  0.00    -0.248 NA
ATOM     48  C   UNL     1     -14.937   7.202  -4.778  1.00  0.00     0.031 C 
ATOM     49  C   UNL     1     -12.059   7.542  -8.892  1.00  0.00     0.029 A 
ATOM     50  N   UNL     1     -13.832   6.186  -8.995  1.00  0.00    -0.354 N 
ATOM     51  C   UNL     1     -16.420   5.646  -5.564  1.00  0.00     0.074 A 
ATOM     52  C   UNL     1     -15.960   6.431  -4.439  1.00  0.00     0.031 C 
ATOM     53  C   UNL     1     -12.081   7.002 -10.120  1.00  0.00     0.029 A 
ATOM     54  C   UNL     1     -13.210   6.083 -10.219  1.00  0.00     0.049 A 
ATOM     55  H   UNL     1     -14.650   5.690  -8.764  1.00  0.00     0.167 HD
ATOM     56  C   UNL     1     -17.519   4.850  -5.548  1.00  0.00     0.034 A 
ATOM     57  C   UNL     1     -13.505   5.324 -11.294  1.00  0.00     0.034 A 
ATOM     58  C   UNL     1     -17.971   4.080  -6.683  1.00  0.00     0.049 A 
ATOM     59  C   UNL     1     -14.716   4.426 -11.239  1.00  0.00     0.074 A 
ATOM     60  C   UNL     1     -19.101   3.288  -6.790  1.00  0.00     0.029 A 
ATOM     61  N   UNL     1     -17.311   3.993  -7.902  1.00  0.00    -0.354 N 
ATOM     62  N   UNL     1     -15.569   4.247 -10.256  1.00  0.00    -0.248 NA
ATOM     63  C   UNL     1     -15.011   3.638 -12.442  1.00  0.00     0.031 C 
ATOM     64  C   UNL     1     -19.084   2.665  -8.042  1.00  0.00     0.029 A 
ATOM     65  C   UNL     1     -17.991   3.133  -8.752  1.00  0.00     0.049 A 
ATOM     66  H   UNL     1     -16.482   4.473  -8.130  1.00  0.00     0.167 HD
ATOM     67  C   UNL     1     -16.518   3.349 -10.737  1.00  0.00     0.074 A 
ATOM     68  C   UNL     1     -16.145   3.043 -12.102  1.00  0.00     0.031 C 
ATOM     69  C   UNL     1     -17.601   2.824 -10.109  1.00  0.00     0.034 A 
BRANCH  56  70
ATOM     70  C   UNL     1     -18.295   4.753  -4.255  1.00  0.00     0.023 A 
ATOM     71  C   UNL     1     -18.937   5.868  -3.689  1.00  0.00     0.031 A 
ATOM     72  C   UNL     1     -18.393   3.525  -3.576  1.00  0.00     0.131 A 
ATOM     73  C   UNL     1     -19.592   5.749  -2.454  1.00  0.00     0.055 A 
ATOM     74  C   UNL     1     -19.114   3.395  -2.387  1.00  0.00     0.041 A 
ATOM     75  F   UNL     1     -17.784   2.428  -4.054  1.00  0.00    -0.206 F 
ATOM     76  C   UNL     1     -19.708   4.514  -1.812  1.00  0.00     0.022 A 
BRANCH  73  77
ATOM     77  S   UNL     1     -20.176   7.257  -1.633  1.00  0.00     0.124 S 
ATOM     78  O   UNL     1     -18.935   8.015  -1.492  1.00  0.00    -0.237 OA
ATOM     79  O   UNL     1     -21.142   7.784  -2.590  1.00  0.00    -0.237 OA
ATOM     80  O   UNL     1     -20.744   6.767  -0.379  1.00  0.00    -0.744 OA
ENDBRANCH  73  77
ENDBRANCH  56  70
BRANCH  57  81
ATOM     81  C   UNL     1     -12.638   5.356 -12.509  1.00  0.00     0.023 A 
ATOM     82  C   UNL     1     -13.142   5.783 -13.748  1.00  0.00     0.031 A 
ATOM     83  C   UNL     1     -11.308   4.903 -12.461  1.00  0.00     0.131 A 
ATOM     84  C   UNL     1     -12.342   5.692 -14.898  1.00  0.00     0.055 A 
ATOM     85  C   UNL     1     -10.495   4.874 -13.596  1.00  0.00     0.041 A 
ATOM     86  F   UNL     1     -10.773   4.484 -11.303  1.00  0.00    -0.206 F 
ATOM     87  C   UNL     1     -11.018   5.254 -14.828  1.00  0.00     0.022 A 
BRANCH  84  88
ATOM     88  S   UNL     1     -13.094   6.051 -16.510  1.00  0.00     0.124 S 
ATOM     89  O   UNL     1     -14.210   5.112 -16.531  1.00  0.00    -0.237 OA
ATOM     90  O   UNL     1     -13.443   7.461 -16.373  1.00  0.00    -0.237 OA
ATOM     91  O   UNL     1     -12.019   5.766 -17.458  1.00  0.00    -0.744 OA
ENDBRANCH  84  88
ENDBRANCH  57  81
BRANCH  69  92
ATOM     92  C   UNL     1     -18.480   1.897 -10.915  1.00  0.00     0.023 A 
ATOM     93  C   UNL     1     -18.015   0.656 -11.383  1.00  0.00     0.031 A 
ATOM     94  C   UNL     1     -19.796   2.273 -11.240  1.00  0.00     0.131 A 
ATOM     95  C   UNL     1     -18.834  -0.135 -12.203  1.00  0.00     0.055 A 
ATOM     96  C   UNL     1     -20.631   1.451 -11.998  1.00  0.00     0.041 A 
ATOM     97  F   UNL     1     -20.294   3.449 -10.824  1.00  0.00    -0.206 F 
ATOM     98  C   UNL     1     -20.145   0.246 -12.498  1.00  0.00     0.022 A 
BRANCH  95  99
ATOM     99  S   UNL     1     -18.125  -1.617 -12.972  1.00  0.00     0.124 S 
ATOM    100  O   UNL     1     -16.997  -1.063 -13.715  1.00  0.00    -0.237 OA
ATOM    101  O   UNL     1     -17.783  -2.436 -11.813  1.00  0.00    -0.237 OA
ATOM    102  O   UNL     1     -19.217  -2.133 -13.794  1.00  0.00    -0.744 OA
ENDBRANCH  95  99
ENDBRANCH  69  92
ENDBRANCH  43  44
ENDBRANCH  35  38
ENDBRANCH  33  34
ENDBRANCH  32  33
ENDBRANCH  31  32
ENDBRANCH   1  31
TORSDOF 20
