REMARK SMILES CS(=O)(=O)c1ccc(/C=C(/C(=O)NCCCCCCNC(=O)c2ccc(-c3c4nc(c(-c5cc(S(=O)(=O)[O-])ccc5F)c5ccc([nH]5)c(-c5cc(S(=O)(=O)[O-])ccc5F)c5nc(c(-c6cc(S(=O)(=O)[O-])ccc6F)c6ccc3[nH]6)C=C5)C=C4)cc2)c2cccc(-c3ccc(S(C)(=O)=O)cc3)c2)cc1
REMARK SMILES IDX 16 1 15 2 14 3 13 4 11 5 12 6 10 8 9 9 8 10 5 11 6 12 103 13
REMARK SMILES IDX 7 14 102 15 2 16 1 17 3 18 4 19 86 20 87 21 101 22 88 23
REMARK SMILES IDX 90 24 89 25 91 26 92 27 100 28 93 29 99 30 94 31 95 32 96 33
REMARK SMILES IDX 97 34 98 35 17 36 18 37 19 38 20 39 21 40 22 42 23 43 24 44
REMARK SMILES IDX 85 45 25 46 84 47 26 48 27 49 28 50 78 51 29 52 83 53 77 54
REMARK SMILES IDX 79 55 30 56 82 57 76 58 75 59 31 61 63 62 43 63 62 64 44 65
REMARK SMILES IDX 47 66 61 67 80 68 45 69 46 70 60 72 81 73 48 74 32 75 33 76
REMARK SMILES IDX 41 77 34 78 40 79 42 80 39 81 35 82 36 83 37 84 38 85 64 86
REMARK SMILES IDX 65 87 73 88 66 89 72 90 74 91 71 92 67 93 68 94 69 95 70 96
REMARK SMILES IDX 49 97 50 98 58 99 51 100 57 101 59 102 56 103 52 104 53 105
REMARK SMILES IDX 54 106 55 107
REMARK H PARENT 13 7 20 41 79 60 47 71
REMARK Flexibility Score: inf
ROOT
ATOM      1  C   UNL     1       1.526   7.722   8.926  1.00  0.00     0.002 C 
ENDROOT
BRANCH   1   2
ATOM      2  C   UNL     1       1.366   6.936   7.613  1.00  0.00     0.021 C 
BRANCH   2   3
ATOM      3  C   UNL     1       2.601   6.111   7.241  1.00  0.00     0.116 C 
BRANCH   3   4
ATOM      4  N   UNL     1       2.715   4.975   8.136  1.00  0.00    -0.352 N 
ATOM      5  C   UNL     1       2.422   3.654   8.040  1.00  0.00     0.251 C 
ATOM      6  O   UNL     1       2.570   2.998   9.075  1.00  0.00    -0.269 OA
ATOM      7  H   UNL     1       3.090   5.218   9.013  1.00  0.00     0.163 HD
BRANCH   5   8
ATOM      8  C   UNL     1       2.035   2.963   6.748  1.00  0.00     0.047 C 
ATOM      9  C   UNL     1       1.317   3.575   5.777  1.00  0.00     0.022 C 
BRANCH   9  10
ATOM     10  C   UNL     1       0.980   3.094   4.416  1.00  0.00    -0.025 A 
ATOM     11  C   UNL     1       0.530   2.273   1.764  1.00  0.00     0.067 A 
ATOM     12  C   UNL     1       0.230   1.411   2.820  1.00  0.00     0.021 A 
ATOM     13  C   UNL     1       1.005   3.559   2.018  1.00  0.00     0.021 A 
ATOM     14  C   UNL     1       0.437   1.832   4.140  1.00  0.00     0.009 A 
ATOM     15  C   UNL     1       1.228   3.963   3.339  1.00  0.00     0.009 A 
BRANCH  11  16
ATOM     16  S   UNL     1       0.272   1.740   0.087  1.00  0.00     0.175 S 
ATOM     17  C   UNL     1       1.194   0.232  -0.065  1.00  0.00     0.163 C 
ATOM     18  O   UNL     1       0.900   2.713  -0.785  1.00  0.00    -0.224 OA
ATOM     19  O   UNL     1      -1.137   1.419  -0.034  1.00  0.00    -0.224 OA
ENDBRANCH  11  16
ENDBRANCH   9  10
BRANCH   8  20
ATOM     20  C   UNL     1       2.340   1.509   6.657  1.00  0.00    -0.012 A 
ATOM     21  C   UNL     1       1.709   0.630   7.553  1.00  0.00     0.009 A 
ATOM     22  C   UNL     1       3.136   0.976   5.635  1.00  0.00     0.017 A 
ATOM     23  C   UNL     1       1.852  -0.748   7.424  1.00  0.00     0.001 A 
ATOM     24  C   UNL     1       3.227  -0.414   5.444  1.00  0.00    -0.018 A 
ATOM     25  C   UNL     1       2.595  -1.265   6.366  1.00  0.00     0.009 A 
BRANCH  24  26
ATOM     26  C   UNL     1       3.854  -0.958   4.232  1.00  0.00    -0.018 A 
ATOM     27  C   UNL     1       3.093  -1.750   3.353  1.00  0.00     0.010 A 
ATOM     28  C   UNL     1       5.179  -0.652   3.884  1.00  0.00     0.010 A 
ATOM     29  C   UNL     1       3.630  -2.216   2.155  1.00  0.00     0.021 A 
ATOM     30  C   UNL     1       5.730  -1.119   2.687  1.00  0.00     0.021 A 
ATOM     31  C   UNL     1       4.950  -1.900   1.832  1.00  0.00     0.067 A 
BRANCH  31  32
ATOM     32  S   UNL     1       5.603  -2.462   0.281  1.00  0.00     0.175 S 
ATOM     33  C   UNL     1       5.688  -4.223   0.476  1.00  0.00     0.163 C 
ATOM     34  O   UNL     1       4.606  -2.162  -0.725  1.00  0.00    -0.224 OA
ATOM     35  O   UNL     1       6.964  -1.969   0.165  1.00  0.00    -0.224 OA
ENDBRANCH  31  32
ENDBRANCH  24  26
ENDBRANCH   8  20
ENDBRANCH   5   8
ENDBRANCH   3   4
ENDBRANCH   2   3
ENDBRANCH   1   2
BRANCH   1  36
ATOM     36  C   UNL     1       2.636   8.781   8.920  1.00  0.00     0.002 C 
BRANCH  36  37
ATOM     37  C   UNL     1       2.553   9.797   7.778  1.00  0.00     0.021 C 
BRANCH  37  38
ATOM     38  C   UNL     1       1.266  10.618   7.758  1.00  0.00     0.116 C 
BRANCH  38  39
ATOM     39  N   UNL     1       1.178  11.512   8.903  1.00  0.00    -0.352 N 
ATOM     40  C   UNL     1       1.060  12.881   8.920  1.00  0.00     0.251 C 
ATOM     41  H   UNL     1       1.206  11.076   9.785  1.00  0.00     0.163 HD
ATOM     42  O   UNL     1       1.223  13.500   9.967  1.00  0.00    -0.269 OA
BRANCH  40  43
ATOM     43  C   UNL     1       0.760  13.599   7.663  1.00  0.00     0.039 A 
ATOM     44  C   UNL     1       1.539  14.702   7.303  1.00  0.00     0.014 A 
ATOM     45  C   UNL     1      -0.277  13.165   6.832  1.00  0.00     0.014 A 
ATOM     46  C   UNL     1       1.326  15.324   6.071  1.00  0.00     0.010 A 
ATOM     47  C   UNL     1      -0.447  13.748   5.579  1.00  0.00     0.010 A 
ATOM     48  C   UNL     1       0.359  14.827   5.182  1.00  0.00    -0.014 A 
BRANCH  48  49
ATOM     49  C   UNL     1       0.180  15.402   3.824  1.00  0.00     0.031 A 
ATOM     50  C   UNL     1      -1.112  16.077   3.458  1.00  0.00     0.074 A 
ATOM     51  C   UNL     1       1.145  15.234   2.898  1.00  0.00     0.049 A 
ATOM     52  N   UNL     1      -1.514  16.522   2.296  1.00  0.00    -0.248 NA
ATOM     53  C   UNL     1      -2.091  16.247   4.542  1.00  0.00     0.031 C 
ATOM     54  C   UNL     1       2.431  14.571   3.127  1.00  0.00     0.029 A 
ATOM     55  N   UNL     1       1.188  15.588   1.572  1.00  0.00    -0.354 N 
ATOM     56  C   UNL     1      -2.798  17.013   2.503  1.00  0.00     0.074 A 
ATOM     57  C   UNL     1      -3.124  16.761   3.891  1.00  0.00     0.031 C 
ATOM     58  C   UNL     1       3.138  14.575   1.986  1.00  0.00     0.029 A 
ATOM     59  C   UNL     1       2.340  15.193   0.931  1.00  0.00     0.049 A 
ATOM     60  H   UNL     1       0.463  16.079   1.122  1.00  0.00     0.167 HD
ATOM     61  C   UNL     1      -3.621  17.633   1.620  1.00  0.00     0.034 A 
ATOM     62  C   UNL     1       2.701  15.292  -0.363  1.00  0.00     0.034 A 
ATOM     63  C   UNL     1      -3.275  17.883   0.241  1.00  0.00     0.049 A 
ATOM     64  C   UNL     1       1.750  15.939  -1.338  1.00  0.00     0.074 A 
ATOM     65  C   UNL     1      -4.005  18.558  -0.722  1.00  0.00     0.029 A 
ATOM     66  N   UNL     1      -2.105  17.457  -0.375  1.00  0.00    -0.354 N 
ATOM     67  N   UNL     1       0.557  16.440  -1.117  1.00  0.00    -0.248 NA
ATOM     68  C   UNL     1       2.194  16.034  -2.735  1.00  0.00     0.031 C 
ATOM     69  C   UNL     1      -3.309  18.480  -1.934  1.00  0.00     0.029 A 
ATOM     70  C   UNL     1      -2.111  17.820  -1.713  1.00  0.00     0.049 A 
ATOM     71  H   UNL     1      -1.378  16.968   0.073  1.00  0.00     0.167 HD
ATOM     72  C   UNL     1       0.119  16.932  -2.344  1.00  0.00     0.074 A 
ATOM     73  C   UNL     1       1.181  16.677  -3.296  1.00  0.00     0.031 C 
ATOM     74  C   UNL     1      -1.051  17.544  -2.654  1.00  0.00     0.034 A 
BRANCH  61  75
ATOM     75  C   UNL     1      -4.982  18.055   2.118  1.00  0.00     0.023 A 
ATOM     76  C   UNL     1      -5.131  19.010   3.139  1.00  0.00     0.031 A 
ATOM     77  C   UNL     1      -6.147  17.475   1.586  1.00  0.00     0.131 A 
ATOM     78  C   UNL     1      -6.406  19.298   3.649  1.00  0.00     0.055 A 
ATOM     79  C   UNL     1      -7.419  17.826   2.042  1.00  0.00     0.041 A 
ATOM     80  F   UNL     1      -6.068  16.543   0.623  1.00  0.00    -0.206 F 
ATOM     81  C   UNL     1      -7.553  18.732   3.090  1.00  0.00     0.022 A 
BRANCH  78  82
ATOM     82  S   UNL     1      -6.529  20.314   5.146  1.00  0.00     0.124 S 
ATOM     83  O   UNL     1      -5.743  19.532   6.098  1.00  0.00    -0.237 OA
ATOM     84  O   UNL     1      -5.941  21.578   4.720  1.00  0.00    -0.237 OA
ATOM     85  O   UNL     1      -7.964  20.352   5.418  1.00  0.00    -0.744 OA
ENDBRANCH  78  82
ENDBRANCH  61  75
BRANCH  62  86
ATOM     86  C   UNL     1       4.008  14.745  -0.826  1.00  0.00     0.023 A 
ATOM     87  C   UNL     1       5.012  15.594  -1.318  1.00  0.00     0.031 A 
ATOM     88  C   UNL     1       4.259  13.361  -0.817  1.00  0.00     0.131 A 
ATOM     89  C   UNL     1       6.204  15.049  -1.819  1.00  0.00     0.055 A 
ATOM     90  C   UNL     1       5.466  12.828  -1.272  1.00  0.00     0.041 A 
ATOM     91  F   UNL     1       3.334  12.506  -0.351  1.00  0.00    -0.206 F 
ATOM     92  C   UNL     1       6.443  13.673  -1.788  1.00  0.00     0.022 A 
BRANCH  89  93
ATOM     93  S   UNL     1       7.413  16.163  -2.585  1.00  0.00     0.124 S 
ATOM     94  O   UNL     1       6.626  16.767  -3.654  1.00  0.00    -0.237 OA
ATOM     95  O   UNL     1       7.763  17.040  -1.472  1.00  0.00    -0.237 OA
ATOM     96  O   UNL     1       8.477  15.262  -3.023  1.00  0.00    -0.744 OA
ENDBRANCH  89  93
ENDBRANCH  62  86
BRANCH  74  97
ATOM     97  C   UNL     1      -1.223  18.012  -4.077  1.00  0.00     0.023 A 
ATOM     98  C   UNL     1      -1.375  17.104  -5.139  1.00  0.00     0.031 A 
ATOM     99  C   UNL     1      -1.238  19.387  -4.372  1.00  0.00     0.131 A 
ATOM    100  C   UNL     1      -1.493  17.582  -6.454  1.00  0.00     0.055 A 
ATOM    101  C   UNL     1      -1.409  19.857  -5.674  1.00  0.00     0.041 A 
ATOM    102  F   UNL     1      -1.095  20.296  -3.394  1.00  0.00    -0.206 F 
ATOM    103  C   UNL     1      -1.528  18.952  -6.725  1.00  0.00     0.022 A 
BRANCH 100 104
ATOM    104  S   UNL     1      -1.536  16.386  -7.817  1.00  0.00     0.124 S 
ATOM    105  O   UNL     1      -0.239  15.729  -7.684  1.00  0.00    -0.237 OA
ATOM    106  O   UNL     1      -2.700  15.572  -7.484  1.00  0.00    -0.237 OA
ATOM    107  O   UNL     1      -1.687  17.225  -9.004  1.00  0.00    -0.744 OA
ENDBRANCH 100 104
ENDBRANCH  74  97
ENDBRANCH  48  49
ENDBRANCH  40  43
ENDBRANCH  38  39
ENDBRANCH  37  38
ENDBRANCH  36  37
ENDBRANCH   1  36
TORSDOF 21
