REMARK SMILES Cc1ccc(Cl)c(Nc2ccccc2C(=O)N[C@@H](C)C(=O)NCCCCCCNC(=O)c2ccc(-c3c4nc(c(-c5cc(S(=O)(=O)[O-])ccc5F)c5ccc([nH]5)c(-c5cc(S(=O)(=O)[O-])ccc5F)c5nc(c(-c6cc(S(=O)(=O)[O-])ccc6F)c6ccc3[nH]6)C=C5)C=C4)cc2)c1Cl
REMARK SMILES IDX 25 1 24 2 23 3 22 4 20 5 21 6 18 8 19 9 17 10 15 11 16 12
REMARK SMILES IDX 14 14 9 15 10 16 11 17 13 18 12 19 8 20 7 22 1 23 2 24 3 25
REMARK SMILES IDX 95 26 4 27 96 28 5 29 6 30 26 31 27 32 28 33 29 34 30 35
REMARK SMILES IDX 31 37 32 38 33 39 94 40 34 41 93 42 35 43 36 44 37 45 87 46
REMARK SMILES IDX 38 47 92 48 86 49 88 50 39 51 91 52 85 53 84 54 40 56 72 57
REMARK SMILES IDX 52 58 71 59 53 60 56 61 70 62 89 63 54 64 55 65 69 67 90 68
REMARK SMILES IDX 57 69 41 70 42 71 50 72 43 73 49 74 51 75 48 76 44 77 45 78
REMARK SMILES IDX 46 79 47 80 73 81 74 82 82 83 75 84 81 85 83 86 80 87 76 88
REMARK SMILES IDX 77 89 78 90 79 91 58 92 59 93 67 94 60 95 66 96 68 97 65 98
REMARK SMILES IDX 61 99 62 100 63 101 64 102
REMARK H PARENT 22 7 17 13 8 21 29 36 88 55 56 66
REMARK Flexibility Score: inf
ROOT
ATOM      1  C   UNL     1      -0.325   3.785   2.462  1.00  0.00     0.002 C 
ENDROOT
BRANCH   1   2
ATOM      2  C   UNL     1      -0.378   2.563   3.389  1.00  0.00     0.021 C 
BRANCH   2   3
ATOM      3  C   UNL     1      -1.572   1.623   3.172  1.00  0.00     0.116 C 
BRANCH   3   4
ATOM      4  N   UNL     1      -1.602   1.054   1.842  1.00  0.00    -0.354 N 
ATOM      5  C   UNL     1      -0.665   0.096   1.588  1.00  0.00     0.242 C 
ATOM      6  O   UNL     1       0.461   0.476   1.271  1.00  0.00    -0.273 OA
ATOM      7  H   UNL     1      -2.256   1.341   1.165  1.00  0.00     0.163 HD
BRANCH   5   8
ATOM      8  C   UNL     1      -1.046  -1.392   1.752  1.00  0.00     0.168 C 
ATOM      9  C   UNL     1      -2.354  -1.664   2.480  1.00  0.00     0.041 C 
BRANCH   8  10
ATOM     10  N   UNL     1       0.105  -1.961   2.430  1.00  0.00    -0.340 N 
ATOM     11  C   UNL     1       1.306  -2.310   1.850  1.00  0.00     0.254 C 
ATOM     12  O   UNL     1       2.321  -2.052   2.506  1.00  0.00    -0.269 OA
ATOM     13  H   UNL     1       0.020  -2.112   3.399  1.00  0.00     0.164 HD
BRANCH  11  14
ATOM     14  C   UNL     1       1.426  -3.225   0.669  1.00  0.00     0.063 A 
ATOM     15  C   UNL     1       0.790  -3.212  -0.591  1.00  0.00     0.051 A 
ATOM     16  C   UNL     1       1.007  -4.316  -1.454  1.00  0.00     0.027 A 
ATOM     17  C   UNL     1       1.883  -5.354  -1.139  1.00  0.00     0.002 A 
ATOM     18  C   UNL     1       2.332  -4.281   0.952  1.00  0.00     0.016 A 
ATOM     19  C   UNL     1       2.570  -5.322   0.059  1.00  0.00     0.001 A 
BRANCH  15  20
ATOM     20  N   UNL     1       0.025  -2.184  -1.179  1.00  0.00    -0.352 N 
ATOM     21  H   UNL     1      -0.864  -2.489  -1.473  1.00  0.00     0.167 HD
BRANCH  20  22
ATOM     22  C   UNL     1       0.250  -0.806  -1.441  1.00  0.00     0.077 A 
ATOM     23  C   UNL     1       2.816   1.990  -0.912  1.00  0.00     0.046 C 
ATOM     24  C   UNL     1       1.556   1.272  -1.321  1.00  0.00    -0.030 A 
ATOM     25  C   UNL     1       0.399   2.027  -1.565  1.00  0.00     0.006 A 
ATOM     26  C   UNL     1       1.491  -0.144  -1.328  1.00  0.00     0.069 A 
ATOM     27  C   UNL     1      -0.816   1.393  -1.791  1.00  0.00     0.023 A 
ATOM     28  Cl  UNL     1       2.984  -1.029  -1.261  1.00  0.00    -0.082 Cl
ATOM     29  C   UNL     1      -0.888   0.001  -1.711  1.00  0.00     0.066 A 
ATOM     30  Cl  UNL     1      -2.461  -0.719  -1.885  1.00  0.00    -0.082 Cl
ENDBRANCH  20  22
ENDBRANCH  15  20
ENDBRANCH  11  14
ENDBRANCH   8  10
ENDBRANCH   5   8
ENDBRANCH   3   4
ENDBRANCH   2   3
ENDBRANCH   1   2
BRANCH   1  31
ATOM     31  C   UNL     1      -1.608   4.617   2.397  1.00  0.00     0.002 C 
BRANCH  31  32
ATOM     32  C   UNL     1      -2.243   4.940   3.749  1.00  0.00     0.021 C 
BRANCH  32  33
ATOM     33  C   UNL     1      -1.302   5.582   4.753  1.00  0.00     0.116 C 
BRANCH  33  34
ATOM     34  N   UNL     1      -0.991   6.952   4.403  1.00  0.00    -0.352 N 
ATOM     35  C   UNL     1      -1.108   8.069   5.196  1.00  0.00     0.251 C 
ATOM     36  H   UNL     1      -0.656   7.102   3.489  1.00  0.00     0.163 HD
ATOM     37  O   UNL     1      -1.017   9.185   4.705  1.00  0.00    -0.269 OA
BRANCH  35  38
ATOM     38  C   UNL     1      -1.385   7.892   6.641  1.00  0.00     0.039 A 
ATOM     39  C   UNL     1      -2.391   8.656   7.232  1.00  0.00     0.014 A 
ATOM     40  C   UNL     1      -0.679   6.949   7.396  1.00  0.00     0.014 A 
ATOM     41  C   UNL     1      -2.715   8.446   8.573  1.00  0.00     0.010 A 
ATOM     42  C   UNL     1      -1.066   6.678   8.705  1.00  0.00     0.010 A 
ATOM     43  C   UNL     1      -2.075   7.438   9.315  1.00  0.00    -0.014 A 
BRANCH  43  44
ATOM     44  C   UNL     1      -2.429   7.199  10.740  1.00  0.00     0.031 A 
ATOM     45  C   UNL     1      -1.396   7.412  11.815  1.00  0.00     0.074 A 
ATOM     46  C   UNL     1      -3.666   6.770  11.061  1.00  0.00     0.049 A 
ATOM     47  N   UNL     1      -1.502   7.245  13.109  1.00  0.00    -0.248 NA
ATOM     48  C   UNL     1      -0.060   7.842  11.375  1.00  0.00     0.031 C 
ATOM     49  C   UNL     1      -4.737   6.489  10.103  1.00  0.00     0.029 A 
ATOM     50  N   UNL     1      -4.234   6.499  12.281  1.00  0.00    -0.354 N 
ATOM     51  C   UNL     1      -0.248   7.542  13.633  1.00  0.00     0.074 A 
ATOM     52  C   UNL     1       0.619   7.825  12.511  1.00  0.00     0.031 C 
ATOM     53  C   UNL     1      -5.842   6.125  10.773  1.00  0.00     0.029 A 
ATOM     54  C   UNL     1      -5.548   6.096  12.202  1.00  0.00     0.049 A 
ATOM     55  H   UNL     1      -3.748   6.585  13.132  1.00  0.00     0.167 HD
ATOM     56  C   UNL     1       0.137   7.602  14.932  1.00  0.00     0.034 A 
ATOM     57  C   UNL     1      -6.414   5.737  13.171  1.00  0.00     0.034 A 
ATOM     58  C   UNL     1      -0.744   7.324  16.040  1.00  0.00     0.049 A 
ATOM     59  C   UNL     1      -5.954   5.779  14.607  1.00  0.00     0.074 A 
ATOM     60  C   UNL     1      -0.476   7.402  17.395  1.00  0.00     0.029 A 
ATOM     61  N   UNL     1      -2.064   6.903  15.921  1.00  0.00    -0.354 N 
ATOM     62  N   UNL     1      -4.779   6.118  15.090  1.00  0.00    -0.248 NA
ATOM     63  C   UNL     1      -6.939   5.404  15.629  1.00  0.00     0.031 C 
ATOM     64  C   UNL     1      -1.602   6.951  18.091  1.00  0.00     0.029 A 
ATOM     65  C   UNL     1      -2.608   6.681  17.177  1.00  0.00     0.049 A 
ATOM     66  H   UNL     1      -2.542   6.780  15.069  1.00  0.00     0.167 HD
ATOM     67  C   UNL     1      -4.898   6.029  16.475  1.00  0.00     0.074 A 
ATOM     68  C   UNL     1      -6.262   5.623  16.747  1.00  0.00     0.031 C 
ATOM     69  C   UNL     1      -3.967   6.265  17.435  1.00  0.00     0.034 A 
BRANCH  56  70
ATOM     70  C   UNL     1       1.579   7.955  15.216  1.00  0.00     0.023 A 
ATOM     71  C   UNL     1       2.130   9.190  14.828  1.00  0.00     0.031 A 
ATOM     72  C   UNL     1       2.425   7.035  15.859  1.00  0.00     0.131 A 
ATOM     73  C   UNL     1       3.498   9.438  15.013  1.00  0.00     0.055 A 
ATOM     74  C   UNL     1       3.766   7.324  16.122  1.00  0.00     0.041 A 
ATOM     75  F   UNL     1       1.967   5.830  16.233  1.00  0.00    -0.206 F 
ATOM     76  C   UNL     1       4.314   8.525  15.683  1.00  0.00     0.022 A 
BRANCH  73  77
ATOM     77  S   UNL     1       4.226  10.902  14.226  1.00  0.00     0.124 S 
ATOM     78  O   UNL     1       3.906  10.671  12.820  1.00  0.00    -0.237 OA
ATOM     79  O   UNL     1       3.511  11.996  14.873  1.00  0.00    -0.237 OA
ATOM     80  O   UNL     1       5.646  10.800  14.559  1.00  0.00    -0.744 OA
ENDBRANCH  73  77
ENDBRANCH  56  70
BRANCH  57  81
ATOM     81  C   UNL     1      -7.798   5.298  12.826  1.00  0.00     0.023 A 
ATOM     82  C   UNL     1      -8.921   6.016  13.268  1.00  0.00     0.031 A 
ATOM     83  C   UNL     1      -8.021   4.122  12.086  1.00  0.00     0.131 A 
ATOM     84  C   UNL     1     -10.212   5.527  13.012  1.00  0.00     0.055 A 
ATOM     85  C   UNL     1      -9.306   3.672  11.782  1.00  0.00     0.041 A 
ATOM     86  F   UNL     1      -6.984   3.397  11.636  1.00  0.00    -0.206 F 
ATOM     87  C   UNL     1     -10.412   4.368  12.259  1.00  0.00     0.022 A 
BRANCH  84  88
ATOM     88  S   UNL     1     -11.628   6.375  13.764  1.00  0.00     0.124 S 
ATOM     89  O   UNL     1     -11.297   6.304  15.183  1.00  0.00    -0.237 OA
ATOM     90  O   UNL     1     -11.550   7.696  13.151  1.00  0.00    -0.237 OA
ATOM     91  O   UNL     1     -12.770   5.563  13.348  1.00  0.00    -0.744 OA
ENDBRANCH  84  88
ENDBRANCH  57  81
BRANCH  69  92
ATOM     92  C   UNL     1      -4.413   6.135  18.872  1.00  0.00     0.023 A 
ATOM     93  C   UNL     1      -4.819   4.905  19.417  1.00  0.00     0.031 A 
ATOM     94  C   UNL     1      -4.444   7.268  19.707  1.00  0.00     0.131 A 
ATOM     95  C   UNL     1      -5.300   4.847  20.734  1.00  0.00     0.055 A 
ATOM     96  C   UNL     1      -4.853   7.191  21.038  1.00  0.00     0.041 A 
ATOM     97  F   UNL     1      -4.071   8.471  19.241  1.00  0.00    -0.206 F 
ATOM     98  C   UNL     1      -5.300   5.978  21.554  1.00  0.00     0.022 A 
BRANCH  95  99
ATOM     99  S   UNL     1      -6.030   3.296  21.326  1.00  0.00     0.124 S 
ATOM    100  O   UNL     1      -7.093   3.071  20.352  1.00  0.00    -0.237 OA
ATOM    101  O   UNL     1      -4.901   2.374  21.263  1.00  0.00    -0.237 OA
ATOM    102  O   UNL     1      -6.486   3.626  22.676  1.00  0.00    -0.744 OA
ENDBRANCH  95  99
ENDBRANCH  69  92
ENDBRANCH  43  44
ENDBRANCH  35  38
ENDBRANCH  33  34
ENDBRANCH  32  33
ENDBRANCH  31  32
ENDBRANCH   1  31
TORSDOF 20
