REMARK SMILES CC[C@](C)(NC(=O)CCSc1ccccc1Cl)C(=O)NCCCCCCNC(=O)c1ccc(-c2c3nc(c(-c4cc(S(=O)(=O)[O-])ccc4F)c4ccc([nH]4)c(-c4cc(S(=O)(=O)[O-])ccc4F)c4nc(c(-c5cc(S(=O)(=O)[O-])ccc5F)c5ccc2[nH]5)C=C4)C=C3)cc1
REMARK SMILES IDX 22 1 21 2 20 3 18 4 19 5 3 7 4 8 2 9 1 10 5 11 6 12 7 14
REMARK SMILES IDX 8 15 9 16 10 17 11 18 12 19 16 20 13 21 15 22 17 23 14 24
REMARK SMILES IDX 23 25 24 26 25 27 26 28 27 29 28 30 29 32 30 33 31 34 92 35
REMARK SMILES IDX 32 36 91 37 33 38 34 39 35 40 85 41 36 42 90 43 84 44 86 45
REMARK SMILES IDX 37 46 89 47 83 48 82 49 38 51 70 52 50 53 69 54 51 55 54 56
REMARK SMILES IDX 68 57 87 58 52 59 53 60 67 62 88 63 55 64 39 65 40 66 48 67
REMARK SMILES IDX 41 68 47 69 49 70 46 71 42 72 43 73 44 74 45 75 71 76 72 77
REMARK SMILES IDX 80 78 73 79 79 80 81 81 78 82 74 83 75 84 76 85 77 86 56 87
REMARK SMILES IDX 57 88 65 89 58 90 64 91 66 92 63 93 59 94 60 95 61 96 62 97
REMARK H PARENT 20 6 5 13 27 31 86 50 54 61
REMARK Flexibility Score: inf
ROOT
ATOM      1  C   UNL     1       3.139   2.581   5.638  1.00  0.00     0.021 C 
ENDROOT
BRANCH   1   2
ATOM      2  C   UNL     1       2.675   3.267   4.356  1.00  0.00     0.116 C 
BRANCH   2   3
ATOM      3  N   UNL     1       3.409   2.791   3.204  1.00  0.00    -0.354 N 
ATOM      4  C   UNL     1       3.042   1.999   2.167  1.00  0.00     0.245 C 
ATOM      5  O   UNL     1       3.905   1.792   1.308  1.00  0.00    -0.272 OA
ATOM      6  H   UNL     1       4.343   3.097   3.166  1.00  0.00     0.163 HD
BRANCH   4   7
ATOM      7  C   UNL     1       1.574   1.524   1.984  1.00  0.00     0.116 C 
ATOM      8  C   UNL     1       1.563   0.503   0.832  1.00  0.00     0.045 C 
BRANCH   7   9
ATOM      9  C   UNL     1       0.745   2.793   1.588  1.00  0.00     0.035 C 
ATOM     10  C   UNL     1      -0.479   2.545   0.713  1.00  0.00     0.007 C 
ENDBRANCH   7   9
BRANCH   7  11
ATOM     11  N   UNL     1       1.007   0.982   3.246  1.00  0.00    -0.342 N 
ATOM     12  C   UNL     1       1.334  -0.064   4.050  1.00  0.00     0.221 C 
ATOM     13  H   UNL     1       0.227   1.489   3.569  1.00  0.00     0.164 HD
ATOM     14  O   UNL     1       0.627  -0.261   5.041  1.00  0.00    -0.275 OA
BRANCH  12  15
ATOM     15  C   UNL     1       2.530  -0.931   3.779  1.00  0.00     0.111 C 
BRANCH  15  16
ATOM     16  C   UNL     1       2.143  -2.399   3.614  1.00  0.00     0.085 C 
BRANCH  16  17
ATOM     17  S   UNL     1       1.229  -2.784   2.069  1.00  0.00    -0.124 SA
BRANCH  17  18
ATOM     18  C   UNL     1      -0.488  -2.707   2.595  1.00  0.00     0.026 A 
ATOM     19  C   UNL     1      -1.155  -1.475   2.549  1.00  0.00     0.016 A 
ATOM     20  C   UNL     1      -1.246  -3.843   2.909  1.00  0.00     0.054 A 
ATOM     21  C   UNL     1      -2.513  -1.352   2.848  1.00  0.00     0.001 A 
ATOM     22  C   UNL     1      -2.619  -3.729   3.180  1.00  0.00     0.022 A 
ATOM     23  Cl  UNL     1      -0.563  -5.432   2.945  1.00  0.00    -0.083 Cl
ATOM     24  C   UNL     1      -3.249  -2.485   3.155  1.00  0.00     0.002 A 
ENDBRANCH  17  18
ENDBRANCH  16  17
ENDBRANCH  15  16
ENDBRANCH  12  15
ENDBRANCH   7  11
ENDBRANCH   4   7
ENDBRANCH   2   3
ENDBRANCH   1   2
BRANCH   1  25
ATOM     25  C   UNL     1       4.655   2.623   5.861  1.00  0.00     0.002 C 
BRANCH  25  26
ATOM     26  C   UNL     1       5.287   4.011   5.734  1.00  0.00     0.002 C 
BRANCH  26  27
ATOM     27  C   UNL     1       4.624   5.095   6.584  1.00  0.00     0.021 C 
BRANCH  27  28
ATOM     28  C   UNL     1       4.528   4.747   8.062  1.00  0.00     0.116 C 
BRANCH  28  29
ATOM     29  N   UNL     1       5.846   4.585   8.648  1.00  0.00    -0.352 N 
ATOM     30  C   UNL     1       6.403   5.285   9.686  1.00  0.00     0.251 C 
ATOM     31  H   UNL     1       6.410   3.883   8.249  1.00  0.00     0.163 HD
ATOM     32  O   UNL     1       7.611   5.237   9.885  1.00  0.00    -0.269 OA
BRANCH  30  33
ATOM     33  C   UNL     1       5.524   6.107  10.543  1.00  0.00     0.039 A 
ATOM     34  C   UNL     1       5.914   7.406  10.864  1.00  0.00     0.014 A 
ATOM     35  C   UNL     1       4.309   5.591  11.008  1.00  0.00     0.014 A 
ATOM     36  C   UNL     1       5.063   8.204  11.628  1.00  0.00     0.010 A 
ATOM     37  C   UNL     1       3.429   6.415  11.700  1.00  0.00     0.010 A 
ATOM     38  C   UNL     1       3.805   7.724  12.032  1.00  0.00    -0.014 A 
BRANCH  38  39
ATOM     39  C   UNL     1       2.887   8.584  12.817  1.00  0.00     0.031 A 
ATOM     40  C   UNL     1       2.534   8.220  14.233  1.00  0.00     0.074 A 
ATOM     41  C   UNL     1       2.353   9.677  12.239  1.00  0.00     0.049 A 
ATOM     42  N   UNL     1       1.781   8.861  15.089  1.00  0.00    -0.248 NA
ATOM     43  C   UNL     1       3.075   6.952  14.743  1.00  0.00     0.031 C 
ATOM     44  C   UNL     1       2.579  10.094  10.853  1.00  0.00     0.029 A 
ATOM     45  N   UNL     1       1.521  10.642  12.744  1.00  0.00    -0.354 N 
ATOM     46  C   UNL     1       1.750   8.072  16.233  1.00  0.00     0.074 A 
ATOM     47  C   UNL     1       2.503   6.872  15.933  1.00  0.00     0.031 C 
ATOM     48  C   UNL     1       1.942  11.255  10.634  1.00  0.00     0.029 A 
ATOM     49  C   UNL     1       1.236  11.647  11.849  1.00  0.00     0.049 A 
ATOM     50  H   UNL     1       1.161  10.618  13.660  1.00  0.00     0.167 HD
ATOM     51  C   UNL     1       1.170   8.335  17.431  1.00  0.00     0.034 A 
ATOM     52  C   UNL     1       0.496  12.763  11.998  1.00  0.00     0.034 A 
ATOM     53  C   UNL     1       0.431   9.544  17.709  1.00  0.00     0.049 A 
ATOM     54  C   UNL     1      -0.142  13.034  13.335  1.00  0.00     0.074 A 
ATOM     55  C   UNL     1      -0.135   9.956  18.902  1.00  0.00     0.029 A 
ATOM     56  N   UNL     1       0.143  10.533  16.774  1.00  0.00    -0.354 N 
ATOM     57  N   UNL     1      -0.095  12.318  14.436  1.00  0.00    -0.248 NA
ATOM     58  C   UNL     1      -0.919  14.272  13.451  1.00  0.00     0.031 C 
ATOM     59  C   UNL     1      -0.827  11.151  18.672  1.00  0.00     0.029 A 
ATOM     60  C   UNL     1      -0.627  11.531  17.354  1.00  0.00     0.049 A 
ATOM     61  H   UNL     1       0.443  10.526  15.836  1.00  0.00     0.167 HD
ATOM     62  C   UNL     1      -0.820  13.034  15.384  1.00  0.00     0.074 A 
ATOM     63  C   UNL     1      -1.266  14.248  14.729  1.00  0.00     0.031 C 
ATOM     64  C   UNL     1      -1.093  12.720  16.677  1.00  0.00     0.034 A 
BRANCH  51  65
ATOM     65  C   UNL     1       1.288   7.279  18.507  1.00  0.00     0.023 A 
ATOM     66  C   UNL     1       2.536   6.867  19.010  1.00  0.00     0.031 A 
ATOM     67  C   UNL     1       0.139   6.640  19.006  1.00  0.00     0.131 A 
ATOM     68  C   UNL     1       2.612   5.791  19.907  1.00  0.00     0.055 A 
ATOM     69  C   UNL     1       0.216   5.629  19.966  1.00  0.00     0.041 A 
ATOM     70  F   UNL     1      -1.080   6.972  18.552  1.00  0.00    -0.206 F 
ATOM     71  C   UNL     1       1.458   5.186  20.409  1.00  0.00     0.022 A 
BRANCH  68  72
ATOM     72  S   UNL     1       4.242   5.087  20.280  1.00  0.00     0.124 S 
ATOM     73  O   UNL     1       4.724   4.737  18.946  1.00  0.00    -0.237 OA
ATOM     74  O   UNL     1       4.923   6.198  20.934  1.00  0.00    -0.237 OA
ATOM     75  O   UNL     1       3.934   3.947  21.141  1.00  0.00    -0.744 OA
ENDBRANCH  68  72
ENDBRANCH  51  65
BRANCH  52  76
ATOM     76  C   UNL     1       0.335  13.718  10.866  1.00  0.00     0.023 A 
ATOM     77  C   UNL     1       0.862  15.017  10.938  1.00  0.00     0.031 A 
ATOM     78  C   UNL     1      -0.375  13.357   9.707  1.00  0.00     0.131 A 
ATOM     79  C   UNL     1       0.635  15.923   9.891  1.00  0.00     0.055 A 
ATOM     80  C   UNL     1      -0.555  14.246   8.646  1.00  0.00     0.041 A 
ATOM     81  F   UNL     1      -0.891  12.123   9.583  1.00  0.00    -0.206 F 
ATOM     82  C   UNL     1      -0.058  15.543   8.741  1.00  0.00     0.022 A 
BRANCH  79  83
ATOM     83  S   UNL     1       1.204  17.634  10.086  1.00  0.00     0.124 S 
ATOM     84  O   UNL     1       0.484  18.053  11.283  1.00  0.00    -0.237 OA
ATOM     85  O   UNL     1       2.646  17.459  10.232  1.00  0.00    -0.237 OA
ATOM     86  O   UNL     1       0.780  18.277   8.844  1.00  0.00    -0.744 OA
ENDBRANCH  79  83
ENDBRANCH  52  76
BRANCH  64  87
ATOM     87  C   UNL     1      -1.899  13.730  17.460  1.00  0.00     0.023 A 
ATOM     88  C   UNL     1      -3.226  14.040  17.112  1.00  0.00     0.031 A 
ATOM     89  C   UNL     1      -1.318  14.427  18.534  1.00  0.00     0.131 A 
ATOM     90  C   UNL     1      -3.899  15.076  17.776  1.00  0.00     0.055 A 
ATOM     91  C   UNL     1      -2.019  15.407  19.239  1.00  0.00     0.041 A 
ATOM     92  F   UNL     1      -0.054  14.175  18.910  1.00  0.00    -0.206 F 
ATOM     93  C   UNL     1      -3.310  15.750  18.849  1.00  0.00     0.022 A 
BRANCH  90  94
ATOM     94  S   UNL     1      -5.503  15.623  17.129  1.00  0.00     0.124 S 
ATOM     95  O   UNL     1      -5.176  15.952  15.745  1.00  0.00    -0.237 OA
ATOM     96  O   UNL     1      -6.336  14.440  17.322  1.00  0.00    -0.237 OA
ATOM     97  O   UNL     1      -5.843  16.765  17.974  1.00  0.00    -0.744 OA
ENDBRANCH  90  94
ENDBRANCH  64  87
ENDBRANCH  38  39
ENDBRANCH  30  33
ENDBRANCH  28  29
ENDBRANCH  27  28
ENDBRANCH  26  27
ENDBRANCH  25  26
ENDBRANCH   1  25
TORSDOF 22
