REMARK SMILES Cc1nc(-c2ccc3c(c2)CCN3S(=O)(=O)c2ccc(F)c(C(=O)NCCCCCCNC(=O)c3ccc(-c4c5nc(c(-c6cc(S(=O)(=O)[O-])ccc6F)c6ccc([nH]6)c(-c6cc(S(=O)(=O)[O-])ccc6F)c6nc(c(-c7cc(S(=O)(=O)[O-])ccc7F)c7ccc4[nH]7)C=C6)C=C5)cc3)c2)cs1
REMARK SMILES IDX 28 1 27 2 26 3 25 4 23 5 24 6 22 8 17 9 18 10 98 11 19 12
REMARK SMILES IDX 20 13 21 14 14 15 15 16 16 17 13 18 5 19 6 20 10 21 7 22
REMARK SMILES IDX 9 23 8 24 11 25 12 26 4 27 1 28 2 29 3 30 100 31 99 32 29 33
REMARK SMILES IDX 30 34 31 35 32 36 33 37 34 39 35 40 36 41 97 42 37 43 96 44
REMARK SMILES IDX 38 45 39 46 40 47 90 48 41 49 95 50 89 51 91 52 42 53 94 54
REMARK SMILES IDX 88 55 87 56 43 58 75 59 55 60 74 61 56 62 59 63 73 64 92 65
REMARK SMILES IDX 57 66 58 67 72 69 93 70 60 71 44 72 45 73 53 74 46 75 52 76
REMARK SMILES IDX 54 77 51 78 47 79 48 80 49 81 50 82 76 83 77 84 85 85 78 86
REMARK SMILES IDX 84 87 86 88 83 89 79 90 80 91 81 92 82 93 61 94 62 95 70 96
REMARK SMILES IDX 63 97 69 98 71 99 68 100 64 101 65 102 66 103 67 104
REMARK H PARENT 25 7 32 38 91 57 59 68
REMARK Flexibility Score: inf
ROOT
ATOM      1  C   UNL     1      -1.415  -9.721  -7.321  1.00  0.00     0.002 C 
ENDROOT
BRANCH   1   2
ATOM      2  C   UNL     1      -0.123  -8.921  -7.177  1.00  0.00     0.021 C 
BRANCH   2   3
ATOM      3  C   UNL     1       0.025  -8.072  -5.923  1.00  0.00     0.116 C 
BRANCH   3   4
ATOM      4  N   UNL     1       0.126  -8.821  -4.684  1.00  0.00    -0.352 N 
ATOM      5  C   UNL     1       0.904  -8.621  -3.566  1.00  0.00     0.254 C 
ATOM      6  O   UNL     1       0.753  -9.396  -2.619  1.00  0.00    -0.269 OA
ATOM      7  H   UNL     1      -0.463  -9.608  -4.636  1.00  0.00     0.163 HD
BRANCH   5   8
ATOM      8  C   UNL     1       1.962  -7.576  -3.461  1.00  0.00     0.076 A 
ATOM      9  C   UNL     1       4.015  -6.825  -2.404  1.00  0.00     0.089 A 
ATOM     10  C   UNL     1       4.111  -5.756  -3.303  1.00  0.00     0.025 A 
ATOM     11  C   UNL     1       3.004  -7.787  -2.534  1.00  0.00     0.039 A 
ATOM     12  C   UNL     1       3.049  -5.508  -4.159  1.00  0.00     0.041 A 
ATOM     13  C   UNL     1       1.949  -6.364  -4.158  1.00  0.00     0.136 A 
ATOM     14  F   UNL     1       0.843  -5.909  -4.760  1.00  0.00    -0.206 F 
BRANCH   9  15
ATOM     15  S   UNL     1       5.141  -6.839  -1.034  1.00  0.00     0.264 S 
ATOM     16  O   UNL     1       6.338  -6.156  -1.482  1.00  0.00    -0.201 OA
ATOM     17  O   UNL     1       5.235  -8.202  -0.545  1.00  0.00    -0.201 OA
BRANCH  15  18
ATOM     18  N   UNL     1       4.425  -5.905   0.220  1.00  0.00    -0.266 N 
ATOM     19  C   UNL     1       2.083  -2.384   0.083  1.00  0.00     0.001 A 
ATOM     20  C   UNL     1       1.757  -3.425  -0.798  1.00  0.00     0.012 A 
ATOM     21  C   UNL     1       3.150  -2.556   0.974  1.00  0.00     0.016 A 
ATOM     22  C   UNL     1       2.493  -4.615  -0.811  1.00  0.00     0.028 A 
ATOM     23  C   UNL     1       3.885  -3.743   0.922  1.00  0.00    -0.021 A 
ATOM     24  C   UNL     1       3.614  -4.741  -0.014  1.00  0.00     0.055 A 
ATOM     25  C   UNL     1       4.887  -4.220   1.924  1.00  0.00     0.060 C 
ATOM     26  C   UNL     1       5.443  -5.486   1.256  1.00  0.00     0.140 C 
BRANCH  19  27
ATOM     27  C   UNL     1       1.219  -1.215   0.115  1.00  0.00     0.081 A 
ATOM     28  C   UNL     1      -2.211   0.030  -0.014  1.00  0.00     0.079 C 
ATOM     29  C   UNL     1      -0.738  -0.179   0.051  1.00  0.00     0.090 A 
ATOM     30  N   UNL     1      -0.157  -1.359   0.038  1.00  0.00    -0.242 NA
ATOM     31  S   UNL     1       0.329   1.165   0.150  1.00  0.00    -0.127 S 
ATOM     32  C   UNL     1       1.667   0.088   0.175  1.00  0.00     0.095 A 
ENDBRANCH  19  27
ENDBRANCH  15  18
ENDBRANCH   9  15
ENDBRANCH   5   8
ENDBRANCH   3   4
ENDBRANCH   2   3
ENDBRANCH   1   2
BRANCH   1  33
ATOM     33  C   UNL     1      -2.723  -8.938  -7.186  1.00  0.00     0.002 C 
BRANCH  33  34
ATOM     34  C   UNL     1      -2.851  -7.671  -8.036  1.00  0.00     0.021 C 
BRANCH  34  35
ATOM     35  C   UNL     1      -2.606  -7.849  -9.530  1.00  0.00     0.116 C 
BRANCH  35  36
ATOM     36  N   UNL     1      -3.550  -8.766 -10.146  1.00  0.00    -0.352 N 
ATOM     37  C   UNL     1      -4.353  -8.574 -11.245  1.00  0.00     0.251 C 
ATOM     38  H   UNL     1      -3.626  -9.648  -9.715  1.00  0.00     0.163 HD
ATOM     39  O   UNL     1      -5.221  -9.395 -11.521  1.00  0.00    -0.269 OA
BRANCH  37  40
ATOM     40  C   UNL     1      -4.178  -7.362 -12.075  1.00  0.00     0.039 A 
ATOM     41  C   UNL     1      -5.305  -6.627 -12.453  1.00  0.00     0.014 A 
ATOM     42  C   UNL     1      -2.903  -6.947 -12.469  1.00  0.00     0.014 A 
ATOM     43  C   UNL     1      -5.147  -5.438 -13.169  1.00  0.00     0.010 A 
ATOM     44  C   UNL     1      -2.743  -5.727 -13.118  1.00  0.00     0.010 A 
ATOM     45  C   UNL     1      -3.863  -4.959 -13.475  1.00  0.00    -0.014 A 
BRANCH  45  46
ATOM     46  C   UNL     1      -3.655  -3.660 -14.165  1.00  0.00     0.031 A 
ATOM     47  C   UNL     1      -2.988  -3.626 -15.512  1.00  0.00     0.074 A 
ATOM     48  C   UNL     1      -3.985  -2.511 -13.544  1.00  0.00     0.049 A 
ATOM     49  N   UNL     1      -2.580  -2.596 -16.207  1.00  0.00    -0.248 NA
ATOM     50  C   UNL     1      -2.715  -4.926 -16.143  1.00  0.00     0.031 C 
ATOM     51  C   UNL     1      -4.619  -2.413 -12.228  1.00  0.00     0.029 A 
ATOM     52  N   UNL     1      -3.819  -1.205 -13.931  1.00  0.00    -0.354 N 
ATOM     53  C   UNL     1      -1.981  -3.122 -17.346  1.00  0.00     0.074 A 
ATOM     54  C   UNL     1      -2.038  -4.564 -17.222  1.00  0.00     0.031 C 
ATOM     55  C   UNL     1      -4.807  -1.119 -11.926  1.00  0.00     0.029 A 
ATOM     56  C   UNL     1      -4.256  -0.295 -12.998  1.00  0.00     0.049 A 
ATOM     57  H   UNL     1      -3.424  -0.945 -14.794  1.00  0.00     0.167 HD
ATOM     58  C   UNL     1      -1.446  -2.463 -18.403  1.00  0.00     0.034 A 
ATOM     59  C   UNL     1      -4.200   1.051 -12.989  1.00  0.00     0.034 A 
ATOM     60  C   UNL     1      -1.414  -1.025 -18.517  1.00  0.00     0.049 A 
ATOM     61  C   UNL     1      -3.576   1.765 -14.156  1.00  0.00     0.074 A 
ATOM     62  C   UNL     1      -0.953  -0.258 -19.573  1.00  0.00     0.029 A 
ATOM     63  N   UNL     1      -1.851  -0.136 -17.543  1.00  0.00    -0.354 N 
ATOM     64  N   UNL     1      -3.025   1.257 -15.233  1.00  0.00    -0.248 NA
ATOM     65  C   UNL     1      -3.565   3.232 -14.104  1.00  0.00     0.031 C 
ATOM     66  C   UNL     1      -1.040   1.090 -19.206  1.00  0.00     0.029 A 
ATOM     67  C   UNL     1      -1.632   1.170 -17.955  1.00  0.00     0.049 A 
ATOM     68  H   UNL     1      -2.258  -0.395 -16.685  1.00  0.00     0.167 HD
ATOM     69  C   UNL     1      -2.609   2.344 -15.996  1.00  0.00     0.074 A 
ATOM     70  C   UNL     1      -2.988   3.534 -15.259  1.00  0.00     0.031 C 
ATOM     71  C   UNL     1      -1.978   2.353 -17.198  1.00  0.00     0.034 A 
BRANCH  58  72
ATOM     72  C   UNL     1      -0.819  -3.292 -19.497  1.00  0.00     0.023 A 
ATOM     73  C   UNL     1      -1.577  -4.172 -20.290  1.00  0.00     0.031 A 
ATOM     74  C   UNL     1       0.563  -3.209 -19.743  1.00  0.00     0.131 A 
ATOM     75  C   UNL     1      -0.940  -4.978 -21.246  1.00  0.00     0.055 A 
ATOM     76  C   UNL     1       1.179  -3.958 -20.747  1.00  0.00     0.041 A 
ATOM     77  F   UNL     1       1.341  -2.402 -19.004  1.00  0.00    -0.206 F 
ATOM     78  C   UNL     1       0.429  -4.858 -21.498  1.00  0.00     0.022 A 
BRANCH  75  79
ATOM     79  S   UNL     1      -1.906  -6.268 -22.078  1.00  0.00     0.124 S 
ATOM     80  O   UNL     1      -2.307  -7.107 -20.951  1.00  0.00    -0.237 OA
ATOM     81  O   UNL     1      -2.971  -5.503 -22.716  1.00  0.00    -0.237 OA
ATOM     82  O   UNL     1      -0.944  -6.880 -22.992  1.00  0.00    -0.744 OA
ENDBRANCH  75  79
ENDBRANCH  58  72
BRANCH  59  83
ATOM     83  C   UNL     1      -4.740   1.796 -11.820  1.00  0.00     0.023 A 
ATOM     84  C   UNL     1      -5.944   2.510 -11.912  1.00  0.00     0.031 A 
ATOM     85  C   UNL     1      -4.087   1.750 -10.575  1.00  0.00     0.131 A 
ATOM     86  C   UNL     1      -6.461   3.151 -10.776  1.00  0.00     0.055 A 
ATOM     87  C   UNL     1      -4.622   2.362  -9.441  1.00  0.00     0.041 A 
ATOM     88  F   UNL     1      -2.940   1.066 -10.436  1.00  0.00    -0.206 F 
ATOM     89  C   UNL     1      -5.816   3.069  -9.539  1.00  0.00     0.022 A 
BRANCH  86  90
ATOM     90  S   UNL     1      -8.008   4.087 -10.928  1.00  0.00     0.124 S 
ATOM     91  O   UNL     1      -7.598   5.201 -11.777  1.00  0.00    -0.237 OA
ATOM     92  O   UNL     1      -8.901   3.108 -11.540  1.00  0.00    -0.237 OA
ATOM     93  O   UNL     1      -8.329   4.438  -9.546  1.00  0.00    -0.744 OA
ENDBRANCH  86  90
ENDBRANCH  59  83
BRANCH  71  94
ATOM     94  C   UNL     1      -1.661   3.699 -17.800  1.00  0.00     0.023 A 
ATOM     95  C   UNL     1      -0.715   4.560 -17.218  1.00  0.00     0.031 A 
ATOM     96  C   UNL     1      -2.304   4.121 -18.977  1.00  0.00     0.131 A 
ATOM     97  C   UNL     1      -0.473   5.820 -17.788  1.00  0.00     0.055 A 
ATOM     98  C   UNL     1      -2.015   5.350 -19.573  1.00  0.00     0.041 A 
ATOM     99  F   UNL     1      -3.218   3.340 -19.575  1.00  0.00    -0.206 F 
ATOM    100  C   UNL     1      -1.103   6.212 -18.972  1.00  0.00     0.022 A 
BRANCH  97 101
ATOM    101  S   UNL     1       0.620   6.974 -16.915  1.00  0.00     0.124 S 
ATOM    102  O   UNL     1      -0.083   7.155 -15.649  1.00  0.00    -0.237 OA
ATOM    103  O   UNL     1       1.873   6.230 -16.847  1.00  0.00    -0.237 OA
ATOM    104  O   UNL     1       0.643   8.149 -17.785  1.00  0.00    -0.744 OA
ENDBRANCH  97 101
ENDBRANCH  71  94
ENDBRANCH  45  46
ENDBRANCH  37  40
ENDBRANCH  35  36
ENDBRANCH  34  35
ENDBRANCH  33  34
ENDBRANCH   1  33
TORSDOF 19
