REMARK SMILES CCC(CC)(Nc1ccc(OC)cc1)C(=O)NCCCCCCNC(=O)c1ccc(-c2c3nc(c(-c4cc(S(=O)(=O)[O-])ccc4F)c4ccc([nH]4)c(-c4cc(S(=O)(=O)[O-])ccc4F)c4nc(c(-c5cc(S(=O)(=O)[O-])ccc5F)c5ccc2[nH]5)C=C4)C=C3)cc1
REMARK SMILES IDX 20 1 19 2 18 3 17 4 15 5 16 6 3 8 2 9 1 10 4 11 5 12 6 13
REMARK SMILES IDX 7 15 8 16 14 17 9 18 13 19 10 20 11 21 12 22 21 23 22 24
REMARK SMILES IDX 23 25 24 26 25 27 26 29 27 30 28 31 89 32 29 33 88 34 30 35
REMARK SMILES IDX 31 36 32 37 82 38 33 39 87 40 81 41 83 42 34 43 86 44 80 45
REMARK SMILES IDX 79 46 35 48 67 49 47 50 66 51 48 52 51 53 65 54 84 55 49 56
REMARK SMILES IDX 50 57 64 59 85 60 52 61 36 62 37 63 45 64 38 65 44 66 46 67
REMARK SMILES IDX 43 68 39 69 40 70 41 71 42 72 68 73 69 74 77 75 70 76 76 77
REMARK SMILES IDX 78 78 75 79 71 80 72 81 73 82 74 83 53 84 54 85 62 86 55 87
REMARK SMILES IDX 61 88 63 89 60 90 56 91 57 92 58 93 59 94
REMARK H PARENT 17 7 6 14 24 28 83 47 51 58
REMARK Flexibility Score: inf
ROOT
ATOM      1  C   UNL     1       4.484   6.289  -0.134  1.00  0.00     0.002 C 
ENDROOT
BRANCH   1   2
ATOM      2  C   UNL     1       2.962   6.197  -0.047  1.00  0.00     0.021 C 
BRANCH   2   3
ATOM      3  C   UNL     1       2.325   5.084  -0.870  1.00  0.00     0.116 C 
BRANCH   3   4
ATOM      4  N   UNL     1       2.946   3.781  -0.694  1.00  0.00    -0.354 N 
ATOM      5  C   UNL     1       2.489   2.629  -0.112  1.00  0.00     0.245 C 
ATOM      6  O   UNL     1       3.299   1.696  -0.058  1.00  0.00    -0.272 OA
ATOM      7  H   UNL     1       3.858   3.716  -1.058  1.00  0.00     0.163 HD
BRANCH   5   8
ATOM      8  C   UNL     1       1.029   2.497   0.437  1.00  0.00     0.116 C 
BRANCH   8   9
ATOM      9  C   UNL     1       0.785   1.115   1.120  1.00  0.00     0.035 C 
ATOM     10  C   UNL     1       0.894  -0.128   0.239  1.00  0.00     0.007 C 
ENDBRANCH   8   9
BRANCH   8  11
ATOM     11  C   UNL     1       0.089   2.659  -0.806  1.00  0.00     0.035 C 
ATOM     12  C   UNL     1      -1.412   2.612  -0.564  1.00  0.00     0.007 C 
ENDBRANCH   8  11
BRANCH   8  13
ATOM     13  N   UNL     1       0.707   3.518   1.479  1.00  0.00    -0.371 N 
ATOM     14  H   UNL     1      -0.233   3.811   1.487  1.00  0.00     0.161 HD
BRANCH  13  15
ATOM     15  C   UNL     1       1.506   4.123   2.438  1.00  0.00     0.035 A 
ATOM     16  C   UNL     1       0.920   5.108   3.254  1.00  0.00     0.029 A 
ATOM     17  C   UNL     1       2.891   3.963   2.565  1.00  0.00     0.029 A 
ATOM     18  C   UNL     1       1.690   5.981   4.039  1.00  0.00     0.048 A 
ATOM     19  C   UNL     1       3.676   4.862   3.309  1.00  0.00     0.048 A 
ATOM     20  C   UNL     1       3.075   5.909   3.996  1.00  0.00     0.119 A 
BRANCH  20  21
ATOM     21  O   UNL     1       3.785   6.862   4.671  1.00  0.00    -0.497 OA
ATOM     22  C   UNL     1       4.716   7.548   3.826  1.00  0.00     0.278 C 
ENDBRANCH  20  21
ENDBRANCH  13  15
ENDBRANCH   8  13
ENDBRANCH   5   8
ENDBRANCH   3   4
ENDBRANCH   2   3
ENDBRANCH   1   2
BRANCH   1  23
ATOM     23  C   UNL     1       5.000   6.726  -1.503  1.00  0.00     0.002 C 
BRANCH  23  24
ATOM     24  C   UNL     1       4.380   8.023  -2.029  1.00  0.00     0.021 C 
BRANCH  24  25
ATOM     25  C   UNL     1       4.402   9.184  -1.038  1.00  0.00     0.116 C 
BRANCH  25  26
ATOM     26  N   UNL     1       5.758   9.609  -0.736  1.00  0.00    -0.352 N 
ATOM     27  C   UNL     1       6.330  10.841  -0.946  1.00  0.00     0.251 C 
ATOM     28  H   UNL     1       6.341   8.928  -0.330  1.00  0.00     0.163 HD
ATOM     29  O   UNL     1       7.542  10.983  -0.863  1.00  0.00    -0.269 OA
BRANCH  27  30
ATOM     30  C   UNL     1       5.455  11.979  -1.300  1.00  0.00     0.039 A 
ATOM     31  C   UNL     1       5.773  12.759  -2.412  1.00  0.00     0.014 A 
ATOM     32  C   UNL     1       4.298  12.239  -0.557  1.00  0.00     0.014 A 
ATOM     33  C   UNL     1       4.894  13.765  -2.817  1.00  0.00     0.010 A 
ATOM     34  C   UNL     1       3.388  13.190  -1.008  1.00  0.00     0.010 A 
ATOM     35  C   UNL     1       3.677  13.963  -2.143  1.00  0.00    -0.014 A 
BRANCH  35  36
ATOM     36  C   UNL     1       2.692  14.969  -2.623  1.00  0.00     0.031 A 
ATOM     37  C   UNL     1       2.321  16.139  -1.756  1.00  0.00     0.074 A 
ATOM     38  C   UNL     1       2.093  14.795  -3.817  1.00  0.00     0.049 A 
ATOM     39  N   UNL     1       1.450  17.090  -1.977  1.00  0.00    -0.248 NA
ATOM     40  C   UNL     1       2.997  16.233  -0.455  1.00  0.00     0.031 C 
ATOM     41  C   UNL     1       2.334  13.672  -4.725  1.00  0.00     0.029 A 
ATOM     42  N   UNL     1       1.153  15.553  -4.470  1.00  0.00    -0.354 N 
ATOM     43  C   UNL     1       1.472  17.895  -0.843  1.00  0.00     0.074 A 
ATOM     44  C   UNL     1       2.384  17.270   0.092  1.00  0.00     0.031 C 
ATOM     45  C   UNL     1       1.582  13.828  -5.825  1.00  0.00     0.029 A 
ATOM     46  C   UNL     1       0.768  15.030  -5.682  1.00  0.00     0.049 A 
ATOM     47  H   UNL     1       0.789  16.392  -4.104  1.00  0.00     0.167 HD
ATOM     48  C   UNL     1       0.816  19.061  -0.615  1.00  0.00     0.034 A 
ATOM     49  C   UNL     1      -0.151  15.458  -6.571  1.00  0.00     0.034 A 
ATOM     50  C   UNL     1      -0.099  19.660  -1.558  1.00  0.00     0.049 A 
ATOM     51  C   UNL     1      -0.907  16.728  -6.281  1.00  0.00     0.074 A 
ATOM     52  C   UNL     1      -0.782  20.860  -1.454  1.00  0.00     0.029 A 
ATOM     53  N   UNL     1      -0.478  19.095  -2.771  1.00  0.00    -0.354 N 
ATOM     54  N   UNL     1      -0.828  17.515  -5.232  1.00  0.00    -0.248 NA
ATOM     55  C   UNL     1      -1.867  17.174  -7.298  1.00  0.00     0.031 C 
ATOM     56  C   UNL     1      -1.633  20.978  -2.558  1.00  0.00     0.029 A 
ATOM     57  C   UNL     1      -1.417  19.899  -3.401  1.00  0.00     0.049 A 
ATOM     58  H   UNL     1      -0.129  18.248  -3.130  1.00  0.00     0.167 HD
ATOM     59  C   UNL     1      -1.716  18.559  -5.473  1.00  0.00     0.074 A 
ATOM     60  C   UNL     1      -2.301  18.311  -6.776  1.00  0.00     0.031 C 
ATOM     61  C   UNL     1      -2.017  19.628  -4.689  1.00  0.00     0.034 A 
BRANCH  48  62
ATOM     62  C   UNL     1       1.050  19.734   0.720  1.00  0.00     0.023 A 
ATOM     63  C   UNL     1       2.334  20.141   1.125  1.00  0.00     0.031 A 
ATOM     64  C   UNL     1      -0.010  19.921   1.625  1.00  0.00     0.131 A 
ATOM     65  C   UNL     1       2.544  20.611   2.430  1.00  0.00     0.055 A 
ATOM     66  C   UNL     1       0.190  20.484   2.888  1.00  0.00     0.041 A 
ATOM     67  F   UNL     1      -1.256  19.536   1.309  1.00  0.00    -0.206 F 
ATOM     68  C   UNL     1       1.476  20.812   3.305  1.00  0.00     0.022 A 
BRANCH  65  69
ATOM     69  S   UNL     1       4.251  20.768   3.025  1.00  0.00     0.124 S 
ATOM     70  O   UNL     1       4.765  19.419   2.804  1.00  0.00    -0.237 OA
ATOM     71  O   UNL     1       4.792  21.809   2.158  1.00  0.00    -0.237 OA
ATOM     72  O   UNL     1       4.091  21.143   4.428  1.00  0.00    -0.744 OA
ENDBRANCH  65  69
ENDBRANCH  48  62
BRANCH  49  73
ATOM     73  C   UNL     1      -0.420  14.663  -7.804  1.00  0.00     0.023 A 
ATOM     74  C   UNL     1      -0.126  15.169  -9.079  1.00  0.00     0.031 A 
ATOM     75  C   UNL     1      -0.987  13.377  -7.718  1.00  0.00     0.131 A 
ATOM     76  C   UNL     1      -0.427  14.406 -10.220  1.00  0.00     0.055 A 
ATOM     77  C   UNL     1      -1.234  12.602  -8.851  1.00  0.00     0.041 A 
ATOM     78  F   UNL     1      -1.283  12.845  -6.522  1.00  0.00    -0.206 F 
ATOM     79  C   UNL     1      -0.963  13.120 -10.113  1.00  0.00     0.022 A 
BRANCH  76  80
ATOM     80  S   UNL     1      -0.167  15.144 -11.856  1.00  0.00     0.124 S 
ATOM     81  O   UNL     1      -1.037  16.313 -11.796  1.00  0.00    -0.237 OA
ATOM     82  O   UNL     1       1.268  15.410 -11.844  1.00  0.00    -0.237 OA
ATOM     83  O   UNL     1      -0.595  14.092 -12.775  1.00  0.00    -0.744 OA
ENDBRANCH  76  80
ENDBRANCH  49  73
BRANCH  61  84
ATOM     84  C   UNL     1      -3.012  20.624  -5.239  1.00  0.00     0.023 A 
ATOM     85  C   UNL     1      -4.356  20.279  -5.468  1.00  0.00     0.031 A 
ATOM     86  C   UNL     1      -2.606  21.935  -5.548  1.00  0.00     0.131 A 
ATOM     87  C   UNL     1      -5.230  21.214  -6.044  1.00  0.00     0.055 A 
ATOM     88  C   UNL     1      -3.497  22.881  -6.056  1.00  0.00     0.041 A 
ATOM     89  F   UNL     1      -1.334  22.320  -5.358  1.00  0.00    -0.206 F 
ATOM     90  C   UNL     1      -4.815  22.519  -6.319  1.00  0.00     0.022 A 
BRANCH  87  91
ATOM     91  S   UNL     1      -6.892  20.670  -6.526  1.00  0.00     0.124 S 
ATOM     92  O   UNL     1      -6.597  19.585  -7.457  1.00  0.00    -0.237 OA
ATOM     93  O   UNL     1      -7.474  20.273  -5.248  1.00  0.00    -0.237 OA
ATOM     94  O   UNL     1      -7.481  21.863  -7.131  1.00  0.00    -0.744 OA
ENDBRANCH  87  91
ENDBRANCH  61  84
ENDBRANCH  35  36
ENDBRANCH  27  30
ENDBRANCH  25  26
ENDBRANCH  24  25
ENDBRANCH  23  24
ENDBRANCH   1  23
TORSDOF 21
