REMARK SMILES C=CCN(CC(=O)NCCCCCCNC(=O)c1ccc(-c2c3nc(c(-c4cc(S(=O)(=O)[O-])ccc4F)c4ccc([nH]4)c(-c4cc(S(=O)(=O)[O-])ccc4F)c4nc(c(-c5cc(S(=O)(=O)[O-])ccc5F)c5ccc2[nH]5)C=C4)C=C3)cc1)c1nccn(C)c1=O
REMARK SMILES IDX 11 1 10 2 9 3 8 4 6 5 7 6 5 8 4 9 3 10 2 11 1 12 81 13 82 14
REMARK SMILES IDX 87 15 83 16 85 17 88 18 84 19 86 20 12 21 13 22 14 23 15 24
REMARK SMILES IDX 16 25 17 27 18 28 19 29 80 30 20 31 79 32 21 33 22 34 23 35
REMARK SMILES IDX 73 36 24 37 78 38 72 39 74 40 25 41 77 42 71 43 70 44 26 46
REMARK SMILES IDX 58 47 38 48 57 49 39 50 42 51 56 52 75 53 40 54 41 55 55 57
REMARK SMILES IDX 76 58 43 59 27 60 28 61 36 62 29 63 35 64 37 65 34 66 30 67
REMARK SMILES IDX 31 68 32 69 33 70 59 71 60 72 68 73 61 74 67 75 69 76 66 77
REMARK SMILES IDX 62 78 63 79 64 80 65 81 44 82 45 83 53 84 46 85 52 86 54 87
REMARK SMILES IDX 51 88 47 89 48 90 49 91 50 92
REMARK H PARENT 8 7 15 26 74 45 42 56
REMARK Flexibility Score: inf
ROOT
ATOM      1  C   UNL     1      -5.789   1.183  -0.793  1.00  0.00     0.002 C 
ENDROOT
BRANCH   1   2
ATOM      2  C   UNL     1      -4.460   0.487  -0.474  1.00  0.00     0.021 C 
BRANCH   2   3
ATOM      3  C   UNL     1      -4.535  -1.039  -0.420  1.00  0.00     0.116 C 
BRANCH   3   4
ATOM      4  N   UNL     1      -4.773  -1.640  -1.712  1.00  0.00    -0.355 N 
ATOM      5  C   UNL     1      -3.892  -2.189  -2.598  1.00  0.00     0.239 C 
ATOM      6  O   UNL     1      -4.360  -2.757  -3.592  1.00  0.00    -0.273 OA
ATOM      7  H   UNL     1      -5.715  -1.656  -1.997  1.00  0.00     0.163 HD
BRANCH   5   8
ATOM      8  C   UNL     1      -2.386  -2.238  -2.320  1.00  0.00     0.218 C 
BRANCH   8   9
ATOM      9  N   UNL     1      -1.710  -0.961  -2.028  1.00  0.00    -0.339 N 
BRANCH   9  10
ATOM     10  C   UNL     1      -1.109  -0.833  -0.699  1.00  0.00     0.146 C 
BRANCH  10  11
ATOM     11  C   UNL     1       0.370  -1.071  -0.698  1.00  0.00    -0.014 C 
ATOM     12  C   UNL     1       1.247  -0.238  -0.116  1.00  0.00     0.006 C 
ENDBRANCH  10  11
ENDBRANCH   9  10
BRANCH   9  13
ATOM     13  C   UNL     1      -1.375  -0.064  -3.054  1.00  0.00     0.196 A 
ATOM     14  N   UNL     1      -0.147   0.388  -3.152  1.00  0.00    -0.233 NA
ATOM     15  C   UNL     1      -2.457   0.424  -4.080  1.00  0.00     0.293 A 
ATOM     16  C   UNL     1       0.176   1.208  -4.194  1.00  0.00     0.131 A 
ATOM     17  N   UNL     1      -1.981   1.214  -5.121  1.00  0.00    -0.314 N 
ATOM     18  O   UNL     1      -3.646   0.159  -3.922  1.00  0.00    -0.265 OA
ATOM     19  C   UNL     1      -0.665   1.602  -5.151  1.00  0.00     0.109 A 
ATOM     20  C   UNL     1      -2.920   1.684  -6.117  1.00  0.00     0.153 C 
ENDBRANCH   9  13
ENDBRANCH   8   9
ENDBRANCH   5   8
ENDBRANCH   3   4
ENDBRANCH   2   3
ENDBRANCH   1   2
BRANCH   1  21
ATOM     21  C   UNL     1      -6.953   0.855   0.149  1.00  0.00     0.002 C 
BRANCH  21  22
ATOM     22  C   UNL     1      -6.669   1.043   1.643  1.00  0.00     0.021 C 
BRANCH  22  23
ATOM     23  C   UNL     1      -6.304   2.465   2.061  1.00  0.00     0.116 C 
BRANCH  23  24
ATOM     24  N   UNL     1      -7.415   3.387   1.891  1.00  0.00    -0.352 N 
ATOM     25  C   UNL     1      -8.005   4.227   2.804  1.00  0.00     0.251 C 
ATOM     26  H   UNL     1      -7.803   3.413   0.987  1.00  0.00     0.163 HD
ATOM     27  O   UNL     1      -9.064   4.780   2.517  1.00  0.00    -0.269 OA
BRANCH  25  28
ATOM     28  C   UNL     1      -7.388   4.452   4.133  1.00  0.00     0.039 A 
ATOM     29  C   UNL     1      -8.212   4.482   5.262  1.00  0.00     0.014 A 
ATOM     30  C   UNL     1      -6.013   4.668   4.269  1.00  0.00     0.014 A 
ATOM     31  C   UNL     1      -7.653   4.671   6.530  1.00  0.00     0.010 A 
ATOM     32  C   UNL     1      -5.450   4.798   5.539  1.00  0.00     0.010 A 
ATOM     33  C   UNL     1      -6.264   4.802   6.683  1.00  0.00    -0.014 A 
BRANCH  33  34
ATOM     34  C   UNL     1      -5.646   4.950   8.028  1.00  0.00     0.031 A 
ATOM     35  C   UNL     1      -4.938   6.225   8.400  1.00  0.00     0.074 A 
ATOM     36  C   UNL     1      -5.663   3.912   8.888  1.00  0.00     0.049 A 
ATOM     37  N   UNL     1      -4.267   6.514   9.486  1.00  0.00    -0.248 NA
ATOM     38  C   UNL     1      -4.963   7.306   7.404  1.00  0.00     0.031 C 
ATOM     39  C   UNL     1      -6.280   2.609   8.627  1.00  0.00     0.029 A 
ATOM     40  N   UNL     1      -5.135   3.780  10.148  1.00  0.00    -0.354 N 
ATOM     41  C   UNL     1      -3.771   7.800   9.297  1.00  0.00     0.074 A 
ATOM     42  C   UNL     1      -4.183   8.214   7.972  1.00  0.00     0.031 C 
ATOM     43  C   UNL     1      -6.101   1.815   9.695  1.00  0.00     0.029 A 
ATOM     44  C   UNL     1      -5.327   2.535  10.702  1.00  0.00     0.049 A 
ATOM     45  H   UNL     1      -4.662   4.508  10.612  1.00  0.00     0.167 HD
ATOM     46  C   UNL     1      -3.054   8.568  10.155  1.00  0.00     0.034 A 
ATOM     47  C   UNL     1      -4.914   2.025  11.879  1.00  0.00     0.034 A 
ATOM     48  C   UNL     1      -2.674   8.152  11.483  1.00  0.00     0.049 A 
ATOM     49  C   UNL     1      -4.126   2.901  12.819  1.00  0.00     0.074 A 
ATOM     50  C   UNL     1      -2.017   8.880  12.460  1.00  0.00     0.029 A 
ATOM     51  N   UNL     1      -2.910   6.893  12.020  1.00  0.00    -0.354 N 
ATOM     52  N   UNL     1      -3.720   4.139  12.649  1.00  0.00    -0.248 NA
ATOM     53  C   UNL     1      -3.754   2.318  14.114  1.00  0.00     0.031 C 
ATOM     54  C   UNL     1      -1.802   8.044  13.562  1.00  0.00     0.029 A 
ATOM     55  C   UNL     1      -2.385   6.815  13.302  1.00  0.00     0.049 A 
ATOM     56  H   UNL     1      -3.381   6.162  11.559  1.00  0.00     0.167 HD
ATOM     57  C   UNL     1      -3.070   4.489  13.829  1.00  0.00     0.074 A 
ATOM     58  C   UNL     1      -3.152   3.339  14.706  1.00  0.00     0.031 C 
ATOM     59  C   UNL     1      -2.465   5.657  14.161  1.00  0.00     0.034 A 
BRANCH  46  60
ATOM     60  C   UNL     1      -2.609   9.927   9.668  1.00  0.00     0.023 A 
ATOM     61  C   UNL     1      -3.531  10.939   9.349  1.00  0.00     0.031 A 
ATOM     62  C   UNL     1      -1.241  10.208   9.503  1.00  0.00     0.131 A 
ATOM     63  C   UNL     1      -3.079  12.155   8.815  1.00  0.00     0.055 A 
ATOM     64  C   UNL     1      -0.793  11.449   9.044  1.00  0.00     0.041 A 
ATOM     65  F   UNL     1      -0.314   9.275   9.774  1.00  0.00    -0.206 F 
ATOM     66  C   UNL     1      -1.715  12.426   8.683  1.00  0.00     0.022 A 
BRANCH  63  67
ATOM     67  S   UNL     1      -4.304  13.328   8.171  1.00  0.00     0.124 S 
ATOM     68  O   UNL     1      -4.959  12.531   7.136  1.00  0.00    -0.237 OA
ATOM     69  O   UNL     1      -5.107  13.626   9.352  1.00  0.00    -0.237 OA
ATOM     70  O   UNL     1      -3.491  14.435   7.674  1.00  0.00    -0.744 OA
ENDBRANCH  63  67
ENDBRANCH  46  60
BRANCH  47  71
ATOM     71  C   UNL     1      -5.218   0.610  12.238  1.00  0.00     0.023 A 
ATOM     72  C   UNL     1      -6.060   0.303  13.318  1.00  0.00     0.031 A 
ATOM     73  C   UNL     1      -4.632  -0.456  11.533  1.00  0.00     0.131 A 
ATOM     74  C   UNL     1      -6.254  -1.036  13.695  1.00  0.00     0.055 A 
ATOM     75  C   UNL     1      -4.868  -1.787  11.880  1.00  0.00     0.041 A 
ATOM     76  F   UNL     1      -3.825  -0.216  10.488  1.00  0.00    -0.206 F 
ATOM     77  C   UNL     1      -5.672  -2.083  12.976  1.00  0.00     0.022 A 
BRANCH  74  78
ATOM     78  S   UNL     1      -7.211  -1.385  15.196  1.00  0.00     0.124 S 
ATOM     79  O   UNL     1      -6.474  -0.629  16.201  1.00  0.00    -0.237 OA
ATOM     80  O   UNL     1      -8.528  -0.868  14.841  1.00  0.00    -0.237 OA
ATOM     81  O   UNL     1      -7.127  -2.839  15.321  1.00  0.00    -0.744 OA
ENDBRANCH  74  78
ENDBRANCH  47  71
BRANCH  59  82
ATOM     82  C   UNL     1      -1.885   5.755  15.550  1.00  0.00     0.023 A 
ATOM     83  C   UNL     1      -0.768   4.996  15.941  1.00  0.00     0.031 A 
ATOM     84  C   UNL     1      -2.473   6.608  16.501  1.00  0.00     0.131 A 
ATOM     85  C   UNL     1      -0.308   5.063  17.265  1.00  0.00     0.055 A 
ATOM     86  C   UNL     1      -1.976   6.712  17.801  1.00  0.00     0.041 A 
ATOM     87  F   UNL     1      -3.543   7.354  16.181  1.00  0.00    -0.206 F 
ATOM     88  C   UNL     1      -0.895   5.927  18.193  1.00  0.00     0.022 A 
BRANCH  85  89
ATOM     89  S   UNL     1       1.018   3.939  17.784  1.00  0.00     0.124 S 
ATOM     90  O   UNL     1       0.434   2.631  17.506  1.00  0.00    -0.237 OA
ATOM     91  O   UNL     1       2.123   4.340  16.920  1.00  0.00    -0.237 OA
ATOM     92  O   UNL     1       1.196   4.250  19.201  1.00  0.00    -0.744 OA
ENDBRANCH  85  89
ENDBRANCH  59  82
ENDBRANCH  33  34
ENDBRANCH  25  28
ENDBRANCH  23  24
ENDBRANCH  22  23
ENDBRANCH  21  22
ENDBRANCH   1  21
TORSDOF 20
