REMARK SMILES O=C(NCCCCCCNC(=O)c1ccccc1/C=N\NC(=S)NCc1ccccc1)c1ccc(-c2c3nc(c(-c4cc(S(=O)(=O)[O-])ccc4F)c4ccc([nH]4)c(-c4cc(S(=O)(=O)[O-])ccc4F)c4nc(c(-c5cc(S(=O)(=O)[O-])ccc5F)c5ccc2[nH]5)C=C4)C=C3)cc1
REMARK SMILES IDX 8 1 7 2 6 3 5 4 4 5 3 6 1 7 2 8 32 10 33 11 94 12 34 13
REMARK SMILES IDX 93 14 35 15 36 16 37 17 87 18 38 19 92 20 86 21 88 22 39 23
REMARK SMILES IDX 91 24 85 25 84 26 40 28 72 29 52 30 71 31 53 32 56 33 70 34
REMARK SMILES IDX 89 35 54 36 55 37 69 39 90 40 57 41 41 42 42 43 50 44 43 45
REMARK SMILES IDX 49 46 51 47 48 48 44 49 45 50 46 51 47 52 73 53 74 54 82 55
REMARK SMILES IDX 75 56 81 57 83 58 80 59 76 60 77 61 78 62 79 63 58 64 59 65
REMARK SMILES IDX 67 66 60 67 66 68 68 69 65 70 61 71 62 72 63 73 64 74 9 75
REMARK SMILES IDX 10 76 11 77 12 79 13 80 14 81 18 82 15 83 17 84 16 85 19 86
REMARK SMILES IDX 20 87 21 88 22 90 23 91 24 92 25 94 26 95 27 96 31 97 28 98
REMARK SMILES IDX 30 99 29 100
REMARK H PARENT 3 9 88 27 56 38 10 78 21 89 24 93
REMARK Flexibility Score: inf
ROOT
ATOM      1  C   UNL     1       5.857   0.255   4.355  1.00  0.00     0.021 C 
ENDROOT
BRANCH   1   2
ATOM      2  C   UNL     1       4.336   0.159   4.307  1.00  0.00     0.002 C 
BRANCH   2   3
ATOM      3  C   UNL     1       3.656   1.272   3.505  1.00  0.00     0.002 C 
BRANCH   3   4
ATOM      4  C   UNL     1       4.229   1.501   2.103  1.00  0.00     0.021 C 
BRANCH   4   5
ATOM      5  C   UNL     1       4.189   0.270   1.210  1.00  0.00     0.116 C 
BRANCH   5   6
ATOM      6  N   UNL     1       2.820  -0.146   0.954  1.00  0.00    -0.352 N 
ATOM      7  O   UNL     1       0.911  -0.230  -0.246  1.00  0.00    -0.269 OA
ATOM      8  C   UNL     1       2.133  -0.122  -0.233  1.00  0.00     0.251 C 
ATOM      9  H   UNL     1       2.322  -0.488   1.732  1.00  0.00     0.163 HD
BRANCH   8  10
ATOM     10  C   UNL     1       2.891   0.030  -1.490  1.00  0.00     0.039 A 
ATOM     11  C   UNL     1       4.053  -0.721  -1.692  1.00  0.00     0.014 A 
ATOM     12  C   UNL     1       2.443   0.918  -2.469  1.00  0.00     0.014 A 
ATOM     13  C   UNL     1       4.832  -0.496  -2.817  1.00  0.00     0.010 A 
ATOM     14  C   UNL     1       3.178   1.071  -3.647  1.00  0.00     0.010 A 
ATOM     15  C   UNL     1       4.384   0.373  -3.824  1.00  0.00    -0.014 A 
BRANCH  15  16
ATOM     16  C   UNL     1       5.149   0.457  -5.093  1.00  0.00     0.031 A 
ATOM     17  C   UNL     1       5.796   1.738  -5.532  1.00  0.00     0.074 A 
ATOM     18  C   UNL     1       5.262  -0.659  -5.842  1.00  0.00     0.049 A 
ATOM     19  N   UNL     1       6.483   1.982  -6.618  1.00  0.00    -0.248 NA
ATOM     20  C   UNL     1       5.644   2.898  -4.643  1.00  0.00     0.031 C 
ATOM     21  C   UNL     1       4.668  -1.957  -5.507  1.00  0.00     0.029 A 
ATOM     22  N   UNL     1       5.918  -0.892  -7.022  1.00  0.00    -0.354 N 
ATOM     23  C   UNL     1       6.835   3.326  -6.555  1.00  0.00     0.074 A 
ATOM     24  C   UNL     1       6.252   3.851  -5.337  1.00  0.00     0.031 C 
ATOM     25  C   UNL     1       5.023  -2.857  -6.433  1.00  0.00     0.029 A 
ATOM     26  C   UNL     1       5.792  -2.185  -7.472  1.00  0.00     0.049 A 
ATOM     27  H   UNL     1       6.429  -0.200  -7.501  1.00  0.00     0.167 HD
ATOM     28  C   UNL     1       7.578   4.045  -7.433  1.00  0.00     0.034 A 
ATOM     29  C   UNL     1       6.216  -2.763  -8.612  1.00  0.00     0.034 A 
ATOM     30  C   UNL     1       8.140   3.496  -8.646  1.00  0.00     0.049 A 
ATOM     31  C   UNL     1       6.985  -1.925  -9.596  1.00  0.00     0.074 A 
ATOM     32  C   UNL     1       8.935   4.125  -9.589  1.00  0.00     0.029 A 
ATOM     33  N   UNL     1       7.954   2.193  -9.096  1.00  0.00    -0.354 N 
ATOM     34  N   UNL     1       7.331  -0.661  -9.510  1.00  0.00    -0.248 NA
ATOM     35  C   UNL     1       7.424  -2.591 -10.827  1.00  0.00     0.031 C 
ATOM     36  C   UNL     1       9.157   3.233 -10.644  1.00  0.00     0.029 A 
ATOM     37  C   UNL     1       8.583   2.014 -10.319  1.00  0.00     0.049 A 
ATOM     38  H   UNL     1       7.448   1.499  -8.615  1.00  0.00     0.167 HD
ATOM     39  C   UNL     1       8.051  -0.387 -10.668  1.00  0.00     0.074 A 
ATOM     40  C   UNL     1       8.107  -1.624 -11.422  1.00  0.00     0.031 C 
ATOM     41  C   UNL     1       8.617   0.779 -11.070  1.00  0.00     0.034 A 
BRANCH  28  42
ATOM     42  C   UNL     1       7.782   5.514  -7.138  1.00  0.00     0.023 A 
ATOM     43  C   UNL     1       8.464   5.954  -5.990  1.00  0.00     0.031 A 
ATOM     44  C   UNL     1       7.272   6.492  -8.011  1.00  0.00     0.131 A 
ATOM     45  C   UNL     1       8.553   7.326  -5.708  1.00  0.00     0.055 A 
ATOM     46  C   UNL     1       7.438   7.857  -7.769  1.00  0.00     0.041 A 
ATOM     47  F   UNL     1       6.592   6.137  -9.112  1.00  0.00    -0.206 F 
ATOM     48  C   UNL     1       8.068   8.282  -6.603  1.00  0.00     0.022 A 
BRANCH  45  49
ATOM     49  S   UNL     1       9.175   7.837  -4.083  1.00  0.00     0.124 S 
ATOM     50  O   UNL     1       8.261   7.136  -3.183  1.00  0.00    -0.237 OA
ATOM     51  O   UNL     1      10.549   7.348  -4.103  1.00  0.00    -0.237 OA
ATOM     52  O   UNL     1       9.027   9.291  -4.100  1.00  0.00    -0.744 OA
ENDBRANCH  45  49
ENDBRANCH  28  42
BRANCH  29  53
ATOM     53  C   UNL     1       5.883  -4.186  -8.899  1.00  0.00     0.023 A 
ATOM     54  C   UNL     1       6.889  -5.152  -9.046  1.00  0.00     0.031 A 
ATOM     55  C   UNL     1       4.546  -4.597  -9.058  1.00  0.00     0.131 A 
ATOM     56  C   UNL     1       6.547  -6.470  -9.386  1.00  0.00     0.055 A 
ATOM     57  C   UNL     1       4.207  -5.922  -9.332  1.00  0.00     0.041 A 
ATOM     58  F   UNL     1       3.543  -3.714  -8.925  1.00  0.00    -0.206 F 
ATOM     59  C   UNL     1       5.213  -6.865  -9.513  1.00  0.00     0.022 A 
BRANCH  56  60
ATOM     60  S   UNL     1       7.880  -7.643  -9.754  1.00  0.00     0.124 S 
ATOM     61  O   UNL     1       8.583  -6.962 -10.835  1.00  0.00    -0.237 OA
ATOM     62  O   UNL     1       8.581  -7.713  -8.476  1.00  0.00    -0.237 OA
ATOM     63  O   UNL     1       7.166  -8.858 -10.140  1.00  0.00    -0.744 OA
ENDBRANCH  56  60
ENDBRANCH  29  53
BRANCH  41  64
ATOM     64  C   UNL     1       9.385   0.751 -12.370  1.00  0.00     0.023 A 
ATOM     65  C   UNL     1       8.752   0.511 -13.602  1.00  0.00     0.031 A 
ATOM     66  C   UNL     1      10.778   0.946 -12.370  1.00  0.00     0.131 A 
ATOM     67  C   UNL     1       9.517   0.408 -14.773  1.00  0.00     0.055 A 
ATOM     68  C   UNL     1      11.525   0.913 -13.548  1.00  0.00     0.041 A 
ATOM     69  F   UNL     1      11.438   1.171 -11.223  1.00  0.00    -0.206 F 
ATOM     70  C   UNL     1      10.897   0.628 -14.757  1.00  0.00     0.022 A 
BRANCH  67  71
ATOM     71  S   UNL     1       8.701  -0.126 -16.302  1.00  0.00     0.124 S 
ATOM     72  O   UNL     1       8.154  -1.423 -15.916  1.00  0.00    -0.237 OA
ATOM     73  O   UNL     1       7.727   0.937 -16.524  1.00  0.00    -0.237 OA
ATOM     74  O   UNL     1       9.793  -0.178 -17.273  1.00  0.00    -0.744 OA
ENDBRANCH  67  71
ENDBRANCH  41  64
ENDBRANCH  15  16
ENDBRANCH   8  10
ENDBRANCH   5   6
ENDBRANCH   4   5
ENDBRANCH   3   4
ENDBRANCH   2   3
ENDBRANCH   1   2
BRANCH   1  75
ATOM     75  C   UNL     1       6.392   1.620   4.773  1.00  0.00     0.116 C 
BRANCH  75  76
ATOM     76  N   UNL     1       6.304   1.897   6.197  1.00  0.00    -0.352 N 
ATOM     77  C   UNL     1       7.272   2.128   7.147  1.00  0.00     0.251 C 
ATOM     78  H   UNL     1       5.383   1.924   6.546  1.00  0.00     0.163 HD
ATOM     79  O   UNL     1       6.948   2.321   8.315  1.00  0.00    -0.269 OA
BRANCH  77  80
ATOM     80  C   UNL     1       8.697   1.958   6.824  1.00  0.00     0.048 A 
ATOM     81  C   UNL     1       9.646   0.885   7.926  1.00  0.00     0.014 A 
ATOM     82  C   UNL     1       9.402   2.446   5.225  1.00  0.00     0.007 A 
ATOM     83  C   UNL     1      11.304   0.306   7.437  1.00  0.00     0.001 A 
ATOM     84  C   UNL     1      11.062   1.883   4.728  1.00  0.00     0.010 A 
ATOM     85  C   UNL     1      12.008   0.818   5.853  1.00  0.00     0.001 A 
BRANCH  82  86
ATOM     86  C   UNL     1       9.044   3.757   4.759  1.00  0.00     0.142 C 
ATOM     87  N   UNL     1       9.882   4.713   4.949  1.00  0.00    -0.181 NA
BRANCH  87  88
ATOM     88  N   UNL     1      10.987   4.444   5.724  1.00  0.00    -0.254 N 
ATOM     89  H   UNL     1      11.750   5.046   5.565  1.00  0.00     0.193 HD
BRANCH  88  90
ATOM     90  C   UNL     1      11.213   3.490   6.675  1.00  0.00     0.187 C 
ATOM     91  S   UNL     1      12.265   3.941   7.920  1.00  0.00    -0.039 S 
BRANCH  90  92
ATOM     92  N   UNL     1      10.721   2.160   6.726  1.00  0.00    -0.357 N 
ATOM     93  H   UNL     1      10.826   1.903   7.671  1.00  0.00     0.163 HD
BRANCH  92  94
ATOM     94  C   UNL     1       9.889   0.468   5.826  1.00  0.00     0.151 C 
BRANCH  94  95
ATOM     95  C   UNL     1       9.523  -1.100   6.313  1.00  0.00    -0.029 A 
ATOM     96  C   UNL     1       8.204  -1.438   6.686  1.00  0.00     0.005 A 
ATOM     97  C   UNL     1      10.399  -2.139   5.937  1.00  0.00     0.005 A 
ATOM     98  C   UNL     1       7.758  -2.759   6.604  1.00  0.00     0.000 A 
ATOM     99  C   UNL     1       9.949  -3.459   5.878  1.00  0.00     0.000 A 
ATOM    100  C   UNL     1       8.623  -3.763   6.179  1.00  0.00     0.000 A 
ENDBRANCH  94  95
ENDBRANCH  92  94
ENDBRANCH  90  92
ENDBRANCH  88  90
ENDBRANCH  87  88
ENDBRANCH  82  86
ENDBRANCH  77  80
ENDBRANCH  75  76
ENDBRANCH   1  75
TORSDOF 22
