REMARK SMILES Cc1cc(Br)cc([N+](=O)[O-])c1OCCC[C@@](C)([NH3+])C(=O)NCCCCCCNC(=O)c1ccc(-c2c3nc(c(-c4cc(S(=O)(=O)[O-])ccc4F)c4ccc([nH]4)c(-c4cc(S(=O)(=O)[O-])ccc4F)c4nc(c(-c5cc(S(=O)(=O)[O-])ccc5F)c5ccc2[nH]5)C=C4)C=C3)cc1
REMARK SMILES IDX 23 1 22 2 21 3 19 4 20 5 16 7 17 8 15 9 14 10 13 11 12 12
REMARK SMILES IDX 11 13 1 14 2 15 3 16 4 17 7 18 5 19 6 20 8 21 9 22 10 23
REMARK SMILES IDX 18 24 24 28 25 29 26 30 27 31 28 32 29 33 30 35 31 36 32 37
REMARK SMILES IDX 93 38 33 39 92 40 34 41 35 42 36 43 86 44 37 45 91 46 85 47
REMARK SMILES IDX 87 48 38 49 90 50 84 51 83 52 39 54 71 55 51 56 70 57 52 58
REMARK SMILES IDX 55 59 69 60 88 61 53 62 54 63 68 65 89 66 56 67 40 68 41 69
REMARK SMILES IDX 49 70 42 71 48 72 50 73 47 74 43 75 44 76 45 77 46 78 72 79
REMARK SMILES IDX 73 80 81 81 74 82 80 83 82 84 79 85 75 86 76 87 77 88 78 89
REMARK SMILES IDX 57 90 58 91 66 92 59 93 65 94 67 95 64 96 60 97 61 98 62 99
REMARK SMILES IDX 63 100
REMARK H PARENT 21 6 18 25 18 26 18 27 28 34 87 53 55 64
REMARK Flexibility Score: inf
ROOT
ATOM      1  C   UNL     1      -1.806  -3.779   3.490  1.00  0.00     0.021 C 
ENDROOT
BRANCH   1   2
ATOM      2  C   UNL     1      -3.090  -4.138   2.738  1.00  0.00     0.116 C 
BRANCH   2   3
ATOM      3  N   UNL     1      -3.870  -2.960   2.408  1.00  0.00    -0.351 N 
ATOM      4  C   UNL     1      -4.583  -2.594   1.313  1.00  0.00     0.280 C 
ATOM      5  O   UNL     1      -5.434  -1.721   1.530  1.00  0.00    -0.268 OA
ATOM      6  H   UNL     1      -3.884  -2.287   3.126  1.00  0.00     0.163 HD
BRANCH   4   7
ATOM      7  C   UNL     1      -4.418  -3.203  -0.115  1.00  0.00     0.171 C 
ATOM      8  C   UNL     1      -5.598  -4.170  -0.295  1.00  0.00     0.090 C 
BRANCH   7   9
ATOM      9  C   UNL     1      -4.379  -2.138  -1.270  1.00  0.00     0.082 C 
BRANCH   9  10
ATOM     10  C   UNL     1      -5.093  -0.778  -1.115  1.00  0.00     0.049 C 
BRANCH  10  11
ATOM     11  C   UNL     1      -4.341   0.346  -0.353  1.00  0.00     0.230 C 
BRANCH  11  12
ATOM     12  O   UNL     1      -3.183   0.768  -1.095  1.00  0.00    -0.487 OA
BRANCH  12  13
ATOM     13  C   UNL     1      -2.065   1.147  -0.381  1.00  0.00     0.200 A 
ATOM     14  C   UNL     1      -1.490  -1.270   0.206  1.00  0.00     0.049 C 
ATOM     15  C   UNL     1      -1.139   0.162   0.015  1.00  0.00    -0.001 A 
ATOM     16  C   UNL     1       0.212   0.490   0.215  1.00  0.00     0.023 A 
ATOM     17  C   UNL     1       0.644   1.800   0.105  1.00  0.00     0.025 A 
ATOM     18  C   UNL     1      -1.627   2.484  -0.377  1.00  0.00     0.312 A 
ATOM     19  Br  UNL     1       2.481   2.189   0.293  1.00  0.00    -0.051 Br
ATOM     20  C   UNL     1      -0.275   2.811  -0.137  1.00  0.00     0.105 A 
BRANCH  18  21
ATOM     21  N   UNL     1      -2.560   3.596  -0.554  1.00  0.00     0.066 N 
ATOM     22  O   UNL     1      -2.090   4.676  -0.947  1.00  0.00    -0.258 OA
ATOM     23  O   UNL     1      -3.741   3.432  -0.224  1.00  0.00    -0.258 OA
ENDBRANCH  18  21
ENDBRANCH  12  13
ENDBRANCH  11  12
ENDBRANCH  10  11
ENDBRANCH   9  10
ENDBRANCH   7   9
BRANCH   7  24
ATOM     24  N   UNL     1      -3.212  -4.053  -0.267  1.00  0.00    -0.345 N 
ATOM     25  H   UNL     1      -3.169  -4.415  -1.219  1.00  0.00     0.345 HD
ATOM     26  H   UNL     1      -3.260  -4.831   0.391  1.00  0.00     0.345 HD
ATOM     27  H   UNL     1      -2.379  -3.497  -0.076  1.00  0.00     0.345 HD
ENDBRANCH   7  24
ENDBRANCH   4   7
ENDBRANCH   2   3
ENDBRANCH   1   2
BRANCH   1  28
ATOM     28  C   UNL     1      -1.998  -3.001   4.800  1.00  0.00     0.002 C 
BRANCH  28  29
ATOM     29  C   UNL     1      -3.011  -3.592   5.785  1.00  0.00     0.002 C 
BRANCH  29  30
ATOM     30  C   UNL     1      -2.823  -5.074   6.113  1.00  0.00     0.021 C 
BRANCH  30  31
ATOM     31  C   UNL     1      -1.468  -5.430   6.708  1.00  0.00     0.116 C 
BRANCH  31  32
ATOM     32  N   UNL     1      -1.303  -4.895   8.047  1.00  0.00    -0.352 N 
ATOM     33  C   UNL     1      -1.011  -5.566   9.213  1.00  0.00     0.251 C 
ATOM     34  H   UNL     1      -1.415  -3.921   8.134  1.00  0.00     0.163 HD
ATOM     35  O   UNL     1      -1.115  -4.992  10.290  1.00  0.00    -0.269 OA
BRANCH  33  36
ATOM     36  C   UNL     1      -0.601  -6.988   9.154  1.00  0.00     0.039 A 
ATOM     37  C   UNL     1      -1.176  -7.896  10.046  1.00  0.00     0.014 A 
ATOM     38  C   UNL     1       0.336  -7.426   8.213  1.00  0.00     0.014 A 
ATOM     39  C   UNL     1      -0.859  -9.254   9.950  1.00  0.00     0.010 A 
ATOM     40  C   UNL     1       0.589  -8.788   8.068  1.00  0.00     0.010 A 
ATOM     41  C   UNL     1      -0.003  -9.717   8.937  1.00  0.00    -0.014 A 
BRANCH  41  42
ATOM     42  C   UNL     1       0.287 -11.167   8.775  1.00  0.00     0.031 A 
ATOM     43  C   UNL     1       1.691 -11.681   8.948  1.00  0.00     0.074 A 
ATOM     44  C   UNL     1      -0.702 -12.011   8.417  1.00  0.00     0.049 A 
ATOM     45  N   UNL     1       2.157 -12.892   8.782  1.00  0.00    -0.248 NA
ATOM     46  C   UNL     1       2.712 -10.693   9.329  1.00  0.00     0.031 C 
ATOM     47  C   UNL     1      -2.096 -11.626   8.183  1.00  0.00     0.029 A 
ATOM     48  N   UNL     1      -0.690 -13.363   8.181  1.00  0.00    -0.354 N 
ATOM     49  C   UNL     1       3.524 -12.811   9.027  1.00  0.00     0.074 A 
ATOM     50  C   UNL     1       3.819 -11.418   9.288  1.00  0.00     0.031 C 
ATOM     51  C   UNL     1      -2.807 -12.719   7.864  1.00  0.00     0.029 A 
ATOM     52  C   UNL     1      -1.916 -13.874   7.821  1.00  0.00     0.049 A 
ATOM     53  H   UNL     1       0.121 -13.916   8.261  1.00  0.00     0.167 HD
ATOM     54  C   UNL     1       4.442 -13.809   9.057  1.00  0.00     0.034 A 
ATOM     55  C   UNL     1      -2.280 -15.127   7.481  1.00  0.00     0.034 A 
ATOM     56  C   UNL     1       4.128 -15.195   8.803  1.00  0.00     0.049 A 
ATOM     57  C   UNL     1      -1.235 -16.215   7.488  1.00  0.00     0.074 A 
ATOM     58  C   UNL     1       4.968 -16.293   8.859  1.00  0.00     0.029 A 
ATOM     59  N   UNL     1       2.876 -15.674   8.436  1.00  0.00    -0.354 N 
ATOM     60  N   UNL     1       0.045 -16.130   7.773  1.00  0.00    -0.248 NA
ATOM     61  C   UNL     1      -1.685 -17.568   7.140  1.00  0.00     0.031 C 
ATOM     62  C   UNL     1       4.246 -17.420   8.452  1.00  0.00     0.029 A 
ATOM     63  C   UNL     1       2.932 -17.044   8.227  1.00  0.00     0.049 A 
ATOM     64  H   UNL     1       2.067 -15.121   8.338  1.00  0.00     0.167 HD
ATOM     65  C   UNL     1       0.543 -17.426   7.670  1.00  0.00     0.074 A 
ATOM     66  C   UNL     1      -0.577 -18.273   7.312  1.00  0.00     0.031 C 
ATOM     67  C   UNL     1       1.810 -17.876   7.859  1.00  0.00     0.034 A 
BRANCH  54  68
ATOM     68  C   UNL     1       5.876 -13.429   9.348  1.00  0.00     0.023 A 
ATOM     69  C   UNL     1       6.251 -12.837  10.568  1.00  0.00     0.031 A 
ATOM     70  C   UNL     1       6.879 -13.638   8.385  1.00  0.00     0.131 A 
ATOM     71  C   UNL     1       7.572 -12.405  10.761  1.00  0.00     0.055 A 
ATOM     72  C   UNL     1       8.210 -13.286   8.618  1.00  0.00     0.041 A 
ATOM     73  F   UNL     1       6.580 -14.178   7.193  1.00  0.00    -0.206 F 
ATOM     74  C   UNL     1       8.560 -12.650   9.806  1.00  0.00     0.022 A 
BRANCH  71  75
ATOM     75  S   UNL     1       7.945 -11.383  12.213  1.00  0.00     0.124 S 
ATOM     76  O   UNL     1       7.034 -10.257  12.021  1.00  0.00    -0.237 OA
ATOM     77  O   UNL     1       7.629 -12.280  13.319  1.00  0.00    -0.237 OA
ATOM     78  O   UNL     1       9.361 -11.063  12.052  1.00  0.00    -0.744 OA
ENDBRANCH  71  75
ENDBRANCH  54  68
BRANCH  55  79
ATOM     79  C   UNL     1      -3.689 -15.427   7.092  1.00  0.00     0.023 A 
ATOM     80  C   UNL     1      -4.480 -16.301   7.854  1.00  0.00     0.031 A 
ATOM     81  C   UNL     1      -4.252 -14.877   5.927  1.00  0.00     0.131 A 
ATOM     82  C   UNL     1      -5.771 -16.640   7.417  1.00  0.00     0.055 A 
ATOM     83  C   UNL     1      -5.557 -15.171   5.527  1.00  0.00     0.041 A 
ATOM     84  F   UNL     1      -3.542 -14.033   5.162  1.00  0.00    -0.206 F 
ATOM     85  C   UNL     1      -6.320 -16.069   6.267  1.00  0.00     0.022 A 
BRANCH  82  86
ATOM     86  S   UNL     1      -6.689 -17.913   8.326  1.00  0.00     0.124 S 
ATOM     87  O   UNL     1      -5.780 -19.050   8.244  1.00  0.00    -0.237 OA
ATOM     88  O   UNL     1      -6.834 -17.299   9.642  1.00  0.00    -0.237 OA
ATOM     89  O   UNL     1      -7.929 -18.046   7.563  1.00  0.00    -0.744 OA
ENDBRANCH  82  86
ENDBRANCH  55  79
BRANCH  67  90
ATOM     90  C   UNL     1       2.037 -19.364   7.728  1.00  0.00     0.023 A 
ATOM     91  C   UNL     1       1.887 -20.034   6.502  1.00  0.00     0.031 A 
ATOM     92  C   UNL     1       2.402 -20.123   8.855  1.00  0.00     0.131 A 
ATOM     93  C   UNL     1       2.042 -21.427   6.442  1.00  0.00     0.055 A 
ATOM     94  C   UNL     1       2.620 -21.499   8.776  1.00  0.00     0.041 A 
ATOM     95  F   UNL     1       2.556 -19.537  10.053  1.00  0.00    -0.206 F 
ATOM     96  C   UNL     1       2.426 -22.161   7.568  1.00  0.00     0.022 A 
BRANCH  93  97
ATOM     97  S   UNL     1       1.640 -22.283   4.895  1.00  0.00     0.124 S 
ATOM     98  O   UNL     1       0.246 -21.902   4.691  1.00  0.00    -0.237 OA
ATOM     99  O   UNL     1       2.601 -21.708   3.960  1.00  0.00    -0.237 OA
ATOM    100  O   UNL     1       1.857 -23.693   5.216  1.00  0.00    -0.744 OA
ENDBRANCH  93  97
ENDBRANCH  67  90
ENDBRANCH  41  42
ENDBRANCH  33  36
ENDBRANCH  31  32
ENDBRANCH  30  31
ENDBRANCH  29  30
ENDBRANCH  28  29
ENDBRANCH   1  28
TORSDOF 23
