REMARK SMILES Cc1ccc(NC(=O)CN2C(=O)S/C(=C\c3cc(Cl)c(OCC(=O)NCCCCCCNC(=O)c4ccc(-c5c6nc(c(-c7cc(S(=O)(=O)[O-])ccc7F)c7ccc([nH]7)c(-c7cc(S(=O)(=O)[O-])ccc7F)c7nc(c(-c8cc(S(=O)(=O)[O-])ccc8F)c8ccc5[nH]8)C=C7)C=C6)cc4)c(Cl)c3)C2=O)cc1
REMARK SMILES IDX 27 1 26 2 25 3 23 4 24 5 22 7 21 8 20 9 16 10 17 11 100 12
REMARK SMILES IDX 18 13 98 14 19 15 99 16 15 17 10 18 11 19 101 20 12 21 13 22
REMARK SMILES IDX 14 23 102 24 9 25 7 26 6 27 8 29 5 30 1 31 2 32 3 33 104 34
REMARK SMILES IDX 4 35 103 36 28 37 29 38 30 39 31 40 32 41 33 42 34 44 35 45
REMARK SMILES IDX 36 46 97 47 37 48 96 49 38 50 39 51 40 52 90 53 41 54 95 55
REMARK SMILES IDX 89 56 91 57 42 58 94 59 88 60 87 61 43 63 75 64 55 65 74 66
REMARK SMILES IDX 56 67 59 68 73 69 92 70 57 71 58 72 72 74 93 75 60 76 44 77
REMARK SMILES IDX 45 78 53 79 46 80 52 81 54 82 51 83 47 84 48 85 49 86 50 87
REMARK SMILES IDX 76 88 77 89 85 90 78 91 84 92 86 93 83 94 79 95 80 96 81 97
REMARK SMILES IDX 82 98 61 99 62 100 70 101 63 102 69 103 71 104 68 105 64 106
REMARK SMILES IDX 65 107 66 108 67 109
REMARK H PARENT 25 6 6 28 32 43 91 62 59 73
REMARK Flexibility Score: inf
ROOT
ATOM      1  C   UNL     1      -5.513  -5.734 -12.095  1.00  0.00     0.021 C 
ENDROOT
BRANCH   1   2
ATOM      2  C   UNL     1      -6.462  -4.585 -12.421  1.00  0.00     0.116 C 
BRANCH   2   3
ATOM      3  N   UNL     1      -7.367  -4.276 -11.335  1.00  0.00    -0.353 N 
ATOM      4  C   UNL     1      -7.559  -3.090 -10.695  1.00  0.00     0.257 C 
ATOM      5  O   UNL     1      -8.550  -2.972  -9.971  1.00  0.00    -0.271 OA
ATOM      6  H   UNL     1      -7.919  -5.026 -11.016  1.00  0.00     0.163 HD
BRANCH   4   7
ATOM      7  C   UNL     1      -6.599  -1.917 -10.957  1.00  0.00     0.329 C 
BRANCH   7   8
ATOM      8  O   UNL     1      -5.211  -2.096 -10.755  1.00  0.00    -0.481 OA
BRANCH   8   9
ATOM      9  C   UNL     1      -4.646  -2.297  -9.525  1.00  0.00     0.157 A 
ATOM     10  C   UNL     1      -3.125  -2.783  -7.144  1.00  0.00    -0.021 A 
ATOM     11  C   UNL     1      -2.515  -2.877  -8.389  1.00  0.00     0.032 A 
ATOM     12  C   UNL     1      -4.496  -2.498  -7.113  1.00  0.00     0.032 A 
ATOM     13  C   UNL     1      -3.272  -2.649  -9.558  1.00  0.00     0.085 A 
ATOM     14  C   UNL     1      -5.232  -2.183  -8.264  1.00  0.00     0.085 A 
ATOM     15  Cl  UNL     1      -2.433  -2.788 -11.073  1.00  0.00    -0.080 Cl
ATOM     16  Cl  UNL     1      -6.799  -1.549  -7.911  1.00  0.00    -0.080 Cl
BRANCH  10  17
ATOM     17  C   UNL     1      -2.419  -3.033  -5.868  1.00  0.00     0.029 C 
ATOM     18  N   UNL     1      -3.114  -2.071  -2.507  1.00  0.00    -0.259 N 
ATOM     19  C   UNL     1      -3.909  -1.115  -3.067  1.00  0.00     0.294 C 
ATOM     20  C   UNL     1      -2.300  -2.775  -3.387  1.00  0.00     0.268 C 
ATOM     21  O   UNL     1      -4.923  -0.607  -2.596  1.00  0.00    -0.261 OA
ATOM     22  S   UNL     1      -3.333  -0.725  -4.665  1.00  0.00    -0.022 SA
ATOM     23  C   UNL     1      -2.540  -2.255  -4.776  1.00  0.00     0.083 C 
ATOM     24  O   UNL     1      -1.627  -3.741  -3.120  1.00  0.00    -0.268 OA
BRANCH  18  25
ATOM     25  C   UNL     1      -3.446  -2.620  -1.200  1.00  0.00     0.230 C 
BRANCH  25  26
ATOM     26  C   UNL     1      -3.795  -1.546  -0.166  1.00  0.00     0.244 C 
ATOM     27  N   UNL     1      -2.980  -0.471   0.046  1.00  0.00    -0.325 N 
ATOM     28  H   UNL     1      -3.450   0.348   0.322  1.00  0.00     0.169 HD
ATOM     29  O   UNL     1      -4.843  -1.619   0.485  1.00  0.00    -0.273 OA
BRANCH  27  30
ATOM     30  C   UNL     1      -1.590  -0.333  -0.061  1.00  0.00     0.041 A 
ATOM     31  C   UNL     1       2.678   0.306  -0.043  1.00  0.00     0.044 C 
ATOM     32  C   UNL     1       1.192   0.102  -0.050  1.00  0.00    -0.051 A 
ATOM     33  C   UNL     1       0.671  -1.194   0.006  1.00  0.00     0.005 A 
ATOM     34  C   UNL     1       0.309   1.183  -0.109  1.00  0.00     0.005 A 
ATOM     35  C   UNL     1      -0.709  -1.410   0.002  1.00  0.00     0.026 A 
ATOM     36  C   UNL     1      -1.072   0.967  -0.100  1.00  0.00     0.026 A 
ENDBRANCH  27  30
ENDBRANCH  25  26
ENDBRANCH  18  25
ENDBRANCH  10  17
ENDBRANCH   8   9
ENDBRANCH   7   8
ENDBRANCH   4   7
ENDBRANCH   2   3
ENDBRANCH   1   2
BRANCH   1  37
ATOM     37  C   UNL     1      -6.175  -7.047 -11.653  1.00  0.00     0.002 C 
BRANCH  37  38
ATOM     38  C   UNL     1      -7.322  -7.585 -12.523  1.00  0.00     0.002 C 
BRANCH  38  39
ATOM     39  C   UNL     1      -7.021  -7.760 -14.007  1.00  0.00     0.021 C 
BRANCH  39  40
ATOM     40  C   UNL     1      -5.933  -8.775 -14.332  1.00  0.00     0.116 C 
BRANCH  40  41
ATOM     41  N   UNL     1      -6.430 -10.096 -14.713  1.00  0.00    -0.352 N 
ATOM     42  C   UNL     1      -5.770 -11.128 -15.364  1.00  0.00     0.251 C 
ATOM     43  H   UNL     1      -7.367 -10.280 -14.472  1.00  0.00     0.163 HD
ATOM     44  O   UNL     1      -6.346 -12.149 -15.732  1.00  0.00    -0.269 OA
BRANCH  42  45
ATOM     45  C   UNL     1      -4.290 -11.079 -15.440  1.00  0.00     0.039 A 
ATOM     46  C   UNL     1      -3.612 -12.111 -14.776  1.00  0.00     0.014 A 
ATOM     47  C   UNL     1      -3.643  -9.894 -15.761  1.00  0.00     0.014 A 
ATOM     48  C   UNL     1      -2.416 -11.826 -14.136  1.00  0.00     0.010 A 
ATOM     49  C   UNL     1      -2.529  -9.565 -15.025  1.00  0.00     0.010 A 
ATOM     50  C   UNL     1      -1.977 -10.508 -14.152  1.00  0.00    -0.014 A 
BRANCH  50  51
ATOM     51  C   UNL     1      -0.986  -9.981 -13.235  1.00  0.00     0.031 A 
ATOM     52  C   UNL     1       0.382  -9.782 -13.729  1.00  0.00     0.074 A 
ATOM     53  C   UNL     1      -1.378  -9.584 -12.005  1.00  0.00     0.049 A 
ATOM     54  N   UNL     1       1.407  -9.622 -12.974  1.00  0.00    -0.248 NA
ATOM     55  C   UNL     1       0.719  -9.833 -15.150  1.00  0.00     0.031 C 
ATOM     56  C   UNL     1      -0.643  -8.773 -11.040  1.00  0.00     0.029 A 
ATOM     57  N   UNL     1      -2.478 -10.058 -11.289  1.00  0.00    -0.354 N 
ATOM     58  C   UNL     1       2.455  -9.241 -13.777  1.00  0.00     0.074 A 
ATOM     59  C   UNL     1       2.019  -9.532 -15.116  1.00  0.00     0.031 C 
ATOM     60  C   UNL     1      -1.141  -9.000  -9.812  1.00  0.00     0.029 A 
ATOM     61  C   UNL     1      -2.100 -10.084  -9.933  1.00  0.00     0.049 A 
ATOM     62  H   UNL     1      -3.350 -10.323 -11.661  1.00  0.00     0.167 HD
ATOM     63  C   UNL     1       3.495  -8.583 -13.197  1.00  0.00     0.034 A 
ATOM     64  C   UNL     1      -2.012 -11.279  -9.275  1.00  0.00     0.034 A 
ATOM     65  C   UNL     1       3.397  -8.684 -11.737  1.00  0.00     0.049 A 
ATOM     66  C   UNL     1      -0.597 -11.604  -8.844  1.00  0.00     0.074 A 
ATOM     67  C   UNL     1       2.985  -7.804 -10.751  1.00  0.00     0.029 A 
ATOM     68  N   UNL     1       3.435  -9.945 -11.149  1.00  0.00    -0.354 N 
ATOM     69  N   UNL     1       0.473 -11.048  -9.352  1.00  0.00    -0.248 NA
ATOM     70  C   UNL     1      -0.280 -12.549  -7.780  1.00  0.00     0.031 C 
ATOM     71  C   UNL     1       2.662  -8.573  -9.596  1.00  0.00     0.029 A 
ATOM     72  C   UNL     1       2.934  -9.906  -9.863  1.00  0.00     0.049 A 
ATOM     73  H   UNL     1       3.773 -10.757 -11.591  1.00  0.00     0.167 HD
ATOM     74  C   UNL     1       1.592 -11.527  -8.719  1.00  0.00     0.074 A 
ATOM     75  C   UNL     1       1.060 -12.450  -7.728  1.00  0.00     0.031 C 
ATOM     76  C   UNL     1       2.857 -11.125  -9.064  1.00  0.00     0.034 A 
BRANCH  63  77
ATOM     77  C   UNL     1       4.464  -7.650 -13.898  1.00  0.00     0.023 A 
ATOM     78  C   UNL     1       5.348  -6.892 -13.099  1.00  0.00     0.031 A 
ATOM     79  C   UNL     1       4.505  -7.348 -15.277  1.00  0.00     0.131 A 
ATOM     80  C   UNL     1       6.167  -5.887 -13.650  1.00  0.00     0.055 A 
ATOM     81  C   UNL     1       5.345  -6.372 -15.830  1.00  0.00     0.041 A 
ATOM     82  F   UNL     1       3.718  -7.941 -16.177  1.00  0.00    -0.206 F 
ATOM     83  C   UNL     1       6.175  -5.625 -15.015  1.00  0.00     0.022 A 
BRANCH  80  84
ATOM     84  S   UNL     1       7.184  -4.874 -12.543  1.00  0.00     0.124 S 
ATOM     85  O   UNL     1       6.177  -4.224 -11.711  1.00  0.00    -0.237 OA
ATOM     86  O   UNL     1       8.020  -5.874 -11.890  1.00  0.00    -0.237 OA
ATOM     87  O   UNL     1       7.894  -3.981 -13.459  1.00  0.00    -0.744 OA
ENDBRANCH  80  84
ENDBRANCH  63  77
BRANCH  64  88
ATOM     88  C   UNL     1      -3.061 -12.248  -9.723  1.00  0.00     0.023 A 
ATOM     89  C   UNL     1      -4.404 -11.826  -9.579  1.00  0.00     0.031 A 
ATOM     90  C   UNL     1      -2.792 -13.254 -10.659  1.00  0.00     0.131 A 
ATOM     91  C   UNL     1      -5.378 -12.236 -10.501  1.00  0.00     0.055 A 
ATOM     92  C   UNL     1      -3.792 -13.729 -11.521  1.00  0.00     0.041 A 
ATOM     93  F   UNL     1      -1.538 -13.687 -10.858  1.00  0.00    -0.206 F 
ATOM     94  C   UNL     1      -5.074 -13.175 -11.487  1.00  0.00     0.022 A 
BRANCH  91  95
ATOM     95  S   UNL     1      -6.944 -11.310 -10.596  1.00  0.00     0.124 S 
ATOM     96  O   UNL     1      -7.841 -12.143  -9.805  1.00  0.00    -0.237 OA
ATOM     97  O   UNL     1      -6.596 -10.018 -10.008  1.00  0.00    -0.237 OA
ATOM     98  O   UNL     1      -7.224 -11.256 -12.030  1.00  0.00    -0.744 OA
ENDBRANCH  91  95
ENDBRANCH  64  88
BRANCH  76  99
ATOM     99  C   UNL     1       4.150 -11.793  -8.626  1.00  0.00     0.023 A 
ATOM    100  C   UNL     1       4.195 -13.033  -7.977  1.00  0.00     0.031 A 
ATOM    101  C   UNL     1       5.417 -11.225  -8.922  1.00  0.00     0.131 A 
ATOM    102  C   UNL     1       5.411 -13.601  -7.558  1.00  0.00     0.055 A 
ATOM    103  C   UNL     1       6.630 -11.841  -8.598  1.00  0.00     0.041 A 
ATOM    104  F   UNL     1       5.540 -10.047  -9.550  1.00  0.00    -0.206 F 
ATOM    105  C   UNL     1       6.634 -13.029  -7.889  1.00  0.00     0.022 A 
BRANCH 102 106
ATOM    106  S   UNL     1       5.337 -15.055  -6.482  1.00  0.00     0.124 S 
ATOM    107  O   UNL     1       4.622 -14.530  -5.322  1.00  0.00    -0.237 OA
ATOM    108  O   UNL     1       4.599 -16.013  -7.298  1.00  0.00    -0.237 OA
ATOM    109  O   UNL     1       6.741 -15.384  -6.249  1.00  0.00    -0.744 OA
ENDBRANCH 102 106
ENDBRANCH  76  99
ENDBRANCH  50  51
ENDBRANCH  42  45
ENDBRANCH  40  41
ENDBRANCH  39  40
ENDBRANCH  38  39
ENDBRANCH  37  38
ENDBRANCH   1  37
TORSDOF 22
