REMARK SMILES [NH3+][C@H]1C=C[C@@H](C(=O)NC2(CC(=O)NCCCCCCNC(=O)c3ccc(-c4c5nc(c(-c6cc(S(=O)(=O)[O-])ccc6F)c6ccc([nH]6)c(-c6cc(S(=O)(=O)[O-])ccc6F)c6nc(c(-c7cc(S(=O)(=O)[O-])ccc7F)c7ccc4[nH]7)C=C6)C=C5)cc3)CCC2)C1
REMARK SMILES IDX 16 1 15 2 14 3 13 4 11 5 12 6 10 8 9 9 86 10 88 11 87 12
REMARK SMILES IDX 8 13 6 14 7 15 5 17 2 18 3 19 89 20 4 21 1 22 17 26 18 27
REMARK SMILES IDX 19 28 20 29 21 30 22 32 23 33 24 34 85 35 25 36 84 37 26 38
REMARK SMILES IDX 27 39 28 40 78 41 29 42 83 43 77 44 79 45 30 46 82 47 76 48
REMARK SMILES IDX 75 49 31 51 63 52 43 53 62 54 44 55 47 56 61 57 80 58 45 59
REMARK SMILES IDX 46 60 60 62 81 63 48 64 32 65 33 66 41 67 34 68 40 69 42 70
REMARK SMILES IDX 39 71 35 72 36 73 37 74 38 75 64 76 65 77 73 78 66 79 72 80
REMARK SMILES IDX 74 81 71 82 67 83 68 84 69 85 70 86 49 87 50 88 58 89 51 90
REMARK SMILES IDX 57 91 59 92 56 93 52 94 53 95 54 96 55 97
REMARK H PARENT 13 7 8 16 1 23 1 24 1 25 20 31 79 50 47 61
REMARK Flexibility Score: inf
ROOT
ATOM      1  C   UNL     1       9.019   3.489   0.599  1.00  0.00     0.002 C 
ENDROOT
BRANCH   1   2
ATOM      2  C   UNL     1       7.602   2.926   0.543  1.00  0.00     0.021 C 
BRANCH   2   3
ATOM      3  C   UNL     1       6.748   3.287   1.758  1.00  0.00     0.116 C 
BRANCH   3   4
ATOM      4  N   UNL     1       6.153   4.590   1.557  1.00  0.00    -0.356 N 
ATOM      5  C   UNL     1       4.878   4.881   1.185  1.00  0.00     0.222 C 
ATOM      6  O   UNL     1       4.623   6.017   0.785  1.00  0.00    -0.275 OA
ATOM      7  H   UNL     1       6.745   5.362   1.710  1.00  0.00     0.163 HD
BRANCH   5   8
ATOM      8  C   UNL     1       3.802   3.835   1.331  1.00  0.00     0.128 C 
BRANCH   8   9
ATOM      9  C   UNL     1       3.510   2.911   0.135  1.00  0.00     0.049 C 
ATOM     10  C   UNL     1       2.564   1.794   0.639  1.00  0.00     0.029 C 
ATOM     11  C   UNL     1       4.439   1.709  -0.293  1.00  0.00     0.029 C 
ATOM     12  C   UNL     1       3.782   0.872   0.809  1.00  0.00     0.005 C 
BRANCH   9  13
ATOM     13  N   UNL     1       3.218   3.723  -1.068  1.00  0.00    -0.350 N 
ATOM     14  C   UNL     1       2.191   3.932  -1.929  1.00  0.00     0.227 C 
ATOM     15  O   UNL     1       2.448   4.679  -2.885  1.00  0.00    -0.274 OA
ATOM     16  H   UNL     1       3.997   4.272  -1.315  1.00  0.00     0.164 HD
BRANCH  14  17
ATOM     17  C   UNL     1       0.796   3.322  -1.847  1.00  0.00     0.107 C 
ATOM     18  C   UNL     1      -0.430   1.260  -1.401  1.00  0.00     0.205 C 
ATOM     19  C   UNL     1      -0.546   2.237  -0.272  1.00  0.00     0.033 C 
ATOM     20  C   UNL     1       0.699   1.850  -2.269  1.00  0.00     0.087 C 
ATOM     21  C   UNL     1       0.128   3.369  -0.512  1.00  0.00    -0.012 C 
BRANCH  18  22
ATOM     22  N   UNL     1      -0.175  -0.091  -0.935  1.00  0.00    -0.352 N 
ATOM     23  H   UNL     1      -0.963  -0.411  -0.371  1.00  0.00     0.345 HD
ATOM     24  H   UNL     1       0.674  -0.102  -0.370  1.00  0.00     0.345 HD
ATOM     25  H   UNL     1      -0.059  -0.711  -1.737  1.00  0.00     0.345 HD
ENDBRANCH  18  22
ENDBRANCH  14  17
ENDBRANCH   9  13
ENDBRANCH   8   9
ENDBRANCH   5   8
ENDBRANCH   3   4
ENDBRANCH   2   3
ENDBRANCH   1   2
BRANCH   1  26
ATOM     26  C   UNL     1       9.851   2.964   1.771  1.00  0.00     0.002 C 
BRANCH  26  27
ATOM     27  C   UNL     1       9.874   1.439   1.913  1.00  0.00     0.021 C 
BRANCH  27  28
ATOM     28  C   UNL     1      10.344   0.698   0.663  1.00  0.00     0.116 C 
BRANCH  28  29
ATOM     29  N   UNL     1      11.690   1.096   0.290  1.00  0.00    -0.352 N 
ATOM     30  C   UNL     1      12.844   0.355   0.298  1.00  0.00     0.251 C 
ATOM     31  H   UNL     1      11.787   2.028  -0.012  1.00  0.00     0.163 HD
ATOM     32  O   UNL     1      13.931   0.919   0.243  1.00  0.00    -0.269 OA
BRANCH  30  33
ATOM     33  C   UNL     1      12.762  -1.118   0.383  1.00  0.00     0.039 A 
ATOM     34  C   UNL     1      13.629  -1.798   1.241  1.00  0.00     0.014 A 
ATOM     35  C   UNL     1      11.842  -1.825  -0.397  1.00  0.00     0.014 A 
ATOM     36  C   UNL     1      13.538  -3.187   1.352  1.00  0.00     0.010 A 
ATOM     37  C   UNL     1      11.704  -3.199  -0.230  1.00  0.00     0.010 A 
ATOM     38  C   UNL     1      12.556  -3.896   0.640  1.00  0.00    -0.014 A 
BRANCH  38  39
ATOM     39  C   UNL     1      12.418  -5.369   0.781  1.00  0.00     0.031 A 
ATOM     40  C   UNL     1      12.662  -6.264  -0.404  1.00  0.00     0.074 A 
ATOM     41  C   UNL     1      12.022  -5.892   1.958  1.00  0.00     0.049 A 
ATOM     42  N   UNL     1      12.525  -7.561  -0.503  1.00  0.00    -0.248 NA
ATOM     43  C   UNL     1      13.088  -5.608  -1.650  1.00  0.00     0.031 C 
ATOM     44  C   UNL     1      11.723  -5.120   3.167  1.00  0.00     0.029 A 
ATOM     45  N   UNL     1      11.797  -7.193   2.333  1.00  0.00    -0.354 N 
ATOM     46  C   UNL     1      12.839  -7.876  -1.821  1.00  0.00     0.074 A 
ATOM     47  C   UNL     1      13.107  -6.625  -2.498  1.00  0.00     0.031 C 
ATOM     48  C   UNL     1      11.380  -5.964   4.154  1.00  0.00     0.029 A 
ATOM     49  C   UNL     1      11.384  -7.330   3.639  1.00  0.00     0.049 A 
ATOM     50  H   UNL     1      11.918  -7.957   1.725  1.00  0.00     0.167 HD
ATOM     51  C   UNL     1      12.920  -9.097  -2.406  1.00  0.00     0.034 A 
ATOM     52  C   UNL     1      11.035  -8.428   4.337  1.00  0.00     0.034 A 
ATOM     53  C   UNL     1      12.660 -10.334  -1.712  1.00  0.00     0.049 A 
ATOM     54  C   UNL     1      11.098  -9.773   3.655  1.00  0.00     0.074 A 
ATOM     55  C   UNL     1      12.762 -11.629  -2.191  1.00  0.00     0.029 A 
ATOM     56  N   UNL     1      12.237 -10.434  -0.392  1.00  0.00    -0.354 N 
ATOM     57  N   UNL     1      11.445 -10.057   2.420  1.00  0.00    -0.248 NA
ATOM     58  C   UNL     1      10.732 -10.944   4.462  1.00  0.00     0.031 C 
ATOM     59  C   UNL     1      12.331 -12.504  -1.188  1.00  0.00     0.029 A 
ATOM     60  C   UNL     1      12.041 -11.764  -0.053  1.00  0.00     0.049 A 
ATOM     61  H   UNL     1      12.098  -9.671   0.215  1.00  0.00     0.167 HD
ATOM     62  C   UNL     1      11.372 -11.444   2.316  1.00  0.00     0.074 A 
ATOM     63  C   UNL     1      10.962 -11.936   3.615  1.00  0.00     0.031 C 
ATOM     64  C   UNL     1      11.625 -12.239   1.246  1.00  0.00     0.034 A 
BRANCH  51  65
ATOM     65  C   UNL     1      13.280  -9.146  -3.872  1.00  0.00     0.023 A 
ATOM     66  C   UNL     1      14.519  -8.676  -4.344  1.00  0.00     0.031 A 
ATOM     67  C   UNL     1      12.368  -9.653  -4.814  1.00  0.00     0.131 A 
ATOM     68  C   UNL     1      14.780  -8.653  -5.723  1.00  0.00     0.055 A 
ATOM     69  C   UNL     1      12.669  -9.706  -6.177  1.00  0.00     0.041 A 
ATOM     70  F   UNL     1      11.161 -10.096  -4.428  1.00  0.00    -0.206 F 
ATOM     71  C   UNL     1      13.875  -9.190  -6.640  1.00  0.00     0.022 A 
BRANCH  68  72
ATOM     72  S   UNL     1      16.257  -7.778  -6.308  1.00  0.00     0.124 S 
ATOM     73  O   UNL     1      16.023  -6.430  -5.794  1.00  0.00    -0.237 OA
ATOM     74  O   UNL     1      17.338  -8.524  -5.675  1.00  0.00    -0.237 OA
ATOM     75  O   UNL     1      16.177  -7.905  -7.761  1.00  0.00    -0.744 OA
ENDBRANCH  68  72
ENDBRANCH  51  65
BRANCH  52  76
ATOM     76  C   UNL     1      10.582  -8.315   5.754  1.00  0.00     0.023 A 
ATOM     77  C   UNL     1      11.305  -8.917   6.796  1.00  0.00     0.031 A 
ATOM     78  C   UNL     1       9.390  -7.644   6.083  1.00  0.00     0.131 A 
ATOM     79  C   UNL     1      10.804  -8.886   8.106  1.00  0.00     0.055 A 
ATOM     80  C   UNL     1       8.926  -7.565   7.397  1.00  0.00     0.041 A 
ATOM     81  F   UNL     1       8.660  -7.047   5.128  1.00  0.00    -0.206 F 
ATOM     82  C   UNL     1       9.627  -8.202   8.416  1.00  0.00     0.022 A 
BRANCH  79  83
ATOM     83  S   UNL     1      11.662  -9.842   9.386  1.00  0.00     0.124 S 
ATOM     84  O   UNL     1      11.634 -11.186   8.820  1.00  0.00    -0.237 OA
ATOM     85  O   UNL     1      12.966  -9.189   9.428  1.00  0.00    -0.237 OA
ATOM     86  O   UNL     1      10.830  -9.646  10.571  1.00  0.00    -0.744 OA
ENDBRANCH  79  83
ENDBRANCH  52  76
BRANCH  64  87
ATOM     87  C   UNL     1      11.513 -13.730   1.454  1.00  0.00     0.023 A 
ATOM     88  C   UNL     1      10.281 -14.352   1.720  1.00  0.00     0.031 A 
ATOM     89  C   UNL     1      12.661 -14.540   1.383  1.00  0.00     0.131 A 
ATOM     90  C   UNL     1      10.233 -15.734   1.959  1.00  0.00     0.055 A 
ATOM     91  C   UNL     1      12.597 -15.923   1.558  1.00  0.00     0.041 A 
ATOM     92  F   UNL     1      13.864 -14.000   1.134  1.00  0.00    -0.206 F 
ATOM     93  C   UNL     1      11.380 -16.526   1.860  1.00  0.00     0.022 A 
BRANCH  90  94
ATOM     94  S   UNL     1       8.663 -16.473   2.487  1.00  0.00     0.124 S 
ATOM     95  O   UNL     1       8.377 -15.735   3.713  1.00  0.00    -0.237 OA
ATOM     96  O   UNL     1       7.787 -16.189   1.354  1.00  0.00    -0.237 OA
ATOM     97  O   UNL     1       8.994 -17.884   2.675  1.00  0.00    -0.744 OA
ENDBRANCH  90  94
ENDBRANCH  64  87
ENDBRANCH  38  39
ENDBRANCH  30  33
ENDBRANCH  28  29
ENDBRANCH  27  28
ENDBRANCH  26  27
ENDBRANCH   1  26
TORSDOF 20
