REMARK SMILES O=C(NCCCCCCNC(=O)c1ccc([C@@H]2CC(O)=Nc3c2ncn3-c2cccc(Cl)c2)cc1)c1ccc(-c2c3nc(c(-c4cc(S(=O)(=O)[O-])ccc4F)c4ccc([nH]4)c(-c4cc(S(=O)(=O)[O-])ccc4F)c4nc(c(-c5cc(S(=O)(=O)[O-])ccc5F)c5ccc2[nH]5)C=C4)C=C3)cc1
REMARK SMILES IDX 6 1 5 2 4 3 3 4 1 5 2 6 36 8 37 9 98 10 38 11 97 12 39 13
REMARK SMILES IDX 40 14 41 15 91 16 42 17 96 18 90 19 92 20 43 21 95 22 89 23
REMARK SMILES IDX 88 24 44 26 76 27 56 28 75 29 57 30 60 31 74 32 93 33 58 34
REMARK SMILES IDX 59 35 73 37 94 38 61 39 45 40 46 41 54 42 47 43 53 44 55 45
REMARK SMILES IDX 52 46 48 47 49 48 50 49 51 50 77 51 78 52 86 53 79 54 85 55
REMARK SMILES IDX 87 56 84 57 80 58 81 59 82 60 83 61 62 62 63 63 71 64 64 65
REMARK SMILES IDX 70 66 72 67 69 68 65 69 66 70 67 71 68 72 7 73 8 74 9 75
REMARK SMILES IDX 10 76 11 77 12 79 13 80 14 81 35 82 15 83 34 84 16 85 17 86
REMARK SMILES IDX 18 87 23 88 19 89 22 90 24 91 21 92 26 93 25 94 20 95 27 97
REMARK SMILES IDX 28 98 33 99 29 100 31 101 30 102 32 103
REMARK H PARENT 3 7 92 25 60 36 10 78 20 96
REMARK Flexibility Score: inf
ROOT
ATOM      1  C   UNL     1       4.185  -0.348   3.546  1.00  0.00     0.002 C 
ENDROOT
BRANCH   1   2
ATOM      2  C   UNL     1       4.726   0.376   2.307  1.00  0.00     0.021 C 
BRANCH   2   3
ATOM      3  C   UNL     1       4.562  -0.378   0.989  1.00  0.00     0.116 C 
BRANCH   3   4
ATOM      4  N   UNL     1       3.192  -0.697   0.643  1.00  0.00    -0.352 N 
ATOM      5  O   UNL     1       1.129  -0.661  -0.137  1.00  0.00    -0.269 OA
ATOM      6  C   UNL     1       2.143   0.000   0.108  1.00  0.00     0.251 C 
ATOM      7  H   UNL     1       2.962  -1.634   0.839  1.00  0.00     0.163 HD
BRANCH   6   8
ATOM      8  C   UNL     1       2.123   1.468  -0.158  1.00  0.00     0.039 A 
ATOM      9  C   UNL     1       3.240   2.297  -0.239  1.00  0.00     0.014 A 
ATOM     10  C   UNL     1       0.852   2.041  -0.373  1.00  0.00     0.014 A 
ATOM     11  C   UNL     1       3.092   3.663  -0.492  1.00  0.00     0.010 A 
ATOM     12  C   UNL     1       0.699   3.403  -0.637  1.00  0.00     0.010 A 
ATOM     13  C   UNL     1       1.823   4.221  -0.691  1.00  0.00    -0.014 A 
BRANCH  13  14
ATOM     14  C   UNL     1       1.749   5.612  -1.145  1.00  0.00     0.031 A 
ATOM     15  C   UNL     1       2.321   5.864  -2.498  1.00  0.00     0.074 A 
ATOM     16  C   UNL     1       1.107   6.622  -0.524  1.00  0.00     0.049 A 
ATOM     17  N   UNL     1       3.357   6.574  -2.804  1.00  0.00    -0.248 NA
ATOM     18  C   UNL     1       1.716   5.169  -3.642  1.00  0.00     0.031 C 
ATOM     19  C   UNL     1       0.226   6.547   0.639  1.00  0.00     0.029 A 
ATOM     20  N   UNL     1       1.046   7.943  -0.881  1.00  0.00    -0.354 N 
ATOM     21  C   UNL     1       3.426   6.587  -4.195  1.00  0.00     0.074 A 
ATOM     22  C   UNL     1       2.485   5.595  -4.646  1.00  0.00     0.031 C 
ATOM     23  C   UNL     1      -0.434   7.721   0.771  1.00  0.00     0.029 A 
ATOM     24  C   UNL     1       0.066   8.669  -0.215  1.00  0.00     0.049 A 
ATOM     25  H   UNL     1       1.645   8.343  -1.552  1.00  0.00     0.167 HD
ATOM     26  C   UNL     1       4.126   7.542  -4.871  1.00  0.00     0.034 A 
ATOM     27  C   UNL     1      -0.345   9.938  -0.478  1.00  0.00     0.034 A 
ATOM     28  C   UNL     1       5.042   8.240  -3.999  1.00  0.00     0.049 A 
ATOM     29  C   UNL     1       0.753  10.627  -1.197  1.00  0.00     0.074 A 
ATOM     30  C   UNL     1       6.087   7.857  -3.180  1.00  0.00     0.029 A 
ATOM     31  N   UNL     1       4.737   9.528  -3.623  1.00  0.00    -0.354 N 
ATOM     32  N   UNL     1       1.898  10.930  -0.651  1.00  0.00    -0.248 NA
ATOM     33  C   UNL     1       0.743  10.632  -2.651  1.00  0.00     0.031 C 
ATOM     34  C   UNL     1       5.999   8.717  -2.046  1.00  0.00     0.029 A 
ATOM     35  C   UNL     1       4.946   9.605  -2.269  1.00  0.00     0.049 A 
ATOM     36  H   UNL     1       4.429  10.255  -4.212  1.00  0.00     0.167 HD
ATOM     37  C   UNL     1       2.834  10.739  -1.653  1.00  0.00     0.074 A 
ATOM     38  C   UNL     1       2.057  10.672  -2.886  1.00  0.00     0.031 C 
ATOM     39  C   UNL     1       4.119  10.377  -1.362  1.00  0.00     0.034 A 
BRANCH  26  40
ATOM     40  C   UNL     1       3.784   8.078  -6.245  1.00  0.00     0.023 A 
ATOM     41  C   UNL     1       4.647   9.046  -6.799  1.00  0.00     0.031 A 
ATOM     42  C   UNL     1       2.540   7.924  -6.897  1.00  0.00     0.131 A 
ATOM     43  C   UNL     1       4.230   9.873  -7.855  1.00  0.00     0.055 A 
ATOM     44  C   UNL     1       2.161   8.696  -8.000  1.00  0.00     0.041 A 
ATOM     45  F   UNL     1       1.589   7.096  -6.450  1.00  0.00    -0.206 F 
ATOM     46  C   UNL     1       2.991   9.702  -8.464  1.00  0.00     0.022 A 
BRANCH  43  47
ATOM     47  S   UNL     1       5.256  11.305  -8.280  1.00  0.00     0.124 S 
ATOM     48  O   UNL     1       5.369  11.976  -6.989  1.00  0.00    -0.237 OA
ATOM     49  O   UNL     1       6.468  10.669  -8.784  1.00  0.00    -0.237 OA
ATOM     50  O   UNL     1       4.458  12.009  -9.281  1.00  0.00    -0.744 OA
ENDBRANCH  43  47
ENDBRANCH  26  40
BRANCH  27  51
ATOM     51  C   UNL     1      -1.716  10.502  -0.351  1.00  0.00     0.023 A 
ATOM     52  C   UNL     1      -1.970  11.890  -0.311  1.00  0.00     0.031 A 
ATOM     53  C   UNL     1      -2.838   9.659  -0.513  1.00  0.00     0.131 A 
ATOM     54  C   UNL     1      -3.293  12.377  -0.427  1.00  0.00     0.055 A 
ATOM     55  C   UNL     1      -4.143  10.143  -0.614  1.00  0.00     0.041 A 
ATOM     56  F   UNL     1      -2.695   8.333  -0.669  1.00  0.00    -0.206 F 
ATOM     57  C   UNL     1      -4.376  11.508  -0.581  1.00  0.00     0.022 A 
BRANCH  54  58
ATOM     58  S   UNL     1      -3.617  14.169  -0.498  1.00  0.00     0.124 S 
ATOM     59  O   UNL     1      -3.370  14.584   0.878  1.00  0.00    -0.237 OA
ATOM     60  O   UNL     1      -2.657  14.624  -1.497  1.00  0.00    -0.237 OA
ATOM     61  O   UNL     1      -5.017  14.245  -0.920  1.00  0.00    -0.744 OA
ENDBRANCH  54  58
ENDBRANCH  27  51
BRANCH  39  62
ATOM     62  C   UNL     1       4.629  10.551   0.052  1.00  0.00     0.023 A 
ATOM     63  C   UNL     1       4.016  10.011   1.204  1.00  0.00     0.031 A 
ATOM     64  C   UNL     1       5.866  11.203   0.217  1.00  0.00     0.131 A 
ATOM     65  C   UNL     1       4.635  10.149   2.461  1.00  0.00     0.055 A 
ATOM     66  C   UNL     1       6.486  11.319   1.460  1.00  0.00     0.041 A 
ATOM     67  F   UNL     1       6.515  11.713  -0.843  1.00  0.00    -0.206 F 
ATOM     68  C   UNL     1       5.867  10.798   2.590  1.00  0.00     0.022 A 
BRANCH  65  69
ATOM     69  S   UNL     1       3.838   9.493   3.961  1.00  0.00     0.124 S 
ATOM     70  O   UNL     1       2.458   9.947   3.844  1.00  0.00    -0.237 OA
ATOM     71  O   UNL     1       4.053   8.054   3.826  1.00  0.00    -0.237 OA
ATOM     72  O   UNL     1       4.594  10.119   5.048  1.00  0.00    -0.744 OA
ENDBRANCH  65  69
ENDBRANCH  39  62
ENDBRANCH  13  14
ENDBRANCH   6   8
ENDBRANCH   3   4
ENDBRANCH   2   3
ENDBRANCH   1   2
BRANCH   1  73
ATOM     73  C   UNL     1       4.715  -1.765   3.788  1.00  0.00     0.002 C 
BRANCH  73  74
ATOM     74  C   UNL     1       6.239  -1.910   3.837  1.00  0.00     0.021 C 
BRANCH  74  75
ATOM     75  C   UNL     1       6.940  -1.074   4.905  1.00  0.00     0.116 C 
BRANCH  75  76
ATOM     76  N   UNL     1       6.611  -1.513   6.253  1.00  0.00    -0.352 N 
ATOM     77  C   UNL     1       7.454  -1.917   7.256  1.00  0.00     0.251 C 
ATOM     78  H   UNL     1       5.652  -1.520   6.476  1.00  0.00     0.163 HD
ATOM     79  O   UNL     1       7.004  -2.423   8.288  1.00  0.00    -0.269 OA
BRANCH  77  80
ATOM     80  C   UNL     1       8.914  -1.778   7.094  1.00  0.00     0.039 A 
ATOM     81  C   UNL     1       9.721  -2.893   7.325  1.00  0.00     0.014 A 
ATOM     82  C   UNL     1       9.488  -0.556   6.730  1.00  0.00     0.014 A 
ATOM     83  C   UNL     1      11.098  -2.802   7.123  1.00  0.00     0.005 A 
ATOM     84  C   UNL     1      10.865  -0.470   6.517  1.00  0.00     0.005 A 
ATOM     85  C   UNL     1      11.687  -1.596   6.700  1.00  0.00    -0.038 A 
BRANCH  85  86
ATOM     86  C   UNL     1      13.191  -1.540   6.496  1.00  0.00     0.081 C 
ATOM     87  C   UNL     1      13.866  -0.470   7.382  1.00  0.00     0.111 C 
ATOM     88  C   UNL     1      13.427  -1.284   5.052  1.00  0.00     0.093 A 
ATOM     89  C   UNL     1      14.438   0.723   6.634  1.00  0.00     0.188 C 
ATOM     90  C   UNL     1      14.145  -0.190   4.628  1.00  0.00     0.164 A 
ATOM     91  N   UNL     1      12.970  -2.028   3.996  1.00  0.00    -0.238 NA
ATOM     92  N   UNL     1      14.637   0.836   5.361  1.00  0.00    -0.198 NA
ATOM     93  N   UNL     1      14.137  -0.258   3.248  1.00  0.00    -0.283 N 
ATOM     94  C   UNL     1      13.359  -1.354   2.930  1.00  0.00     0.206 A 
BRANCH  89  95
ATOM     95  O   UNL     1      14.821   1.740   7.429  1.00  0.00    -0.496 OA
ATOM     96  H   UNL     1      14.689   1.685   8.356  1.00  0.00     0.294 HD
ENDBRANCH  89  95
BRANCH  93  97
ATOM     97  C   UNL     1      14.791   0.614   2.349  1.00  0.00     0.050 A 
ATOM     98  C   UNL     1      14.155   1.029   1.175  1.00  0.00     0.027 A 
ATOM     99  C   UNL     1      16.077   1.077   2.661  1.00  0.00     0.047 A 
ATOM    100  C   UNL     1      14.791   1.953   0.341  1.00  0.00     0.004 A 
ATOM    101  C   UNL     1      16.720   1.956   1.795  1.00  0.00     0.043 A 
ATOM    102  C   UNL     1      16.076   2.411   0.646  1.00  0.00     0.020 A 
ATOM    103  Cl  UNL     1      18.326   2.471   2.140  1.00  0.00    -0.084 Cl
ENDBRANCH  93  97
ENDBRANCH  85  86
ENDBRANCH  77  80
ENDBRANCH  75  76
ENDBRANCH  74  75
ENDBRANCH  73  74
ENDBRANCH   1  73
TORSDOF 19
