REMARK SMILES O=C1C[C@@H](c2cccc(O)c2)c2c(c(C(=O)NCCCCCCNC(=O)c3ccc(-c4c5nc(c(-c6cc(S(=O)(=O)[O-])ccc6F)c6ccc([nH]6)c(-c6cc(S(=O)(=O)[O-])ccc6F)c6nc(c(-c7cc(S(=O)(=O)[O-])ccc7F)c7ccc4[nH]7)C=C6)C=C5)cc3)cn2-c2cccc(C(F)(F)F)c2)N1
REMARK SMILES IDX 21 1 20 2 19 3 18 4 17 5 15 6 16 7 14 9 1 10 2 11 3 12
REMARK SMILES IDX 102 13 4 14 13 15 12 17 91 18 90 19 5 20 6 21 11 22 7 23
REMARK SMILES IDX 9 24 8 25 10 26 92 28 93 29 101 30 94 31 96 32 95 33 97 34
REMARK SMILES IDX 98 35 99 36 100 37 22 38 23 39 24 40 25 41 26 43 27 44 28 45
REMARK SMILES IDX 89 46 29 47 88 48 30 49 31 50 32 51 82 52 33 53 87 54 81 55
REMARK SMILES IDX 83 56 34 57 86 58 80 59 79 60 35 62 67 63 47 64 66 65 48 66
REMARK SMILES IDX 51 67 65 68 84 69 49 70 50 71 64 73 85 74 52 75 36 76 37 77
REMARK SMILES IDX 45 78 38 79 44 80 46 81 43 82 39 83 40 84 41 85 42 86 68 87
REMARK SMILES IDX 69 88 77 89 70 90 76 91 78 92 75 93 71 94 72 95 73 96 74 97
REMARK SMILES IDX 53 98 54 99 62 100 55 101 61 102 63 103 60 104 56 105 57 106
REMARK SMILES IDX 58 107 59 108
REMARK H PARENT 17 8 102 16 10 27 24 42 83 61 51 72
REMARK Flexibility Score: inf
ROOT
ATOM      1  C   UNL     1       7.954  -6.178   4.429  1.00  0.00     0.002 C 
ENDROOT
BRANCH   1   2
ATOM      2  C   UNL     1       6.539  -5.771   4.863  1.00  0.00     0.002 C 
BRANCH   2   3
ATOM      3  C   UNL     1       6.240  -4.273   4.883  1.00  0.00     0.021 C 
BRANCH   3   4
ATOM      4  C   UNL     1       6.599  -3.514   3.610  1.00  0.00     0.116 C 
BRANCH   4   5
ATOM      5  N   UNL     1       5.721  -3.810   2.498  1.00  0.00    -0.352 N 
ATOM      6  C   UNL     1       4.971  -3.006   1.676  1.00  0.00     0.254 C 
ATOM      7  O   UNL     1       4.255  -3.566   0.846  1.00  0.00    -0.269 OA
ATOM      8  H   UNL     1       5.647  -4.770   2.292  1.00  0.00     0.163 HD
BRANCH   6   9
ATOM      9  C   UNL     1       4.979  -1.547   1.782  1.00  0.00     0.081 A 
ATOM     10  O   UNL     1       1.421  -0.274  -1.157  1.00  0.00    -0.275 OA
ATOM     11  C   UNL     1       2.362   0.008  -0.416  1.00  0.00     0.225 C 
ATOM     12  C   UNL     1       2.941   1.419  -0.360  1.00  0.00     0.115 C 
ATOM     13  N   UNL     1       3.032  -0.965   0.284  1.00  0.00    -0.324 N 
ATOM     14  C   UNL     1       3.555   1.806   1.001  1.00  0.00     0.078 C 
ATOM     15  C   UNL     1       4.051  -0.673   1.160  1.00  0.00     0.076 A 
ATOM     16  H   UNL     1       2.773  -1.906   0.154  1.00  0.00     0.170 HD
ATOM     17  C   UNL     1       4.298   0.624   1.550  1.00  0.00     0.055 A 
ATOM     18  N   UNL     1       5.380   0.600   2.404  1.00  0.00    -0.317 N 
ATOM     19  C   UNL     1       5.897  -0.687   2.362  1.00  0.00     0.107 A 
BRANCH  14  20
ATOM     20  C   UNL     1       2.501   2.362   1.940  1.00  0.00    -0.035 A 
ATOM     21  C   UNL     1       1.483   1.561   2.483  1.00  0.00     0.005 A 
ATOM     22  C   UNL     1       2.576   3.709   2.332  1.00  0.00     0.050 A 
ATOM     23  C   UNL     1       0.597   2.082   3.429  1.00  0.00     0.004 A 
ATOM     24  C   UNL     1       1.712   4.205   3.300  1.00  0.00     0.115 A 
ATOM     25  C   UNL     1       0.721   3.403   3.853  1.00  0.00     0.046 A 
BRANCH  24  26
ATOM     26  O   UNL     1       1.908   5.485   3.726  1.00  0.00    -0.508 OA
ATOM     27  H   UNL     1       1.345   5.853   4.379  1.00  0.00     0.293 HD
ENDBRANCH  24  26
ENDBRANCH  14  20
BRANCH  18  28
ATOM     28  C   UNL     1       5.910   1.611   3.249  1.00  0.00     0.046 A 
ATOM     29  C   UNL     1       7.298   1.748   3.373  1.00  0.00     0.026 A 
ATOM     30  C   UNL     1       5.064   2.346   4.087  1.00  0.00     0.039 A 
ATOM     31  C   UNL     1       7.834   2.647   4.295  1.00  0.00     0.003 A 
ATOM     32  C   UNL     1       5.596   3.249   5.026  1.00  0.00     0.058 A 
ATOM     33  C   UNL     1       6.989   3.397   5.112  1.00  0.00     0.013 A 
BRANCH  32  34
ATOM     34  C   UNL     1       4.705   4.040   5.957  1.00  0.00     0.416 C 
ATOM     35  F   UNL     1       5.095   3.935   7.258  1.00  0.00    -0.166 F 
ATOM     36  F   UNL     1       4.721   5.373   5.675  1.00  0.00    -0.166 F 
ATOM     37  F   UNL     1       3.397   3.667   5.931  1.00  0.00    -0.166 F 
ENDBRANCH  32  34
ENDBRANCH  18  28
ENDBRANCH   6   9
ENDBRANCH   4   5
ENDBRANCH   3   4
ENDBRANCH   2   3
ENDBRANCH   1   2
BRANCH   1  38
ATOM     38  C   UNL     1       9.133  -5.462   5.108  1.00  0.00     0.021 C 
BRANCH  38  39
ATOM     39  C   UNL     1       9.262  -5.727   6.600  1.00  0.00     0.116 C 
BRANCH  39  40
ATOM     40  N   UNL     1       9.548  -7.132   6.894  1.00  0.00    -0.352 N 
ATOM     41  C   UNL     1       9.605  -7.774   8.119  1.00  0.00     0.251 C 
ATOM     42  H   UNL     1       9.726  -7.700   6.110  1.00  0.00     0.163 HD
ATOM     43  O   UNL     1      10.236  -8.816   8.238  1.00  0.00    -0.269 OA
BRANCH  41  44
ATOM     44  C   UNL     1       8.882  -7.192   9.266  1.00  0.00     0.039 A 
ATOM     45  C   UNL     1       9.347  -7.296  10.582  1.00  0.00     0.014 A 
ATOM     46  C   UNL     1       7.693  -6.528   8.992  1.00  0.00     0.014 A 
ATOM     47  C   UNL     1       8.623  -6.676  11.601  1.00  0.00     0.010 A 
ATOM     48  C   UNL     1       7.112  -5.745   9.946  1.00  0.00     0.010 A 
ATOM     49  C   UNL     1       7.504  -5.902  11.266  1.00  0.00    -0.014 A 
BRANCH  49  50
ATOM     50  C   UNL     1       6.740  -5.137  12.240  1.00  0.00     0.031 A 
ATOM     51  C   UNL     1       7.499  -4.007  12.829  1.00  0.00     0.074 A 
ATOM     52  C   UNL     1       5.392  -5.221  12.313  1.00  0.00     0.049 A 
ATOM     53  N   UNL     1       8.010  -3.926  14.011  1.00  0.00    -0.248 NA
ATOM     54  C   UNL     1       7.937  -2.930  11.922  1.00  0.00     0.031 C 
ATOM     55  C   UNL     1       4.487  -6.027  11.485  1.00  0.00     0.029 A 
ATOM     56  N   UNL     1       4.526  -4.489  13.059  1.00  0.00    -0.354 N 
ATOM     57  C   UNL     1       8.571  -2.655  14.080  1.00  0.00     0.074 A 
ATOM     58  C   UNL     1       8.769  -2.256  12.716  1.00  0.00     0.031 C 
ATOM     59  C   UNL     1       3.221  -5.567  11.616  1.00  0.00     0.029 A 
ATOM     60  C   UNL     1       3.197  -4.534  12.638  1.00  0.00     0.049 A 
ATOM     61  H   UNL     1       4.815  -3.965  13.841  1.00  0.00     0.167 HD
ATOM     62  C   UNL     1       8.514  -1.919  15.228  1.00  0.00     0.034 A 
ATOM     63  C   UNL     1       2.176  -3.741  13.071  1.00  0.00     0.034 A 
ATOM     64  C   UNL     1       8.092  -2.756  16.340  1.00  0.00     0.049 A 
ATOM     65  C   UNL     1       2.616  -3.163  14.370  1.00  0.00     0.074 A 
ATOM     66  C   UNL     1       8.546  -3.945  16.882  1.00  0.00     0.029 A 
ATOM     67  N   UNL     1       6.793  -2.627  16.794  1.00  0.00    -0.354 N 
ATOM     68  N   UNL     1       2.824  -3.881  15.440  1.00  0.00    -0.248 NA
ATOM     69  C   UNL     1       3.324  -1.890  14.337  1.00  0.00     0.031 C 
ATOM     70  C   UNL     1       7.364  -4.696  17.160  1.00  0.00     0.029 A 
ATOM     71  C   UNL     1       6.258  -3.889  16.889  1.00  0.00     0.049 A 
ATOM     72  H   UNL     1       6.335  -1.783  17.012  1.00  0.00     0.167 HD
ATOM     73  C   UNL     1       3.997  -3.383  15.988  1.00  0.00     0.074 A 
ATOM     74  C   UNL     1       4.209  -2.099  15.318  1.00  0.00     0.031 C 
ATOM     75  C   UNL     1       4.849  -4.187  16.695  1.00  0.00     0.034 A 
BRANCH  62  76
ATOM     76  C   UNL     1       8.425  -0.401  15.295  1.00  0.00     0.023 A 
ATOM     77  C   UNL     1       8.249   0.156  16.576  1.00  0.00     0.031 A 
ATOM     78  C   UNL     1       8.232   0.497  14.220  1.00  0.00     0.131 A 
ATOM     79  C   UNL     1       7.749   1.457  16.744  1.00  0.00     0.055 A 
ATOM     80  C   UNL     1       7.797   1.816  14.394  1.00  0.00     0.041 A 
ATOM     81  F   UNL     1       8.383   0.158  12.937  1.00  0.00    -0.206 F 
ATOM     82  C   UNL     1       7.511   2.292  15.659  1.00  0.00     0.022 A 
BRANCH  79  83
ATOM     83  S   UNL     1       7.235   1.957  18.404  1.00  0.00     0.124 S 
ATOM     84  O   UNL     1       6.306   0.886  18.748  1.00  0.00    -0.237 OA
ATOM     85  O   UNL     1       8.507   1.963  19.118  1.00  0.00    -0.237 OA
ATOM     86  O   UNL     1       6.632   3.269  18.189  1.00  0.00    -0.744 OA
ENDBRANCH  79  83
ENDBRANCH  62  76
BRANCH  63  87
ATOM     87  C   UNL     1       1.002  -3.219  12.306  1.00  0.00     0.023 A 
ATOM     88  C   UNL     1      -0.130  -2.648  12.936  1.00  0.00     0.031 A 
ATOM     89  C   UNL     1       1.094  -3.041  10.907  1.00  0.00     0.131 A 
ATOM     90  C   UNL     1      -1.093  -1.936  12.178  1.00  0.00     0.055 A 
ATOM     91  C   UNL     1       0.141  -2.337  10.164  1.00  0.00     0.041 A 
ATOM     92  F   UNL     1       2.165  -3.467  10.219  1.00  0.00    -0.206 F 
ATOM     93  C   UNL     1      -0.951  -1.770  10.799  1.00  0.00     0.022 A 
BRANCH  90  94
ATOM     94  S   UNL     1      -2.504  -1.107  12.989  1.00  0.00     0.124 S 
ATOM     95  O   UNL     1      -3.377  -2.229  13.313  1.00  0.00    -0.237 OA
ATOM     96  O   UNL     1      -1.871  -0.429  14.114  1.00  0.00    -0.237 OA
ATOM     97  O   UNL     1      -3.015  -0.212  11.949  1.00  0.00    -0.744 OA
ENDBRANCH  90  94
ENDBRANCH  63  87
BRANCH  75  98
ATOM     98  C   UNL     1       4.365  -5.560  17.131  1.00  0.00     0.023 A 
ATOM     99  C   UNL     1       3.833  -6.553  16.273  1.00  0.00     0.031 A 
ATOM    100  C   UNL     1       4.558  -5.909  18.480  1.00  0.00     0.131 A 
ATOM    101  C   UNL     1       3.503  -7.827  16.783  1.00  0.00     0.055 A 
ATOM    102  C   UNL     1       4.254  -7.177  18.974  1.00  0.00     0.041 A 
ATOM    103  F   UNL     1       5.081  -5.024  19.344  1.00  0.00    -0.206 F 
ATOM    104  C   UNL     1       3.717  -8.138  18.129  1.00  0.00     0.022 A 
BRANCH 101 105
ATOM    105  S   UNL     1       2.751  -9.100  15.715  1.00  0.00     0.124 S 
ATOM    106  O   UNL     1       1.754  -8.363  14.949  1.00  0.00    -0.237 OA
ATOM    107  O   UNL     1       3.900  -9.594  14.960  1.00  0.00    -0.237 OA
ATOM    108  O   UNL     1       2.197 -10.059  16.672  1.00  0.00    -0.744 OA
ENDBRANCH 101 105
ENDBRANCH  75  98
ENDBRANCH  49  50
ENDBRANCH  41  44
ENDBRANCH  39  40
ENDBRANCH  38  39
ENDBRANCH   1  38
TORSDOF 20
