REMARK SMILES CC(C)OCCS(=O)(=O)N[C@@H]1CCCCC[C@H]1C(=O)NCCCCCCNC(=O)c1ccc(-c2c3nc(c(-c4cc(S(=O)(=O)[O-])ccc4F)c4ccc([nH]4)c(-c4cc(S(=O)(=O)[O-])ccc4F)c4nc(c(-c5cc(S(=O)(=O)[O-])ccc5F)c5ccc2[nH]5)C=C4)C=C3)cc1
REMARK SMILES IDX 21 1 20 2 18 3 19 4 17 6 11 7 10 8 7 10 8 11 9 12 6 13 5 14
REMARK SMILES IDX 4 15 2 16 1 17 3 18 12 19 13 20 14 21 16 23 15 24 22 26
REMARK SMILES IDX 23 27 24 28 25 29 26 30 27 31 28 32 29 34 30 35 31 36 92 37
REMARK SMILES IDX 32 38 91 39 33 40 34 41 35 42 85 43 36 44 90 45 84 46 86 47
REMARK SMILES IDX 37 48 89 49 83 50 82 51 38 53 70 54 50 55 69 56 51 57 54 58
REMARK SMILES IDX 68 59 87 60 52 61 53 62 67 64 88 65 55 66 39 67 40 68 48 69
REMARK SMILES IDX 41 70 47 71 49 72 46 73 42 74 43 75 44 76 45 77 71 78 72 79
REMARK SMILES IDX 80 80 73 81 79 82 81 83 78 84 74 85 75 86 76 87 77 88 56 89
REMARK SMILES IDX 57 90 65 91 58 92 64 93 66 94 63 95 59 96 60 97 61 98 62 99
REMARK H PARENT 20 5 10 9 27 33 86 52 54 63
REMARK Flexibility Score: 90.00
ROOT
ATOM      1  C   UNL     1      -1.186   2.609  -1.935  1.00  0.00     0.116 C 
ENDROOT
BRANCH   1   2
ATOM      2  N   UNL     1      -1.599   1.321  -2.358  1.00  0.00    -0.356 N 
ATOM      3  C   UNL     1      -1.150   0.145  -1.890  1.00  0.00     0.224 C 
ATOM      4  O   UNL     1      -1.487  -0.852  -2.537  1.00  0.00    -0.275 OA
ATOM      5  H   UNL     1      -2.283   1.285  -3.066  1.00  0.00     0.163 HD
BRANCH   3   6
ATOM      6  C   UNL     1      -0.346   0.012  -0.571  1.00  0.00     0.096 C 
BRANCH   6   7
ATOM      7  C   UNL     1       1.160  -0.474  -0.709  1.00  0.00     0.082 C 
BRANCH   7   8
ATOM      8  N   UNL     1       1.519  -2.043  -0.684  1.00  0.00    -0.211 NA
ATOM      9  H   UNL     1       0.674  -2.464  -1.071  1.00  0.00     0.141 HD
BRANCH   8  10
ATOM     10  S   UNL     1       1.996  -3.195   0.473  1.00  0.00     0.214 S 
ATOM     11  O   UNL     1       2.151  -2.524   1.743  1.00  0.00    -0.212 OA
ATOM     12  O   UNL     1       3.186  -3.712  -0.189  1.00  0.00    -0.212 OA
BRANCH  10  13
ATOM     13  C   UNL     1       0.949  -4.814   0.713  1.00  0.00     0.182 C 
BRANCH  13  14
ATOM     14  C   UNL     1      -0.589  -5.077   0.896  1.00  0.00     0.178 C 
BRANCH  14  15
ATOM     15  O   UNL     1      -1.552  -4.573  -0.028  1.00  0.00    -0.378 OA
BRANCH  15  16
ATOM     16  C   UNL     1      -1.180  -3.273  -0.458  1.00  0.00     0.112 C 
ATOM     17  C   UNL     1      -0.866  -2.517   0.902  1.00  0.00     0.038 C 
ATOM     18  C   UNL     1      -0.341  -3.622  -1.735  1.00  0.00     0.038 C 
ENDBRANCH  15  16
ENDBRANCH  14  15
ENDBRANCH  13  14
ENDBRANCH  10  13
ENDBRANCH   8  10
ENDBRANCH   7   8
BRANCH   7  19
ATOM     19  C   UNL     1       2.279   0.361  -0.085  1.00  0.00     0.021 C 
BRANCH  19  20
ATOM     20  C   UNL     1       2.028   1.861   0.084  1.00  0.00     0.002 C 
BRANCH  20  21
ATOM     21  C   UNL     1       1.228   2.195   1.334  1.00  0.00     0.000 CG0
ATOM     22  G   UNL     1      -0.278   2.103   1.190  1.00  0.00     0.000 G0
ENDBRANCH  20  21
ENDBRANCH  19  20
ENDBRANCH   7  19
ENDBRANCH   6   7
BRANCH   6  23
ATOM     23  C   UNL     1      -0.848   0.779   0.696  1.00  0.00     0.015 C 
BRANCH  23  24
ATOM     24  C   UNL     1      -0.278   2.103   1.190  1.00  0.00     0.001 CG0
ATOM     25  G   UNL     1       1.228   2.195   1.334  1.00  0.00     0.000 G0
ENDBRANCH  23  24
ENDBRANCH   6  23
ENDBRANCH   3   6
ENDBRANCH   1   2
BRANCH   1  26
ATOM     26  C   UNL     1      -0.797   3.474  -3.112  1.00  0.00     0.021 C 
BRANCH  26  27
ATOM     27  C   UNL     1      -1.750   4.644  -3.301  1.00  0.00     0.002 C 
BRANCH  27  28
ATOM     28  C   UNL     1      -2.051   5.458  -2.033  1.00  0.00     0.002 C 
BRANCH  28  29
ATOM     29  C   UNL     1      -0.843   5.808  -1.156  1.00  0.00     0.021 C 
BRANCH  29  30
ATOM     30  C   UNL     1       0.310   6.465  -1.901  1.00  0.00     0.116 C 
BRANCH  30  31
ATOM     31  N   UNL     1      -0.174   7.499  -2.793  1.00  0.00    -0.352 N 
ATOM     32  C   UNL     1       0.031   8.853  -2.733  1.00  0.00     0.251 C 
ATOM     33  H   UNL     1      -0.726   7.187  -3.545  1.00  0.00     0.163 HD
ATOM     34  O   UNL     1      -0.725   9.611  -3.299  1.00  0.00    -0.269 OA
BRANCH  32  35
ATOM     35  C   UNL     1       1.197   9.343  -1.974  1.00  0.00     0.039 A 
ATOM     36  C   UNL     1       1.053  10.488  -1.194  1.00  0.00     0.014 A 
ATOM     37  C   UNL     1       2.426   8.681  -2.067  1.00  0.00     0.014 A 
ATOM     38  C   UNL     1       2.154  10.969  -0.493  1.00  0.00     0.010 A 
ATOM     39  C   UNL     1       3.495   9.109  -1.298  1.00  0.00     0.010 A 
ATOM     40  C   UNL     1       3.376  10.277  -0.534  1.00  0.00    -0.014 A 
BRANCH  40  41
ATOM     41  C   UNL     1       4.565  10.799   0.173  1.00  0.00     0.031 A 
ATOM     42  C   UNL     1       5.759  11.245  -0.623  1.00  0.00     0.074 A 
ATOM     43  C   UNL     1       4.570  10.828   1.518  1.00  0.00     0.049 A 
ATOM     44  N   UNL     1       6.915  11.684  -0.201  1.00  0.00    -0.248 NA
ATOM     45  C   UNL     1       5.650  11.154  -2.088  1.00  0.00     0.031 C 
ATOM     46  C   UNL     1       3.471  10.378   2.377  1.00  0.00     0.029 A 
ATOM     47  N   UNL     1       5.528  11.253   2.399  1.00  0.00    -0.354 N 
ATOM     48  C   UNL     1       7.673  11.909  -1.345  1.00  0.00     0.074 A 
ATOM     49  C   UNL     1       6.871  11.490  -2.473  1.00  0.00     0.031 C 
ATOM     50  C   UNL     1       3.807  10.582   3.660  1.00  0.00     0.029 A 
ATOM     51  C   UNL     1       5.158  11.130   3.717  1.00  0.00     0.049 A 
ATOM     52  H   UNL     1       6.400  11.613   2.115  1.00  0.00     0.167 HD
ATOM     53  C   UNL     1       8.915  12.443  -1.443  1.00  0.00     0.034 A 
ATOM     54  C   UNL     1       5.840  11.421   4.841  1.00  0.00     0.034 A 
ATOM     55  C   UNL     1       9.684  12.867  -0.299  1.00  0.00     0.049 A 
ATOM     56  C   UNL     1       7.225  12.001   4.706  1.00  0.00     0.074 A 
ATOM     57  C   UNL     1      10.931  13.464  -0.272  1.00  0.00     0.029 A 
ATOM     58  N   UNL     1       9.277  12.733   1.024  1.00  0.00    -0.354 N 
ATOM     59  N   UNL     1       7.913  12.255   3.615  1.00  0.00    -0.248 NA
ATOM     60  C   UNL     1       7.918  12.350   5.951  1.00  0.00     0.031 C 
ATOM     61  C   UNL     1      11.307  13.626   1.066  1.00  0.00     0.029 A 
ATOM     62  C   UNL     1      10.261  13.210   1.874  1.00  0.00     0.049 A 
ATOM     63  H   UNL     1       8.416  12.354   1.313  1.00  0.00     0.167 HD
ATOM     64  C   UNL     1       9.107  12.826   4.045  1.00  0.00     0.074 A 
ATOM     65  C   UNL     1       9.034  12.894   5.491  1.00  0.00     0.031 C 
ATOM     66  C   UNL     1      10.167  13.261   3.315  1.00  0.00     0.034 A 
BRANCH  53  67
ATOM     67  C   UNL     1       9.514  12.570  -2.824  1.00  0.00     0.023 A 
ATOM     68  C   UNL     1       8.923  13.372  -3.817  1.00  0.00     0.031 A 
ATOM     69  C   UNL     1      10.677  11.857  -3.163  1.00  0.00     0.131 A 
ATOM     70  C   UNL     1       9.451  13.383  -5.117  1.00  0.00     0.055 A 
ATOM     71  C   UNL     1      11.247  11.939  -4.435  1.00  0.00     0.041 A 
ATOM     72  F   UNL     1      11.272  11.054  -2.267  1.00  0.00    -0.206 F 
ATOM     73  C   UNL     1      10.625  12.694  -5.426  1.00  0.00     0.022 A 
BRANCH  70  74
ATOM     74  S   UNL     1       8.499  14.191  -6.432  1.00  0.00     0.124 S 
ATOM     75  O   UNL     1       7.246  13.441  -6.392  1.00  0.00    -0.237 OA
ATOM     76  O   UNL     1       8.432  15.572  -5.971  1.00  0.00    -0.237 OA
ATOM     77  O   UNL     1       9.310  13.970  -7.628  1.00  0.00    -0.744 OA
ENDBRANCH  70  74
ENDBRANCH  53  67
BRANCH  54  78
ATOM     78  C   UNL     1       5.234  11.173   6.179  1.00  0.00     0.023 A 
ATOM     79  C   UNL     1       4.974  12.232   7.062  1.00  0.00     0.031 A 
ATOM     80  C   UNL     1       4.941   9.867   6.612  1.00  0.00     0.131 A 
ATOM     81  C   UNL     1       4.492  11.965   8.352  1.00  0.00     0.055 A 
ATOM     82  C   UNL     1       4.405   9.611   7.875  1.00  0.00     0.041 A 
ATOM     83  F   UNL     1       5.161   8.818   5.804  1.00  0.00    -0.206 F 
ATOM     84  C   UNL     1       4.193  10.663   8.760  1.00  0.00     0.022 A 
BRANCH  81  85
ATOM     85  S   UNL     1       4.354  13.340   9.527  1.00  0.00     0.124 S 
ATOM     86  O   UNL     1       5.717  13.859   9.537  1.00  0.00    -0.237 OA
ATOM     87  O   UNL     1       3.350  14.184   8.888  1.00  0.00    -0.237 OA
ATOM     88  O   UNL     1       3.924  12.689  10.763  1.00  0.00    -0.744 OA
ENDBRANCH  81  85
ENDBRANCH  54  78
BRANCH  66  89
ATOM     89  C   UNL     1      11.305  13.895   4.076  1.00  0.00     0.023 A 
ATOM     90  C   UNL     1      12.101  13.158   4.970  1.00  0.00     0.031 A 
ATOM     91  C   UNL     1      11.587  15.263   3.910  1.00  0.00     0.131 A 
ATOM     92  C   UNL     1      13.098  13.807   5.712  1.00  0.00     0.055 A 
ATOM     93  C   UNL     1      12.626  15.887   4.600  1.00  0.00     0.041 A 
ATOM     94  F   UNL     1      10.857  16.015   3.071  1.00  0.00    -0.206 F 
ATOM     95  C   UNL     1      13.378  15.162   5.519  1.00  0.00     0.022 A 
BRANCH  92  96
ATOM     96  S   UNL     1      13.954  12.878   7.013  1.00  0.00     0.124 S 
ATOM     97  O   UNL     1      12.845  12.451   7.860  1.00  0.00    -0.237 OA
ATOM     98  O   UNL     1      14.620  11.823   6.256  1.00  0.00    -0.237 OA
ATOM     99  O   UNL     1      14.846  13.869   7.611  1.00  0.00    -0.744 OA
ENDBRANCH  92  96
ENDBRANCH  66  89
ENDBRANCH  40  41
ENDBRANCH  32  35
ENDBRANCH  30  31
ENDBRANCH  29  30
ENDBRANCH  28  29
ENDBRANCH  27  28
ENDBRANCH  26  27
ENDBRANCH   1  26
TORSDOF 22
