REMARK SMILES CC(C)[NH2+][C@]1(C(=O)NCCCCCCNC(=O)c2ccc(-c3c4nc(c(-c5cc(S(=O)(=O)[O-])ccc5F)c5ccc([nH]5)c(-c5cc(S(=O)(=O)[O-])ccc5F)c5nc(c(-c6cc(S(=O)(=O)[O-])ccc6F)c6ccc3[nH]6)C=C5)C=C4)cc2)CC[C@H]([N@H+](C)C2CCCC2)C1
REMARK SMILES IDX 12 1 11 2 10 3 9 4 8 5 6 6 7 7 5 9 81 10 91 11 82 12 83 13
REMARK SMILES IDX 4 14 2 17 1 18 3 19 84 20 85 21 86 23 87 24 90 25 88 26
REMARK SMILES IDX 89 27 13 28 14 29 15 30 16 31 17 33 18 34 19 35 80 36 20 37
REMARK SMILES IDX 79 38 21 39 22 40 23 41 73 42 24 43 78 44 72 45 74 46 25 47
REMARK SMILES IDX 77 48 71 49 70 50 26 52 58 53 38 54 57 55 39 56 42 57 56 58
REMARK SMILES IDX 75 59 40 60 41 61 55 63 76 64 43 65 27 66 28 67 36 68 29 69
REMARK SMILES IDX 35 70 37 71 34 72 30 73 31 74 32 75 33 76 59 77 60 78 68 79
REMARK SMILES IDX 61 80 67 81 69 82 66 83 62 84 63 85 64 86 65 87 44 88 45 89
REMARK SMILES IDX 53 90 46 91 52 92 54 93 51 94 47 95 48 96 49 97 50 98
REMARK H PARENT 8 8 4 15 4 16 84 22 15 32 74 51 42 62
REMARK Flexibility Score: inf
ROOT
ATOM      1  C   UNL     1      -1.202  -2.660   3.485  1.00  0.00     0.002 C 
ENDROOT
BRANCH   1   2
ATOM      2  C   UNL     1      -1.434  -2.381   2.000  1.00  0.00     0.002 C 
BRANCH   2   3
ATOM      3  C   UNL     1      -2.078  -1.027   1.707  1.00  0.00     0.021 C 
BRANCH   3   4
ATOM      4  C   UNL     1      -1.213   0.214   2.028  1.00  0.00     0.116 C 
BRANCH   4   5
ATOM      5  N   UNL     1      -0.460   0.610   0.852  1.00  0.00    -0.351 N 
ATOM      6  C   UNL     1      -0.627   1.521  -0.136  1.00  0.00     0.281 C 
ATOM      7  O   UNL     1       0.174   1.345  -1.074  1.00  0.00    -0.268 OA
ATOM      8  H   UNL     1       0.371   0.092   0.748  1.00  0.00     0.163 HD
BRANCH   6   9
ATOM      9  C   UNL     1      -1.555   2.782  -0.163  1.00  0.00     0.181 C 
ATOM     10  C   UNL     1      -0.794   3.979   0.455  1.00  0.00     0.085 C 
ATOM     11  C   UNL     1      -1.631   3.327  -1.614  1.00  0.00     0.144 C 
ATOM     12  C   UNL     1      -1.415   5.239  -0.179  1.00  0.00     0.072 C 
ATOM     13  C   UNL     1      -2.034   4.821  -1.541  1.00  0.00     0.191 C 
BRANCH   9  14
ATOM     14  N   UNL     1      -2.876   2.750   0.504  1.00  0.00    -0.331 N 
ATOM     15  H   UNL     1      -2.697   2.932   1.491  1.00  0.00     0.347 HD
ATOM     16  H   UNL     1      -3.401   3.426  -0.052  1.00  0.00     0.347 HD
BRANCH  14  17
ATOM     17  C   UNL     1      -3.754   1.597   0.462  1.00  0.00     0.176 C 
ATOM     18  C   UNL     1      -4.953   1.874   1.376  1.00  0.00     0.075 C 
ATOM     19  C   UNL     1      -4.208   1.056  -0.881  1.00  0.00     0.075 C 
ENDBRANCH  14  17
ENDBRANCH   9  14
BRANCH  13  20
ATOM     20  N   UNL     1      -3.494   5.129  -1.620  1.00  0.00    -0.332 N 
ATOM     21  C   UNL     1      -4.167   4.287  -2.626  1.00  0.00     0.333 C 
ATOM     22  H   UNL     1      -3.853   4.939  -0.685  1.00  0.00     0.348 HD
BRANCH  20  23
ATOM     23  C   UNL     1      -3.771   6.547  -1.977  1.00  0.00     0.184 C 
ATOM     24  C   UNL     1      -5.267   6.909  -1.899  1.00  0.00     0.065 C 
ATOM     25  C   UNL     1      -3.177   7.641  -1.082  1.00  0.00     0.065 C 
ATOM     26  C   UNL     1      -5.298   8.427  -1.999  1.00  0.00     0.006 C 
ATOM     27  C   UNL     1      -3.968   8.903  -1.428  1.00  0.00     0.006 C 
ENDBRANCH  20  23
ENDBRANCH  13  20
ENDBRANCH   6   9
ENDBRANCH   4   5
ENDBRANCH   3   4
ENDBRANCH   2   3
ENDBRANCH   1   2
BRANCH   1  28
ATOM     28  C   UNL     1      -2.456  -2.584   4.363  1.00  0.00     0.021 C 
BRANCH  28  29
ATOM     29  C   UNL     1      -3.558  -3.567   3.976  1.00  0.00     0.116 C 
BRANCH  29  30
ATOM     30  N   UNL     1      -3.108  -4.945   4.116  1.00  0.00    -0.352 N 
ATOM     31  C   UNL     1      -3.524  -5.891   5.019  1.00  0.00     0.251 C 
ATOM     32  H   UNL     1      -2.416  -5.237   3.479  1.00  0.00     0.163 HD
ATOM     33  O   UNL     1      -2.845  -6.896   5.225  1.00  0.00    -0.269 OA
BRANCH  31  34
ATOM     34  C   UNL     1      -4.797  -5.683   5.736  1.00  0.00     0.039 A 
ATOM     35  C   UNL     1      -4.860  -5.871   7.119  1.00  0.00     0.014 A 
ATOM     36  C   UNL     1      -5.929  -5.283   5.021  1.00  0.00     0.014 A 
ATOM     37  C   UNL     1      -6.052  -5.601   7.795  1.00  0.00     0.010 A 
ATOM     38  C   UNL     1      -7.088  -4.943   5.705  1.00  0.00     0.010 A 
ATOM     39  C   UNL     1      -7.166  -5.108   7.097  1.00  0.00    -0.014 A 
BRANCH  39  40
ATOM     40  C   UNL     1      -8.453  -4.797   7.770  1.00  0.00     0.031 A 
ATOM     41  C   UNL     1      -9.684  -5.568   7.379  1.00  0.00     0.074 A 
ATOM     42  C   UNL     1      -8.537  -3.771   8.639  1.00  0.00     0.049 A 
ATOM     43  N   UNL     1     -10.936  -5.341   7.676  1.00  0.00    -0.248 NA
ATOM     44  C   UNL     1      -9.474  -6.730   6.500  1.00  0.00     0.031 C 
ATOM     45  C   UNL     1      -7.414  -2.945   9.086  1.00  0.00     0.029 A 
ATOM     46  N   UNL     1      -9.623  -3.229   9.283  1.00  0.00    -0.354 N 
ATOM     47  C   UNL     1     -11.666  -6.312   6.998  1.00  0.00     0.074 A 
ATOM     48  C   UNL     1     -10.719  -7.090   6.229  1.00  0.00     0.031 C 
ATOM     49  C   UNL     1      -7.868  -2.010   9.937  1.00  0.00     0.029 A 
ATOM     50  C   UNL     1      -9.319  -2.127  10.048  1.00  0.00     0.049 A 
ATOM     51  H   UNL     1     -10.533  -3.595   9.204  1.00  0.00     0.167 HD
ATOM     52  C   UNL     1     -13.001  -6.543   7.031  1.00  0.00     0.034 A 
ATOM     53  C   UNL     1     -10.122  -1.289  10.736  1.00  0.00     0.034 A 
ATOM     54  C   UNL     1     -13.923  -5.762   7.817  1.00  0.00     0.049 A 
ATOM     55  C   UNL     1     -11.613  -1.534  10.721  1.00  0.00     0.074 A 
ATOM     56  C   UNL     1     -15.289  -5.931   7.962  1.00  0.00     0.029 A 
ATOM     57  N   UNL     1     -13.574  -4.660   8.589  1.00  0.00    -0.354 N 
ATOM     58  N   UNL     1     -12.289  -2.468  10.091  1.00  0.00    -0.248 NA
ATOM     59  C   UNL     1     -12.449  -0.619  11.510  1.00  0.00     0.031 C 
ATOM     60  C   UNL     1     -15.776  -4.889   8.755  1.00  0.00     0.029 A 
ATOM     61  C   UNL     1     -14.703  -4.125   9.186  1.00  0.00     0.049 A 
ATOM     62  H   UNL     1     -12.660  -4.312   8.694  1.00  0.00     0.167 HD
ATOM     63  C   UNL     1     -13.621  -2.281  10.451  1.00  0.00     0.074 A 
ATOM     64  C   UNL     1     -13.655  -1.143  11.345  1.00  0.00     0.031 C 
ATOM     65  C   UNL     1     -14.716  -2.996  10.088  1.00  0.00     0.034 A 
BRANCH  52  66
ATOM     66  C   UNL     1     -13.539  -7.659   6.168  1.00  0.00     0.023 A 
ATOM     67  C   UNL     1     -13.141  -8.995   6.353  1.00  0.00     0.031 A 
ATOM     68  C   UNL     1     -14.441  -7.382   5.125  1.00  0.00     0.131 A 
ATOM     69  C   UNL     1     -13.576  -9.986   5.462  1.00  0.00     0.055 A 
ATOM     70  C   UNL     1     -14.943  -8.389   4.298  1.00  0.00     0.041 A 
ATOM     71  F   UNL     1     -14.839  -6.124   4.881  1.00  0.00    -0.206 F 
ATOM     72  C   UNL     1     -14.497  -9.698   4.453  1.00  0.00     0.022 A 
BRANCH  69  73
ATOM     73  S   UNL     1     -12.796 -11.621   5.542  1.00  0.00     0.124 S 
ATOM     74  O   UNL     1     -11.390 -11.287   5.325  1.00  0.00    -0.237 OA
ATOM     75  O   UNL     1     -13.146 -12.073   6.883  1.00  0.00    -0.237 OA
ATOM     76  O   UNL     1     -13.429 -12.357   4.449  1.00  0.00    -0.744 OA
ENDBRANCH  69  73
ENDBRANCH  52  66
BRANCH  53  77
ATOM     77  C   UNL     1      -9.549  -0.129  11.479  1.00  0.00     0.023 A 
ATOM     78  C   UNL     1      -9.669  -0.037  12.875  1.00  0.00     0.031 A 
ATOM     79  C   UNL     1      -8.912   0.928  10.804  1.00  0.00     0.131 A 
ATOM     80  C   UNL     1      -9.209   1.109  13.544  1.00  0.00     0.055 A 
ATOM     81  C   UNL     1      -8.400   2.037  11.481  1.00  0.00     0.041 A 
ATOM     82  F   UNL     1      -8.768   0.892   9.469  1.00  0.00    -0.206 F 
ATOM     83  C   UNL     1      -8.561   2.138  12.859  1.00  0.00     0.022 A 
BRANCH  80  84
ATOM     84  S   UNL     1      -9.565   1.279  15.315  1.00  0.00     0.124 S 
ATOM     85  O   UNL     1     -11.020   1.188  15.333  1.00  0.00    -0.237 OA
ATOM     86  O   UNL     1      -8.842   0.144  15.879  1.00  0.00    -0.237 OA
ATOM     87  O   UNL     1      -9.017   2.593  15.646  1.00  0.00    -0.744 OA
ENDBRANCH  80  84
ENDBRANCH  53  77
BRANCH  65  88
ATOM     88  C   UNL     1     -16.035  -2.632  10.723  1.00  0.00     0.023 A 
ATOM     89  C   UNL     1     -16.709  -1.437  10.423  1.00  0.00     0.031 A 
ATOM     90  C   UNL     1     -16.649  -3.538  11.608  1.00  0.00     0.131 A 
ATOM     91  C   UNL     1     -17.949  -1.168  11.025  1.00  0.00     0.055 A 
ATOM     92  C   UNL     1     -17.906  -3.290  12.159  1.00  0.00     0.041 A 
ATOM     93  F   UNL     1     -16.046  -4.693  11.930  1.00  0.00    -0.206 F 
ATOM     94  C   UNL     1     -18.560  -2.096  11.873  1.00  0.00     0.022 A 
BRANCH  91  95
ATOM     95  S   UNL     1     -18.736   0.439  10.729  1.00  0.00     0.124 S 
ATOM     96  O   UNL     1     -17.743   1.366  11.260  1.00  0.00    -0.237 OA
ATOM     97  O   UNL     1     -18.902   0.444   9.279  1.00  0.00    -0.237 OA
ATOM     98  O   UNL     1     -19.980   0.358  11.492  1.00  0.00    -0.744 OA
ENDBRANCH  91  95
ENDBRANCH  65  88
ENDBRANCH  39  40
ENDBRANCH  31  34
ENDBRANCH  29  30
ENDBRANCH  28  29
ENDBRANCH   1  28
TORSDOF 20
