REMARK SMILES CN(C(=O)[C@H]1CCCC[C@H]1C(=O)NCCCCCCNC(=O)c1ccc(-c2c3nc(c(-c4cc(S(=O)(=O)[O-])ccc4F)c4ccc([nH]4)c(-c4cc(S(=O)(=O)[O-])ccc4F)c4nc(c(-c5cc(S(=O)(=O)[O-])ccc5F)c5ccc2[nH]5)C=C4)C=C3)cc1)C1CC1
REMARK SMILES IDX 16 1 15 2 14 3 13 4 11 5 12 6 10 8 5 9 6 10 7 11 9 12 8 13
REMARK SMILES IDX 3 14 4 15 2 16 1 17 86 18 87 19 88 20 17 21 18 22 19 23
REMARK SMILES IDX 20 24 21 25 22 27 23 28 24 29 85 30 25 31 84 32 26 33 27 34
REMARK SMILES IDX 28 35 78 36 29 37 83 38 77 39 79 40 30 41 82 42 76 43 75 44
REMARK SMILES IDX 31 46 63 47 43 48 62 49 44 50 47 51 61 52 80 53 45 54 46 55
REMARK SMILES IDX 60 57 81 58 48 59 32 60 33 61 41 62 34 63 40 64 42 65 39 66
REMARK SMILES IDX 35 67 36 68 37 69 38 70 64 71 65 72 73 73 66 74 72 75 74 76
REMARK SMILES IDX 71 77 67 78 68 79 69 80 70 81 49 82 50 83 58 84 51 85 57 86
REMARK SMILES IDX 59 87 56 88 52 89 53 90 54 91 55 92
REMARK H PARENT 13 7 20 26 79 45 47 56
REMARK Flexibility Score: inf
ROOT
ATOM      1  C   UNL     1       4.361   2.211  -4.164  1.00  0.00     0.002 C 
ENDROOT
BRANCH   1   2
ATOM      2  C   UNL     1       2.877   1.980  -3.857  1.00  0.00     0.021 C 
BRANCH   2   3
ATOM      3  C   UNL     1       2.467   0.517  -3.651  1.00  0.00     0.116 C 
BRANCH   3   4
ATOM      4  N   UNL     1       2.250   0.216  -2.253  1.00  0.00    -0.356 N 
ATOM      5  C   UNL     1       1.153  -0.044  -1.513  1.00  0.00     0.223 C 
ATOM      6  O   UNL     1       1.374  -0.318  -0.324  1.00  0.00    -0.275 OA
ATOM      7  H   UNL     1       3.083   0.196  -1.728  1.00  0.00     0.163 HD
BRANCH   5   8
ATOM      8  C   UNL     1      -0.295  -0.108  -2.018  1.00  0.00     0.091 C 
ATOM      9  C   UNL     1      -0.969   1.124  -2.635  1.00  0.00     0.091 C 
ATOM     10  C   UNL     1      -2.500   0.966  -2.637  1.00  0.00     0.014 C 
ATOM     11  C   UNL     1      -3.022  -0.368  -3.158  1.00  0.00     0.001 C 
ATOM     12  C   UNL     1      -0.699  -1.449  -2.617  1.00  0.00     0.014 C 
ATOM     13  C   UNL     1      -2.231  -1.596  -2.690  1.00  0.00     0.001 C 
BRANCH   9  14
ATOM     14  C   UNL     1      -0.440   1.881  -3.870  1.00  0.00     0.226 C 
ATOM     15  O   UNL     1       0.026   3.010  -3.642  1.00  0.00    -0.275 OA
BRANCH  14  16
ATOM     16  N   UNL     1      -0.494   1.415  -5.179  1.00  0.00    -0.343 N 
ATOM     17  C   UNL     1      -0.776   0.065  -5.644  1.00  0.00     0.147 C 
BRANCH  16  18
ATOM     18  C   UNL     1       0.009   2.258  -6.255  1.00  0.00     0.084 C 
ATOM     19  C   UNL     1      -0.895   2.680  -7.386  1.00  0.00     0.027 C 
ATOM     20  C   UNL     1      -0.344   3.705  -6.445  1.00  0.00     0.027 C 
ENDBRANCH  16  18
ENDBRANCH  14  16
ENDBRANCH   9  14
ENDBRANCH   5   8
ENDBRANCH   3   4
ENDBRANCH   2   3
ENDBRANCH   1   2
BRANCH   1  21
ATOM     21  C   UNL     1       4.875   1.609  -5.479  1.00  0.00     0.002 C 
BRANCH  21  22
ATOM     22  C   UNL     1       4.103   1.972  -6.753  1.00  0.00     0.021 C 
BRANCH  22  23
ATOM     23  C   UNL     1       3.954   3.466  -7.048  1.00  0.00     0.116 C 
BRANCH  23  24
ATOM     24  N   UNL     1       5.238   4.091  -7.317  1.00  0.00    -0.352 N 
ATOM     25  C   UNL     1       5.724   4.669  -8.464  1.00  0.00     0.251 C 
ATOM     26  H   UNL     1       5.860   4.101  -6.554  1.00  0.00     0.163 HD
ATOM     27  O   UNL     1       6.925   4.911  -8.545  1.00  0.00    -0.269 OA
BRANCH  25  28
ATOM     28  C   UNL     1       4.830   4.993  -9.603  1.00  0.00     0.039 A 
ATOM     29  C   UNL     1       5.290   4.759 -10.904  1.00  0.00     0.014 A 
ATOM     30  C   UNL     1       3.583   5.594  -9.410  1.00  0.00     0.014 A 
ATOM     31  C   UNL     1       4.484   5.077 -12.003  1.00  0.00     0.010 A 
ATOM     32  C   UNL     1       2.758   5.865 -10.506  1.00  0.00     0.010 A 
ATOM     33  C   UNL     1       3.199   5.611 -11.814  1.00  0.00    -0.014 A 
BRANCH  33  34
ATOM     34  C   UNL     1       2.312   5.909 -12.973  1.00  0.00     0.031 A 
ATOM     35  C   UNL     1       1.931   7.329 -13.297  1.00  0.00     0.074 A 
ATOM     36  C   UNL     1       1.804   4.896 -13.703  1.00  0.00     0.049 A 
ATOM     37  N   UNL     1       1.110   7.779 -14.213  1.00  0.00    -0.248 NA
ATOM     38  C   UNL     1       2.536   8.377 -12.464  1.00  0.00     0.031 C 
ATOM     39  C   UNL     1       2.074   3.475 -13.476  1.00  0.00     0.029 A 
ATOM     40  N   UNL     1       0.944   4.903 -14.774  1.00  0.00    -0.354 N 
ATOM     41  C   UNL     1       1.092   9.162 -14.062  1.00  0.00     0.074 A 
ATOM     42  C   UNL     1       1.943   9.466 -12.930  1.00  0.00     0.031 C 
ATOM     43  C   UNL     1       1.399   2.749 -14.382  1.00  0.00     0.029 A 
ATOM     44  C   UNL     1       0.616   3.646 -15.227  1.00  0.00     0.049 A 
ATOM     45  H   UNL     1       0.595   5.729 -15.179  1.00  0.00     0.167 HD
ATOM     46  C   UNL     1       0.441  10.092 -14.807  1.00  0.00     0.034 A 
ATOM     47  C   UNL     1      -0.234   3.255 -16.199  1.00  0.00     0.034 A 
ATOM     48  C   UNL     1      -0.401   9.775 -15.937  1.00  0.00     0.049 A 
ATOM     49  C   UNL     1      -0.972   4.301 -16.994  1.00  0.00     0.074 A 
ATOM     50  C   UNL     1      -1.062  10.643 -16.791  1.00  0.00     0.029 A 
ATOM     51  N   UNL     1      -0.711   8.490 -16.365  1.00  0.00    -0.354 N 
ATOM     52  N   UNL     1      -0.942   5.608 -16.866  1.00  0.00    -0.248 NA
ATOM     53  C   UNL     1      -1.849   3.821 -18.069  1.00  0.00     0.031 C 
ATOM     54  C   UNL     1      -1.821   9.884 -17.690  1.00  0.00     0.029 A 
ATOM     55  C   UNL     1      -1.578   8.542 -17.447  1.00  0.00     0.049 A 
ATOM     56  H   UNL     1      -0.365   7.663 -15.959  1.00  0.00     0.167 HD
ATOM     57  C   UNL     1      -1.778   6.105 -17.863  1.00  0.00     0.074 A 
ATOM     58  C   UNL     1      -2.284   4.959 -18.590  1.00  0.00     0.031 C 
ATOM     59  C   UNL     1      -2.093   7.393 -18.154  1.00  0.00     0.034 A 
BRANCH  46  60
ATOM     60  C   UNL     1       0.597  11.539 -14.400  1.00  0.00     0.023 A 
ATOM     61  C   UNL     1       1.847  12.182 -14.427  1.00  0.00     0.031 A 
ATOM     62  C   UNL     1      -0.511  12.277 -13.949  1.00  0.00     0.131 A 
ATOM     63  C   UNL     1       1.974  13.491 -13.936  1.00  0.00     0.055 A 
ATOM     64  C   UNL     1      -0.393  13.607 -13.539  1.00  0.00     0.041 A 
ATOM     65  F   UNL     1      -1.728  11.714 -13.884  1.00  0.00    -0.206 F 
ATOM     66  C   UNL     1       0.858  14.216 -13.514  1.00  0.00     0.022 A 
BRANCH  63  67
ATOM     67  S   UNL     1       3.639  14.174 -13.716  1.00  0.00     0.124 S 
ATOM     68  O   UNL     1       4.243  13.195 -12.814  1.00  0.00    -0.237 OA
ATOM     69  O   UNL     1       4.156  14.192 -15.079  1.00  0.00    -0.237 OA
ATOM     70  O   UNL     1       3.395  15.488 -13.123  1.00  0.00    -0.744 OA
ENDBRANCH  63  67
ENDBRANCH  46  60
BRANCH  47  71
ATOM     71  C   UNL     1      -0.456   1.805 -16.460  1.00  0.00     0.023 A 
ATOM     72  C   UNL     1      -0.059   1.216 -17.671  1.00  0.00     0.031 A 
ATOM     73  C   UNL     1      -1.101   0.993 -15.510  1.00  0.00     0.131 A 
ATOM     74  C   UNL     1      -0.347  -0.136 -17.917  1.00  0.00     0.055 A 
ATOM     75  C   UNL     1      -1.341  -0.363 -15.740  1.00  0.00     0.041 A 
ATOM     76  F   UNL     1      -1.494   1.506 -14.333  1.00  0.00    -0.206 F 
ATOM     77  C   UNL     1      -0.974  -0.932 -16.955  1.00  0.00     0.022 A 
BRANCH  74  78
ATOM     78  S   UNL     1       0.049  -0.826 -19.547  1.00  0.00     0.124 S 
ATOM     79  O   UNL     1      -0.726   0.037 -20.431  1.00  0.00    -0.237 OA
ATOM     80  O   UNL     1       1.498  -0.665 -19.600  1.00  0.00    -0.237 OA
ATOM     81  O   UNL     1      -0.419  -2.207 -19.454  1.00  0.00    -0.744 OA
ENDBRANCH  74  78
ENDBRANCH  47  71
BRANCH  59  82
ATOM     82  C   UNL     1      -3.003   7.625 -19.335  1.00  0.00     0.023 A 
ATOM     83  C   UNL     1      -4.355   7.240 -19.314  1.00  0.00     0.031 A 
ATOM     84  C   UNL     1      -2.505   8.231 -20.502  1.00  0.00     0.131 A 
ATOM     85  C   UNL     1      -5.150   7.420 -20.457  1.00  0.00     0.055 A 
ATOM     86  C   UNL     1      -3.315   8.457 -21.616  1.00  0.00     0.041 A 
ATOM     87  F   UNL     1      -1.220   8.615 -20.578  1.00  0.00    -0.206 F 
ATOM     88  C   UNL     1      -4.643   8.040 -21.602  1.00  0.00     0.022 A 
BRANCH  85  89
ATOM     89  S   UNL     1      -6.840   6.760 -20.457  1.00  0.00     0.124 S 
ATOM     90  O   UNL     1      -6.610   5.336 -20.234  1.00  0.00    -0.237 OA
ATOM     91  O   UNL     1      -7.460   7.486 -19.354  1.00  0.00    -0.237 OA
ATOM     92  O   UNL     1      -7.344   7.106 -21.785  1.00  0.00    -0.744 OA
ENDBRANCH  85  89
ENDBRANCH  59  82
ENDBRANCH  33  34
ENDBRANCH  25  28
ENDBRANCH  23  24
ENDBRANCH  22  23
ENDBRANCH  21  22
ENDBRANCH   1  21
TORSDOF 19
