REMARK SMILES Cc1cccc([C@@H](CC(F)(F)F)C(=O)NCCCCCCNC(=O)c2ccc(-c3c4nc(c(-c5cc(S(=O)(=O)[O-])ccc5F)c5ccc([nH]5)c(-c5cc(S(=O)(=O)[O-])ccc5F)c5nc(c(-c6cc(S(=O)(=O)[O-])ccc6F)c6ccc3[nH]6)C=C5)C=C4)cc2)c1
REMARK SMILES IDX 19 1 18 2 17 3 16 4 15 5 13 6 14 7 7 9 6 10 1 11 2 12 3 13
REMARK SMILES IDX 88 14 4 15 5 16 8 17 9 18 10 19 11 20 12 21 20 22 21 23
REMARK SMILES IDX 22 24 23 25 24 27 25 28 26 29 87 30 27 31 86 32 28 33 29 34
REMARK SMILES IDX 30 35 80 36 31 37 85 38 79 39 81 40 32 41 84 42 78 43 77 44
REMARK SMILES IDX 33 46 65 47 45 48 64 49 46 50 49 51 63 52 82 53 47 54 48 55
REMARK SMILES IDX 62 57 83 58 50 59 34 60 35 61 43 62 36 63 42 64 44 65 41 66
REMARK SMILES IDX 37 67 38 68 39 69 40 70 66 71 67 72 75 73 68 74 74 75 76 76
REMARK SMILES IDX 73 77 69 78 70 79 71 80 72 81 51 82 52 83 60 84 53 85 59 86
REMARK SMILES IDX 61 87 58 88 54 89 55 90 56 91 57 92
REMARK H PARENT 15 8 22 26 81 45 49 56
REMARK Flexibility Score: inf
ROOT
ATOM      1  C   UNL     1      -6.761  -0.493   2.232  1.00  0.00     0.002 C 
ENDROOT
BRANCH   1   2
ATOM      2  C   UNL     1      -5.332  -0.745   2.747  1.00  0.00     0.002 C 
BRANCH   2   3
ATOM      3  C   UNL     1      -4.191  -0.562   1.738  1.00  0.00     0.021 C 
BRANCH   3   4
ATOM      4  C   UNL     1      -4.238   0.736   0.939  1.00  0.00     0.116 C 
BRANCH   4   5
ATOM      5  N   UNL     1      -3.471   1.814   1.515  1.00  0.00    -0.356 N 
ATOM      6  C   UNL     1      -2.471   2.575   1.006  1.00  0.00     0.227 C 
ATOM      7  O   UNL     1      -2.166   3.588   1.652  1.00  0.00    -0.274 OA
ATOM      8  H   UNL     1      -3.717   2.036   2.442  1.00  0.00     0.163 HD
BRANCH   6   9
ATOM      9  C   UNL     1      -1.725   2.284  -0.306  1.00  0.00     0.117 C 
BRANCH   9  10
ATOM     10  C   UNL     1      -0.871   1.016  -0.330  1.00  0.00    -0.035 A 
ATOM     11  C   UNL     1       2.820   0.164   0.286  1.00  0.00     0.044 C 
ATOM     12  C   UNL     1       1.357   0.015  -0.011  1.00  0.00    -0.051 A 
ATOM     13  C   UNL     1       0.827  -1.246  -0.276  1.00  0.00     0.003 A 
ATOM     14  C   UNL     1       0.502   1.127  -0.016  1.00  0.00     0.008 A 
ATOM     15  C   UNL     1      -0.521  -1.381  -0.590  1.00  0.00     0.001 A 
ATOM     16  C   UNL     1      -1.354  -0.258  -0.642  1.00  0.00     0.004 A 
ENDBRANCH   9  10
BRANCH   9  17
ATOM     17  C   UNL     1      -2.365   2.768  -1.615  1.00  0.00     0.133 C 
BRANCH  17  18
ATOM     18  C   UNL     1      -3.677   2.196  -2.072  1.00  0.00     0.390 C 
ATOM     19  F   UNL     1      -4.676   2.458  -1.209  1.00  0.00    -0.171 F 
ATOM     20  F   UNL     1      -4.026   2.766  -3.253  1.00  0.00    -0.171 F 
ATOM     21  F   UNL     1      -3.625   0.869  -2.286  1.00  0.00    -0.171 F 
ENDBRANCH  17  18
ENDBRANCH   9  17
ENDBRANCH   6   9
ENDBRANCH   4   5
ENDBRANCH   3   4
ENDBRANCH   2   3
ENDBRANCH   1   2
BRANCH   1  22
ATOM     22  C   UNL     1      -7.131  -1.153   0.903  1.00  0.00     0.021 C 
BRANCH  22  23
ATOM     23  C   UNL     1      -7.244  -2.671   0.973  1.00  0.00     0.116 C 
BRANCH  23  24
ATOM     24  N   UNL     1      -8.619  -3.155   1.042  1.00  0.00    -0.352 N 
ATOM     25  C   UNL     1      -9.077  -4.465   1.013  1.00  0.00     0.251 C 
ATOM     26  H   UNL     1      -9.313  -2.461   1.119  1.00  0.00     0.163 HD
ATOM     27  O   UNL     1     -10.259  -4.742   1.026  1.00  0.00    -0.269 OA
BRANCH  25  28
ATOM     28  C   UNL     1      -8.063  -5.542   1.104  1.00  0.00     0.039 A 
ATOM     29  C   UNL     1      -8.114  -6.359   2.238  1.00  0.00     0.014 A 
ATOM     30  C   UNL     1      -6.954  -5.550   0.263  1.00  0.00     0.014 A 
ATOM     31  C   UNL     1      -6.955  -7.001   2.661  1.00  0.00     0.010 A 
ATOM     32  C   UNL     1      -5.781  -6.116   0.727  1.00  0.00     0.010 A 
ATOM     33  C   UNL     1      -5.769  -6.777   1.962  1.00  0.00    -0.014 A 
BRANCH  33  34
ATOM     34  C   UNL     1      -4.461  -7.058   2.543  1.00  0.00     0.031 A 
ATOM     35  C   UNL     1      -3.675  -8.226   2.109  1.00  0.00     0.074 A 
ATOM     36  C   UNL     1      -3.965  -6.239   3.497  1.00  0.00     0.049 A 
ATOM     37  N   UNL     1      -2.811  -8.838   2.847  1.00  0.00    -0.248 NA
ATOM     38  C   UNL     1      -3.847  -8.832   0.796  1.00  0.00     0.031 C 
ATOM     39  C   UNL     1      -2.616  -6.236   4.055  1.00  0.00     0.029 A 
ATOM     40  N   UNL     1      -4.696  -5.408   4.344  1.00  0.00    -0.354 N 
ATOM     41  C   UNL     1      -2.121  -9.714   2.043  1.00  0.00     0.074 A 
ATOM     42  C   UNL     1      -2.849  -9.720   0.793  1.00  0.00     0.031 C 
ATOM     43  C   UNL     1      -2.656  -5.675   5.273  1.00  0.00     0.029 A 
ATOM     44  C   UNL     1      -4.051  -5.424   5.591  1.00  0.00     0.049 A 
ATOM     45  H   UNL     1      -5.510  -4.905   4.112  1.00  0.00     0.167 HD
ATOM     46  C   UNL     1      -0.932 -10.230   2.471  1.00  0.00     0.034 A 
ATOM     47  C   UNL     1      -4.694  -5.874   6.705  1.00  0.00     0.034 A 
ATOM     48  C   UNL     1      -0.622  -9.821   3.842  1.00  0.00     0.049 A 
ATOM     49  C   UNL     1      -4.027  -7.064   7.360  1.00  0.00     0.074 A 
ATOM     50  C   UNL     1       0.229  -8.868   4.378  1.00  0.00     0.029 A 
ATOM     51  N   UNL     1      -1.443 -10.238   4.887  1.00  0.00    -0.354 N 
ATOM     52  N   UNL     1      -3.119  -7.815   6.800  1.00  0.00    -0.248 NA
ATOM     53  C   UNL     1      -4.367  -7.509   8.706  1.00  0.00     0.031 C 
ATOM     54  C   UNL     1      -0.116  -8.683   5.744  1.00  0.00     0.029 A 
ATOM     55  C   UNL     1      -1.158  -9.542   6.048  1.00  0.00     0.049 A 
ATOM     56  H   UNL     1      -2.134 -10.935   4.810  1.00  0.00     0.167 HD
ATOM     57  C   UNL     1      -2.775  -8.840   7.652  1.00  0.00     0.074 A 
ATOM     58  C   UNL     1      -3.562  -8.575   8.845  1.00  0.00     0.031 C 
ATOM     59  C   UNL     1      -1.888  -9.820   7.284  1.00  0.00     0.034 A 
BRANCH  46  60
ATOM     60  C   UNL     1       0.084 -10.835   1.524  1.00  0.00     0.023 A 
ATOM     61  C   UNL     1       1.462 -10.667   1.776  1.00  0.00     0.031 A 
ATOM     62  C   UNL     1      -0.228 -11.524   0.336  1.00  0.00     0.131 A 
ATOM     63  C   UNL     1       2.435 -11.046   0.830  1.00  0.00     0.055 A 
ATOM     64  C   UNL     1       0.730 -11.837  -0.638  1.00  0.00     0.041 A 
ATOM     65  F   UNL     1      -1.468 -11.970   0.091  1.00  0.00    -0.206 F 
ATOM     66  C   UNL     1       2.071 -11.580  -0.402  1.00  0.00     0.022 A 
BRANCH  63  67
ATOM     67  S   UNL     1       4.192 -10.839   1.234  1.00  0.00     0.124 S 
ATOM     68  O   UNL     1       4.283  -9.409   1.508  1.00  0.00    -0.237 OA
ATOM     69  O   UNL     1       4.351 -11.729   2.379  1.00  0.00    -0.237 OA
ATOM     70  O   UNL     1       4.874 -11.277   0.016  1.00  0.00    -0.744 OA
ENDBRANCH  63  67
ENDBRANCH  46  60
BRANCH  47  71
ATOM     71  C   UNL     1      -6.160  -5.606   6.703  1.00  0.00     0.023 A 
ATOM     72  C   UNL     1      -6.582  -4.261   6.619  1.00  0.00     0.031 A 
ATOM     73  C   UNL     1      -7.100  -6.607   6.424  1.00  0.00     0.131 A 
ATOM     74  C   UNL     1      -7.860  -3.949   6.133  1.00  0.00     0.055 A 
ATOM     75  C   UNL     1      -8.392  -6.290   5.985  1.00  0.00     0.041 A 
ATOM     76  F   UNL     1      -6.750  -7.901   6.454  1.00  0.00    -0.206 F 
ATOM     77  C   UNL     1      -8.763  -4.959   5.798  1.00  0.00     0.022 A 
BRANCH  74  78
ATOM     78  S   UNL     1      -8.260  -2.228   5.710  1.00  0.00     0.124 S 
ATOM     79  O   UNL     1      -9.038  -1.801   6.867  1.00  0.00    -0.237 OA
ATOM     80  O   UNL     1      -6.947  -1.606   5.567  1.00  0.00    -0.237 OA
ATOM     81  O   UNL     1      -9.006  -2.362   4.460  1.00  0.00    -0.744 OA
ENDBRANCH  74  78
ENDBRANCH  47  71
BRANCH  59  82
ATOM     82  C   UNL     1      -1.554 -11.090   8.060  1.00  0.00     0.023 A 
ATOM     83  C   UNL     1      -2.217 -11.502   9.226  1.00  0.00     0.031 A 
ATOM     84  C   UNL     1      -0.546 -11.982   7.606  1.00  0.00     0.131 A 
ATOM     85  C   UNL     1      -1.846 -12.672   9.919  1.00  0.00     0.055 A 
ATOM     86  C   UNL     1      -0.221 -13.178   8.258  1.00  0.00     0.041 A 
ATOM     87  F   UNL     1       0.167 -11.743   6.496  1.00  0.00    -0.206 F 
ATOM     88  C   UNL     1      -0.862 -13.525   9.434  1.00  0.00     0.022 A 
BRANCH  85  89
ATOM     89  S   UNL     1      -2.656 -13.023  11.503  1.00  0.00     0.124 S 
ATOM     90  O   UNL     1      -2.247 -11.877  12.311  1.00  0.00    -0.237 OA
ATOM     91  O   UNL     1      -4.067 -13.062  11.130  1.00  0.00    -0.237 OA
ATOM     92  O   UNL     1      -2.084 -14.305  11.908  1.00  0.00    -0.744 OA
ENDBRANCH  85  89
ENDBRANCH  59  82
ENDBRANCH  33  34
ENDBRANCH  25  28
ENDBRANCH  23  24
ENDBRANCH  22  23
ENDBRANCH   1  22
TORSDOF 19
