REMARK SMILES O=C(C/C(=C/c1ccc(N2CCOCC2)c(F)c1)c1nc2ccccc2s1)NCCCCCCNC(=O)c1ccc(-c2c3nc(c(-c4cc(S(=O)(=O)[O-])ccc4F)c4ccc([nH]4)c(-c4cc(S(=O)(=O)[O-])ccc4F)c4nc(c(-c5cc(S(=O)(=O)[O-])ccc5F)c5ccc2[nH]5)C=C4)C=C3)cc1
REMARK SMILES IDX 31 1 30 2 29 3 28 4 1 5 2 6 3 8 4 9 5 10 19 11 20 12 27 13
REMARK SMILES IDX 21 14 26 15 22 16 25 17 23 18 24 19 6 20 7 21 18 22 8 23
REMARK SMILES IDX 16 24 9 25 17 26 10 27 11 28 15 29 12 30 14 31 13 32 32 33
REMARK SMILES IDX 33 34 34 35 35 36 36 37 37 39 38 40 39 41 100 42 40 43 99 44
REMARK SMILES IDX 41 45 42 46 43 47 93 48 44 49 98 50 92 51 94 52 45 53 97 54
REMARK SMILES IDX 91 55 90 56 46 58 78 59 58 60 77 61 59 62 62 63 76 64 95 65
REMARK SMILES IDX 60 66 61 67 75 69 96 70 63 71 47 72 48 73 56 74 49 75 55 76
REMARK SMILES IDX 57 77 54 78 50 79 51 80 52 81 53 82 79 83 80 84 88 85 81 86
REMARK SMILES IDX 87 87 89 88 86 89 82 90 83 91 84 92 85 93 64 94 65 95 73 96
REMARK SMILES IDX 66 97 72 98 74 99 71 100 67 101 68 102 69 103 70 104
REMARK H PARENT 28 7 35 38 94 57 62 68
REMARK Flexibility Score: inf
ROOT
ATOM      1  C   UNL     1       4.221  -1.943   3.132  1.00  0.00     0.002 C 
ENDROOT
BRANCH   1   2
ATOM      2  C   UNL     1       2.723  -1.933   2.802  1.00  0.00     0.021 C 
BRANCH   2   3
ATOM      3  C   UNL     1       2.194  -0.588   2.309  1.00  0.00     0.116 C 
BRANCH   3   4
ATOM      4  N   UNL     1       2.852  -0.170   1.087  1.00  0.00    -0.356 N 
ATOM      5  O   UNL     1       0.999  -0.331  -0.260  1.00  0.00    -0.275 OA
ATOM      6  C   UNL     1       2.184  -0.047  -0.112  1.00  0.00     0.224 C 
ATOM      7  H   UNL     1       3.815   0.034   1.114  1.00  0.00     0.163 HD
BRANCH   6   8
ATOM      8  C   UNL     1       3.043   0.419  -1.282  1.00  0.00     0.138 C 
BRANCH   8   9
ATOM      9  C   UNL     1       3.807   1.707  -1.014  1.00  0.00    -0.002 C 
ATOM     10  C   UNL     1       5.163   1.657  -1.032  1.00  0.00     0.015 C 
BRANCH   9  11
ATOM     11  C   UNL     1       3.170   2.988  -0.814  1.00  0.00     0.121 A 
ATOM     12  N   UNL     1       3.479   4.106  -1.445  1.00  0.00    -0.236 NA
ATOM     13  S   UNL     1       1.952   3.187   0.399  1.00  0.00    -0.114 S 
ATOM     14  C   UNL     1       2.846   5.191  -0.868  1.00  0.00     0.082 A 
ATOM     15  C   UNL     1       1.960   4.885   0.161  1.00  0.00     0.055 A 
ATOM     16  C   UNL     1       3.038   6.542  -1.220  1.00  0.00     0.030 A 
ATOM     17  C   UNL     1       1.241   5.879   0.845  1.00  0.00     0.021 A 
ATOM     18  C   UNL     1       2.340   7.543  -0.536  1.00  0.00     0.002 A 
ATOM     19  C   UNL     1       1.450   7.212   0.481  1.00  0.00     0.002 A 
ENDBRANCH   9  11
BRANCH  10  20
ATOM     20  C   UNL     1       6.090   2.777  -0.802  1.00  0.00    -0.022 A 
ATOM     21  C   UNL     1       6.086   3.484   0.405  1.00  0.00     0.010 A 
ATOM     22  C   UNL     1       6.979   3.161  -1.805  1.00  0.00     0.049 A 
ATOM     23  C   UNL     1       6.929   4.585   0.587  1.00  0.00     0.029 A 
ATOM     24  C   UNL     1       7.812   4.265  -1.610  1.00  0.00     0.147 A 
ATOM     25  C   UNL     1       7.811   5.009  -0.416  1.00  0.00     0.073 A 
ATOM     26  F   UNL     1       8.668   4.582  -2.597  1.00  0.00    -0.205 F 
BRANCH  25  27
ATOM     27  N   UNL     1       8.645   6.086  -0.213  1.00  0.00    -0.365 N 
ATOM     28  C   UNL     1       8.818   7.144  -1.214  1.00  0.00     0.145 C 
ATOM     29  C   UNL     1       9.330   6.312   1.061  1.00  0.00     0.145 C 
ATOM     30  C   UNL     1      10.312   7.460  -1.381  1.00  0.00     0.181 C 
ATOM     31  C   UNL     1      10.807   6.629   0.774  1.00  0.00     0.181 C 
ATOM     32  O   UNL     1      10.944   7.750  -0.119  1.00  0.00    -0.378 OA
ENDBRANCH  25  27
ENDBRANCH  10  20
ENDBRANCH   8   9
ENDBRANCH   6   8
ENDBRANCH   3   4
ENDBRANCH   2   3
ENDBRANCH   1   2
BRANCH   1  33
ATOM     33  C   UNL     1       4.663  -0.944   4.206  1.00  0.00     0.002 C 
BRANCH  33  34
ATOM     34  C   UNL     1       3.966  -1.091   5.561  1.00  0.00     0.021 C 
BRANCH  34  35
ATOM     35  C   UNL     1       4.112  -2.462   6.215  1.00  0.00     0.116 C 
BRANCH  35  36
ATOM     36  N   UNL     1       5.497  -2.780   6.528  1.00  0.00    -0.352 N 
ATOM     37  C   UNL     1       6.047  -3.200   7.714  1.00  0.00     0.251 C 
ATOM     38  H   UNL     1       6.131  -2.681   5.782  1.00  0.00     0.163 HD
ATOM     39  O   UNL     1       7.270  -3.239   7.835  1.00  0.00    -0.269 OA
BRANCH  37  40
ATOM     40  C   UNL     1       5.173  -3.578   8.847  1.00  0.00     0.039 A 
ATOM     41  C   UNL     1       5.502  -3.137  10.131  1.00  0.00     0.014 A 
ATOM     42  C   UNL     1       4.036  -4.368   8.649  1.00  0.00     0.014 A 
ATOM     43  C   UNL     1       4.657  -3.434  11.204  1.00  0.00     0.010 A 
ATOM     44  C   UNL     1       3.157  -4.599   9.705  1.00  0.00     0.010 A 
ATOM     45  C   UNL     1       3.458  -4.136  10.995  1.00  0.00    -0.014 A 
BRANCH  45  46
ATOM     46  C   UNL     1       2.511  -4.390  12.113  1.00  0.00     0.031 A 
ATOM     47  C   UNL     1       2.206  -5.799  12.545  1.00  0.00     0.074 A 
ATOM     48  C   UNL     1       1.894  -3.352  12.714  1.00  0.00     0.049 A 
ATOM     49  N   UNL     1       1.367  -6.218  13.457  1.00  0.00    -0.248 NA
ATOM     50  C   UNL     1       2.919  -6.880  11.846  1.00  0.00     0.031 C 
ATOM     51  C   UNL     1       2.084  -1.942  12.366  1.00  0.00     0.029 A 
ATOM     52  N   UNL     1       0.984  -3.317  13.742  1.00  0.00    -0.354 N 
ATOM     53  C   UNL     1       1.445  -7.606  13.437  1.00  0.00     0.074 A 
ATOM     54  C   UNL     1       2.373  -7.961  12.385  1.00  0.00     0.031 C 
ATOM     55  C   UNL     1       1.347  -1.181  13.190  1.00  0.00     0.029 A 
ATOM     56  C   UNL     1       0.590  -2.046  14.091  1.00  0.00     0.049 A 
ATOM     57  H   UNL     1       0.645  -4.127  14.188  1.00  0.00     0.167 HD
ATOM     58  C   UNL     1       0.817  -8.501  14.237  1.00  0.00     0.034 A 
ATOM     59  C   UNL     1      -0.288  -1.619  15.020  1.00  0.00     0.034 A 
ATOM     60  C   UNL     1      -0.087  -8.135  15.298  1.00  0.00     0.049 A 
ATOM     61  C   UNL     1      -1.001  -2.634  15.874  1.00  0.00     0.074 A 
ATOM     62  C   UNL     1      -0.727  -8.965  16.201  1.00  0.00     0.029 A 
ATOM     63  N   UNL     1      -0.484  -6.839  15.596  1.00  0.00    -0.354 N 
ATOM     64  N   UNL     1      -0.898  -3.942  15.854  1.00  0.00    -0.248 NA
ATOM     65  C   UNL     1      -1.948  -2.119  16.873  1.00  0.00     0.031 C 
ATOM     66  C   UNL     1      -1.566  -8.180  16.997  1.00  0.00     0.029 A 
ATOM     67  C   UNL     1      -1.390  -6.852  16.645  1.00  0.00     0.049 A 
ATOM     68  H   UNL     1      -0.169  -6.030  15.131  1.00  0.00     0.167 HD
ATOM     69  C   UNL     1      -1.753  -4.406  16.849  1.00  0.00     0.074 A 
ATOM     70  C   UNL     1      -2.361  -3.239  17.454  1.00  0.00     0.031 C 
ATOM     71  C   UNL     1      -2.003  -5.683  17.230  1.00  0.00     0.034 A 
BRANCH  58  72
ATOM     72  C   UNL     1       1.072  -9.966  13.994  1.00  0.00     0.023 A 
ATOM     73  C   UNL     1       2.329 -10.545  14.236  1.00  0.00     0.031 A 
ATOM     74  C   UNL     1       0.032 -10.802  13.552  1.00  0.00     0.131 A 
ATOM     75  C   UNL     1       2.524 -11.914  13.998  1.00  0.00     0.055 A 
ATOM     76  C   UNL     1       0.215 -12.174  13.379  1.00  0.00     0.041 A 
ATOM     77  F   UNL     1      -1.184 -10.297  13.288  1.00  0.00    -0.206 F 
ATOM     78  C   UNL     1       1.469 -12.737  13.596  1.00  0.00     0.022 A 
BRANCH  75  79
ATOM     79  S   UNL     1       4.199 -12.593  14.149  1.00  0.00     0.124 S 
ATOM     80  O   UNL     1       4.904 -11.874  13.091  1.00  0.00    -0.237 OA
ATOM     81  O   UNL     1       4.563 -12.237  15.515  1.00  0.00    -0.237 OA
ATOM     82  O   UNL     1       4.012 -14.022  13.906  1.00  0.00    -0.744 OA
ENDBRANCH  75  79
ENDBRANCH  58  72
BRANCH  59  83
ATOM     83  C   UNL     1      -0.548  -0.161  15.179  1.00  0.00     0.023 A 
ATOM     84  C   UNL     1      -0.121   0.531  16.322  1.00  0.00     0.031 A 
ATOM     85  C   UNL     1      -1.207   0.566  14.171  1.00  0.00     0.131 A 
ATOM     86  C   UNL     1      -0.370   1.908  16.437  1.00  0.00     0.055 A 
ATOM     87  C   UNL     1      -1.418   1.942  14.273  1.00  0.00     0.041 A 
ATOM     88  F   UNL     1      -1.625  -0.050  13.054  1.00  0.00    -0.206 F 
ATOM     89  C   UNL     1      -1.002   2.620  15.414  1.00  0.00     0.022 A 
BRANCH  86  90
ATOM     90  S   UNL     1       0.129   2.763  17.958  1.00  0.00     0.124 S 
ATOM     91  O   UNL     1      -0.725   2.122  18.951  1.00  0.00    -0.237 OA
ATOM     92  O   UNL     1       1.552   2.447  18.032  1.00  0.00    -0.237 OA
ATOM     93  O   UNL     1      -0.180   4.163  17.677  1.00  0.00    -0.744 OA
ENDBRANCH  86  90
ENDBRANCH  59  83
BRANCH  71  94
ATOM     94  C   UNL     1      -2.958  -5.900  18.373  1.00  0.00     0.023 A 
ATOM     95  C   UNL     1      -4.340  -5.694  18.226  1.00  0.00     0.031 A 
ATOM     96  C   UNL     1      -2.485  -6.391  19.604  1.00  0.00     0.131 A 
ATOM     97  C   UNL     1      -5.201  -5.962  19.301  1.00  0.00     0.055 A 
ATOM     98  C   UNL     1      -3.351  -6.700  20.652  1.00  0.00     0.041 A 
ATOM     99  F   UNL     1      -1.173  -6.608  19.792  1.00  0.00    -0.206 F 
ATOM    100  C   UNL     1      -4.718  -6.482  20.505  1.00  0.00     0.022 A 
BRANCH  97 101
ATOM    101  S   UNL     1      -6.968  -5.599  19.115  1.00  0.00     0.124 S 
ATOM    102  O   UNL     1      -6.963  -4.148  18.961  1.00  0.00    -0.237 OA
ATOM    103  O   UNL     1      -7.325  -6.364  17.925  1.00  0.00    -0.237 OA
ATOM    104  O   UNL     1      -7.552  -6.089  20.362  1.00  0.00    -0.744 OA
ENDBRANCH  97 101
ENDBRANCH  71  94
ENDBRANCH  45  46
ENDBRANCH  37  40
ENDBRANCH  35  36
ENDBRANCH  34  35
ENDBRANCH  33  34
ENDBRANCH   1  33
TORSDOF 20
