REMARK SMILES NC(=O)c1c(-c2ccc(Cl)cc2)csc1NC(=O)[C@H]1[C@@H](C(=O)NCCCCCCNC(=O)c2ccc(-c3c4nc(c(-c5cc(S(=O)(=O)[O-])ccc5F)c5ccc([nH]5)c(-c5cc(S(=O)(=O)[O-])ccc5F)c5nc(c(-c6cc(S(=O)(=O)[O-])ccc6F)c6ccc3[nH]6)C=C5)C=C4)cc2)[C@@H]2CC[C@H]1O2
REMARK SMILES IDX 26 1 25 2 24 3 23 4 21 5 22 6 20 8 19 9 99 10 96 11 98 12
REMARK SMILES IDX 100 13 97 14 17 15 16 16 18 18 15 19 4 20 5 21 13 22 14 23
REMARK SMILES IDX 2 24 1 25 3 28 6 29 7 30 12 31 8 32 11 33 9 34 10 35 27 36
REMARK SMILES IDX 28 37 29 38 30 39 31 40 32 42 33 43 34 44 95 45 35 46 94 47
REMARK SMILES IDX 36 48 37 49 38 50 88 51 39 52 93 53 87 54 89 55 40 56 92 57
REMARK SMILES IDX 86 58 85 59 41 61 73 62 53 63 72 64 54 65 57 66 71 67 90 68
REMARK SMILES IDX 55 69 56 70 70 72 91 73 58 74 42 75 43 76 51 77 44 78 50 79
REMARK SMILES IDX 52 80 49 81 45 82 46 83 47 84 48 85 74 86 75 87 83 88 76 89
REMARK SMILES IDX 82 90 84 91 81 92 77 93 78 94 79 95 80 96 59 97 60 98 68 99
REMARK SMILES IDX 61 100 67 101 69 102 66 103 62 104 63 105 64 106 65 107
REMARK H PARENT 23 7 16 17 1 26 1 27 30 41 89 60 57 71
REMARK Flexibility Score: inf
ROOT
ATOM      1  C   UNL     1       4.594   2.877  -9.695  1.00  0.00     0.002 C 
ENDROOT
BRANCH   1   2
ATOM      2  C   UNL     1       3.278   3.409  -9.121  1.00  0.00     0.021 C 
BRANCH   2   3
ATOM      3  C   UNL     1       2.435   2.356  -8.400  1.00  0.00     0.116 C 
BRANCH   3   4
ATOM      4  N   UNL     1       3.007   1.984  -7.120  1.00  0.00    -0.356 N 
ATOM      5  C   UNL     1       2.712   2.354  -5.849  1.00  0.00     0.226 C 
ATOM      6  O   UNL     1       3.374   1.818  -4.949  1.00  0.00    -0.275 OA
ATOM      7  H   UNL     1       3.750   1.341  -7.186  1.00  0.00     0.163 HD
BRANCH   5   8
ATOM      8  C   UNL     1       1.697   3.427  -5.463  1.00  0.00     0.122 C 
ATOM      9  C   UNL     1       0.190   3.293  -5.764  1.00  0.00     0.123 C 
ATOM     10  C   UNL     1      -0.038   4.539  -6.650  1.00  0.00     0.132 C 
ATOM     11  C   UNL     1       2.041   4.786  -6.076  1.00  0.00     0.132 C 
ATOM     12  C   UNL     1      -0.098   5.796  -5.777  1.00  0.00     0.035 C 
ATOM     13  O   UNL     1       1.243   4.769  -7.276  1.00  0.00    -0.373 OA
ATOM     14  C   UNL     1       1.359   5.930  -5.320  1.00  0.00     0.035 C 
BRANCH   9  15
ATOM     15  C   UNL     1      -0.333   1.971  -6.318  1.00  0.00     0.231 C 
ATOM     16  N   UNL     1      -1.611   1.797  -6.772  1.00  0.00    -0.317 N 
ATOM     17  H   UNL     1      -1.752   0.929  -7.215  1.00  0.00     0.170 HD
ATOM     18  O   UNL     1       0.381   0.964  -6.335  1.00  0.00    -0.274 OA
BRANCH  16  19
ATOM     19  C   UNL     1      -2.748   2.585  -6.740  1.00  0.00     0.108 A 
ATOM     20  C   UNL     1      -3.878   2.443  -7.545  1.00  0.00     0.082 A 
ATOM     21  C   UNL     1      -4.770   3.565  -7.335  1.00  0.00     0.007 A 
ATOM     22  C   UNL     1      -4.347   4.378  -6.301  1.00  0.00     0.076 A 
ATOM     23  S   UNL     1      -2.963   3.764  -5.542  1.00  0.00    -0.125 S 
BRANCH  20  24
ATOM     24  C   UNL     1      -4.012   1.306  -8.460  1.00  0.00     0.252 C 
ATOM     25  N   UNL     1      -4.902   1.407  -9.485  1.00  0.00    -0.365 N 
ATOM     26  H   UNL     1      -5.013   0.659 -10.115  1.00  0.00     0.159 HD
ATOM     27  H   UNL     1      -5.434   2.227  -9.596  1.00  0.00     0.159 HD
ATOM     28  O   UNL     1      -3.342   0.283  -8.334  1.00  0.00    -0.269 OA
ENDBRANCH  20  24
BRANCH  21  29
ATOM     29  C   UNL     1      -6.031   3.902  -7.968  1.00  0.00    -0.017 A 
ATOM     30  C   UNL     1      -6.075   4.869  -8.981  1.00  0.00     0.010 A 
ATOM     31  C   UNL     1      -7.215   3.326  -7.496  1.00  0.00     0.010 A 
ATOM     32  C   UNL     1      -7.306   5.275  -9.502  1.00  0.00     0.021 A 
ATOM     33  C   UNL     1      -8.443   3.738  -8.014  1.00  0.00     0.021 A 
ATOM     34  C   UNL     1      -8.485   4.716  -9.008  1.00  0.00     0.041 A 
ATOM     35  Cl  UNL     1     -10.005   5.253  -9.606  1.00  0.00    -0.084 Cl
ENDBRANCH  21  29
ENDBRANCH  16  19
ENDBRANCH   9  15
ENDBRANCH   5   8
ENDBRANCH   3   4
ENDBRANCH   2   3
ENDBRANCH   1   2
BRANCH   1  36
ATOM     36  C   UNL     1       4.446   1.820 -10.794  1.00  0.00     0.002 C 
BRANCH  36  37
ATOM     37  C   UNL     1       3.571   2.227 -11.983  1.00  0.00     0.021 C 
BRANCH  37  38
ATOM     38  C   UNL     1       4.014   3.498 -12.707  1.00  0.00     0.116 C 
BRANCH  38  39
ATOM     39  N   UNL     1       5.332   3.355 -13.306  1.00  0.00    -0.352 N 
ATOM     40  C   UNL     1       5.715   3.502 -14.617  1.00  0.00     0.251 C 
ATOM     41  H   UNL     1       6.054   3.117 -12.681  1.00  0.00     0.163 HD
ATOM     42  O   UNL     1       6.834   3.144 -14.972  1.00  0.00    -0.269 OA
BRANCH  40  43
ATOM     43  C   UNL     1       4.769   4.072 -15.602  1.00  0.00     0.039 A 
ATOM     44  C   UNL     1       4.597   3.426 -16.829  1.00  0.00     0.014 A 
ATOM     45  C   UNL     1       4.054   5.239 -15.315  1.00  0.00     0.014 A 
ATOM     46  C   UNL     1       3.652   3.908 -17.739  1.00  0.00     0.010 A 
ATOM     47  C   UNL     1       3.073   5.684 -16.198  1.00  0.00     0.010 A 
ATOM     48  C   UNL     1       2.855   5.017 -17.414  1.00  0.00    -0.014 A 
BRANCH  48  49
ATOM     49  C   UNL     1       1.765   5.476 -18.313  1.00  0.00     0.031 A 
ATOM     50  C   UNL     1       1.840   6.828 -18.966  1.00  0.00     0.074 A 
ATOM     51  C   UNL     1       0.668   4.708 -18.469  1.00  0.00     0.049 A 
ATOM     52  N   UNL     1       0.944   7.448 -19.691  1.00  0.00    -0.248 NA
ATOM     53  C   UNL     1       3.076   7.592 -18.752  1.00  0.00     0.031 C 
ATOM     54  C   UNL     1       0.465   3.393 -17.855  1.00  0.00     0.029 A 
ATOM     55  N   UNL     1      -0.490   4.926 -19.172  1.00  0.00    -0.354 N 
ATOM     56  C   UNL     1       1.501   8.682 -20.008  1.00  0.00     0.074 A 
ATOM     57  C   UNL     1       2.792   8.738 -19.354  1.00  0.00     0.031 C 
ATOM     58  C   UNL     1      -0.739   2.921 -18.214  1.00  0.00     0.029 A 
ATOM     59  C   UNL     1      -1.414   3.915 -19.043  1.00  0.00     0.049 A 
ATOM     60  H   UNL     1      -0.645   5.731 -19.718  1.00  0.00     0.167 HD
ATOM     61  C   UNL     1       0.988   9.668 -20.787  1.00  0.00     0.034 A 
ATOM     62  C   UNL     1      -2.671   3.809 -19.518  1.00  0.00     0.034 A 
ATOM     63  C   UNL     1      -0.296   9.588 -21.441  1.00  0.00     0.049 A 
ATOM     64  C   UNL     1      -3.233   4.931 -20.351  1.00  0.00     0.074 A 
ATOM     65  C   UNL     1      -0.875  10.491 -22.316  1.00  0.00     0.029 A 
ATOM     66  N   UNL     1      -1.208   8.553 -21.280  1.00  0.00    -0.354 N 
ATOM     67  N   UNL     1      -2.670   6.068 -20.690  1.00  0.00    -0.248 NA
ATOM     68  C   UNL     1      -4.598   4.756 -20.865  1.00  0.00     0.031 C 
ATOM     69  C   UNL     1      -2.162  10.037 -22.629  1.00  0.00     0.029 A 
ATOM     70  C   UNL     1      -2.362   8.816 -22.005  1.00  0.00     0.049 A 
ATOM     71  H   UNL     1      -1.058   7.749 -20.732  1.00  0.00     0.167 HD
ATOM     72  C   UNL     1      -3.607   6.735 -21.474  1.00  0.00     0.074 A 
ATOM     73  C   UNL     1      -4.763   5.867 -21.568  1.00  0.00     0.031 C 
ATOM     74  C   UNL     1      -3.518   7.953 -22.065  1.00  0.00     0.034 A 
BRANCH  61  75
ATOM     75  C   UNL     1       1.808  10.925 -20.945  1.00  0.00     0.023 A 
ATOM     76  C   UNL     1       3.068  10.913 -21.567  1.00  0.00     0.031 A 
ATOM     77  C   UNL     1       1.332  12.152 -20.448  1.00  0.00     0.131 A 
ATOM     78  C   UNL     1       3.841  12.083 -21.608  1.00  0.00     0.055 A 
ATOM     79  C   UNL     1       2.073  13.330 -20.561  1.00  0.00     0.041 A 
ATOM     80  F   UNL     1       0.144  12.223 -19.828  1.00  0.00    -0.206 F 
ATOM     81  C   UNL     1       3.343  13.297 -21.131  1.00  0.00     0.022 A 
BRANCH  78  82
ATOM     82  S   UNL     1       5.562  11.965 -22.169  1.00  0.00     0.124 S 
ATOM     83  O   UNL     1       6.114  10.995 -21.225  1.00  0.00    -0.237 OA
ATOM     84  O   UNL     1       5.415  11.506 -23.545  1.00  0.00    -0.237 OA
ATOM     85  O   UNL     1       6.067  13.328 -22.016  1.00  0.00    -0.744 OA
ENDBRANCH  78  82
ENDBRANCH  61  75
BRANCH  62  86
ATOM     86  C   UNL     1      -3.497   2.613 -19.193  1.00  0.00     0.023 A 
ATOM     87  C   UNL     1      -3.891   1.712 -20.195  1.00  0.00     0.031 A 
ATOM     88  C   UNL     1      -3.930   2.369 -17.877  1.00  0.00     0.131 A 
ATOM     89  C   UNL     1      -4.723   0.629 -19.872  1.00  0.00     0.055 A 
ATOM     90  C   UNL     1      -4.718   1.264 -17.553  1.00  0.00     0.041 A 
ATOM     91  F   UNL     1      -3.578   3.198 -16.881  1.00  0.00    -0.206 F 
ATOM     92  C   UNL     1      -5.129   0.392 -18.556  1.00  0.00     0.022 A 
BRANCH  89  93
ATOM     93  S   UNL     1      -5.329  -0.431 -21.213  1.00  0.00     0.124 S 
ATOM     94  O   UNL     1      -6.032   0.529 -22.055  1.00  0.00    -0.237 OA
ATOM     95  O   UNL     1      -4.087  -0.973 -21.754  1.00  0.00    -0.237 OA
ATOM     96  O   UNL     1      -6.180  -1.398 -20.523  1.00  0.00    -0.744 OA
ENDBRANCH  89  93
ENDBRANCH  62  86
BRANCH  74  97
ATOM     97  C   UNL     1      -4.703   8.402 -22.882  1.00  0.00     0.023 A 
ATOM     98  C   UNL     1      -5.927   8.737 -22.277  1.00  0.00     0.031 A 
ATOM     99  C   UNL     1      -4.608   8.490 -24.282  1.00  0.00     0.131 A 
ATOM    100  C   UNL     1      -7.023   9.100 -23.074  1.00  0.00     0.055 A 
ATOM    101  C   UNL     1      -5.686   8.904 -25.066  1.00  0.00     0.041 A 
ATOM    102  F   UNL     1      -3.462   8.179 -24.909  1.00  0.00    -0.206 F 
ATOM    103  C   UNL     1      -6.905   9.202 -24.463  1.00  0.00     0.022 A 
BRANCH 100 104
ATOM    104  S   UNL     1      -8.628   9.374 -22.276  1.00  0.00     0.124 S 
ATOM    105  O   UNL     1      -8.901   8.067 -21.688  1.00  0.00    -0.237 OA
ATOM    106  O   UNL     1      -8.331  10.447 -21.333  1.00  0.00    -0.237 OA
ATOM    107  O   UNL     1      -9.503   9.751 -23.385  1.00  0.00    -0.744 OA
ENDBRANCH 100 104
ENDBRANCH  74  97
ENDBRANCH  48  49
ENDBRANCH  40  43
ENDBRANCH  38  39
ENDBRANCH  37  38
ENDBRANCH  36  37
ENDBRANCH   1  36
TORSDOF 20
