REMARK SMILES N#C/C(=C/c1ccc(-c2cccc(C(=O)NCCCCCCNC(=O)c3ccc(-c4c5nc(c(-c6cc(S(=O)(=O)[O-])ccc6F)c6ccc([nH]6)c(-c6cc(S(=O)(=O)[O-])ccc6F)c6nc(c(-c7cc(S(=O)(=O)[O-])ccc7F)c7ccc4[nH]7)C=C6)C=C5)cc3)c2)o1)c1ccc(F)cc1
REMARK SMILES IDX 19 1 18 2 17 3 16 4 14 5 15 6 13 8 9 9 10 10 89 11 11 12
REMARK SMILES IDX 12 13 8 14 5 15 6 16 90 17 7 18 4 19 3 20 2 21 1 22 91 23
REMARK SMILES IDX 92 24 97 25 93 26 96 27 94 28 95 29 20 30 21 31 22 32 23 33
REMARK SMILES IDX 24 34 25 36 26 37 27 38 88 39 28 40 87 41 29 42 30 43 31 44
REMARK SMILES IDX 81 45 32 46 86 47 80 48 82 49 33 50 85 51 79 52 78 53 34 55
REMARK SMILES IDX 66 56 46 57 65 58 47 59 50 60 64 61 83 62 48 63 49 64 63 66
REMARK SMILES IDX 84 67 51 68 35 69 36 70 44 71 37 72 43 73 45 74 42 75 38 76
REMARK SMILES IDX 39 77 40 78 41 79 67 80 68 81 76 82 69 83 75 84 77 85 74 86
REMARK SMILES IDX 70 87 71 88 72 89 73 90 52 91 53 92 61 93 54 94 60 95 62 96
REMARK SMILES IDX 59 97 55 98 56 99 57 100 58 101
REMARK H PARENT 16 7 23 35 82 54 50 65
REMARK Flexibility Score: inf
ROOT
ATOM      1  C   UNL     1      10.986   6.629   1.793  1.00  0.00     0.002 C 
ENDROOT
BRANCH   1   2
ATOM      2  C   UNL     1      10.060   5.479   2.179  1.00  0.00     0.021 C 
BRANCH   2   3
ATOM      3  C   UNL     1      10.553   4.073   1.859  1.00  0.00     0.116 C 
BRANCH   3   4
ATOM      4  N   UNL     1      11.716   3.640   2.623  1.00  0.00    -0.352 N 
ATOM      5  C   UNL     1      12.005   2.436   3.237  1.00  0.00     0.251 C 
ATOM      6  O   UNL     1      13.064   2.323   3.853  1.00  0.00    -0.269 OA
ATOM      7  H   UNL     1      12.417   4.324   2.719  1.00  0.00     0.163 HD
BRANCH   5   8
ATOM      8  C   UNL     1      11.045   1.296   3.232  1.00  0.00     0.040 A 
ATOM      9  C   UNL     1       9.037   0.267   2.324  1.00  0.00     0.018 A 
ATOM     10  C   UNL     1       8.951  -0.553   3.450  1.00  0.00     0.012 A 
ATOM     11  C   UNL     1      10.165   1.085   2.176  1.00  0.00     0.025 A 
ATOM     12  C   UNL     1       9.950  -0.502   4.431  1.00  0.00     0.002 A 
ATOM     13  C   UNL     1      10.973   0.450   4.342  1.00  0.00     0.014 A 
BRANCH   9  14
ATOM     14  C   UNL     1       7.966   0.433   1.350  1.00  0.00     0.134 A 
ATOM     15  C   UNL     1       5.837   0.764   0.775  1.00  0.00     0.128 A 
ATOM     16  C   UNL     1       6.638   1.082  -0.318  1.00  0.00     0.051 A 
ATOM     17  O   UNL     1       6.677   0.394   1.810  1.00  0.00    -0.457 OA
ATOM     18  C   UNL     1       7.976   0.817   0.027  1.00  0.00     0.051 A 
BRANCH  15  19
ATOM     19  C   UNL     1       4.407   0.735   0.840  1.00  0.00     0.067 C 
ATOM     20  C   UNL     1       3.688   0.002  -0.036  1.00  0.00     0.063 C 
BRANCH  20  21
ATOM     21  C   UNL     1       2.168   0.002  -0.036  1.00  0.00     0.100 C 
ATOM     22  N   UNL     1       0.907   0.002  -0.036  1.00  0.00    -0.192 NA
ENDBRANCH  20  21
BRANCH  20  23
ATOM     23  C   UNL     1       4.323  -0.925  -1.023  1.00  0.00    -0.007 A 
ATOM     24  C   UNL     1       5.242  -1.906  -0.597  1.00  0.00     0.012 A 
ATOM     25  C   UNL     1       4.058  -0.803  -2.396  1.00  0.00     0.012 A 
ATOM     26  C   UNL     1       5.944  -2.679  -1.523  1.00  0.00     0.040 A 
ATOM     27  C   UNL     1       4.745  -1.598  -3.321  1.00  0.00     0.040 A 
ATOM     28  C   UNL     1       5.694  -2.512  -2.877  1.00  0.00     0.123 A 
ATOM     29  F   UNL     1       6.384  -3.238  -3.766  1.00  0.00    -0.207 F 
ENDBRANCH  20  23
ENDBRANCH  15  19
ENDBRANCH   9  14
ENDBRANCH   5   8
ENDBRANCH   3   4
ENDBRANCH   2   3
ENDBRANCH   1   2
BRANCH   1  30
ATOM     30  C   UNL     1      11.449   6.669   0.335  1.00  0.00     0.002 C 
BRANCH  30  31
ATOM     31  C   UNL     1      10.352   6.583  -0.730  1.00  0.00     0.021 C 
BRANCH  31  32
ATOM     32  C   UNL     1       9.234   7.615  -0.613  1.00  0.00     0.116 C 
BRANCH  32  33
ATOM     33  N   UNL     1       9.722   8.979  -0.719  1.00  0.00    -0.352 N 
ATOM     34  C   UNL     1       9.333   9.984  -1.572  1.00  0.00     0.251 C 
ATOM     35  H   UNL     1      10.437   9.219  -0.086  1.00  0.00     0.163 HD
ATOM     36  O   UNL     1       9.994  11.014  -1.637  1.00  0.00    -0.269 OA
BRANCH  34  37
ATOM     37  C   UNL     1       8.137   9.808  -2.428  1.00  0.00     0.039 A 
ATOM     38  C   UNL     1       8.200  10.201  -3.767  1.00  0.00     0.014 A 
ATOM     39  C   UNL     1       6.957   9.264  -1.914  1.00  0.00     0.014 A 
ATOM     40  C   UNL     1       7.102   9.988  -4.605  1.00  0.00     0.010 A 
ATOM     41  C   UNL     1       5.893   8.981  -2.768  1.00  0.00     0.010 A 
ATOM     42  C   UNL     1       5.953   9.341  -4.122  1.00  0.00    -0.014 A 
BRANCH  42  43
ATOM     43  C   UNL     1       4.803   9.039  -5.016  1.00  0.00     0.031 A 
ATOM     44  C   UNL     1       3.459   9.665  -4.758  1.00  0.00     0.074 A 
ATOM     45  C   UNL     1       4.953   8.159  -6.026  1.00  0.00     0.049 A 
ATOM     46  N   UNL     1       2.322   9.475  -5.378  1.00  0.00    -0.248 NA
ATOM     47  C   UNL     1       3.382  10.606  -3.632  1.00  0.00     0.031 C 
ATOM     48  C   UNL     1       6.199   7.468  -6.364  1.00  0.00     0.029 A 
ATOM     49  N   UNL     1       4.054   7.694  -6.953  1.00  0.00    -0.354 N 
ATOM     50  C   UNL     1       1.393  10.270  -4.716  1.00  0.00     0.074 A 
ATOM     51  C   UNL     1       2.086  10.876  -3.598  1.00  0.00     0.031 C 
ATOM     52  C   UNL     1       5.995   6.700  -7.446  1.00  0.00     0.029 A 
ATOM     53  C   UNL     1       4.595   6.798  -7.846  1.00  0.00     0.049 A 
ATOM     54  H   UNL     1       3.111   7.975  -6.976  1.00  0.00     0.167 HD
ATOM     55  C   UNL     1       0.091  10.498  -5.027  1.00  0.00     0.034 A 
ATOM     56  C   UNL     1       4.025   6.125  -8.866  1.00  0.00     0.034 A 
ATOM     57  C   UNL     1      -0.586   9.877  -6.140  1.00  0.00     0.049 A 
ATOM     58  C   UNL     1       2.559   6.333  -9.149  1.00  0.00     0.074 A 
ATOM     59  C   UNL     1      -1.891  10.056  -6.566  1.00  0.00     0.029 A 
ATOM     60  N   UNL     1      -0.017   8.944  -6.999  1.00  0.00    -0.354 N 
ATOM     61  N   UNL     1       1.701   7.116  -8.536  1.00  0.00    -0.248 NA
ATOM     62  C   UNL     1       1.988   5.571 -10.266  1.00  0.00     0.031 C 
ATOM     63  C   UNL     1      -2.133   9.176  -7.626  1.00  0.00     0.029 A 
ATOM     64  C   UNL     1      -0.954   8.512  -7.926  1.00  0.00     0.049 A 
ATOM     65  H   UNL     1       0.917   8.636  -6.956  1.00  0.00     0.167 HD
ATOM     66  C   UNL     1       0.497   6.968  -9.220  1.00  0.00     0.074 A 
ATOM     67  C   UNL     1       0.745   6.028 -10.295  1.00  0.00     0.031 C 
ATOM     68  C   UNL     1      -0.702   7.562  -8.986  1.00  0.00     0.034 A 
BRANCH  55  69
ATOM     69  C   UNL     1      -0.678  11.437  -4.123  1.00  0.00     0.023 A 
ATOM     70  C   UNL     1      -0.276  12.772  -3.938  1.00  0.00     0.031 A 
ATOM     71  C   UNL     1      -1.789  10.982  -3.392  1.00  0.00     0.131 A 
ATOM     72  C   UNL     1      -0.906  13.567  -2.969  1.00  0.00     0.055 A 
ATOM     73  C   UNL     1      -2.478  11.811  -2.504  1.00  0.00     0.041 A 
ATOM     74  F   UNL     1      -2.212   9.713  -3.507  1.00  0.00    -0.206 F 
ATOM     75  C   UNL     1      -2.023  13.106  -2.270  1.00  0.00     0.022 A 
BRANCH  72  76
ATOM     76  S   UNL     1      -0.120  15.133  -2.498  1.00  0.00     0.124 S 
ATOM     77  O   UNL     1       1.211  14.684  -2.095  1.00  0.00    -0.237 OA
ATOM     78  O   UNL     1      -0.188  15.904  -3.733  1.00  0.00    -0.237 OA
ATOM     79  O   UNL     1      -0.960  15.623  -1.407  1.00  0.00    -0.744 OA
ENDBRANCH  72  76
ENDBRANCH  55  69
BRANCH  56  80
ATOM     80  C   UNL     1       4.838   5.195  -9.701  1.00  0.00     0.023 A 
ATOM     81  C   UNL     1       5.046   5.453 -11.065  1.00  0.00     0.031 A 
ATOM     82  C   UNL     1       5.392   4.021  -9.160  1.00  0.00     0.131 A 
ATOM     83  C   UNL     1       5.752   4.530 -11.852  1.00  0.00     0.055 A 
ATOM     84  C   UNL     1       6.141   3.134  -9.935  1.00  0.00     0.041 A 
ATOM     85  F   UNL     1       5.224   3.727  -7.861  1.00  0.00    -0.206 F 
ATOM     86  C   UNL     1       6.315   3.381 -11.293  1.00  0.00     0.022 A 
BRANCH  83  87
ATOM     87  S   UNL     1       5.856   4.816 -13.640  1.00  0.00     0.124 S 
ATOM     88  O   UNL     1       4.448   4.831 -14.019  1.00  0.00    -0.237 OA
ATOM     89  O   UNL     1       6.553   6.097 -13.702  1.00  0.00    -0.237 OA
ATOM     90  O   UNL     1       6.622   3.669 -14.123  1.00  0.00    -0.744 OA
ENDBRANCH  83  87
ENDBRANCH  56  80
BRANCH  68  91
ATOM     91  C   UNL     1      -1.826   7.248  -9.945  1.00  0.00     0.023 A 
ATOM     92  C   UNL     1      -2.379   5.959 -10.049  1.00  0.00     0.031 A 
ATOM     93  C   UNL     1      -2.347   8.257 -10.776  1.00  0.00     0.131 A 
ATOM     94  C   UNL     1      -3.378   5.700 -11.000  1.00  0.00     0.055 A 
ATOM     95  C   UNL     1      -3.388   8.009 -11.672  1.00  0.00     0.041 A 
ATOM     96  F   UNL     1      -1.855   9.505 -10.726  1.00  0.00    -0.206 F 
ATOM     97  C   UNL     1      -3.900   6.722 -11.798  1.00  0.00     0.022 A 
BRANCH  94  98
ATOM     98  S   UNL     1      -3.917   3.987 -11.254  1.00  0.00     0.124 S 
ATOM     99  O   UNL     1      -2.666   3.326 -11.613  1.00  0.00    -0.237 OA
ATOM    100  O   UNL     1      -4.471   3.637  -9.950  1.00  0.00    -0.237 OA
ATOM    101  O   UNL     1      -4.896   4.092 -12.335  1.00  0.00    -0.744 OA
ENDBRANCH  94  98
ENDBRANCH  68  91
ENDBRANCH  42  43
ENDBRANCH  34  37
ENDBRANCH  32  33
ENDBRANCH  31  32
ENDBRANCH  30  31
ENDBRANCH   1  30
TORSDOF 20
