REMARK SMILES CCc1cc(Oc2cncc(C(=O)NCCCCCCNC(=O)c3ccc(-c4c5nc(c(-c6cc(S(=O)(=O)[O-])ccc6F)c6ccc([nH]6)c(-c6cc(S(=O)(=O)[O-])ccc6F)c6nc(c(-c7cc(S(=O)(=O)[O-])ccc7F)c7ccc4[nH]7)C=C6)C=C5)cc3)n2)ccc1Cl
REMARK SMILES IDX 17 1 16 2 15 3 14 4 12 5 13 6 11 8 7 9 8 10 87 11 9 12 10 13
REMARK SMILES IDX 6 14 5 15 3 16 4 17 90 18 89 19 91 20 88 21 2 22 1 23 18 24
REMARK SMILES IDX 19 25 20 26 21 27 22 28 23 30 24 31 25 32 86 33 26 34 85 35
REMARK SMILES IDX 27 36 28 37 29 38 79 39 30 40 84 41 78 42 80 43 31 44 83 45
REMARK SMILES IDX 77 46 76 47 32 49 64 50 44 51 63 52 45 53 48 54 62 55 81 56
REMARK SMILES IDX 46 57 47 58 61 60 82 61 49 62 33 63 34 64 42 65 35 66 41 67
REMARK SMILES IDX 43 68 40 69 36 70 37 71 38 72 39 73 65 74 66 75 74 76 67 77
REMARK SMILES IDX 73 78 75 79 72 80 68 81 69 82 70 83 71 84 50 85 51 86 59 87
REMARK SMILES IDX 52 88 58 89 60 90 57 91 53 92 54 93 55 94 56 95
REMARK H PARENT 14 7 21 29 80 48 48 59
REMARK Flexibility Score: inf
ROOT
ATOM      1  C   UNL     1       9.054   3.731   3.507  1.00  0.00     0.002 C 
ENDROOT
BRANCH   1   2
ATOM      2  C   UNL     1       7.555   3.458   3.680  1.00  0.00     0.021 C 
BRANCH   2   3
ATOM      3  C   UNL     1       7.124   3.298   5.137  1.00  0.00     0.116 C 
BRANCH   3   4
ATOM      4  N   UNL     1       7.133   4.580   5.826  1.00  0.00    -0.351 N 
ATOM      5  C   UNL     1       6.120   5.332   6.375  1.00  0.00     0.271 C 
ATOM      6  O   UNL     1       6.421   6.404   6.904  1.00  0.00    -0.267 OA
ATOM      7  H   UNL     1       8.027   4.982   5.916  1.00  0.00     0.163 HD
BRANCH   5   8
ATOM      8  C   UNL     1       4.695   4.896   6.388  1.00  0.00     0.150 A 
ATOM      9  C   UNL     1       3.034   3.431   5.801  1.00  0.00     0.238 A 
ATOM     10  C   UNL     1       2.138   4.102   6.622  1.00  0.00     0.179 A 
ATOM     11  N   UNL     1       4.321   3.810   5.674  1.00  0.00    -0.205 NA
ATOM     12  N   UNL     1       2.482   5.221   7.304  1.00  0.00    -0.257 NA
ATOM     13  C   UNL     1       3.782   5.600   7.167  1.00  0.00     0.145 A 
BRANCH   9  14
ATOM     14  O   UNL     1       2.674   2.295   5.122  1.00  0.00    -0.437 OA
BRANCH  14  15
ATOM     15  C   UNL     1       1.954   2.443   3.957  1.00  0.00     0.129 A 
ATOM     16  C   UNL     1       0.840   1.244   2.133  1.00  0.00    -0.026 A 
ATOM     17  C   UNL     1       1.637   1.250   3.295  1.00  0.00     0.052 A 
ATOM     18  C   UNL     1       0.352   2.472   1.660  1.00  0.00     0.044 A 
ATOM     19  C   UNL     1       0.711   3.668   2.288  1.00  0.00     0.024 A 
ATOM     20  Cl  UNL     1      -0.738   2.583   0.325  1.00  0.00    -0.084 Cl
ATOM     21  C   UNL     1       1.520   3.658   3.424  1.00  0.00     0.049 A 
BRANCH  16  22
ATOM     22  C   UNL     1       0.535  -0.077   1.461  1.00  0.00     0.034 C 
ATOM     23  C   UNL     1       1.244  -0.253   0.124  1.00  0.00     0.009 C 
ENDBRANCH  16  22
ENDBRANCH  14  15
ENDBRANCH   9  14
ENDBRANCH   5   8
ENDBRANCH   3   4
ENDBRANCH   2   3
ENDBRANCH   1   2
BRANCH   1  24
ATOM     24  C   UNL     1       9.981   2.675   4.123  1.00  0.00     0.002 C 
BRANCH  24  25
ATOM     25  C   UNL     1       9.695   1.233   3.697  1.00  0.00     0.021 C 
BRANCH  25  26
ATOM     26  C   UNL     1       9.804   0.988   2.197  1.00  0.00     0.116 C 
BRANCH  26  27
ATOM     27  N   UNL     1      11.162   1.181   1.714  1.00  0.00    -0.352 N 
ATOM     28  C   UNL     1      11.946   0.322   0.985  1.00  0.00     0.251 C 
ATOM     29  H   UNL     1      11.575   2.046   1.942  1.00  0.00     0.163 HD
ATOM     30  O   UNL     1      13.144   0.551   0.846  1.00  0.00    -0.269 OA
BRANCH  28  31
ATOM     31  C   UNL     1      11.338  -0.887   0.390  1.00  0.00     0.039 A 
ATOM     32  C   UNL     1      11.988  -2.116   0.523  1.00  0.00     0.014 A 
ATOM     33  C   UNL     1      10.119  -0.804  -0.289  1.00  0.00     0.014 A 
ATOM     34  C   UNL     1      11.386  -3.274   0.023  1.00  0.00     0.010 A 
ATOM     35  C   UNL     1       9.489  -1.966  -0.720  1.00  0.00     0.010 A 
ATOM     36  C   UNL     1      10.118  -3.213  -0.576  1.00  0.00    -0.014 A 
BRANCH  36  37
ATOM     37  C   UNL     1       9.435  -4.429  -1.092  1.00  0.00     0.031 A 
ATOM     38  C   UNL     1       9.134  -4.540  -2.563  1.00  0.00     0.074 A 
ATOM     39  C   UNL     1       9.018  -5.386  -0.239  1.00  0.00     0.049 A 
ATOM     40  N   UNL     1       8.426  -5.436  -3.199  1.00  0.00    -0.248 NA
ATOM     41  C   UNL     1       9.676  -3.479  -3.427  1.00  0.00     0.031 C 
ATOM     42  C   UNL     1       9.238  -5.383   1.210  1.00  0.00     0.029 A 
ATOM     43  N   UNL     1       8.310  -6.541  -0.462  1.00  0.00    -0.354 N 
ATOM     44  C   UNL     1       8.415  -5.035  -4.531  1.00  0.00     0.074 A 
ATOM     45  C   UNL     1       9.144  -3.787  -4.600  1.00  0.00     0.031 C 
ATOM     46  C   UNL     1       8.692  -6.491   1.739  1.00  0.00     0.029 A 
ATOM     47  C   UNL     1       8.035  -7.255   0.683  1.00  0.00     0.049 A 
ATOM     48  H   UNL     1       8.024  -6.832  -1.358  1.00  0.00     0.167 HD
ATOM     49  C   UNL     1       7.861  -5.659  -5.599  1.00  0.00     0.034 A 
ATOM     50  C   UNL     1       7.317  -8.383   0.863  1.00  0.00     0.034 A 
ATOM     51  C   UNL     1       7.160  -6.916  -5.515  1.00  0.00     0.049 A 
ATOM     52  C   UNL     1       6.683  -9.041  -0.340  1.00  0.00     0.074 A 
ATOM     53  C   UNL     1       6.611  -7.665  -6.542  1.00  0.00     0.029 A 
ATOM     54  N   UNL     1       6.909  -7.611  -4.339  1.00  0.00    -0.354 N 
ATOM     55  N   UNL     1       6.710  -8.666  -1.598  1.00  0.00    -0.248 NA
ATOM     56  C   UNL     1       5.927 -10.279  -0.101  1.00  0.00     0.031 C 
ATOM     57  C   UNL     1       5.964  -8.770  -5.981  1.00  0.00     0.029 A 
ATOM     58  C   UNL     1       6.187  -8.761  -4.613  1.00  0.00     0.049 A 
ATOM     59  H   UNL     1       7.201  -7.327  -3.443  1.00  0.00     0.167 HD
ATOM     60  C   UNL     1       6.021  -9.650  -2.303  1.00  0.00     0.074 A 
ATOM     61  C   UNL     1       5.590 -10.633  -1.332  1.00  0.00     0.031 C 
ATOM     62  C   UNL     1       5.777  -9.740  -3.635  1.00  0.00     0.034 A 
BRANCH  49  63
ATOM     63  C   UNL     1       7.963  -4.977  -6.942  1.00  0.00     0.023 A 
ATOM     64  C   UNL     1       9.201  -4.745  -7.566  1.00  0.00     0.031 A 
ATOM     65  C   UNL     1       6.801  -4.548  -7.608  1.00  0.00     0.131 A 
ATOM     66  C   UNL     1       9.253  -4.045  -8.781  1.00  0.00     0.055 A 
ATOM     67  C   UNL     1       6.854  -3.926  -8.857  1.00  0.00     0.041 A 
ATOM     68  F   UNL     1       5.591  -4.721  -7.052  1.00  0.00    -0.206 F 
ATOM     69  C   UNL     1       8.086  -3.659  -9.445  1.00  0.00     0.022 A 
BRANCH  66  70
ATOM     70  S   UNL     1      10.872  -3.532  -9.416  1.00  0.00     0.124 S 
ATOM     71  O   UNL     1      11.363  -2.692  -8.326  1.00  0.00    -0.237 OA
ATOM     72  O   UNL     1      11.558  -4.805  -9.600  1.00  0.00    -0.237 OA
ATOM     73  O   UNL     1      10.545  -2.814 -10.647  1.00  0.00    -0.744 OA
ENDBRANCH  66  70
ENDBRANCH  49  63
BRANCH  50  74
ATOM     74  C   UNL     1       7.138  -8.967   2.225  1.00  0.00     0.023 A 
ATOM     75  C   UNL     1       7.618 -10.252   2.524  1.00  0.00     0.031 A 
ATOM     76  C   UNL     1       6.426  -8.282   3.226  1.00  0.00     0.131 A 
ATOM     77  C   UNL     1       7.324 -10.839   3.765  1.00  0.00     0.055 A 
ATOM     78  C   UNL     1       6.193  -8.845   4.482  1.00  0.00     0.041 A 
ATOM     79  F   UNL     1       5.945  -7.050   2.996  1.00  0.00    -0.206 F 
ATOM     80  C   UNL     1       6.627 -10.138   4.752  1.00  0.00     0.022 A 
BRANCH  77  81
ATOM     81  S   UNL     1       7.763 -12.580   4.025  1.00  0.00     0.124 S 
ATOM     82  O   UNL     1       7.067 -13.227   2.919  1.00  0.00    -0.237 OA
ATOM     83  O   UNL     1       9.218 -12.541   3.935  1.00  0.00    -0.237 OA
ATOM     84  O   UNL     1       7.228 -12.869   5.354  1.00  0.00    -0.744 OA
ENDBRANCH  77  81
ENDBRANCH  50  74
BRANCH  62  85
ATOM     85  C   UNL     1       5.083 -10.984  -4.133  1.00  0.00     0.023 A 
ATOM     86  C   UNL     1       3.743 -11.270  -3.824  1.00  0.00     0.031 A 
ATOM     87  C   UNL     1       5.782 -11.890  -4.953  1.00  0.00     0.131 A 
ATOM     88  C   UNL     1       3.155 -12.454  -4.297  1.00  0.00     0.055 A 
ATOM     89  C   UNL     1       5.174 -13.034  -5.470  1.00  0.00     0.041 A 
ATOM     90  F   UNL     1       7.065 -11.666  -5.278  1.00  0.00    -0.206 F 
ATOM     91  C   UNL     1       3.857 -13.327  -5.134  1.00  0.00     0.022 A 
BRANCH  88  92
ATOM     92  S   UNL     1       1.480 -12.879  -3.746  1.00  0.00     0.124 S 
ATOM     93  O   UNL     1       1.645 -12.947  -2.298  1.00  0.00    -0.237 OA
ATOM     94  O   UNL     1       0.693 -11.756  -4.245  1.00  0.00    -0.237 OA
ATOM     95  O   UNL     1       1.217 -14.159  -4.401  1.00  0.00    -0.744 OA
ENDBRANCH  88  92
ENDBRANCH  62  85
ENDBRANCH  36  37
ENDBRANCH  28  31
ENDBRANCH  26  27
ENDBRANCH  25  26
ENDBRANCH  24  25
ENDBRANCH   1  24
TORSDOF 19
