REMARK SMILES CCc1ccc2c(CC(=O)NCCCCCCNC(=O)c3ccc(-c4c5nc(c(-c6cc(S(=O)(=O)[O-])ccc6F)c6ccc([nH]6)c(-c6cc(S(=O)(=O)[O-])ccc6F)c6nc(c(-c7cc(S(=O)(=O)[O-])ccc7F)c7ccc4[nH]7)C=C6)C=C5)cc3)c(C(=O)c3cc(C)ccn3)[nH]c2c1
REMARK SMILES IDX 14 1 13 2 12 3 11 4 9 5 10 6 8 8 7 9 3 10 4 11 96 12 5 13
REMARK SMILES IDX 95 14 6 15 94 16 84 17 2 19 1 20 85 21 86 22 87 23 88 24
REMARK SMILES IDX 93 25 89 26 92 27 90 28 91 29 15 30 16 31 17 32 18 33 19 34
REMARK SMILES IDX 20 36 21 37 22 38 83 39 23 40 82 41 24 42 25 43 26 44 76 45
REMARK SMILES IDX 27 46 81 47 75 48 77 49 28 50 80 51 74 52 73 53 29 55 61 56
REMARK SMILES IDX 41 57 60 58 42 59 45 60 59 61 78 62 43 63 44 64 58 66 79 67
REMARK SMILES IDX 46 68 30 69 31 70 39 71 32 72 38 73 40 74 37 75 33 76 34 77
REMARK SMILES IDX 35 78 36 79 62 80 63 81 71 82 64 83 70 84 72 85 69 86 65 87
REMARK SMILES IDX 66 88 67 89 68 90 47 91 48 92 56 93 49 94 55 95 57 96 54 97
REMARK SMILES IDX 50 98 51 99 52 100 53 101
REMARK H PARENT 11 7 94 18 18 35 77 54 45 65
REMARK Flexibility Score: inf
ROOT
ATOM      1  C   UNL     1       6.865   0.849  -4.957  1.00  0.00     0.002 C 
ENDROOT
BRANCH   1   2
ATOM      2  C   UNL     1       5.373   1.135  -4.743  1.00  0.00     0.021 C 
BRANCH   2   3
ATOM      3  C   UNL     1       4.852   2.358  -5.497  1.00  0.00     0.116 C 
BRANCH   3   4
ATOM      4  N   UNL     1       4.824   2.147  -6.929  1.00  0.00    -0.356 N 
ATOM      5  C   UNL     1       3.761   1.997  -7.772  1.00  0.00     0.224 C 
ATOM      6  O   UNL     1       4.007   2.003  -8.983  1.00  0.00    -0.275 OA
ATOM      7  H   UNL     1       5.707   2.106  -7.361  1.00  0.00     0.163 HD
BRANCH   5   8
ATOM      8  C   UNL     1       2.327   1.976  -7.257  1.00  0.00     0.138 C 
BRANCH   8   9
ATOM      9  C   UNL     1       2.018   0.936  -6.211  1.00  0.00    -0.002 A 
ATOM     10  C   UNL     1       0.842   1.091  -2.142  1.00  0.00    -0.046 A 
ATOM     11  C   UNL     1       0.920   2.320  -2.810  1.00  0.00     0.004 A 
ATOM     12  C   UNL     1       1.104  -0.093  -2.851  1.00  0.00     0.030 A 
ATOM     13  C   UNL     1       1.285   2.397  -4.160  1.00  0.00     0.011 A 
ATOM     14  C   UNL     1       1.474   0.005  -4.201  1.00  0.00     0.046 A 
ATOM     15  C   UNL     1       1.579   1.216  -4.871  1.00  0.00     0.004 A 
ATOM     16  N   UNL     1       1.802  -0.979  -5.102  1.00  0.00    -0.352 N 
ATOM     17  C   UNL     1       2.041  -0.452  -6.356  1.00  0.00     0.093 A 
ATOM     18  H   UNL     1       1.859  -1.937  -4.882  1.00  0.00     0.167 HD
BRANCH  10  19
ATOM     19  C   UNL     1       0.412   1.093  -0.690  1.00  0.00     0.032 C 
ATOM     20  C   UNL     1       0.950  -0.047   0.165  1.00  0.00     0.009 C 
ENDBRANCH  10  19
BRANCH  17  21
ATOM     21  C   UNL     1       2.287  -1.235  -7.562  1.00  0.00     0.227 C 
ATOM     22  O   UNL     1       2.469  -0.733  -8.671  1.00  0.00    -0.285 OA
BRANCH  21  23
ATOM     23  C   UNL     1       2.245  -2.720  -7.483  1.00  0.00     0.113 A 
ATOM     24  C   UNL     1       1.047  -3.361  -7.180  1.00  0.00     0.036 A 
ATOM     25  N   UNL     1       3.408  -3.369  -7.737  1.00  0.00    -0.253 NA
ATOM     26  C   UNL     1       1.038  -4.756  -7.125  1.00  0.00    -0.047 A 
ATOM     27  C   UNL     1       3.365  -4.716  -7.705  1.00  0.00     0.112 A 
ATOM     28  C   UNL     1      -0.214  -5.515  -6.800  1.00  0.00     0.044 C 
ATOM     29  C   UNL     1       2.223  -5.443  -7.404  1.00  0.00     0.023 A 
ENDBRANCH  21  23
ENDBRANCH  17  21
ENDBRANCH   8   9
ENDBRANCH   5   8
ENDBRANCH   3   4
ENDBRANCH   2   3
ENDBRANCH   1   2
BRANCH   1  30
ATOM     30  C   UNL     1       7.816   1.998  -4.604  1.00  0.00     0.002 C 
BRANCH  30  31
ATOM     31  C   UNL     1       7.675   2.561  -3.186  1.00  0.00     0.021 C 
BRANCH  31  32
ATOM     32  C   UNL     1       7.929   1.559  -2.062  1.00  0.00     0.116 C 
BRANCH  32  33
ATOM     33  N   UNL     1       9.296   1.065  -2.068  1.00  0.00    -0.352 N 
ATOM     34  C   UNL     1      10.213   1.006  -1.048  1.00  0.00     0.251 C 
ATOM     35  H   UNL     1       9.611   0.719  -2.934  1.00  0.00     0.163 HD
ATOM     36  O   UNL     1      11.382   0.728  -1.307  1.00  0.00    -0.269 OA
BRANCH  34  37
ATOM     37  C   UNL     1       9.812   1.293   0.348  1.00  0.00     0.039 A 
ATOM     38  C   UNL     1      10.670   2.053   1.150  1.00  0.00     0.014 A 
ATOM     39  C   UNL     1       8.624   0.789   0.884  1.00  0.00     0.014 A 
ATOM     40  C   UNL     1      10.313   2.348   2.469  1.00  0.00     0.010 A 
ATOM     41  C   UNL     1       8.241   1.134   2.181  1.00  0.00     0.010 A 
ATOM     42  C   UNL     1       9.084   1.912   2.989  1.00  0.00    -0.014 A 
BRANCH  42  43
ATOM     43  C   UNL     1       8.675   2.254   4.377  1.00  0.00     0.031 A 
ATOM     44  C   UNL     1       8.533   1.173   5.414  1.00  0.00     0.074 A 
ATOM     45  C   UNL     1       8.380   3.532   4.688  1.00  0.00     0.049 A 
ATOM     46  N   UNL     1       8.141   1.265   6.660  1.00  0.00    -0.248 NA
ATOM     47  C   UNL     1       8.844  -0.197   4.981  1.00  0.00     0.031 C 
ATOM     48  C   UNL     1       8.439   4.662   3.759  1.00  0.00     0.029 A 
ATOM     49  N   UNL     1       7.967   4.095   5.869  1.00  0.00    -0.354 N 
ATOM     50  C   UNL     1       8.143  -0.035   7.156  1.00  0.00     0.074 A 
ATOM     51  C   UNL     1       8.521  -0.899   6.057  1.00  0.00     0.031 C 
ATOM     52  C   UNL     1       8.100   5.786   4.411  1.00  0.00     0.029 A 
ATOM     53  C   UNL     1       7.764   5.453   5.792  1.00  0.00     0.049 A 
ATOM     54  H   UNL     1       7.829   3.576   6.694  1.00  0.00     0.167 HD
ATOM     55  C   UNL     1       7.874  -0.464   8.415  1.00  0.00     0.034 A 
ATOM     56  C   UNL     1       7.350   6.331   6.727  1.00  0.00     0.034 A 
ATOM     57  C   UNL     1       7.516   0.413   9.504  1.00  0.00     0.049 A 
ATOM     58  C   UNL     1       7.055   5.831   8.118  1.00  0.00     0.074 A 
ATOM     59  C   UNL     1       7.288   0.093  10.832  1.00  0.00     0.029 A 
ATOM     60  N   UNL     1       7.325   1.785   9.391  1.00  0.00    -0.354 N 
ATOM     61  N   UNL     1       7.116   4.606   8.586  1.00  0.00    -0.248 NA
ATOM     62  C   UNL     1       6.649   6.836   9.107  1.00  0.00     0.031 C 
ATOM     63  C   UNL     1       6.902   1.258  11.507  1.00  0.00     0.029 A 
ATOM     64  C   UNL     1       6.954   2.319  10.617  1.00  0.00     0.049 A 
ATOM     65  H   UNL     1       7.437   2.303   8.562  1.00  0.00     0.167 HD
ATOM     66  C   UNL     1       6.784   4.700   9.935  1.00  0.00     0.074 A 
ATOM     67  C   UNL     1       6.539   6.102  10.205  1.00  0.00     0.031 C 
ATOM     68  C   UNL     1       6.696   3.718  10.868  1.00  0.00     0.034 A 
BRANCH  55  69
ATOM     69  C   UNL     1       7.928  -1.954   8.665  1.00  0.00     0.023 A 
ATOM     70  C   UNL     1       9.118  -2.687   8.514  1.00  0.00     0.031 A 
ATOM     71  C   UNL     1       6.764  -2.658   9.022  1.00  0.00     0.131 A 
ATOM     72  C   UNL     1       9.101  -4.085   8.634  1.00  0.00     0.055 A 
ATOM     73  C   UNL     1       6.772  -4.040   9.224  1.00  0.00     0.041 A 
ATOM     74  F   UNL     1       5.593  -2.018   9.163  1.00  0.00    -0.206 F 
ATOM     75  C   UNL     1       7.942  -4.765   9.013  1.00  0.00     0.022 A 
BRANCH  72  76
ATOM     76  S   UNL     1      10.578  -5.015   8.139  1.00  0.00     0.124 S 
ATOM     77  O   UNL     1      10.734  -4.599   6.747  1.00  0.00    -0.237 OA
ATOM     78  O   UNL     1      11.587  -4.525   9.070  1.00  0.00    -0.237 OA
ATOM     79  O   UNL     1      10.182  -6.410   8.323  1.00  0.00    -0.744 OA
ENDBRANCH  72  76
ENDBRANCH  55  69
BRANCH  56  80
ATOM     80  C   UNL     1       7.193   7.773   6.391  1.00  0.00     0.023 A 
ATOM     81  C   UNL     1       8.025   8.743   6.973  1.00  0.00     0.031 A 
ATOM     82  C   UNL     1       6.184   8.207   5.513  1.00  0.00     0.131 A 
ATOM     83  C   UNL     1       7.806  10.102   6.705  1.00  0.00     0.055 A 
ATOM     84  C   UNL     1       6.000   9.558   5.214  1.00  0.00     0.041 A 
ATOM     85  F   UNL     1       5.367   7.319   4.925  1.00  0.00    -0.206 F 
ATOM     86  C   UNL     1       6.806  10.516   5.822  1.00  0.00     0.022 A 
BRANCH  83  87
ATOM     87  S   UNL     1       8.804  11.332   7.590  1.00  0.00     0.124 S 
ATOM     88  O   UNL     1       8.496  11.019   8.981  1.00  0.00    -0.237 OA
ATOM     89  O   UNL     1      10.153  11.005   7.142  1.00  0.00    -0.237 OA
ATOM     90  O   UNL     1       8.280  12.607   7.105  1.00  0.00    -0.744 OA
ENDBRANCH  83  87
ENDBRANCH  56  80
BRANCH  68  91
ATOM     91  C   UNL     1       6.358   4.146  12.275  1.00  0.00     0.023 A 
ATOM     92  C   UNL     1       5.098   4.677  12.603  1.00  0.00     0.031 A 
ATOM     93  C   UNL     1       7.323   4.053  13.293  1.00  0.00     0.131 A 
ATOM     94  C   UNL     1       4.856   5.152  13.901  1.00  0.00     0.055 A 
ATOM     95  C   UNL     1       7.057   4.474  14.597  1.00  0.00     0.041 A 
ATOM     96  F   UNL     1       8.543   3.556  13.035  1.00  0.00    -0.206 F 
ATOM     97  C   UNL     1       5.823   5.041  14.903  1.00  0.00     0.022 A 
BRANCH  94  98
ATOM     98  S   UNL     1       3.293   6.010  14.237  1.00  0.00     0.124 S 
ATOM     99  O   UNL     1       3.326   7.095  13.261  1.00  0.00    -0.237 OA
ATOM    100  O   UNL     1       2.305   4.965  13.994  1.00  0.00    -0.237 OA
ATOM    101  O   UNL     1       3.424   6.427  15.632  1.00  0.00    -0.744 OA
ENDBRANCH  94  98
ENDBRANCH  68  91
ENDBRANCH  42  43
ENDBRANCH  34  37
ENDBRANCH  32  33
ENDBRANCH  31  32
ENDBRANCH  30  31
ENDBRANCH   1  30
TORSDOF 20
