REMARK SMILES CC[C@](C)(C(=O)NCCCCCCNC(=O)c1ccc(-c2c3nc(c(-c4cc(S(=O)(=O)[O-])ccc4F)c4ccc([nH]4)c(-c4cc(S(=O)(=O)[O-])ccc4F)c4nc(c(-c5cc(S(=O)(=O)[O-])ccc5F)c5ccc2[nH]5)C=C4)C=C3)cc1)[C@H]1CCC[C@H](OC)C1
REMARK SMILES IDX 11 1 10 2 9 3 8 4 7 5 5 6 6 7 3 9 4 10 2 11 1 12 80 13 81 14
REMARK SMILES IDX 87 15 82 16 84 17 83 18 85 19 86 20 12 21 13 22 14 23 15 24
REMARK SMILES IDX 16 26 17 27 18 28 79 29 19 30 78 31 20 32 21 33 22 34 72 35
REMARK SMILES IDX 23 36 77 37 71 38 73 39 24 40 76 41 70 42 69 43 25 45 57 46
REMARK SMILES IDX 37 47 56 48 38 49 41 50 55 51 74 52 39 53 40 54 54 56 75 57
REMARK SMILES IDX 42 58 26 59 27 60 35 61 28 62 34 63 36 64 33 65 29 66 30 67
REMARK SMILES IDX 31 68 32 69 58 70 59 71 67 72 60 73 66 74 68 75 65 76 61 77
REMARK SMILES IDX 62 78 63 79 64 80 43 81 44 82 52 83 45 84 51 85 53 86 50 87
REMARK SMILES IDX 46 88 47 89 48 90 49 91
REMARK H PARENT 7 8 14 25 73 44 41 55
REMARK Flexibility Score: inf
ROOT
ATOM      1  C   UNL     1       5.450   0.773  -4.571  1.00  0.00     0.002 C 
ENDROOT
BRANCH   1   2
ATOM      2  C   UNL     1       3.978   0.932  -4.176  1.00  0.00     0.002 C 
BRANCH   2   3
ATOM      3  C   UNL     1       3.301  -0.356  -3.695  1.00  0.00     0.021 C 
BRANCH   3   4
ATOM      4  C   UNL     1       4.025  -1.036  -2.539  1.00  0.00     0.116 C 
BRANCH   4   5
ATOM      5  N   UNL     1       3.930  -0.220  -1.350  1.00  0.00    -0.356 N 
ATOM      6  C   UNL     1       3.485  -0.443  -0.091  1.00  0.00     0.226 C 
ATOM      7  O   UNL     1       3.372   0.587   0.575  1.00  0.00    -0.274 OA
ATOM      8  H   UNL     1       4.262   0.697  -1.484  1.00  0.00     0.163 HD
BRANCH   6   9
ATOM      9  C   UNL     1       3.144  -1.855   0.460  1.00  0.00     0.049 C 
ATOM     10  C   UNL     1       1.867  -2.340  -0.302  1.00  0.00     0.022 C 
BRANCH   9  11
ATOM     11  C   UNL     1       4.288  -2.873   0.123  1.00  0.00     0.013 C 
ATOM     12  C   UNL     1       5.733  -2.420   0.321  1.00  0.00     0.005 C 
ENDBRANCH   9  11
BRANCH   9  13
ATOM     13  C   UNL     1       2.670  -1.843   2.010  1.00  0.00     0.007 C 
ATOM     14  C   UNL     1       2.914  -3.157   2.792  1.00  0.00     0.005 C 
ATOM     15  C   UNL     1       3.058  -0.695   2.966  1.00  0.00     0.036 C 
ATOM     16  C   UNL     1       4.320  -3.303   3.384  1.00  0.00     0.003 C 
ATOM     17  C   UNL     1       4.529  -0.727   3.349  1.00  0.00     0.118 C 
ATOM     18  C   UNL     1       4.873  -2.044   4.057  1.00  0.00     0.032 C 
BRANCH  17  19
ATOM     19  O   UNL     1       4.949   0.418   4.100  1.00  0.00    -0.381 OA
ATOM     20  C   UNL     1       4.294   0.659   5.333  1.00  0.00     0.195 C 
ENDBRANCH  17  19
ENDBRANCH   9  13
ENDBRANCH   6   9
ENDBRANCH   4   5
ENDBRANCH   3   4
ENDBRANCH   2   3
ENDBRANCH   1   2
BRANCH   1  21
ATOM     21  C   UNL     1       5.726  -0.349  -5.573  1.00  0.00     0.021 C 
BRANCH  21  22
ATOM     22  C   UNL     1       4.900  -0.270  -6.852  1.00  0.00     0.116 C 
BRANCH  22  23
ATOM     23  N   UNL     1       5.146   0.964  -7.578  1.00  0.00    -0.352 N 
ATOM     24  C   UNL     1       5.519   1.133  -8.886  1.00  0.00     0.251 C 
ATOM     25  H   UNL     1       5.030   1.792  -7.059  1.00  0.00     0.163 HD
ATOM     26  O   UNL     1       5.898   2.235  -9.277  1.00  0.00    -0.269 OA
BRANCH  24  27
ATOM     27  C   UNL     1       5.486  -0.021  -9.808  1.00  0.00     0.039 A 
ATOM     28  C   UNL     1       6.577  -0.243 -10.648  1.00  0.00     0.014 A 
ATOM     29  C   UNL     1       4.388  -0.888  -9.831  1.00  0.00     0.014 A 
ATOM     30  C   UNL     1       6.595  -1.371 -11.470  1.00  0.00     0.010 A 
ATOM     31  C   UNL     1       4.441  -2.051 -10.595  1.00  0.00     0.010 A 
ATOM     32  C   UNL     1       5.546  -2.305 -11.422  1.00  0.00    -0.014 A 
BRANCH  32  33
ATOM     33  C   UNL     1       5.602  -3.559 -12.220  1.00  0.00     0.031 A 
ATOM     34  C   UNL     1       4.583  -3.818 -13.296  1.00  0.00     0.074 A 
ATOM     35  C   UNL     1       6.544  -4.481 -11.937  1.00  0.00     0.049 A 
ATOM     36  N   UNL     1       4.439  -4.872 -14.058  1.00  0.00    -0.248 NA
ATOM     37  C   UNL     1       3.582  -2.766 -13.533  1.00  0.00     0.031 C 
ATOM     38  C   UNL     1       7.563  -4.354 -10.891  1.00  0.00     0.029 A 
ATOM     39  N   UNL     1       6.800  -5.709 -12.496  1.00  0.00    -0.354 N 
ATOM     40  C   UNL     1       3.329  -4.615 -14.856  1.00  0.00     0.074 A 
ATOM     41  C   UNL     1       2.807  -3.329 -14.449  1.00  0.00     0.031 C 
ATOM     42  C   UNL     1       8.347  -5.444 -10.903  1.00  0.00     0.029 A 
ATOM     43  C   UNL     1       7.858  -6.373 -11.916  1.00  0.00     0.049 A 
ATOM     44  H   UNL     1       6.276  -6.080 -13.242  1.00  0.00     0.167 HD
ATOM     45  C   UNL     1       2.807  -5.376 -15.849  1.00  0.00     0.034 A 
ATOM     46  C   UNL     1       8.364  -7.599 -12.159  1.00  0.00     0.034 A 
ATOM     47  C   UNL     1       3.349  -6.651 -16.252  1.00  0.00     0.049 A 
ATOM     48  C   UNL     1       7.738  -8.439 -13.246  1.00  0.00     0.074 A 
ATOM     49  C   UNL     1       2.935  -7.472 -17.286  1.00  0.00     0.029 A 
ATOM     50  N   UNL     1       4.413  -7.298 -15.635  1.00  0.00    -0.354 N 
ATOM     51  N   UNL     1       6.727  -8.150 -14.034  1.00  0.00    -0.248 NA
ATOM     52  C   UNL     1       8.327  -9.762 -13.486  1.00  0.00     0.031 C 
ATOM     53  C   UNL     1       3.690  -8.648 -17.243  1.00  0.00     0.029 A 
ATOM     54  C   UNL     1       4.639  -8.524 -16.241  1.00  0.00     0.049 A 
ATOM     55  H   UNL     1       4.930  -6.938 -14.879  1.00  0.00     0.167 HD
ATOM     56  C   UNL     1       6.586  -9.245 -14.884  1.00  0.00     0.074 A 
ATOM     57  C   UNL     1       7.627 -10.184 -14.527  1.00  0.00     0.031 C 
ATOM     58  C   UNL     1       5.678  -9.455 -15.871  1.00  0.00     0.034 A 
BRANCH  45  59
ATOM     59  C   UNL     1       1.573  -4.869 -16.554  1.00  0.00     0.023 A 
ATOM     60  C   UNL     1       1.589  -3.696 -17.329  1.00  0.00     0.031 A 
ATOM     61  C   UNL     1       0.365  -5.585 -16.469  1.00  0.00     0.131 A 
ATOM     62  C   UNL     1       0.411  -3.251 -17.948  1.00  0.00     0.055 A 
ATOM     63  C   UNL     1      -0.784  -5.177 -17.148  1.00  0.00     0.041 A 
ATOM     64  F   UNL     1       0.283  -6.699 -15.724  1.00  0.00    -0.206 F 
ATOM     65  C   UNL     1      -0.768  -3.998 -17.886  1.00  0.00     0.022 A 
BRANCH  62  66
ATOM     66  S   UNL     1       0.411  -1.622 -18.746  1.00  0.00     0.124 S 
ATOM     67  O   UNL     1       0.753  -0.746 -17.627  1.00  0.00    -0.237 OA
ATOM     68  O   UNL     1       1.433  -1.773 -19.774  1.00  0.00    -0.237 OA
ATOM     69  O   UNL     1      -0.957  -1.482 -19.241  1.00  0.00    -0.744 OA
ENDBRANCH  62  66
ENDBRANCH  45  59
BRANCH  46  70
ATOM     70  C   UNL     1       9.502  -8.132 -11.351  1.00  0.00     0.023 A 
ATOM     71  C   UNL     1      10.715  -8.494 -11.959  1.00  0.00     0.031 A 
ATOM     72  C   UNL     1       9.365  -8.367  -9.971  1.00  0.00     0.131 A 
ATOM     73  C   UNL     1      11.712  -9.134 -11.208  1.00  0.00     0.055 A 
ATOM     74  C   UNL     1      10.389  -8.938  -9.213  1.00  0.00     0.041 A 
ATOM     75  F   UNL     1       8.228  -8.043  -9.334  1.00  0.00    -0.206 F 
ATOM     76  C   UNL     1      11.564  -9.345  -9.836  1.00  0.00     0.022 A 
BRANCH  73  77
ATOM     77  S   UNL     1      13.151  -9.814 -12.080  1.00  0.00     0.124 S 
ATOM     78  O   UNL     1      12.516 -10.678 -13.068  1.00  0.00    -0.237 OA
ATOM     79  O   UNL     1      13.788  -8.607 -12.596  1.00  0.00    -0.237 OA
ATOM     80  O   UNL     1      13.890 -10.506 -11.026  1.00  0.00    -0.744 OA
ENDBRANCH  73  77
ENDBRANCH  46  70
BRANCH  58  81
ATOM     81  C   UNL     1       5.809 -10.733 -16.666  1.00  0.00     0.023 A 
ATOM     82  C   UNL     1       5.616 -11.995 -16.077  1.00  0.00     0.031 A 
ATOM     83  C   UNL     1       6.145 -10.685 -18.031  1.00  0.00     0.131 A 
ATOM     84  C   UNL     1       5.822 -13.158 -16.834  1.00  0.00     0.055 A 
ATOM     85  C   UNL     1       6.279 -11.844 -18.796  1.00  0.00     0.041 A 
ATOM     86  F   UNL     1       6.345  -9.508 -18.645  1.00  0.00    -0.206 F 
ATOM     87  C   UNL     1       6.132 -13.090 -18.195  1.00  0.00     0.022 A 
BRANCH  84  88
ATOM     88  S   UNL     1       5.782 -14.763 -15.991  1.00  0.00     0.124 S 
ATOM     89  O   UNL     1       6.823 -14.601 -14.981  1.00  0.00    -0.237 OA
ATOM     90  O   UNL     1       4.412 -14.819 -15.491  1.00  0.00    -0.237 OA
ATOM     91  O   UNL     1       6.092 -15.717 -17.054  1.00  0.00    -0.744 OA
ENDBRANCH  84  88
ENDBRANCH  58  81
ENDBRANCH  32  33
ENDBRANCH  24  27
ENDBRANCH  22  23
ENDBRANCH  21  22
ENDBRANCH   1  21
TORSDOF 19
