REMARK SMILES CC(C)Cc1ccc(S(=O)(=O)Nc2cnc(N3CCCC3)c(C(=O)NCCCCCCNC(=O)c3ccc(-c4c5nc(c(-c6cc(S(=O)(=O)[O-])ccc6F)c6ccc([nH]6)c(-c6cc(S(=O)(=O)[O-])ccc6F)c6nc(c(-c7cc(S(=O)(=O)[O-])ccc7F)c7ccc4[nH]7)C=C6)C=C5)cc3)c2)cc1
REMARK SMILES IDX 27 1 26 2 25 3 23 4 24 5 22 7 13 8 14 9 98 10 15 11 16 12
REMARK SMILES IDX 12 13 9 15 10 16 11 17 8 18 5 19 6 20 100 21 7 22 99 23 4 24
REMARK SMILES IDX 2 25 1 26 3 27 17 28 18 29 21 30 19 31 20 32 28 33 29 34
REMARK SMILES IDX 30 35 31 36 32 37 33 38 34 40 35 41 36 42 97 43 37 44 96 45
REMARK SMILES IDX 38 46 39 47 40 48 90 49 41 50 95 51 89 52 91 53 42 54 94 55
REMARK SMILES IDX 88 56 87 57 43 59 75 60 55 61 74 62 56 63 59 64 73 65 92 66
REMARK SMILES IDX 57 67 58 68 72 70 93 71 60 72 44 73 45 74 53 75 46 76 52 77
REMARK SMILES IDX 54 78 51 79 47 80 48 81 49 82 50 83 76 84 77 85 85 86 78 87
REMARK SMILES IDX 84 88 86 89 83 90 79 91 80 92 81 93 82 94 61 95 62 96 70 97
REMARK SMILES IDX 63 98 69 99 71 100 68 101 64 102 65 103 66 104 67 105
REMARK H PARENT 25 6 12 14 32 39 91 58 59 69
REMARK Flexibility Score: inf
ROOT
ATOM      1  C   UNL     1       0.691   3.109   3.158  1.00  0.00     0.021 C 
ENDROOT
BRANCH   1   2
ATOM      2  C   UNL     1      -0.313   2.301   2.341  1.00  0.00     0.116 C 
BRANCH   2   3
ATOM      3  N   UNL     1      -0.905   1.260   3.154  1.00  0.00    -0.352 N 
ATOM      4  C   UNL     1      -2.100   1.038   3.783  1.00  0.00     0.255 C 
ATOM      5  O   UNL     1      -2.114  -0.035   4.388  1.00  0.00    -0.269 OA
ATOM      6  H   UNL     1      -0.281   0.511   3.290  1.00  0.00     0.163 HD
BRANCH   4   7
ATOM      7  C   UNL     1      -3.311   1.930   3.683  1.00  0.00     0.084 A 
ATOM      8  C   UNL     1      -4.333   3.800   2.554  1.00  0.00     0.068 A 
ATOM      9  C   UNL     1      -5.564   3.244   2.842  1.00  0.00     0.140 A 
ATOM     10  C   UNL     1      -3.217   3.213   3.126  1.00  0.00     0.046 A 
ATOM     11  N   UNL     1      -5.718   2.101   3.535  1.00  0.00    -0.236 NA
ATOM     12  C   UNL     1      -4.607   1.425   3.941  1.00  0.00     0.141 A 
BRANCH   8  13
ATOM     13  N   UNL     1      -4.295   4.880   1.625  1.00  0.00    -0.278 N 
ATOM     14  H   UNL     1      -5.040   5.523   1.628  1.00  0.00     0.180 HD
BRANCH  13  15
ATOM     15  S   UNL     1      -3.040   5.116   0.521  1.00  0.00     0.261 S 
ATOM     16  O   UNL     1      -1.858   5.435   1.306  1.00  0.00    -0.201 OA
ATOM     17  O   UNL     1      -3.552   6.040  -0.458  1.00  0.00    -0.201 OA
BRANCH  15  18
ATOM     18  C   UNL     1      -2.686   3.589  -0.335  1.00  0.00     0.087 A 
ATOM     19  C   UNL     1      -1.701   1.146  -1.352  1.00  0.00    -0.048 A 
ATOM     20  C   UNL     1      -1.041   2.349  -1.628  1.00  0.00     0.005 A 
ATOM     21  C   UNL     1      -2.918   1.205  -0.651  1.00  0.00     0.005 A 
ATOM     22  C   UNL     1      -1.513   3.557  -1.101  1.00  0.00     0.022 A 
ATOM     23  C   UNL     1      -3.423   2.419  -0.166  1.00  0.00     0.022 A 
BRANCH  19  24
ATOM     24  C   UNL     1      -1.185  -0.201  -1.822  1.00  0.00     0.038 C 
BRANCH  24  25
ATOM     25  C   UNL     1       0.347  -0.411  -1.877  1.00  0.00    -0.013 C 
ATOM     26  C   UNL     1       1.028  -0.144  -0.535  1.00  0.00     0.008 C 
ATOM     27  C   UNL     1       0.663  -1.845  -2.315  1.00  0.00     0.008 C 
ENDBRANCH  24  25
ENDBRANCH  19  24
ENDBRANCH  15  18
ENDBRANCH  13  15
ENDBRANCH   8  13
BRANCH  12  28
ATOM     28  N   UNL     1      -4.879   0.243   4.555  1.00  0.00    -0.356 N 
ATOM     29  C   UNL     1      -4.450  -0.141   5.885  1.00  0.00     0.118 C 
ATOM     30  C   UNL     1      -5.773  -0.733   3.961  1.00  0.00     0.118 C 
ATOM     31  C   UNL     1      -4.515  -1.663   5.801  1.00  0.00     0.023 C 
ATOM     32  C   UNL     1      -5.769  -1.892   4.963  1.00  0.00     0.023 C 
ENDBRANCH  12  28
ENDBRANCH   4   7
ENDBRANCH   2   3
ENDBRANCH   1   2
BRANCH   1  33
ATOM     33  C   UNL     1       1.942   2.306   3.551  1.00  0.00     0.002 C 
BRANCH  33  34
ATOM     34  C   UNL     1       2.677   1.628   2.387  1.00  0.00     0.002 C 
BRANCH  34  35
ATOM     35  C   UNL     1       2.996   2.540   1.198  1.00  0.00     0.021 C 
BRANCH  35  36
ATOM     36  C   UNL     1       3.928   3.696   1.531  1.00  0.00     0.116 C 
BRANCH  36  37
ATOM     37  N   UNL     1       5.268   3.231   1.839  1.00  0.00    -0.352 N 
ATOM     38  C   UNL     1       6.471   3.756   1.438  1.00  0.00     0.251 C 
ATOM     39  H   UNL     1       5.321   2.432   2.413  1.00  0.00     0.163 HD
ATOM     40  O   UNL     1       7.504   3.120   1.622  1.00  0.00    -0.269 OA
BRANCH  38  41
ATOM     41  C   UNL     1       6.509   5.072   0.762  1.00  0.00     0.039 A 
ATOM     42  C   UNL     1       7.322   5.229  -0.363  1.00  0.00     0.014 A 
ATOM     43  C   UNL     1       5.760   6.151   1.244  1.00  0.00     0.014 A 
ATOM     44  C   UNL     1       7.354   6.455  -1.030  1.00  0.00     0.010 A 
ATOM     45  C   UNL     1       5.746   7.354   0.544  1.00  0.00     0.010 A 
ATOM     46  C   UNL     1       6.553   7.521  -0.592  1.00  0.00    -0.014 A 
BRANCH  46  47
ATOM     47  C   UNL     1       6.567   8.831  -1.289  1.00  0.00     0.031 A 
ATOM     48  C   UNL     1       7.108  10.046  -0.586  1.00  0.00     0.074 A 
ATOM     49  C   UNL     1       6.027   8.941  -2.517  1.00  0.00     0.049 A 
ATOM     50  N   UNL     1       7.129  11.293  -0.980  1.00  0.00    -0.248 NA
ATOM     51  C   UNL     1       7.665   9.828   0.757  1.00  0.00     0.031 C 
ATOM     52  C   UNL     1       5.424   7.843  -3.275  1.00  0.00     0.029 A 
ATOM     53  N   UNL     1       5.878  10.031  -3.335  1.00  0.00    -0.354 N 
ATOM     54  C   UNL     1       7.680  12.014   0.075  1.00  0.00     0.074 A 
ATOM     55  C   UNL     1       7.924  11.067   1.144  1.00  0.00     0.031 C 
ATOM     56  C   UNL     1       4.976   8.316  -4.449  1.00  0.00     0.029 A 
ATOM     57  C   UNL     1       5.230   9.752  -4.514  1.00  0.00     0.049 A 
ATOM     58  H   UNL     1       6.205  10.930  -3.099  1.00  0.00     0.167 HD
ATOM     59  C   UNL     1       7.971  13.337   0.138  1.00  0.00     0.034 A 
ATOM     60  C   UNL     1       4.868  10.563  -5.526  1.00  0.00     0.034 A 
ATOM     61  C   UNL     1       7.736  14.260  -0.947  1.00  0.00     0.049 A 
ATOM     62  C   UNL     1       5.215  12.026  -5.447  1.00  0.00     0.074 A 
ATOM     63  C   UNL     1       8.059  15.603  -1.025  1.00  0.00     0.029 A 
ATOM     64  N   UNL     1       7.106  13.934  -2.143  1.00  0.00    -0.354 N 
ATOM     65  N   UNL     1       5.793  12.685  -4.469  1.00  0.00    -0.248 NA
ATOM     66  C   UNL     1       4.876  12.849  -6.614  1.00  0.00     0.031 C 
ATOM     67  C   UNL     1       7.576  16.101  -2.242  1.00  0.00     0.029 A 
ATOM     68  C   UNL     1       7.007  15.056  -2.952  1.00  0.00     0.049 A 
ATOM     69  H   UNL     1       6.778  13.037  -2.380  1.00  0.00     0.167 HD
ATOM     70  C   UNL     1       5.904  13.999  -4.912  1.00  0.00     0.074 A 
ATOM     71  C   UNL     1       5.344  14.034  -6.250  1.00  0.00     0.031 C 
ATOM     72  C   UNL     1       6.427  15.078  -4.275  1.00  0.00     0.034 A 
BRANCH  59  73
ATOM     73  C   UNL     1       8.544  13.855   1.437  1.00  0.00     0.023 A 
ATOM     74  C   UNL     1       9.773  13.390   1.940  1.00  0.00     0.031 A 
ATOM     75  C   UNL     1       7.826  14.781   2.214  1.00  0.00     0.131 A 
ATOM     76  C   UNL     1      10.196  13.772   3.223  1.00  0.00     0.055 A 
ATOM     77  C   UNL     1       8.297  15.226   3.452  1.00  0.00     0.041 A 
ATOM     78  F   UNL     1       6.639  15.249   1.797  1.00  0.00    -0.206 F 
ATOM     79  C   UNL     1       9.478  14.705   3.973  1.00  0.00     0.022 A 
BRANCH  76  80
ATOM     80  S   UNL     1      11.603  12.898   3.964  1.00  0.00     0.124 S 
ATOM     81  O   UNL     1      11.148  11.511   3.914  1.00  0.00    -0.237 OA
ATOM     82  O   UNL     1      12.697  13.245   3.065  1.00  0.00    -0.237 OA
ATOM     83  O   UNL     1      11.691  13.469   5.306  1.00  0.00    -0.744 OA
ENDBRANCH  76  80
ENDBRANCH  59  73
BRANCH  60  84
ATOM     84  C   UNL     1       4.131  10.011  -6.694  1.00  0.00     0.023 A 
ATOM     85  C   UNL     1       4.744   9.900  -7.951  1.00  0.00     0.031 A 
ATOM     86  C   UNL     1       2.798   9.582  -6.564  1.00  0.00     0.131 A 
ATOM     87  C   UNL     1       4.014   9.398  -9.040  1.00  0.00     0.055 A 
ATOM     88  C   UNL     1       2.089   9.050  -7.641  1.00  0.00     0.041 A 
ATOM     89  F   UNL     1       2.175   9.654  -5.377  1.00  0.00    -0.206 F 
ATOM     90  C   UNL     1       2.695   8.963  -8.891  1.00  0.00     0.022 A 
BRANCH  87  91
ATOM     91  S   UNL     1       4.807   9.353 -10.671  1.00  0.00     0.124 S 
ATOM     92  O   UNL     1       5.076  10.766 -10.911  1.00  0.00    -0.237 OA
ATOM     93  O   UNL     1       5.972   8.511 -10.418  1.00  0.00    -0.237 OA
ATOM     94  O   UNL     1       3.786   8.755 -11.529  1.00  0.00    -0.744 OA
ENDBRANCH  87  91
ENDBRANCH  60  84
BRANCH  72  95
ATOM     95  C   UNL     1       6.446  16.376  -5.040  1.00  0.00     0.023 A 
ATOM     96  C   UNL     1       5.263  17.076  -5.335  1.00  0.00     0.031 A 
ATOM     97  C   UNL     1       7.665  16.912  -5.490  1.00  0.00     0.131 A 
ATOM     98  C   UNL     1       5.321  18.250  -6.102  1.00  0.00     0.055 A 
ATOM     99  C   UNL     1       7.721  18.106  -6.209  1.00  0.00     0.041 A 
ATOM    100  F   UNL     1       8.823  16.281  -5.237  1.00  0.00    -0.206 F 
ATOM    101  C   UNL     1       6.544  18.777  -6.528  1.00  0.00     0.022 A 
BRANCH  98 102
ATOM    102  S   UNL     1       3.768  19.041  -6.604  1.00  0.00     0.124 S 
ATOM    103  O   UNL     1       3.118  17.979  -7.364  1.00  0.00    -0.237 OA
ATOM    104  O   UNL     1       3.158  19.374  -5.322  1.00  0.00    -0.237 OA
ATOM    105  O   UNL     1       4.208  20.189  -7.396  1.00  0.00    -0.744 OA
ENDBRANCH  98 102
ENDBRANCH  72  95
ENDBRANCH  46  47
ENDBRANCH  38  41
ENDBRANCH  36  37
ENDBRANCH  35  36
ENDBRANCH  34  35
ENDBRANCH  33  34
ENDBRANCH   1  33
TORSDOF 22
