REMARK SMILES O=C(CCn1c(SCc2ccccn2)nc2ccccc2c1=O)NCCCCCCNC(=O)c1ccc(-c2c3nc(c(-c4cc(S(=O)(=O)[O-])ccc4F)c4ccc([nH]4)c(-c4cc(S(=O)(=O)[O-])ccc4F)c4nc(c(-c5cc(S(=O)(=O)[O-])ccc5F)c5ccc2[nH]5)C=C4)C=C3)cc1
REMARK SMILES IDX 26 1 25 2 24 3 1 4 2 5 3 7 4 8 5 9 6 10 22 11 15 12 21 13
REMARK SMILES IDX 23 14 16 15 20 16 17 17 19 18 18 19 7 20 8 21 9 22 10 23
REMARK SMILES IDX 14 24 11 25 13 26 12 27 27 28 28 29 29 30 30 31 31 32 32 33
REMARK SMILES IDX 33 35 34 36 35 37 96 38 36 39 95 40 37 41 38 42 39 43 89 44
REMARK SMILES IDX 40 45 94 46 88 47 90 48 41 49 93 50 87 51 86 52 42 54 74 55
REMARK SMILES IDX 54 56 73 57 55 58 58 59 72 60 91 61 56 62 57 63 71 65 92 66
REMARK SMILES IDX 59 67 43 68 44 69 52 70 45 71 51 72 53 73 50 74 46 75 47 76
REMARK SMILES IDX 48 77 49 78 75 79 76 80 84 81 77 82 83 83 85 84 82 85 78 86
REMARK SMILES IDX 79 87 80 88 81 89 60 90 61 91 69 92 62 93 68 94 70 95 67 96
REMARK SMILES IDX 63 97 64 98 65 99 66 100
REMARK H PARENT 24 6 31 34 90 53 58 64
REMARK Flexibility Score: inf
ROOT
ATOM      1  C   UNL     1       1.768   3.876   0.111  1.00  0.00     0.021 C 
ENDROOT
BRANCH   1   2
ATOM      2  C   UNL     1       1.327   2.567  -0.542  1.00  0.00     0.116 C 
BRANCH   2   3
ATOM      3  N   UNL     1       2.014   1.415  -0.004  1.00  0.00    -0.356 N 
ATOM      4  O   UNL     1       0.479  -0.148  -0.689  1.00  0.00    -0.275 OA
ATOM      5  C   UNL     1       1.558   0.136  -0.178  1.00  0.00     0.221 C 
ATOM      6  H   UNL     1       2.843   1.556   0.507  1.00  0.00     0.163 HD
BRANCH   5   7
ATOM      7  C   UNL     1       2.548  -0.931   0.225  1.00  0.00     0.122 C 
BRANCH   7   8
ATOM      8  C   UNL     1       3.432  -1.251  -0.977  1.00  0.00     0.138 C 
BRANCH   8   9
ATOM      9  N   UNL     1       4.831  -0.772  -1.042  1.00  0.00    -0.287 N 
ATOM     10  C   UNL     1       5.771  -1.425  -1.839  1.00  0.00     0.171 A 
ATOM     11  C   UNL     1       5.207   0.407  -0.408  1.00  0.00     0.262 A 
ATOM     12  N   UNL     1       6.875  -0.890  -2.256  1.00  0.00    -0.224 NA
ATOM     13  C   UNL     1       6.413   1.085  -0.913  1.00  0.00     0.066 A 
ATOM     14  O   UNL     1       4.589   0.955   0.502  1.00  0.00    -0.269 OA
ATOM     15  C   UNL     1       7.142   0.437  -1.899  1.00  0.00     0.079 A 
ATOM     16  C   UNL     1       6.720   2.396  -0.522  1.00  0.00     0.016 A 
ATOM     17  C   UNL     1       8.134   1.159  -2.571  1.00  0.00     0.029 A 
ATOM     18  C   UNL     1       7.705   3.109  -1.202  1.00  0.00     0.001 A 
ATOM     19  C   UNL     1       8.397   2.496  -2.244  1.00  0.00     0.002 A 
BRANCH  10  20
ATOM     20  S   UNL     1       5.400  -3.021  -2.462  1.00  0.00    -0.081 SA
BRANCH  20  21
ATOM     21  C   UNL     1       5.750  -4.148  -1.087  1.00  0.00     0.134 C 
BRANCH  21  22
ATOM     22  C   UNL     1       5.375  -3.761   0.329  1.00  0.00     0.051 A 
ATOM     23  C   UNL     1       4.557  -4.593   1.098  1.00  0.00     0.025 A 
ATOM     24  N   UNL     1       5.943  -2.651   0.857  1.00  0.00    -0.260 NA
ATOM     25  C   UNL     1       4.300  -4.261   2.429  1.00  0.00     0.003 A 
ATOM     26  C   UNL     1       5.657  -2.335   2.141  1.00  0.00     0.111 A 
ATOM     27  C   UNL     1       4.852  -3.104   2.961  1.00  0.00     0.020 A 
ENDBRANCH  21  22
ENDBRANCH  20  21
ENDBRANCH  10  20
ENDBRANCH   8   9
ENDBRANCH   7   8
ENDBRANCH   5   7
ENDBRANCH   2   3
ENDBRANCH   1   2
BRANCH   1  28
ATOM     28  C   UNL     1       3.267   4.186   0.019  1.00  0.00     0.002 C 
BRANCH  28  29
ATOM     29  C   UNL     1       3.847   4.242  -1.396  1.00  0.00     0.002 C 
BRANCH  29  30
ATOM     30  C   UNL     1       3.360   5.404  -2.253  1.00  0.00     0.021 C 
BRANCH  30  31
ATOM     31  C   UNL     1       3.695   6.784  -1.698  1.00  0.00     0.116 C 
BRANCH  31  32
ATOM     32  N   UNL     1       5.125   7.044  -1.567  1.00  0.00    -0.352 N 
ATOM     33  C   UNL     1       5.793   8.232  -1.786  1.00  0.00     0.251 C 
ATOM     34  H   UNL     1       5.680   6.280  -1.289  1.00  0.00     0.163 HD
ATOM     35  O   UNL     1       7.018   8.290  -1.707  1.00  0.00    -0.269 OA
BRANCH  33  36
ATOM     36  C   UNL     1       4.998   9.415  -2.174  1.00  0.00     0.039 A 
ATOM     37  C   UNL     1       3.867   9.751  -1.431  1.00  0.00     0.014 A 
ATOM     38  C   UNL     1       5.287  10.076  -3.369  1.00  0.00     0.014 A 
ATOM     39  C   UNL     1       2.910  10.582  -1.996  1.00  0.00     0.010 A 
ATOM     40  C   UNL     1       4.369  10.997  -3.883  1.00  0.00     0.010 A 
ATOM     41  C   UNL     1       3.139  11.203  -3.237  1.00  0.00    -0.014 A 
BRANCH  41  42
ATOM     42  C   UNL     1       2.063  12.036  -3.840  1.00  0.00     0.031 A 
ATOM     43  C   UNL     1       1.428  11.656  -5.153  1.00  0.00     0.074 A 
ATOM     44  C   UNL     1       1.601  13.098  -3.151  1.00  0.00     0.049 A 
ATOM     45  N   UNL     1       0.468  12.261  -5.806  1.00  0.00    -0.248 NA
ATOM     46  C   UNL     1       1.932  10.447  -5.824  1.00  0.00     0.031 C 
ATOM     47  C   UNL     1       2.128  13.543  -1.861  1.00  0.00     0.029 A 
ATOM     48  N   UNL     1       0.573  13.969  -3.409  1.00  0.00    -0.354 N 
ATOM     49  C   UNL     1       0.270  11.526  -6.970  1.00  0.00     0.074 A 
ATOM     50  C   UNL     1       1.229  10.444  -6.949  1.00  0.00     0.031 C 
ATOM     51  C   UNL     1       1.376  14.552  -1.405  1.00  0.00     0.029 A 
ATOM     52  C   UNL     1       0.374  14.894  -2.410  1.00  0.00     0.049 A 
ATOM     53  H   UNL     1       0.029  13.935  -4.229  1.00  0.00     0.167 HD
ATOM     54  C   UNL     1      -0.636  11.730  -7.956  1.00  0.00     0.034 A 
ATOM     55  C   UNL     1      -0.499  15.918  -2.315  1.00  0.00     0.034 A 
ATOM     56  C   UNL     1      -1.607  12.796  -7.945  1.00  0.00     0.049 A 
ATOM     57  C   UNL     1      -1.477  16.140  -3.436  1.00  0.00     0.074 A 
ATOM     58  C   UNL     1      -2.579  13.076  -8.890  1.00  0.00     0.029 A 
ATOM     59  N   UNL     1      -1.742  13.745  -6.942  1.00  0.00    -0.354 N 
ATOM     60  N   UNL     1      -1.651  15.431  -4.527  1.00  0.00    -0.248 NA
ATOM     61  C   UNL     1      -2.369  17.301  -3.327  1.00  0.00     0.031 C 
ATOM     62  C   UNL     1      -3.265  14.222  -8.486  1.00  0.00     0.029 A 
ATOM     63  C   UNL     1      -2.766  14.625  -7.257  1.00  0.00     0.049 A 
ATOM     64  H   UNL     1      -1.192  13.787  -6.126  1.00  0.00     0.167 HD
ATOM     65  C   UNL     1      -2.669  16.060  -5.234  1.00  0.00     0.074 A 
ATOM     66  C   UNL     1      -3.100  17.184  -4.428  1.00  0.00     0.031 C 
ATOM     67  C   UNL     1      -3.188  15.743  -6.447  1.00  0.00     0.034 A 
BRANCH  54  68
ATOM     68  C   UNL     1      -0.653  10.789  -9.136  1.00  0.00     0.023 A 
ATOM     69  C   UNL     1      -0.355  11.271 -10.426  1.00  0.00     0.031 A 
ATOM     70  C   UNL     1      -1.091   9.460  -9.009  1.00  0.00     0.131 A 
ATOM     71  C   UNL     1      -0.532  10.439 -11.539  1.00  0.00     0.055 A 
ATOM     72  C   UNL     1      -1.232   8.624 -10.118  1.00  0.00     0.041 A 
ATOM     73  F   UNL     1      -1.387   8.953  -7.801  1.00  0.00    -0.206 F 
ATOM     74  C   UNL     1      -0.964   9.117 -11.392  1.00  0.00     0.022 A 
BRANCH  71  75
ATOM     75  S   UNL     1      -0.270  11.055 -13.226  1.00  0.00     0.124 S 
ATOM     76  O   UNL     1       0.765  10.149 -13.718  1.00  0.00    -0.237 OA
ATOM     77  O   UNL     1      -1.590  10.878 -13.824  1.00  0.00    -0.237 OA
ATOM     78  O   UNL     1       0.156  12.437 -13.032  1.00  0.00    -0.744 OA
ENDBRANCH  71  75
ENDBRANCH  54  68
BRANCH  55  79
ATOM     79  C   UNL     1      -0.473  16.773  -1.093  1.00  0.00     0.023 A 
ATOM     80  C   UNL     1       0.691  17.479  -0.735  1.00  0.00     0.031 A 
ATOM     81  C   UNL     1      -1.553  16.784  -0.196  1.00  0.00     0.131 A 
ATOM     82  C   UNL     1       0.785  18.077   0.527  1.00  0.00     0.055 A 
ATOM     83  C   UNL     1      -1.486  17.453   1.028  1.00  0.00     0.041 A 
ATOM     84  F   UNL     1      -2.682  16.119  -0.488  1.00  0.00    -0.206 F 
ATOM     85  C   UNL     1      -0.303  18.083   1.405  1.00  0.00     0.022 A 
BRANCH  82  86
ATOM     86  S   UNL     1       2.376  18.705   1.136  1.00  0.00     0.124 S 
ATOM     87  O   UNL     1       2.099  20.129   1.292  1.00  0.00    -0.237 OA
ATOM     88  O   UNL     1       2.539  17.953   2.378  1.00  0.00    -0.237 OA
ATOM     89  O   UNL     1       3.313  18.354   0.075  1.00  0.00    -0.744 OA
ENDBRANCH  82  86
ENDBRANCH  55  79
BRANCH  67  90
ATOM     90  C   UNL     1      -4.272  16.625  -7.014  1.00  0.00     0.023 A 
ATOM     91  C   UNL     1      -5.564  16.110  -7.230  1.00  0.00     0.031 A 
ATOM     92  C   UNL     1      -3.983  17.921  -7.475  1.00  0.00     0.131 A 
ATOM     93  C   UNL     1      -6.508  16.874  -7.927  1.00  0.00     0.055 A 
ATOM     94  C   UNL     1      -4.941  18.694  -8.131  1.00  0.00     0.041 A 
ATOM     95  F   UNL     1      -2.761  18.450  -7.299  1.00  0.00    -0.206 F 
ATOM     96  C   UNL     1      -6.206  18.165  -8.372  1.00  0.00     0.022 A 
BRANCH  93  97
ATOM     97  S   UNL     1      -8.134  16.192  -8.353  1.00  0.00     0.124 S 
ATOM     98  O   UNL     1      -9.037  17.121  -7.678  1.00  0.00    -0.237 OA
ATOM     99  O   UNL     1      -8.130  16.274  -9.811  1.00  0.00    -0.237 OA
ATOM    100  O   UNL     1      -8.106  14.842  -7.800  1.00  0.00    -0.744 OA
ENDBRANCH  93  97
ENDBRANCH  67  90
ENDBRANCH  41  42
ENDBRANCH  33  36
ENDBRANCH  31  32
ENDBRANCH  30  31
ENDBRANCH  29  30
ENDBRANCH  28  29
ENDBRANCH   1  28
TORSDOF 21
