REMARK SMILES Cc1cccc(C[NH+]2CCC(OCC(=O)NCCCCCCNC(=O)c3ccc(-c4c5nc(c(-c6cc(S(=O)(=O)[O-])ccc6F)c6ccc([nH]6)c(-c6cc(S(=O)(=O)[O-])ccc6F)c6nc(c(-c7cc(S(=O)(=O)[O-])ccc7F)c7ccc4[nH]7)C=C6)C=C5)cc3)CC2)n1
REMARK SMILES IDX 19 1 18 2 17 3 16 4 14 5 15 6 13 8 12 9 11 10 8 11 9 12
REMARK SMILES IDX 90 13 10 15 89 16 7 17 6 18 1 19 2 20 3 21 91 22 4 23 5 24
REMARK SMILES IDX 20 25 21 26 22 27 23 28 24 29 25 31 26 32 27 33 88 34 28 35
REMARK SMILES IDX 87 36 29 37 30 38 31 39 81 40 32 41 86 42 80 43 82 44 33 45
REMARK SMILES IDX 85 46 79 47 78 48 34 50 66 51 46 52 65 53 47 54 50 55 64 56
REMARK SMILES IDX 83 57 48 58 49 59 63 61 84 62 51 63 35 64 36 65 44 66 37 67
REMARK SMILES IDX 43 68 45 69 42 70 38 71 39 72 40 73 41 74 67 75 68 76 76 77
REMARK SMILES IDX 69 78 75 79 77 80 74 81 70 82 71 83 72 84 73 85 52 86 53 87
REMARK SMILES IDX 61 88 54 89 60 90 62 91 59 92 55 93 56 94 57 95 58 96
REMARK H PARENT 16 7 8 14 23 30 82 49 50 60
REMARK Flexibility Score: inf
ROOT
ATOM      1  C   UNL     1       4.317   6.369   2.191  1.00  0.00     0.002 C 
ENDROOT
BRANCH   1   2
ATOM      2  C   UNL     1       3.712   5.870   3.509  1.00  0.00     0.021 C 
BRANCH   2   3
ATOM      3  C   UNL     1       2.749   6.843   4.192  1.00  0.00     0.116 C 
BRANCH   3   4
ATOM      4  N   UNL     1       1.686   7.316   3.326  1.00  0.00    -0.354 N 
ATOM      5  C   UNL     1       0.340   7.128   3.455  1.00  0.00     0.246 C 
ATOM      6  O   UNL     1      -0.423   7.753   2.715  1.00  0.00    -0.272 OA
ATOM      7  H   UNL     1       1.973   7.839   2.543  1.00  0.00     0.163 HD
BRANCH   5   8
ATOM      8  C   UNL     1      -0.189   6.156   4.518  1.00  0.00     0.260 C 
BRANCH   8   9
ATOM      9  O   UNL     1       0.365   4.852   4.571  1.00  0.00    -0.368 OA
BRANCH   9  10
ATOM     10  C   UNL     1       0.026   3.936   3.526  1.00  0.00     0.130 C 
ATOM     11  N   UNL     1      -1.286   3.085   1.089  1.00  0.00    -0.330 N 
ATOM     12  C   UNL     1      -1.744   2.542   2.372  1.00  0.00     0.265 C 
ATOM     13  C   UNL     1       0.164   3.319   1.109  1.00  0.00     0.265 C 
ATOM     14  H   UNL     1      -1.763   3.980   0.974  1.00  0.00     0.348 HD
ATOM     15  C   UNL     1      -1.453   3.533   3.508  1.00  0.00     0.093 C 
ATOM     16  C   UNL     1       0.486   4.380   2.140  1.00  0.00     0.093 C 
BRANCH  11  17
ATOM     17  C   UNL     1      -1.685   2.272  -0.080  1.00  0.00     0.319 C 
BRANCH  17  18
ATOM     18  C   UNL     1      -1.071   0.886  -0.177  1.00  0.00     0.095 A 
ATOM     19  C   UNL     1       2.381  -0.361  -0.248  1.00  0.00     0.067 C 
ATOM     20  C   UNL     1       0.883  -0.384  -0.260  1.00  0.00     0.038 A 
ATOM     21  C   UNL     1       0.168  -1.560  -0.089  1.00  0.00     0.023 A 
ATOM     22  N   UNL     1       0.275   0.817  -0.345  1.00  0.00    -0.252 NA
ATOM     23  C   UNL     1      -1.220  -1.491   0.007  1.00  0.00     0.004 A 
ATOM     24  C   UNL     1      -1.852  -0.252  -0.022  1.00  0.00     0.030 A 
ENDBRANCH  17  18
ENDBRANCH  11  17
ENDBRANCH   9  10
ENDBRANCH   8   9
ENDBRANCH   5   8
ENDBRANCH   3   4
ENDBRANCH   2   3
ENDBRANCH   1   2
BRANCH   1  25
ATOM     25  C   UNL     1       5.072   7.698   2.291  1.00  0.00     0.002 C 
BRANCH  25  26
ATOM     26  C   UNL     1       6.162   7.742   3.365  1.00  0.00     0.021 C 
BRANCH  26  27
ATOM     27  C   UNL     1       7.250   6.684   3.212  1.00  0.00     0.116 C 
BRANCH  27  28
ATOM     28  N   UNL     1       8.050   6.898   2.018  1.00  0.00    -0.352 N 
ATOM     29  C   UNL     1       9.410   7.044   1.905  1.00  0.00     0.251 C 
ATOM     30  H   UNL     1       7.548   6.944   1.172  1.00  0.00     0.163 HD
ATOM     31  O   UNL     1       9.895   7.438   0.844  1.00  0.00    -0.269 OA
BRANCH  29  32
ATOM     32  C   UNL     1      10.284   6.753   3.063  1.00  0.00     0.039 A 
ATOM     33  C   UNL     1      11.326   7.634   3.364  1.00  0.00     0.014 A 
ATOM     34  C   UNL     1      10.081   5.615   3.850  1.00  0.00     0.014 A 
ATOM     35  C   UNL     1      12.124   7.404   4.487  1.00  0.00     0.010 A 
ATOM     36  C   UNL     1      10.828   5.430   5.012  1.00  0.00     0.010 A 
ATOM     37  C   UNL     1      11.860   6.321   5.343  1.00  0.00    -0.014 A 
BRANCH  37  38
ATOM     38  C   UNL     1      12.662   6.105   6.578  1.00  0.00     0.031 A 
ATOM     39  C   UNL     1      13.498   4.862   6.730  1.00  0.00     0.074 A 
ATOM     40  C   UNL     1      12.610   7.010   7.576  1.00  0.00     0.049 A 
ATOM     41  N   UNL     1      14.219   4.469   7.749  1.00  0.00    -0.248 NA
ATOM     42  C   UNL     1      13.506   3.928   5.594  1.00  0.00     0.031 C 
ATOM     43  C   UNL     1      11.816   8.242   7.560  1.00  0.00     0.029 A 
ATOM     44  N   UNL     1      13.235   7.039   8.799  1.00  0.00    -0.354 N 
ATOM     45  C   UNL     1      14.771   3.248   7.376  1.00  0.00     0.074 A 
ATOM     46  C   UNL     1      14.237   2.931   6.068  1.00  0.00     0.031 C 
ATOM     47  C   UNL     1      12.029   8.918   8.700  1.00  0.00     0.029 A 
ATOM     48  C   UNL     1      12.929   8.149   9.553  1.00  0.00     0.049 A 
ATOM     49  H   UNL     1      13.845   6.331   9.107  1.00  0.00     0.167 HD
ATOM     50  C   UNL     1      15.667   2.479   8.044  1.00  0.00     0.034 A 
ATOM     51  C   UNL     1      13.319   8.501  10.795  1.00  0.00     0.034 A 
ATOM     52  C   UNL     1      16.190   2.804   9.349  1.00  0.00     0.049 A 
ATOM     53  C   UNL     1      14.261   7.590  11.546  1.00  0.00     0.074 A 
ATOM     54  C   UNL     1      17.109   2.101  10.109  1.00  0.00     0.029 A 
ATOM     55  N   UNL     1      15.840   3.925  10.091  1.00  0.00    -0.354 N 
ATOM     56  N   UNL     1      14.799   6.455  11.162  1.00  0.00    -0.248 NA
ATOM     57  C   UNL     1      14.658   8.016  12.895  1.00  0.00     0.031 C 
ATOM     58  C   UNL     1      17.262   2.759  11.334  1.00  0.00     0.029 A 
ATOM     59  C   UNL     1      16.505   3.918  11.307  1.00  0.00     0.049 A 
ATOM     60  H   UNL     1      15.211   4.623   9.795  1.00  0.00     0.167 HD
ATOM     61  C   UNL     1      15.631   6.058  12.206  1.00  0.00     0.074 A 
ATOM     62  C   UNL     1      15.538   7.083  13.224  1.00  0.00     0.031 C 
ATOM     63  C   UNL     1      16.405   4.948  12.315  1.00  0.00     0.034 A 
BRANCH  50  64
ATOM     64  C   UNL     1      16.125   1.206   7.373  1.00  0.00     0.023 A 
ATOM     65  C   UNL     1      16.829   1.232   6.156  1.00  0.00     0.031 A 
ATOM     66  C   UNL     1      15.850  -0.049   7.945  1.00  0.00     0.131 A 
ATOM     67  C   UNL     1      17.170   0.032   5.516  1.00  0.00     0.055 A 
ATOM     68  C   UNL     1      16.267  -1.239   7.345  1.00  0.00     0.041 A 
ATOM     69  F   UNL     1      15.163  -0.141   9.094  1.00  0.00    -0.206 F 
ATOM     70  C   UNL     1      16.919  -1.204   6.116  1.00  0.00     0.022 A 
BRANCH  67  71
ATOM     71  S   UNL     1      17.819   0.108   3.824  1.00  0.00     0.124 S 
ATOM     72  O   UNL     1      16.725   0.772   3.120  1.00  0.00    -0.237 OA
ATOM     73  O   UNL     1      19.040   0.887   3.989  1.00  0.00    -0.237 OA
ATOM     74  O   UNL     1      18.016  -1.296   3.470  1.00  0.00    -0.744 OA
ENDBRANCH  67  71
ENDBRANCH  50  64
BRANCH  51  75
ATOM     75  C   UNL     1      12.822   9.759  11.428  1.00  0.00     0.023 A 
ATOM     76  C   UNL     1      13.715  10.765  11.830  1.00  0.00     0.031 A 
ATOM     77  C   UNL     1      11.458   9.938  11.723  1.00  0.00     0.131 A 
ATOM     78  C   UNL     1      13.248  11.864  12.569  1.00  0.00     0.055 A 
ATOM     79  C   UNL     1      10.989  11.068  12.394  1.00  0.00     0.041 A 
ATOM     80  F   UNL     1      10.557   9.009  11.364  1.00  0.00    -0.206 F 
ATOM     81  C   UNL     1      11.889  12.030  12.840  1.00  0.00     0.022 A 
BRANCH  78  82
ATOM     82  S   UNL     1      14.465  12.999  13.291  1.00  0.00     0.124 S 
ATOM     83  O   UNL     1      15.296  12.086  14.068  1.00  0.00    -0.237 OA
ATOM     84  O   UNL     1      15.082  13.577  12.102  1.00  0.00    -0.237 OA
ATOM     85  O   UNL     1      13.645  13.920  14.077  1.00  0.00    -0.744 OA
ENDBRANCH  78  82
ENDBRANCH  51  75
BRANCH  63  86
ATOM     86  C   UNL     1      17.258   4.822  13.555  1.00  0.00     0.023 A 
ATOM     87  C   UNL     1      16.692   4.682  14.835  1.00  0.00     0.031 A 
ATOM     88  C   UNL     1      18.660   4.864  13.455  1.00  0.00     0.131 A 
ATOM     89  C   UNL     1      17.521   4.655  15.967  1.00  0.00     0.055 A 
ATOM     90  C   UNL     1      19.482   4.766  14.578  1.00  0.00     0.041 A 
ATOM     91  F   UNL     1      19.256   4.999  12.259  1.00  0.00    -0.206 F 
ATOM     92  C   UNL     1      18.913   4.678  15.845  1.00  0.00     0.022 A 
BRANCH  89  93
ATOM     93  S   UNL     1      16.753   4.700  17.609  1.00  0.00     0.124 S 
ATOM     94  O   UNL     1      15.974   5.932  17.547  1.00  0.00    -0.237 OA
ATOM     95  O   UNL     1      15.984   3.460  17.627  1.00  0.00    -0.237 OA
ATOM     96  O   UNL     1      17.895   4.733  18.521  1.00  0.00    -0.744 OA
ENDBRANCH  89  93
ENDBRANCH  63  86
ENDBRANCH  37  38
ENDBRANCH  29  32
ENDBRANCH  27  28
ENDBRANCH  26  27
ENDBRANCH  25  26
ENDBRANCH   1  25
TORSDOF 20
