REMARK SMILES Cc1ccccc1/C=C1\SC(=O)N(CC(=O)Nc2ccccc2C(=O)NCCCCCCNC(=O)c2ccc(-c3c4nc(c(-c5cc(S(=O)(=O)[O-])ccc5F)c5ccc([nH]5)c(-c5cc(S(=O)(=O)[O-])ccc5F)c5nc(c(-c6cc(S(=O)(=O)[O-])ccc6F)c6ccc3[nH]6)C=C5)C=C4)cc2)C1=O
REMARK SMILES IDX 29 1 28 2 27 3 26 4 24 5 25 6 23 8 18 9 19 10 20 11 22 12
REMARK SMILES IDX 21 13 17 14 15 15 16 16 14 18 13 19 8 20 9 21 10 22 99 23
REMARK SMILES IDX 11 24 100 25 12 26 7 27 1 28 2 29 3 30 4 31 6 32 5 33 30 34
REMARK SMILES IDX 31 35 32 36 33 37 34 38 35 40 36 41 37 42 98 43 38 44 97 45
REMARK SMILES IDX 39 46 40 47 41 48 91 49 42 50 96 51 90 52 92 53 43 54 95 55
REMARK SMILES IDX 89 56 88 57 44 59 76 60 56 61 75 62 57 63 60 64 74 65 93 66
REMARK SMILES IDX 58 67 59 68 73 70 94 71 61 72 45 73 46 74 54 75 47 76 53 77
REMARK SMILES IDX 55 78 52 79 48 80 49 81 50 82 51 83 77 84 78 85 86 86 79 87
REMARK SMILES IDX 85 88 87 89 84 90 80 91 81 92 82 93 83 94 62 95 63 96 71 97
REMARK SMILES IDX 64 98 70 99 72 100 69 101 65 102 66 103 67 104 68 105
REMARK H PARENT 26 7 17 17 33 39 92 58 60 69
REMARK Flexibility Score: inf
ROOT
ATOM      1  C   UNL     1       3.221  -0.552  -2.442  1.00  0.00     0.002 C 
ENDROOT
BRANCH   1   2
ATOM      2  C   UNL     1       3.247   0.338  -3.689  1.00  0.00     0.021 C 
BRANCH   2   3
ATOM      3  C   UNL     1       2.066   1.235  -4.061  1.00  0.00     0.116 C 
BRANCH   3   4
ATOM      4  N   UNL     1       1.725   2.341  -3.171  1.00  0.00    -0.352 N 
ATOM      5  C   UNL     1       1.544   3.695  -3.392  1.00  0.00     0.253 C 
ATOM      6  O   UNL     1       1.042   4.388  -2.510  1.00  0.00    -0.269 OA
ATOM      7  H   UNL     1       1.600   2.071  -2.232  1.00  0.00     0.163 HD
BRANCH   5   8
ATOM      8  C   UNL     1       1.911   4.351  -4.667  1.00  0.00     0.063 A 
ATOM      9  C   UNL     1       2.453   5.650  -4.773  1.00  0.00     0.054 A 
ATOM     10  C   UNL     1       2.608   6.202  -6.066  1.00  0.00     0.027 A 
ATOM     11  C   UNL     1       2.251   5.509  -7.222  1.00  0.00     0.002 A 
ATOM     12  C   UNL     1       1.436   3.729  -5.843  1.00  0.00     0.016 A 
ATOM     13  C   UNL     1       1.642   4.274  -7.109  1.00  0.00     0.001 A 
BRANCH   9  14
ATOM     14  N   UNL     1       2.664   6.609  -3.761  1.00  0.00    -0.324 N 
ATOM     15  C   UNL     1       3.268   6.691  -2.549  1.00  0.00     0.244 C 
ATOM     16  O   UNL     1       3.139   7.778  -1.965  1.00  0.00    -0.273 OA
ATOM     17  H   UNL     1       2.253   7.470  -4.006  1.00  0.00     0.170 HD
BRANCH  15  18
ATOM     18  C   UNL     1       4.240   5.664  -2.002  1.00  0.00     0.230 C 
BRANCH  18  19
ATOM     19  N   UNL     1       3.680   4.553  -1.283  1.00  0.00    -0.259 N 
ATOM     20  C   UNL     1       1.038   3.120   0.549  1.00  0.00     0.029 C 
ATOM     21  C   UNL     1       2.305   3.328   0.150  1.00  0.00     0.083 C 
ATOM     22  S   UNL     1       3.494   2.202  -0.340  1.00  0.00    -0.022 SA
ATOM     23  C   UNL     1       2.783   4.691  -0.240  1.00  0.00     0.268 C 
ATOM     24  C   UNL     1       4.233   3.320  -1.441  1.00  0.00     0.294 C 
ATOM     25  O   UNL     1       2.416   5.727   0.286  1.00  0.00    -0.268 OA
ATOM     26  O   UNL     1       5.136   3.016  -2.220  1.00  0.00    -0.261 OA
BRANCH  20  27
ATOM     27  C   UNL     1       0.254   1.858   0.585  1.00  0.00    -0.021 A 
ATOM     28  C   UNL     1       1.927   0.436   1.914  1.00  0.00     0.045 C 
ATOM     29  C   UNL     1       0.644   0.638   1.162  1.00  0.00    -0.044 A 
ATOM     30  C   UNL     1      -0.166  -0.508   0.992  1.00  0.00     0.004 A 
ATOM     31  C   UNL     1      -1.394  -0.439   0.344  1.00  0.00     0.000 A 
ATOM     32  C   UNL     1      -1.014   1.912  -0.034  1.00  0.00     0.008 A 
ATOM     33  C   UNL     1      -1.834   0.782  -0.146  1.00  0.00     0.001 A 
ENDBRANCH  20  27
ENDBRANCH  18  19
ENDBRANCH  15  18
ENDBRANCH   9  14
ENDBRANCH   5   8
ENDBRANCH   3   4
ENDBRANCH   2   3
ENDBRANCH   1   2
BRANCH   1  34
ATOM     34  C   UNL     1       1.879  -0.881  -1.786  1.00  0.00     0.002 C 
BRANCH  34  35
ATOM     35  C   UNL     1       0.964  -1.833  -2.543  1.00  0.00     0.021 C 
BRANCH  35  36
ATOM     36  C   UNL     1       1.517  -3.241  -2.664  1.00  0.00     0.116 C 
BRANCH  36  37
ATOM     37  N   UNL     1       1.079  -4.222  -1.682  1.00  0.00    -0.352 N 
ATOM     38  C   UNL     1       1.310  -5.595  -1.675  1.00  0.00     0.251 C 
ATOM     39  H   UNL     1       0.552  -3.871  -0.928  1.00  0.00     0.163 HD
ATOM     40  O   UNL     1       0.744  -6.335  -0.874  1.00  0.00    -0.269 OA
BRANCH  38  41
ATOM     41  C   UNL     1       2.414  -6.156  -2.511  1.00  0.00     0.039 A 
ATOM     42  C   UNL     1       3.336  -6.972  -1.839  1.00  0.00     0.014 A 
ATOM     43  C   UNL     1       2.782  -5.540  -3.696  1.00  0.00     0.014 A 
ATOM     44  C   UNL     1       4.687  -6.845  -2.133  1.00  0.00     0.010 A 
ATOM     45  C   UNL     1       4.111  -5.247  -3.860  1.00  0.00     0.010 A 
ATOM     46  C   UNL     1       5.053  -5.848  -3.026  1.00  0.00    -0.014 A 
BRANCH  46  47
ATOM     47  C   UNL     1       6.411  -5.415  -3.265  1.00  0.00     0.031 A 
ATOM     48  C   UNL     1       7.111  -6.069  -4.376  1.00  0.00     0.074 A 
ATOM     49  C   UNL     1       6.910  -4.369  -2.575  1.00  0.00     0.049 A 
ATOM     50  N   UNL     1       8.384  -6.152  -4.497  1.00  0.00    -0.248 NA
ATOM     51  C   UNL     1       6.382  -6.782  -5.423  1.00  0.00     0.031 C 
ATOM     52  C   UNL     1       8.112  -3.593  -2.856  1.00  0.00     0.029 A 
ATOM     53  N   UNL     1       6.505  -3.934  -1.313  1.00  0.00    -0.354 N 
ATOM     54  C   UNL     1       8.640  -6.649  -5.757  1.00  0.00     0.074 A 
ATOM     55  C   UNL     1       7.377  -7.148  -6.229  1.00  0.00     0.031 C 
ATOM     56  C   UNL     1       8.496  -2.968  -1.728  1.00  0.00     0.029 A 
ATOM     57  C   UNL     1       7.661  -3.473  -0.650  1.00  0.00     0.049 A 
ATOM     58  H   UNL     1       5.588  -3.946  -0.955  1.00  0.00     0.167 HD
ATOM     59  C   UNL     1       9.865  -6.423  -6.305  1.00  0.00     0.034 A 
ATOM     60  C   UNL     1       8.123  -4.158   0.442  1.00  0.00     0.034 A 
ATOM     61  C   UNL     1      10.732  -5.750  -5.328  1.00  0.00     0.049 A 
ATOM     62  C   UNL     1       9.439  -4.862   0.203  1.00  0.00     0.074 A 
ATOM     63  C   UNL     1      11.065  -4.423  -5.108  1.00  0.00     0.029 A 
ATOM     64  N   UNL     1      11.071  -6.422  -4.164  1.00  0.00    -0.354 N 
ATOM     65  N   UNL     1      10.058  -4.935  -0.944  1.00  0.00    -0.248 NA
ATOM     66  C   UNL     1      10.092  -5.635   1.251  1.00  0.00     0.031 C 
ATOM     67  C   UNL     1      11.549  -4.306  -3.768  1.00  0.00     0.029 A 
ATOM     68  C   UNL     1      11.569  -5.567  -3.197  1.00  0.00     0.049 A 
ATOM     69  H   UNL     1      10.969  -7.393  -4.040  1.00  0.00     0.167 HD
ATOM     70  C   UNL     1      11.120  -5.794  -0.835  1.00  0.00     0.074 A 
ATOM     71  C   UNL     1      11.075  -6.228   0.557  1.00  0.00     0.031 C 
ATOM     72  C   UNL     1      11.929  -6.119  -1.895  1.00  0.00     0.034 A 
BRANCH  59  73
ATOM     73  C   UNL     1      10.191  -6.526  -7.782  1.00  0.00     0.023 A 
ATOM     74  C   UNL     1      11.325  -5.835  -8.256  1.00  0.00     0.031 A 
ATOM     75  C   UNL     1       9.449  -7.198  -8.778  1.00  0.00     0.131 A 
ATOM     76  C   UNL     1      11.624  -5.756  -9.629  1.00  0.00     0.055 A 
ATOM     77  C   UNL     1       9.724  -7.090 -10.149  1.00  0.00     0.041 A 
ATOM     78  F   UNL     1       8.450  -8.036  -8.493  1.00  0.00    -0.206 F 
ATOM     79  C   UNL     1      10.813  -6.358 -10.584  1.00  0.00     0.022 A 
BRANCH  76  80
ATOM     80  S   UNL     1      13.096  -4.840 -10.150  1.00  0.00     0.124 S 
ATOM     81  O   UNL     1      12.798  -3.491  -9.681  1.00  0.00    -0.237 OA
ATOM     82  O   UNL     1      14.163  -5.550  -9.453  1.00  0.00    -0.237 OA
ATOM     83  O   UNL     1      13.097  -5.001 -11.604  1.00  0.00    -0.744 OA
ENDBRANCH  76  80
ENDBRANCH  59  73
BRANCH  60  84
ATOM     84  C   UNL     1       7.007  -4.720   1.270  1.00  0.00     0.023 A 
ATOM     85  C   UNL     1       6.086  -3.780   1.762  1.00  0.00     0.031 A 
ATOM     86  C   UNL     1       6.567  -6.038   1.077  1.00  0.00     0.131 A 
ATOM     87  C   UNL     1       4.718  -4.081   1.709  1.00  0.00     0.055 A 
ATOM     88  C   UNL     1       5.208  -6.362   1.161  1.00  0.00     0.041 A 
ATOM     89  F   UNL     1       7.407  -6.986   0.637  1.00  0.00    -0.206 F 
ATOM     90  C   UNL     1       4.268  -5.360   1.389  1.00  0.00     0.022 A 
BRANCH  87  91
ATOM     91  S   UNL     1       3.584  -2.677   1.670  1.00  0.00     0.124 S 
ATOM     92  O   UNL     1       3.549  -2.272   3.071  1.00  0.00    -0.237 OA
ATOM     93  O   UNL     1       4.277  -1.768   0.758  1.00  0.00    -0.237 OA
ATOM     94  O   UNL     1       2.335  -3.223   1.141  1.00  0.00    -0.744 OA
ENDBRANCH  87  91
ENDBRANCH  60  84
BRANCH  72  95
ATOM     95  C   UNL     1      13.109  -7.061  -1.774  1.00  0.00     0.023 A 
ATOM     96  C   UNL     1      13.771  -7.254  -0.557  1.00  0.00     0.031 A 
ATOM     97  C   UNL     1      13.634  -7.790  -2.867  1.00  0.00     0.131 A 
ATOM     98  C   UNL     1      14.724  -8.269  -0.398  1.00  0.00     0.055 A 
ATOM     99  C   UNL     1      14.662  -8.727  -2.734  1.00  0.00     0.041 A 
ATOM    100  F   UNL     1      13.171  -7.650  -4.116  1.00  0.00    -0.206 F 
ATOM    101  C   UNL     1      15.185  -9.005  -1.483  1.00  0.00     0.022 A 
BRANCH  98 102
ATOM    102  S   UNL     1      15.257  -8.667   1.282  1.00  0.00     0.124 S 
ATOM    103  O   UNL     1      15.639  -7.362   1.813  1.00  0.00    -0.237 OA
ATOM    104  O   UNL     1      14.041  -9.246   1.847  1.00  0.00    -0.237 OA
ATOM    105  O   UNL     1      16.359  -9.604   1.079  1.00  0.00    -0.744 OA
ENDBRANCH  98 102
ENDBRANCH  72  95
ENDBRANCH  46  47
ENDBRANCH  38  41
ENDBRANCH  36  37
ENDBRANCH  35  36
ENDBRANCH  34  35
ENDBRANCH   1  34
TORSDOF 20
