REMARK SMILES Cc1ccc(C(=O)N[C@@H]2C=C[C@H](C(=O)NCCCCCCNC(=O)c3ccc(-c4c5nc(c(-c6cc(S(=O)(=O)[O-])ccc6F)c6ccc([nH]6)c(-c6cc(S(=O)(=O)[O-])ccc6F)c6nc(c(-c7cc(S(=O)(=O)[O-])ccc7F)c7ccc4[nH]7)C=C6)C=C5)cc3)C2)c(F)c1
REMARK SMILES IDX 19 1 18 2 17 3 16 4 15 5 13 6 14 7 12 9 9 10 10 11 88 12
REMARK SMILES IDX 11 13 8 14 6 15 7 16 5 18 1 19 2 20 3 21 91 22 4 23 89 24
REMARK SMILES IDX 90 25 20 26 21 27 22 28 23 29 24 31 25 32 26 33 87 34 27 35
REMARK SMILES IDX 86 36 28 37 29 38 30 39 80 40 31 41 85 42 79 43 81 44 32 45
REMARK SMILES IDX 84 46 78 47 77 48 33 50 65 51 45 52 64 53 46 54 49 55 63 56
REMARK SMILES IDX 82 57 47 58 48 59 62 61 83 62 50 63 34 64 35 65 43 66 36 67
REMARK SMILES IDX 42 68 44 69 41 70 37 71 38 72 39 73 40 74 66 75 67 76 75 77
REMARK SMILES IDX 68 78 74 79 76 80 73 81 69 82 70 83 71 84 72 85 51 86 52 87
REMARK SMILES IDX 60 88 53 89 59 90 61 91 58 92 54 93 55 94 56 95 57 96
REMARK H PARENT 15 8 8 17 22 30 81 49 49 60
REMARK Flexibility Score: inf
ROOT
ATOM      1  C   UNL     1       4.266  -9.588   3.667  1.00  0.00     0.002 C 
ENDROOT
BRANCH   1   2
ATOM      2  C   UNL     1       3.170  -9.889   2.641  1.00  0.00     0.002 C 
BRANCH   2   3
ATOM      3  C   UNL     1       1.813  -9.227   2.908  1.00  0.00     0.021 C 
BRANCH   3   4
ATOM      4  C   UNL     1       1.840  -7.706   3.067  1.00  0.00     0.116 C 
BRANCH   4   5
ATOM      5  N   UNL     1       2.398  -7.031   1.909  1.00  0.00    -0.356 N 
ATOM      6  C   UNL     1       2.113  -5.786   1.416  1.00  0.00     0.227 C 
ATOM      7  O   UNL     1       2.803  -5.351   0.495  1.00  0.00    -0.274 OA
ATOM      8  H   UNL     1       3.077  -7.539   1.408  1.00  0.00     0.163 HD
BRANCH   6   9
ATOM      9  C   UNL     1       0.913  -5.033   1.995  1.00  0.00     0.103 C 
ATOM     10  C   UNL     1      -0.829  -4.411   0.346  1.00  0.00     0.106 C 
ATOM     11  C   UNL     1      -0.041  -3.229   0.823  1.00  0.00    -0.006 C 
ATOM     12  C   UNL     1      -0.364  -5.519   1.305  1.00  0.00     0.047 C 
ATOM     13  C   UNL     1       0.910  -3.567   1.701  1.00  0.00    -0.016 C 
BRANCH  10  14
ATOM     14  N   UNL     1      -0.572  -4.559  -1.077  1.00  0.00    -0.346 N 
ATOM     15  C   UNL     1      -0.917  -5.526  -1.992  1.00  0.00     0.254 C 
ATOM     16  O   UNL     1      -0.877  -5.263  -3.192  1.00  0.00    -0.269 OA
ATOM     17  H   UNL     1      -0.047  -3.821  -1.462  1.00  0.00     0.164 HD
BRANCH  15  18
ATOM     18  C   UNL     1      -1.232  -6.896  -1.557  1.00  0.00     0.075 A 
ATOM     19  C   UNL     1      -1.234 -10.744   0.342  1.00  0.00     0.044 C 
ATOM     20  C   UNL     1      -1.315  -9.437  -0.389  1.00  0.00    -0.048 A 
ATOM     21  C   UNL     1      -2.207  -8.436   0.027  1.00  0.00     0.004 A 
ATOM     22  C   UNL     1      -0.494  -9.199  -1.496  1.00  0.00     0.043 A 
ATOM     23  C   UNL     1      -2.185  -7.172  -0.573  1.00  0.00     0.017 A 
ATOM     24  C   UNL     1      -0.447  -7.931  -2.067  1.00  0.00     0.136 A 
ATOM     25  F   UNL     1       0.424  -7.721  -3.064  1.00  0.00    -0.206 F 
ENDBRANCH  15  18
ENDBRANCH  10  14
ENDBRANCH   6   9
ENDBRANCH   4   5
ENDBRANCH   3   4
ENDBRANCH   2   3
ENDBRANCH   1   2
BRANCH   1  26
ATOM     26  C   UNL     1       3.930  -9.957   5.114  1.00  0.00     0.021 C 
BRANCH  26  27
ATOM     27  C   UNL     1       3.563 -11.421   5.340  1.00  0.00     0.116 C 
BRANCH  27  28
ATOM     28  N   UNL     1       4.655 -12.324   5.016  1.00  0.00    -0.352 N 
ATOM     29  C   UNL     1       5.264 -13.280   5.795  1.00  0.00     0.251 C 
ATOM     30  H   UNL     1       5.013 -12.238   4.102  1.00  0.00     0.163 HD
ATOM     31  O   UNL     1       6.296 -13.812   5.405  1.00  0.00    -0.269 OA
BRANCH  29  32
ATOM     32  C   UNL     1       4.689 -13.640   7.111  1.00  0.00     0.039 A 
ATOM     33  C   UNL     1       5.543 -13.755   8.210  1.00  0.00     0.014 A 
ATOM     34  C   UNL     1       3.317 -13.856   7.266  1.00  0.00     0.014 A 
ATOM     35  C   UNL     1       5.012 -14.005   9.477  1.00  0.00     0.010 A 
ATOM     36  C   UNL     1       2.781 -14.036   8.541  1.00  0.00     0.010 A 
ATOM     37  C   UNL     1       3.622 -14.098   9.662  1.00  0.00    -0.014 A 
BRANCH  37  38
ATOM     38  C   UNL     1       3.037 -14.213  11.026  1.00  0.00     0.031 A 
ATOM     39  C   UNL     1       2.251 -15.432  11.422  1.00  0.00     0.074 A 
ATOM     40  C   UNL     1       3.166 -13.182  11.886  1.00  0.00     0.049 A 
ATOM     41  N   UNL     1       1.617 -15.678  12.541  1.00  0.00    -0.248 NA
ATOM     42  C   UNL     1       2.142 -16.504  10.422  1.00  0.00     0.031 C 
ATOM     43  C   UNL     1       3.873 -11.931  11.602  1.00  0.00     0.029 A 
ATOM     44  N   UNL     1       2.705 -13.014  13.169  1.00  0.00    -0.354 N 
ATOM     45  C   UNL     1       1.030 -16.928  12.380  1.00  0.00     0.074 A 
ATOM     46  C   UNL     1       1.337 -17.363  11.033  1.00  0.00     0.031 C 
ATOM     47  C   UNL     1       3.820 -11.138  12.683  1.00  0.00     0.029 A 
ATOM     48  C   UNL     1       3.028 -11.793  13.718  1.00  0.00     0.049 A 
ATOM     49  H   UNL     1       2.191 -13.702  13.650  1.00  0.00     0.167 HD
ATOM     50  C   UNL     1       0.315 -17.651  13.278  1.00  0.00     0.034 A 
ATOM     51  C   UNL     1       2.707 -11.252  14.910  1.00  0.00     0.034 A 
ATOM     52  C   UNL     1       0.022 -17.203  14.619  1.00  0.00     0.049 A 
ATOM     53  C   UNL     1       1.873 -12.059  15.874  1.00  0.00     0.074 A 
ATOM     54  C   UNL     1      -0.634 -17.886  15.629  1.00  0.00     0.029 A 
ATOM     55  N   UNL     1       0.348 -15.955  15.134  1.00  0.00    -0.354 N 
ATOM     56  N   UNL     1       1.383 -13.269  15.728  1.00  0.00    -0.248 NA
ATOM     57  C   UNL     1       1.556 -11.433  17.163  1.00  0.00     0.031 C 
ATOM     58  C   UNL     1      -0.781 -17.022  16.719  1.00  0.00     0.029 A 
ATOM     59  C   UNL     1      -0.138 -15.831  16.427  1.00  0.00     0.049 A 
ATOM     60  H   UNL     1       0.851 -15.260  14.651  1.00  0.00     0.167 HD
ATOM     61  C   UNL     1       0.718 -13.554  16.918  1.00  0.00     0.074 A 
ATOM     62  C   UNL     1       0.895 -12.402  17.777  1.00  0.00     0.031 C 
ATOM     63  C   UNL     1       0.024 -14.667  17.268  1.00  0.00     0.034 A 
BRANCH  50  64
ATOM     64  C   UNL     1      -0.227 -18.989  12.831  1.00  0.00     0.023 A 
ATOM     65  C   UNL     1       0.621 -20.047  12.460  1.00  0.00     0.031 A 
ATOM     66  C   UNL     1      -1.615 -19.210  12.778  1.00  0.00     0.131 A 
ATOM     67  C   UNL     1       0.074 -21.252  11.992  1.00  0.00     0.055 A 
ATOM     68  C   UNL     1      -2.152 -20.439  12.389  1.00  0.00     0.041 A 
ATOM     69  F   UNL     1      -2.476 -18.231  13.098  1.00  0.00    -0.206 F 
ATOM     70  C   UNL     1      -1.306 -21.465  11.980  1.00  0.00     0.022 A 
BRANCH  67  71
ATOM     71  S   UNL     1       1.189 -22.487  11.270  1.00  0.00     0.124 S 
ATOM     72  O   UNL     1       1.815 -21.725  10.192  1.00  0.00    -0.237 OA
ATOM     73  O   UNL     1       2.052 -22.829  12.395  1.00  0.00    -0.237 OA
ATOM     74  O   UNL     1       0.286 -23.548  10.829  1.00  0.00    -0.744 OA
ENDBRANCH  67  71
ENDBRANCH  50  64
BRANCH  51  75
ATOM     75  C   UNL     1       3.138  -9.865  15.254  1.00  0.00     0.023 A 
ATOM     76  C   UNL     1       3.984  -9.617  16.347  1.00  0.00     0.031 A 
ATOM     77  C   UNL     1       2.665  -8.758  14.525  1.00  0.00     0.131 A 
ATOM     78  C   UNL     1       4.288  -8.296  16.711  1.00  0.00     0.055 A 
ATOM     79  C   UNL     1       3.022  -7.449  14.853  1.00  0.00     0.041 A 
ATOM     80  F   UNL     1       1.852  -8.935  13.471  1.00  0.00    -0.206 F 
ATOM     81  C   UNL     1       3.827  -7.211  15.962  1.00  0.00     0.022 A 
BRANCH  78  82
ATOM     82  S   UNL     1       5.210  -8.009  18.247  1.00  0.00     0.124 S 
ATOM     83  O   UNL     1       4.359  -8.670  19.230  1.00  0.00    -0.237 OA
ATOM     84  O   UNL     1       6.484  -8.659  17.960  1.00  0.00    -0.237 OA
ATOM     85  O   UNL     1       5.263  -6.552  18.345  1.00  0.00    -0.744 OA
ENDBRANCH  78  82
ENDBRANCH  51  75
BRANCH  63  86
ATOM     86  C   UNL     1      -0.574 -14.694  18.655  1.00  0.00     0.023 A 
ATOM     87  C   UNL     1      -1.597 -13.807  19.034  1.00  0.00     0.031 A 
ATOM     88  C   UNL     1      -0.106 -15.610  19.614  1.00  0.00     0.131 A 
ATOM     89  C   UNL     1      -2.076 -13.814  20.353  1.00  0.00     0.055 A 
ATOM     90  C   UNL     1      -0.636 -15.659  20.904  1.00  0.00     0.041 A 
ATOM     91  F   UNL     1       0.873 -16.478  19.311  1.00  0.00    -0.206 F 
ATOM     92  C   UNL     1      -1.616 -14.748  21.284  1.00  0.00     0.022 A 
BRANCH  89  93
ATOM     93  S   UNL     1      -3.236 -12.517  20.863  1.00  0.00     0.124 S 
ATOM     94  O   UNL     1      -2.468 -11.304  20.600  1.00  0.00    -0.237 OA
ATOM     95  O   UNL     1      -4.376 -12.752  19.983  1.00  0.00    -0.237 OA
ATOM     96  O   UNL     1      -3.475 -12.806  22.276  1.00  0.00    -0.744 OA
ENDBRANCH  89  93
ENDBRANCH  63  86
ENDBRANCH  37  38
ENDBRANCH  29  32
ENDBRANCH  27  28
ENDBRANCH  26  27
ENDBRANCH   1  26
TORSDOF 18
