REMARK SMILES CS(=O)(=O)c1ccc(C2=NN(c3ccc(C(=O)NCCCCCCNC(=O)c4ccc(-c5c6nc(c(-c7cc(S(=O)(=O)[O-])ccc7F)c7ccc([nH]7)c(-c7cc(S(=O)(=O)[O-])ccc7F)c7nc(c(-c8cc(S(=O)(=O)[O-])ccc8F)c8ccc5[nH]8)C=C7)C=C6)cc4)cc3)[C@H](c3ccccc3)C2)cc1
REMARK SMILES IDX 21 1 20 2 19 3 18 4 16 5 17 6 15 8 12 9 13 10 92 11 14 12
REMARK SMILES IDX 91 13 11 14 9 15 10 16 100 17 93 18 8 19 5 20 6 21 102 22
REMARK SMILES IDX 7 23 101 24 2 25 1 26 3 27 4 28 94 29 95 30 99 31 96 32
REMARK SMILES IDX 98 33 97 34 22 35 23 36 24 37 25 38 26 39 27 41 28 42 29 43
REMARK SMILES IDX 90 44 30 45 89 46 31 47 32 48 33 49 83 50 34 51 88 52 82 53
REMARK SMILES IDX 84 54 35 55 87 56 81 57 80 58 36 60 68 61 48 62 67 63 49 64
REMARK SMILES IDX 52 65 66 66 85 67 50 68 51 69 65 71 86 72 53 73 37 74 38 75
REMARK SMILES IDX 46 76 39 77 45 78 47 79 44 80 40 81 41 82 42 83 43 84 69 85
REMARK SMILES IDX 70 86 78 87 71 88 77 89 79 90 76 91 72 92 73 93 74 94 75 95
REMARK SMILES IDX 54 96 55 97 63 98 56 99 62 100 64 101 61 102 57 103 58 104
REMARK SMILES IDX 59 105 60 106
REMARK H PARENT 18 7 25 40 84 59 52 70
REMARK Flexibility Score: inf
ROOT
ATOM      1  C   UNL     1       9.793  11.760   5.956  1.00  0.00     0.002 C 
ENDROOT
BRANCH   1   2
ATOM      2  C   UNL     1       8.499  11.095   5.470  1.00  0.00     0.021 C 
BRANCH   2   3
ATOM      3  C   UNL     1       7.834  11.851   4.318  1.00  0.00     0.116 C 
BRANCH   3   4
ATOM      4  N   UNL     1       8.527  11.569   3.073  1.00  0.00    -0.352 N 
ATOM      5  C   UNL     1       8.195  10.763   2.014  1.00  0.00     0.251 C 
ATOM      6  O   UNL     1       8.957  10.717   1.050  1.00  0.00    -0.269 OA
ATOM      7  H   UNL     1       9.386  12.038   2.972  1.00  0.00     0.163 HD
BRANCH   5   8
ATOM      8  C   UNL     1       6.913  10.012   1.968  1.00  0.00     0.039 A 
ATOM      9  C   UNL     1       4.389   8.779   1.768  1.00  0.00     0.060 A 
ATOM     10  C   UNL     1       5.034   9.260   0.624  1.00  0.00     0.029 A 
ATOM     11  C   UNL     1       5.058   8.848   2.992  1.00  0.00     0.029 A 
ATOM     12  C   UNL     1       6.286   9.876   0.722  1.00  0.00     0.016 A 
ATOM     13  C   UNL     1       6.319   9.432   3.089  1.00  0.00     0.016 A 
BRANCH   9  14
ATOM     14  N   UNL     1       3.136   8.194   1.719  1.00  0.00    -0.257 N 
ATOM     15  C   UNL     1       1.822   6.740   0.909  1.00  0.00     0.071 C 
ATOM     16  N   UNL     1       3.056   6.934   1.241  1.00  0.00    -0.176 NA
ATOM     17  C   UNL     1       0.903   7.920   1.059  1.00  0.00     0.091 C 
ATOM     18  C   UNL     1       1.874   8.946   1.682  1.00  0.00     0.144 C 
BRANCH  15  19
ATOM     19  C   UNL     1       1.367   5.428   0.435  1.00  0.00    -0.002 A 
ATOM     20  C   UNL     1       0.715   2.879  -0.455  1.00  0.00     0.067 A 
ATOM     21  C   UNL     1       1.499   3.022   0.691  1.00  0.00     0.021 A 
ATOM     22  C   UNL     1       0.253   4.007  -1.153  1.00  0.00     0.021 A 
ATOM     23  C   UNL     1       1.832   4.302   1.127  1.00  0.00     0.011 A 
ATOM     24  C   UNL     1       0.574   5.290  -0.702  1.00  0.00     0.011 A 
BRANCH  20  25
ATOM     25  S   UNL     1       0.275   1.282  -1.095  1.00  0.00     0.175 S 
ATOM     26  C   UNL     1       0.909   0.066   0.026  1.00  0.00     0.163 C 
ATOM     27  O   UNL     1       0.982   1.133  -2.349  1.00  0.00    -0.224 OA
ATOM     28  O   UNL     1      -1.175   1.209  -1.039  1.00  0.00    -0.224 OA
ENDBRANCH  20  25
ENDBRANCH  15  19
BRANCH  18  29
ATOM     29  C   UNL     1       1.533   9.523   3.055  1.00  0.00    -0.023 A 
ATOM     30  C   UNL     1       0.576   8.982   3.928  1.00  0.00     0.006 A 
ATOM     31  C   UNL     1       2.243  10.659   3.500  1.00  0.00     0.006 A 
ATOM     32  C   UNL     1       0.338   9.554   5.185  1.00  0.00     0.000 A 
ATOM     33  C   UNL     1       2.027  11.211   4.765  1.00  0.00     0.000 A 
ATOM     34  C   UNL     1       1.069  10.661   5.607  1.00  0.00     0.000 A 
ENDBRANCH  18  29
ENDBRANCH   9  14
ENDBRANCH   5   8
ENDBRANCH   3   4
ENDBRANCH   2   3
ENDBRANCH   1   2
BRANCH   1  35
ATOM     35  C   UNL     1       9.605  13.167   6.535  1.00  0.00     0.002 C 
BRANCH  35  36
ATOM     36  C   UNL     1       8.593  13.257   7.680  1.00  0.00     0.021 C 
BRANCH  36  37
ATOM     37  C   UNL     1       8.960  12.419   8.900  1.00  0.00     0.116 C 
BRANCH  37  38
ATOM     38  N   UNL     1      10.197  12.882   9.509  1.00  0.00    -0.352 N 
ATOM     39  C   UNL     1      10.418  13.328  10.788  1.00  0.00     0.251 C 
ATOM     40  H   UNL     1      10.987  12.875   8.921  1.00  0.00     0.163 HD
ATOM     41  O   UNL     1      11.452  13.934  11.052  1.00  0.00    -0.269 OA
BRANCH  39  42
ATOM     42  C   UNL     1       9.400  13.086  11.831  1.00  0.00     0.039 A 
ATOM     43  C   UNL     1       9.086  14.110  12.727  1.00  0.00     0.014 A 
ATOM     44  C   UNL     1       8.761  11.846  11.928  1.00  0.00     0.014 A 
ATOM     45  C   UNL     1       8.093  13.906  13.687  1.00  0.00     0.010 A 
ATOM     46  C   UNL     1       7.717  11.673  12.829  1.00  0.00     0.010 A 
ATOM     47  C   UNL     1       7.377  12.697  13.725  1.00  0.00    -0.014 A 
BRANCH  47  48
ATOM     48  C   UNL     1       6.281  12.482  14.705  1.00  0.00     0.031 A 
ATOM     49  C   UNL     1       6.403  11.406  15.749  1.00  0.00     0.074 A 
ATOM     50  C   UNL     1       5.159  13.224  14.625  1.00  0.00     0.049 A 
ATOM     51  N   UNL     1       5.538  11.028  16.655  1.00  0.00    -0.248 NA
ATOM     52  C   UNL     1       7.653  10.632  15.750  1.00  0.00     0.031 C 
ATOM     53  C   UNL     1       4.913  14.278  13.638  1.00  0.00     0.029 A 
ATOM     54  N   UNL     1       4.017  13.208  15.384  1.00  0.00    -0.354 N 
ATOM     55  C   UNL     1       6.138   9.972  17.334  1.00  0.00     0.074 A 
ATOM     56  C   UNL     1       7.402   9.719  16.675  1.00  0.00     0.031 C 
ATOM     57  C   UNL     1       3.717  14.835  13.881  1.00  0.00     0.029 A 
ATOM     58  C   UNL     1       3.086  14.146  15.002  1.00  0.00     0.049 A 
ATOM     59  H   UNL     1       3.877  12.584  16.132  1.00  0.00     0.167 HD
ATOM     60  C   UNL     1       5.693   9.298  18.424  1.00  0.00     0.034 A 
ATOM     61  C   UNL     1       1.862  14.415  15.497  1.00  0.00     0.034 A 
ATOM     62  C   UNL     1       4.425   9.560  19.062  1.00  0.00     0.049 A 
ATOM     63  C   UNL     1       1.356  13.608  16.665  1.00  0.00     0.074 A 
ATOM     64  C   UNL     1       3.884   8.961  20.186  1.00  0.00     0.029 A 
ATOM     65  N   UNL     1       3.492  10.494  18.625  1.00  0.00    -0.354 N 
ATOM     66  N   UNL     1       1.951  12.638  17.321  1.00  0.00    -0.248 NA
ATOM     67  C   UNL     1       0.015  13.939  17.163  1.00  0.00     0.031 C 
ATOM     68  C   UNL     1       2.596   9.474  20.381  1.00  0.00     0.029 A 
ATOM     69  C   UNL     1       2.366  10.460  19.435  1.00  0.00     0.049 A 
ATOM     70  H   UNL     1       3.613  11.093  17.853  1.00  0.00     0.167 HD
ATOM     71  C   UNL     1       1.070  12.271  18.336  1.00  0.00     0.074 A 
ATOM     72  C   UNL     1      -0.088  13.132  18.209  1.00  0.00     0.031 C 
ATOM     73  C   UNL     1       1.209  11.315  19.290  1.00  0.00     0.034 A 
BRANCH  60  74
ATOM     74  C   UNL     1       6.580   8.198  18.964  1.00  0.00     0.023 A 
ATOM     75  C   UNL     1       7.887   8.461  19.413  1.00  0.00     0.031 A 
ATOM     76  C   UNL     1       6.140   6.862  18.980  1.00  0.00     0.131 A 
ATOM     77  C   UNL     1       8.739   7.401  19.756  1.00  0.00     0.055 A 
ATOM     78  C   UNL     1       6.961   5.821  19.420  1.00  0.00     0.041 A 
ATOM     79  F   UNL     1       4.912   6.540  18.546  1.00  0.00    -0.206 F 
ATOM     80  C   UNL     1       8.277   6.085  19.791  1.00  0.00     0.022 A 
BRANCH  77  81
ATOM     81  S   UNL     1      10.506   7.752  19.969  1.00  0.00     0.124 S 
ATOM     82  O   UNL     1      10.844   8.354  18.681  1.00  0.00    -0.237 OA
ATOM     83  O   UNL     1      10.514   8.650  21.117  1.00  0.00    -0.237 OA
ATOM     84  O   UNL     1      11.091   6.433  20.203  1.00  0.00    -0.744 OA
ENDBRANCH  77  81
ENDBRANCH  60  74
BRANCH  61  85
ATOM     85  C   UNL     1       1.029  15.500  14.902  1.00  0.00     0.023 A 
ATOM     86  C   UNL     1       0.676  16.629  15.658  1.00  0.00     0.031 A 
ATOM     87  C   UNL     1       0.542  15.409  13.586  1.00  0.00     0.131 A 
ATOM     88  C   UNL     1      -0.177  17.599  15.111  1.00  0.00     0.055 A 
ATOM     89  C   UNL     1      -0.259  16.406  13.027  1.00  0.00     0.041 A 
ATOM     90  F   UNL     1       0.852  14.352  12.818  1.00  0.00    -0.206 F 
ATOM     91  C   UNL     1      -0.635  17.503  13.795  1.00  0.00     0.022 A 
BRANCH  88  92
ATOM     92  S   UNL     1      -0.754  18.947  16.178  1.00  0.00     0.124 S 
ATOM     93  O   UNL     1      -1.423  18.214  17.246  1.00  0.00    -0.237 OA
ATOM     94  O   UNL     1       0.498  19.606  16.537  1.00  0.00    -0.237 OA
ATOM     95  O   UNL     1      -1.634  19.719  15.303  1.00  0.00    -0.744 OA
ENDBRANCH  88  92
ENDBRANCH  61  85
BRANCH  73  96
ATOM     96  C   UNL     1       0.095  11.188  20.303  1.00  0.00     0.023 A 
ATOM     97  C   UNL     1      -1.200  10.782  19.937  1.00  0.00     0.031 A 
ATOM     98  C   UNL     1       0.332  11.495  21.655  1.00  0.00     0.131 A 
ATOM     99  C   UNL     1      -2.223  10.755  20.898  1.00  0.00     0.055 A 
ATOM    100  C   UNL     1      -0.671  11.398  22.620  1.00  0.00     0.041 A 
ATOM    101  F   UNL     1       1.548  11.892  22.063  1.00  0.00    -0.206 F 
ATOM    102  C   UNL     1      -1.962  11.041  22.241  1.00  0.00     0.022 A 
BRANCH  99 103
ATOM    103  S   UNL     1      -3.924  10.447  20.351  1.00  0.00     0.124 S 
ATOM    104  O   UNL     1      -4.130  11.519  19.382  1.00  0.00    -0.237 OA
ATOM    105  O   UNL     1      -3.835   9.098  19.799  1.00  0.00    -0.237 OA
ATOM    106  O   UNL     1      -4.707  10.562  21.580  1.00  0.00    -0.744 OA
ENDBRANCH  99 103
ENDBRANCH  73  96
ENDBRANCH  47  48
ENDBRANCH  39  42
ENDBRANCH  37  38
ENDBRANCH  36  37
ENDBRANCH  35  36
ENDBRANCH   1  35
TORSDOF 20
