REMARK SMILES NS(=O)(=O)c1ccc(N2N=C(C(=O)NCCCCCCNC(=O)c3ccc(-c4c5nc(c(-c6cc(S(=O)(=O)[O-])ccc6F)c6ccc([nH]6)c(-c6cc(S(=O)(=O)[O-])ccc6F)c6nc(c(-c7cc(S(=O)(=O)[O-])ccc7F)c7ccc4[nH]7)C=C6)C=C5)cc3)C[C@H]2c2cccs2)cc1
REMARK SMILES IDX 17 1 16 2 15 3 14 4 12 5 13 6 11 8 9 9 10 10 88 11 87 12
REMARK SMILES IDX 8 13 5 14 6 15 95 16 7 17 94 18 2 19 3 20 4 21 1 22 89 25
REMARK SMILES IDX 90 26 93 27 91 28 92 29 18 30 19 31 20 32 21 33 22 34 23 36
REMARK SMILES IDX 24 37 25 38 86 39 26 40 85 41 27 42 28 43 29 44 79 45 30 46
REMARK SMILES IDX 84 47 78 48 80 49 31 50 83 51 77 52 76 53 32 55 64 56 44 57
REMARK SMILES IDX 63 58 45 59 48 60 62 61 81 62 46 63 47 64 61 66 82 67 49 68
REMARK SMILES IDX 33 69 34 70 42 71 35 72 41 73 43 74 40 75 36 76 37 77 38 78
REMARK SMILES IDX 39 79 65 80 66 81 74 82 67 83 73 84 75 85 72 86 68 87 69 88
REMARK SMILES IDX 70 89 71 90 50 91 51 92 59 93 52 94 58 95 60 96 57 97 53 98
REMARK SMILES IDX 54 99 55 100 56 101
REMARK H PARENT 14 7 1 23 1 24 21 35 80 54 48 65
REMARK Flexibility Score: inf
ROOT
ATOM      1  C   UNL     1       3.052  10.209   8.713  1.00  0.00     0.002 C 
ENDROOT
BRANCH   1   2
ATOM      2  C   UNL     1       2.024   9.448   7.872  1.00  0.00     0.021 C 
BRANCH   2   3
ATOM      3  C   UNL     1       2.292   9.429   6.370  1.00  0.00     0.116 C 
BRANCH   3   4
ATOM      4  N   UNL     1       3.421   8.583   6.037  1.00  0.00    -0.351 N 
ATOM      5  C   UNL     1       3.626   7.582   5.122  1.00  0.00     0.267 C 
ATOM      6  O   UNL     1       4.720   7.021   5.134  1.00  0.00    -0.268 OA
ATOM      7  H   UNL     1       4.215   8.768   6.589  1.00  0.00     0.163 HD
BRANCH   5   8
ATOM      8  C   UNL     1       2.603   7.149   4.079  1.00  0.00     0.128 C 
ATOM      9  N   UNL     1       1.839   6.119   2.368  1.00  0.00    -0.256 N 
ATOM     10  N   UNL     1       2.857   6.161   3.272  1.00  0.00    -0.171 NA
ATOM     11  C   UNL     1       0.785   7.104   2.623  1.00  0.00     0.154 C 
ATOM     12  C   UNL     1       1.257   7.772   3.917  1.00  0.00     0.097 C 
BRANCH   9  13
ATOM     13  C   UNL     1       1.579   4.961   1.637  1.00  0.00     0.060 A 
ATOM     14  C   UNL     1       0.944   2.646   0.171  1.00  0.00     0.082 A 
ATOM     15  C   UNL     1       1.347   2.534   1.503  1.00  0.00     0.024 A 
ATOM     16  C   UNL     1       0.888   3.895  -0.446  1.00  0.00     0.024 A 
ATOM     17  C   UNL     1       1.676   3.690   2.221  1.00  0.00     0.029 A 
ATOM     18  C   UNL     1       1.198   5.039   0.289  1.00  0.00     0.029 A 
BRANCH  14  19
ATOM     19  S   UNL     1       0.530   1.223  -0.787  1.00  0.00     0.238 S 
ATOM     20  O   UNL     1       1.157   1.338  -2.087  1.00  0.00    -0.207 OA
ATOM     21  O   UNL     1      -0.876   0.953  -0.624  1.00  0.00    -0.207 OA
BRANCH  19  22
ATOM     22  N   UNL     1       1.334  -0.045  -0.032  1.00  0.00    -0.225 NA
ATOM     23  H   UNL     1       1.143  -0.914  -0.532  1.00  0.00     0.137 HD
ATOM     24  H   UNL     1       1.009  -0.129   0.931  1.00  0.00     0.137 HD
ENDBRANCH  19  22
ENDBRANCH  14  19
ENDBRANCH   9  13
BRANCH  11  25
ATOM     25  C   UNL     1       0.478   8.087   1.514  1.00  0.00     0.030 A 
ATOM     26  C   UNL     1      -0.612   8.062   0.659  1.00  0.00     0.017 A 
ATOM     27  S   UNL     1       1.520   9.400   1.136  1.00  0.00    -0.147 S 
ATOM     28  C   UNL     1      -0.611   9.145  -0.265  1.00  0.00     0.012 A 
ATOM     29  C   UNL     1       0.471   9.974  -0.083  1.00  0.00     0.065 A 
ENDBRANCH  11  25
ENDBRANCH   5   8
ENDBRANCH   3   4
ENDBRANCH   2   3
ENDBRANCH   1   2
BRANCH   1  30
ATOM     30  C   UNL     1       3.257  11.681   8.342  1.00  0.00     0.002 C 
BRANCH  30  31
ATOM     31  C   UNL     1       1.986  12.525   8.219  1.00  0.00     0.021 C 
BRANCH  31  32
ATOM     32  C   UNL     1       1.063  12.507   9.434  1.00  0.00     0.116 C 
BRANCH  32  33
ATOM     33  N   UNL     1       1.702  13.030  10.627  1.00  0.00    -0.352 N 
ATOM     34  C   UNL     1       1.258  13.990  11.504  1.00  0.00     0.251 C 
ATOM     35  H   UNL     1       2.581  12.640  10.839  1.00  0.00     0.163 HD
ATOM     36  O   UNL     1       2.018  14.418  12.368  1.00  0.00    -0.269 OA
BRANCH  34  37
ATOM     37  C   UNL     1      -0.117  14.527  11.387  1.00  0.00     0.039 A 
ATOM     38  C   UNL     1      -0.310  15.907  11.489  1.00  0.00     0.014 A 
ATOM     39  C   UNL     1      -1.212  13.680  11.191  1.00  0.00     0.014 A 
ATOM     40  C   UNL     1      -1.592  16.443  11.337  1.00  0.00     0.010 A 
ATOM     41  C   UNL     1      -2.478  14.220  10.973  1.00  0.00     0.010 A 
ATOM     42  C   UNL     1      -2.682  15.607  11.048  1.00  0.00    -0.014 A 
BRANCH  42  43
ATOM     43  C   UNL     1      -4.041  16.165  10.825  1.00  0.00     0.031 A 
ATOM     44  C   UNL     1      -5.162  15.830  11.771  1.00  0.00     0.074 A 
ATOM     45  C   UNL     1      -4.283  16.915   9.732  1.00  0.00     0.049 A 
ATOM     46  N   UNL     1      -6.428  16.156  11.707  1.00  0.00    -0.248 NA
ATOM     47  C   UNL     1      -4.815  14.984  12.921  1.00  0.00     0.031 C 
ATOM     48  C   UNL     1      -3.291  17.264   8.713  1.00  0.00     0.029 A 
ATOM     49  N   UNL     1      -5.439  17.504   9.286  1.00  0.00    -0.354 N 
ATOM     50  C   UNL     1      -7.033  15.542  12.799  1.00  0.00     0.074 A 
ATOM     51  C   UNL     1      -6.003  14.771  13.465  1.00  0.00     0.031 C 
ATOM     52  C   UNL     1      -3.879  18.015   7.768  1.00  0.00     0.029 A 
ATOM     53  C   UNL     1      -5.294  18.169   8.092  1.00  0.00     0.049 A 
ATOM     54  H   UNL     1      -6.292  17.455   9.775  1.00  0.00     0.167 HD
ATOM     55  C   UNL     1      -8.321  15.631  13.219  1.00  0.00     0.034 A 
ATOM     56  C   UNL     1      -6.199  18.818   7.333  1.00  0.00     0.034 A 
ATOM     57  C   UNL     1      -9.331  16.412  12.544  1.00  0.00     0.049 A 
ATOM     58  C   UNL     1      -7.624  18.904   7.810  1.00  0.00     0.074 A 
ATOM     59  C   UNL     1     -10.644  16.634  12.919  1.00  0.00     0.029 A 
ATOM     60  N   UNL     1      -9.144  17.087  11.343  1.00  0.00    -0.354 N 
ATOM     61  N   UNL     1      -8.169  18.375   8.881  1.00  0.00    -0.248 NA
ATOM     62  C   UNL     1      -8.551  19.686   6.984  1.00  0.00     0.031 C 
ATOM     63  C   UNL     1     -11.268  17.383  11.913  1.00  0.00     0.029 A 
ATOM     64  C   UNL     1     -10.326  17.695  10.946  1.00  0.00     0.049 A 
ATOM     65  H   UNL     1      -8.295  17.129  10.847  1.00  0.00     0.167 HD
ATOM     66  C   UNL     1      -9.501  18.778   8.868  1.00  0.00     0.074 A 
ATOM     67  C   UNL     1      -9.671  19.606   7.690  1.00  0.00     0.031 C 
ATOM     68  C   UNL     1     -10.491  18.495   9.753  1.00  0.00     0.034 A 
BRANCH  55  69
ATOM     69  C   UNL     1      -8.702  14.833  14.446  1.00  0.00     0.023 A 
ATOM     70  C   UNL     1      -8.082  15.049  15.691  1.00  0.00     0.031 A 
ATOM     71  C   UNL     1      -9.652  13.800  14.360  1.00  0.00     0.131 A 
ATOM     72  C   UNL     1      -8.338  14.181  16.763  1.00  0.00     0.055 A 
ATOM     73  C   UNL     1      -9.973  13.000  15.460  1.00  0.00     0.041 A 
ATOM     74  F   UNL     1     -10.267  13.530  13.198  1.00  0.00    -0.206 F 
ATOM     75  C   UNL     1      -9.298  13.173  16.664  1.00  0.00     0.022 A 
BRANCH  72  76
ATOM     76  S   UNL     1      -7.260  14.271  18.220  1.00  0.00     0.124 S 
ATOM     77  O   UNL     1      -5.939  14.088  17.621  1.00  0.00    -0.237 OA
ATOM     78  O   UNL     1      -7.547  15.602  18.742  1.00  0.00    -0.237 OA
ATOM     79  O   UNL     1      -7.716  13.160  19.052  1.00  0.00    -0.744 OA
ENDBRANCH  72  76
ENDBRANCH  55  69
BRANCH  56  80
ATOM     80  C   UNL     1      -5.782  19.425   6.040  1.00  0.00     0.023 A 
ATOM     81  C   UNL     1      -5.737  20.817   5.871  1.00  0.00     0.031 A 
ATOM     82  C   UNL     1      -5.413  18.613   4.952  1.00  0.00     0.131 A 
ATOM     83  C   UNL     1      -5.357  21.358   4.632  1.00  0.00     0.055 A 
ATOM     84  C   UNL     1      -4.997  19.155   3.735  1.00  0.00     0.041 A 
ATOM     85  F   UNL     1      -5.427  17.276   5.069  1.00  0.00    -0.206 F 
ATOM     86  C   UNL     1      -4.974  20.536   3.568  1.00  0.00     0.022 A 
BRANCH  83  87
ATOM     87  S   UNL     1      -5.403  23.158   4.416  1.00  0.00     0.124 S 
ATOM     88  O   UNL     1      -6.818  23.445   4.624  1.00  0.00    -0.237 OA
ATOM     89  O   UNL     1      -4.495  23.612   5.464  1.00  0.00    -0.237 OA
ATOM     90  O   UNL     1      -4.920  23.349   3.051  1.00  0.00    -0.744 OA
ENDBRANCH  83  87
ENDBRANCH  56  80
BRANCH  68  91
ATOM     91  C   UNL     1     -11.842  19.115   9.488  1.00  0.00     0.023 A 
ATOM     92  C   UNL     1     -12.625  18.736   8.383  1.00  0.00     0.031 A 
ATOM     93  C   UNL     1     -12.347  20.107  10.348  1.00  0.00     0.131 A 
ATOM     94  C   UNL     1     -13.846  19.383   8.138  1.00  0.00     0.055 A 
ATOM     95  C   UNL     1     -13.588  20.705  10.131  1.00  0.00     0.041 A 
ATOM     96  F   UNL     1     -11.639  20.509  11.416  1.00  0.00    -0.206 F 
ATOM     97  C   UNL     1     -14.340  20.353   9.014  1.00  0.00     0.022 A 
BRANCH  94  98
ATOM     98  S   UNL     1     -14.743  19.003   6.607  1.00  0.00     0.124 S 
ATOM     99  O   UNL     1     -13.760  19.354   5.586  1.00  0.00    -0.237 OA
ATOM    100  O   UNL     1     -15.027  17.580   6.757  1.00  0.00    -0.237 OA
ATOM    101  O   UNL     1     -15.912  19.878   6.668  1.00  0.00    -0.744 OA
ENDBRANCH  94  98
ENDBRANCH  68  91
ENDBRANCH  42  43
ENDBRANCH  34  37
ENDBRANCH  32  33
ENDBRANCH  31  32
ENDBRANCH  30  31
ENDBRANCH   1  30
TORSDOF 20
