REMARK SMILES C=CCc1cccc(-c2ccc([C@@H](C)C(=O)NCCCCCCNC(=O)c3ccc(-c4c5nc(c(-c6cc(S(=O)(=O)[O-])ccc6F)c6ccc([nH]6)c(-c6cc(S(=O)(=O)[O-])ccc6F)c6nc(c(-c7cc(S(=O)(=O)[O-])ccc7F)c7ccc4[nH]7)C=C6)C=C5)cc3)cc2)c1
REMARK SMILES IDX 20 1 19 2 18 3 17 4 15 5 16 6 13 8 14 9 12 10 9 11 10 12
REMARK SMILES IDX 91 13 11 14 90 15 8 16 4 17 5 18 92 19 6 20 7 21 3 22 2 23
REMARK SMILES IDX 1 24 21 25 22 26 23 27 24 28 25 29 26 31 27 32 28 33 89 34
REMARK SMILES IDX 29 35 88 36 30 37 31 38 32 39 82 40 33 41 87 42 81 43 83 44
REMARK SMILES IDX 34 45 86 46 80 47 79 48 35 50 67 51 47 52 66 53 48 54 51 55
REMARK SMILES IDX 65 56 84 57 49 58 50 59 64 61 85 62 52 63 36 64 37 65 45 66
REMARK SMILES IDX 38 67 44 68 46 69 43 70 39 71 40 72 41 73 42 74 68 75 69 76
REMARK SMILES IDX 77 77 70 78 76 79 78 80 75 81 71 82 72 83 73 84 74 85 53 86
REMARK SMILES IDX 54 87 62 88 55 89 61 90 63 91 60 92 56 93 57 94 58 95 59 96
REMARK H PARENT 17 7 24 30 83 49 51 60
REMARK Flexibility Score: inf
ROOT
ATOM      1  C   UNL     1       2.998  -8.188  -3.354  1.00  0.00     0.002 C 
ENDROOT
BRANCH   1   2
ATOM      2  C   UNL     1       2.088  -8.306  -2.127  1.00  0.00     0.021 C 
BRANCH   2   3
ATOM      3  C   UNL     1       2.384  -9.527  -1.254  1.00  0.00     0.116 C 
BRANCH   3   4
ATOM      4  N   UNL     1       3.379  -9.235  -0.243  1.00  0.00    -0.356 N 
ATOM      5  C   UNL     1       3.260  -8.972   1.087  1.00  0.00     0.227 C 
ATOM      6  O   UNL     1       4.301  -8.667   1.683  1.00  0.00    -0.274 OA
ATOM      7  H   UNL     1       4.305  -9.226  -0.577  1.00  0.00     0.163 HD
BRANCH   5   8
ATOM      8  C   UNL     1       1.934  -9.060   1.858  1.00  0.00     0.105 C 
ATOM      9  C   UNL     1       1.303 -10.453   1.848  1.00  0.00     0.023 C 
BRANCH   8  10
ATOM     10  C   UNL     1       0.992  -7.897   1.590  1.00  0.00    -0.036 A 
ATOM     11  C   UNL     1      -0.625  -5.597   1.054  1.00  0.00    -0.018 A 
ATOM     12  C   UNL     1      -0.744  -6.775   0.301  1.00  0.00     0.009 A 
ATOM     13  C   UNL     1       0.296  -5.615   2.113  1.00  0.00     0.009 A 
ATOM     14  C   UNL     1       0.023  -7.912   0.585  1.00  0.00     0.005 A 
ATOM     15  C   UNL     1       1.104  -6.732   2.363  1.00  0.00     0.005 A 
BRANCH  11  16
ATOM     16  C   UNL     1      -1.425  -4.393   0.728  1.00  0.00    -0.018 A 
ATOM     17  C   UNL     1      -1.630  -1.939   0.554  1.00  0.00    -0.044 A 
ATOM     18  C   UNL     1      -2.929  -2.098   0.053  1.00  0.00     0.004 A 
ATOM     19  C   UNL     1      -0.898  -3.094   0.888  1.00  0.00     0.012 A 
ATOM     20  C   UNL     1      -3.475  -3.367  -0.116  1.00  0.00     0.001 A 
ATOM     21  C   UNL     1      -2.733  -4.499   0.225  1.00  0.00     0.009 A 
BRANCH  17  22
ATOM     22  C   UNL     1      -1.111  -0.534   0.784  1.00  0.00     0.062 C 
BRANCH  22  23
ATOM     23  C   UNL     1       0.384  -0.373   0.807  1.00  0.00    -0.030 C 
ATOM     24  C   UNL     1       1.092   0.267  -0.132  1.00  0.00     0.004 C 
ENDBRANCH  22  23
ENDBRANCH  17  22
ENDBRANCH  11  16
ENDBRANCH   8  10
ENDBRANCH   5   8
ENDBRANCH   3   4
ENDBRANCH   2   3
ENDBRANCH   1   2
BRANCH   1  25
ATOM     25  C   UNL     1       2.875  -9.336  -4.365  1.00  0.00     0.002 C 
BRANCH  25  26
ATOM     26  C   UNL     1       1.460  -9.602  -4.890  1.00  0.00     0.021 C 
BRANCH  26  27
ATOM     27  C   UNL     1       0.821  -8.424  -5.621  1.00  0.00     0.116 C 
BRANCH  27  28
ATOM     28  N   UNL     1       1.574  -8.059  -6.811  1.00  0.00    -0.352 N 
ATOM     29  C   UNL     1       1.188  -8.067  -8.128  1.00  0.00     0.251 C 
ATOM     30  H   UNL     1       2.498  -7.761  -6.647  1.00  0.00     0.163 HD
ATOM     31  O   UNL     1       2.038  -7.981  -9.009  1.00  0.00    -0.269 OA
BRANCH  29  32
ATOM     32  C   UNL     1      -0.244  -8.191  -8.482  1.00  0.00     0.039 A 
ATOM     33  C   UNL     1      -0.612  -9.025  -9.540  1.00  0.00     0.014 A 
ATOM     34  C   UNL     1      -1.217  -7.461  -7.792  1.00  0.00     0.014 A 
ATOM     35  C   UNL     1      -1.962  -9.169  -9.871  1.00  0.00     0.010 A 
ATOM     36  C   UNL     1      -2.566  -7.659  -8.078  1.00  0.00     0.010 A 
ATOM     37  C   UNL     1      -2.953  -8.511  -9.124  1.00  0.00    -0.014 A 
BRANCH  37  38
ATOM     38  C   UNL     1      -4.397  -8.693  -9.428  1.00  0.00     0.031 A 
ATOM     39  C   UNL     1      -5.221  -7.525  -9.897  1.00  0.00     0.074 A 
ATOM     40  C   UNL     1      -4.975  -9.893  -9.225  1.00  0.00     0.049 A 
ATOM     41  N   UNL     1      -6.507  -7.458 -10.129  1.00  0.00    -0.248 NA
ATOM     42  C   UNL     1      -4.506  -6.256 -10.102  1.00  0.00     0.031 C 
ATOM     43  C   UNL     1      -4.286 -11.091  -8.738  1.00  0.00     0.029 A 
ATOM     44  N   UNL     1      -6.274 -10.304  -9.389  1.00  0.00    -0.354 N 
ATOM     45  C   UNL     1      -6.757  -6.141 -10.502  1.00  0.00     0.074 A 
ATOM     46  C   UNL     1      -5.500  -5.431 -10.396  1.00  0.00     0.031 C 
ATOM     47  C   UNL     1      -5.165 -12.102  -8.659  1.00  0.00     0.029 A 
ATOM     48  C   UNL     1      -6.487 -11.619  -9.043  1.00  0.00     0.049 A 
ATOM     49  H   UNL     1      -6.987  -9.713  -9.723  1.00  0.00     0.167 HD
ATOM     50  C   UNL     1      -7.922  -5.582 -10.917  1.00  0.00     0.034 A 
ATOM     51  C   UNL     1      -7.621 -12.347  -9.021  1.00  0.00     0.034 A 
ATOM     52  C   UNL     1      -9.166  -6.307 -11.019  1.00  0.00     0.049 A 
ATOM     53  C   UNL     1      -8.911 -11.698  -9.458  1.00  0.00     0.074 A 
ATOM     54  C   UNL     1     -10.396  -5.852 -11.463  1.00  0.00     0.029 A 
ATOM     55  N   UNL     1      -9.342  -7.640 -10.668  1.00  0.00    -0.354 N 
ATOM     56  N   UNL     1      -9.122 -10.461  -9.848  1.00  0.00    -0.248 NA
ATOM     57  C   UNL     1     -10.110 -12.545  -9.465  1.00  0.00     0.031 C 
ATOM     58  C   UNL     1     -11.326  -6.887 -11.317  1.00  0.00     0.029 A 
ATOM     59  C   UNL     1     -10.664  -8.014 -10.858  1.00  0.00     0.049 A 
ATOM     60  H   UNL     1      -8.631  -8.233 -10.332  1.00  0.00     0.167 HD
ATOM     61  C   UNL     1     -10.474 -10.393 -10.175  1.00  0.00     0.074 A 
ATOM     62  C   UNL     1     -11.021 -11.716  -9.954  1.00  0.00     0.031 C 
ATOM     63  C   UNL     1     -11.197  -9.335 -10.623  1.00  0.00     0.034 A 
BRANCH  50  64
ATOM     64  C   UNL     1      -7.900  -4.113 -11.267  1.00  0.00     0.023 A 
ATOM     65  C   UNL     1      -7.107  -3.618 -12.318  1.00  0.00     0.031 A 
ATOM     66  C   UNL     1      -8.658  -3.188 -10.527  1.00  0.00     0.131 A 
ATOM     67  C   UNL     1      -7.026  -2.236 -12.547  1.00  0.00     0.055 A 
ATOM     68  C   UNL     1      -8.640  -1.821 -10.815  1.00  0.00     0.041 A 
ATOM     69  F   UNL     1      -9.419  -3.595  -9.499  1.00  0.00    -0.206 F 
ATOM     70  C   UNL     1      -7.808  -1.336 -11.820  1.00  0.00     0.022 A 
BRANCH  67  71
ATOM     71  S   UNL     1      -5.773  -1.623 -13.706  1.00  0.00     0.124 S 
ATOM     72  O   UNL     1      -4.542  -2.127 -13.102  1.00  0.00    -0.237 OA
ATOM     73  O   UNL     1      -6.172  -2.248 -14.961  1.00  0.00    -0.237 OA
ATOM     74  O   UNL     1      -5.937  -0.172 -13.651  1.00  0.00    -0.744 OA
ENDBRANCH  67  71
ENDBRANCH  50  64
BRANCH  51  75
ATOM     75  C   UNL     1      -7.600 -13.764  -8.556  1.00  0.00     0.023 A 
ATOM     76  C   UNL     1      -7.923 -14.819  -9.424  1.00  0.00     0.031 A 
ATOM     77  C   UNL     1      -7.297 -14.081  -7.219  1.00  0.00     0.131 A 
ATOM     78  C   UNL     1      -7.986 -16.133  -8.936  1.00  0.00     0.055 A 
ATOM     79  C   UNL     1      -7.306 -15.396  -6.752  1.00  0.00     0.041 A 
ATOM     80  F   UNL     1      -6.976 -13.112  -6.347  1.00  0.00    -0.206 F 
ATOM     81  C   UNL     1      -7.666 -16.431  -7.609  1.00  0.00     0.022 A 
BRANCH  78  82
ATOM     82  S   UNL     1      -8.585 -17.442 -10.040  1.00  0.00     0.124 S 
ATOM     83  O   UNL     1      -9.899 -16.934 -10.416  1.00  0.00    -0.237 OA
ATOM     84  O   UNL     1      -7.570 -17.439 -11.089  1.00  0.00    -0.237 OA
ATOM     85  O   UNL     1      -8.593 -18.628  -9.187  1.00  0.00    -0.744 OA
ENDBRANCH  78  82
ENDBRANCH  51  75
BRANCH  63  86
ATOM     86  C   UNL     1     -12.651  -9.586 -10.944  1.00  0.00     0.023 A 
ATOM     87  C   UNL     1     -13.587  -9.906  -9.946  1.00  0.00     0.031 A 
ATOM     88  C   UNL     1     -13.101  -9.513 -12.275  1.00  0.00     0.131 A 
ATOM     89  C   UNL     1     -14.913 -10.198 -10.299  1.00  0.00     0.055 A 
ATOM     90  C   UNL     1     -14.435  -9.743 -12.613  1.00  0.00     0.041 A 
ATOM     91  F   UNL     1     -12.251  -9.213 -13.269  1.00  0.00    -0.206 F 
ATOM     92  C   UNL     1     -15.347 -10.101 -11.624  1.00  0.00     0.022 A 
BRANCH  89  93
ATOM     93  S   UNL     1     -16.045 -10.797  -9.015  1.00  0.00     0.124 S 
ATOM     94  O   UNL     1     -15.359 -11.995  -8.541  1.00  0.00    -0.237 OA
ATOM     95  O   UNL     1     -16.084  -9.674  -8.084  1.00  0.00    -0.237 OA
ATOM     96  O   UNL     1     -17.290 -11.042  -9.741  1.00  0.00    -0.744 OA
ENDBRANCH  89  93
ENDBRANCH  63  86
ENDBRANCH  37  38
ENDBRANCH  29  32
ENDBRANCH  27  28
ENDBRANCH  26  27
ENDBRANCH  25  26
ENDBRANCH   1  25
TORSDOF 20
