REMARK SMILES O=C(NCCCCCCNC(=O)c1cc(Cl)cn(Cc2ccc(Cl)cc2)c1=O)c1ccc(-c2c3nc(c(-c4cc(S(=O)(=O)[O-])ccc4F)c4ccc([nH]4)c(-c4cc(S(=O)(=O)[O-])ccc4F)c4nc(c(-c5cc(S(=O)(=O)[O-])ccc5F)c5ccc2[nH]5)C=C4)C=C3)cc1
REMARK SMILES IDX 6 1 5 2 4 3 3 4 1 5 2 6 29 8 30 9 91 10 31 11 90 12 32 13
REMARK SMILES IDX 33 14 34 15 84 16 35 17 89 18 83 19 85 20 36 21 88 22 82 23
REMARK SMILES IDX 81 24 37 26 69 27 49 28 68 29 50 30 53 31 67 32 86 33 51 34
REMARK SMILES IDX 52 35 66 37 87 38 54 39 38 40 39 41 47 42 40 43 46 44 48 45
REMARK SMILES IDX 45 46 41 47 42 48 43 49 44 50 70 51 71 52 79 53 72 54 78 55
REMARK SMILES IDX 80 56 77 57 73 58 74 59 75 60 76 61 55 62 56 63 64 64 57 65
REMARK SMILES IDX 63 66 65 67 62 68 58 69 59 70 60 71 61 72 7 73 8 74 9 75
REMARK SMILES IDX 10 76 11 77 12 79 13 80 14 81 27 82 15 83 18 84 28 85 16 86
REMARK SMILES IDX 17 87 19 88 20 89 21 90 26 91 22 92 25 93 23 94 24 95
REMARK H PARENT 3 7 85 25 53 36 10 78
REMARK Flexibility Score: inf
ROOT
ATOM      1  C   UNL     1       4.300  -3.458  -1.721  1.00  0.00     0.002 C 
ENDROOT
BRANCH   1   2
ATOM      2  C   UNL     1       4.798  -2.642  -0.527  1.00  0.00     0.021 C 
BRANCH   2   3
ATOM      3  C   UNL     1       4.574  -1.139  -0.632  1.00  0.00     0.116 C 
BRANCH   3   4
ATOM      4  N   UNL     1       3.166  -0.796  -0.724  1.00  0.00    -0.352 N 
ATOM      5  O   UNL     1       1.184   0.030  -0.073  1.00  0.00    -0.269 OA
ATOM      6  C   UNL     1       2.406   0.024   0.069  1.00  0.00     0.251 C 
ATOM      7  H   UNL     1       2.683  -1.217  -1.472  1.00  0.00     0.163 HD
BRANCH   6   8
ATOM      8  C   UNL     1       3.035   0.896   1.089  1.00  0.00     0.039 A 
ATOM      9  C   UNL     1       2.364   1.105   2.298  1.00  0.00     0.014 A 
ATOM     10  C   UNL     1       4.237   1.566   0.841  1.00  0.00     0.014 A 
ATOM     11  C   UNL     1       2.897   1.979   3.249  1.00  0.00     0.010 A 
ATOM     12  C   UNL     1       4.815   2.361   1.829  1.00  0.00     0.010 A 
ATOM     13  C   UNL     1       4.127   2.617   3.022  1.00  0.00    -0.014 A 
BRANCH  13  14
ATOM     14  C   UNL     1       4.647   3.634   3.975  1.00  0.00     0.031 A 
ATOM     15  C   UNL     1       4.781   5.070   3.532  1.00  0.00     0.074 A 
ATOM     16  C   UNL     1       4.995   3.277   5.227  1.00  0.00     0.049 A 
ATOM     17  N   UNL     1       5.193   6.107   4.213  1.00  0.00    -0.248 NA
ATOM     18  C   UNL     1       4.430   5.379   2.135  1.00  0.00     0.031 C 
ATOM     19  C   UNL     1       4.942   1.915   5.758  1.00  0.00     0.029 A 
ATOM     20  N   UNL     1       5.450   4.028   6.284  1.00  0.00    -0.354 N 
ATOM     21  C   UNL     1       5.165   7.179   3.326  1.00  0.00     0.074 A 
ATOM     22  C   UNL     1       4.765   6.657   2.042  1.00  0.00     0.031 C 
ATOM     23  C   UNL     1       5.299   1.935   7.051  1.00  0.00     0.029 A 
ATOM     24  C   UNL     1       5.643   3.302   7.438  1.00  0.00     0.049 A 
ATOM     25  H   UNL     1       5.622   4.996   6.222  1.00  0.00     0.167 HD
ATOM     26  C   UNL     1       5.412   8.487   3.570  1.00  0.00     0.034 A 
ATOM     27  C   UNL     1       6.034   3.695   8.669  1.00  0.00     0.034 A 
ATOM     28  C   UNL     1       5.757   9.002   4.869  1.00  0.00     0.049 A 
ATOM     29  C   UNL     1       6.283   5.164   8.920  1.00  0.00     0.074 A 
ATOM     30  C   UNL     1       5.972  10.319   5.232  1.00  0.00     0.029 A 
ATOM     31  N   UNL     1       5.918   8.238   6.014  1.00  0.00    -0.354 N 
ATOM     32  N   UNL     1       6.172   6.175   8.089  1.00  0.00    -0.248 NA
ATOM     33  C   UNL     1       6.690   5.553  10.278  1.00  0.00     0.031 C 
ATOM     34  C   UNL     1       6.329  10.345   6.579  1.00  0.00     0.029 A 
ATOM     35  C   UNL     1       6.248   9.056   7.081  1.00  0.00     0.049 A 
ATOM     36  H   UNL     1       5.814   7.260   6.061  1.00  0.00     0.167 HD
ATOM     37  C   UNL     1       6.439   7.319   8.838  1.00  0.00     0.074 A 
ATOM     38  C   UNL     1       6.708   6.877  10.189  1.00  0.00     0.031 C 
ATOM     39  C   UNL     1       6.460   8.616   8.438  1.00  0.00     0.034 A 
BRANCH  26  40
ATOM     40  C   UNL     1       5.288   9.478   2.439  1.00  0.00     0.023 A 
ATOM     41  C   UNL     1       6.405  10.243   2.055  1.00  0.00     0.031 A 
ATOM     42  C   UNL     1       4.046   9.773   1.850  1.00  0.00     0.131 A 
ATOM     43  C   UNL     1       6.248  11.298   1.148  1.00  0.00     0.055 A 
ATOM     44  C   UNL     1       3.905  10.791   0.907  1.00  0.00     0.041 A 
ATOM     45  F   UNL     1       2.949   9.072   2.182  1.00  0.00    -0.206 F 
ATOM     46  C   UNL     1       5.006  11.571   0.565  1.00  0.00     0.022 A 
BRANCH  43  47
ATOM     47  S   UNL     1       7.628  12.405   0.753  1.00  0.00     0.124 S 
ATOM     48  O   UNL     1       7.704  12.283  -0.702  1.00  0.00    -0.237 OA
ATOM     49  O   UNL     1       7.141  13.688   1.248  1.00  0.00    -0.237 OA
ATOM     50  O   UNL     1       8.756  11.833   1.480  1.00  0.00    -0.744 OA
ENDBRANCH  43  47
ENDBRANCH  26  40
BRANCH  27  51
ATOM     51  C   UNL     1       6.109   2.692   9.774  1.00  0.00     0.023 A 
ATOM     52  C   UNL     1       6.990   1.598   9.711  1.00  0.00     0.031 A 
ATOM     53  C   UNL     1       5.237   2.772  10.874  1.00  0.00     0.131 A 
ATOM     54  C   UNL     1       6.941   0.605  10.699  1.00  0.00     0.055 A 
ATOM     55  C   UNL     1       5.243   1.819  11.894  1.00  0.00     0.041 A 
ATOM     56  F   UNL     1       4.364   3.787  10.973  1.00  0.00    -0.206 F 
ATOM     57  C   UNL     1       6.088   0.719  11.801  1.00  0.00     0.022 A 
BRANCH  54  58
ATOM     58  S   UNL     1       7.894  -0.929  10.524  1.00  0.00     0.124 S 
ATOM     59  O   UNL     1       8.755  -0.890  11.702  1.00  0.00    -0.237 OA
ATOM     60  O   UNL     1       6.839  -1.940  10.546  1.00  0.00    -0.237 OA
ATOM     61  O   UNL     1       8.571  -0.770   9.241  1.00  0.00    -0.744 OA
ENDBRANCH  54  58
ENDBRANCH  27  51
BRANCH  39  62
ATOM     62  C   UNL     1       6.724   9.698   9.460  1.00  0.00     0.023 A 
ATOM     63  C   UNL     1       5.752  10.695   9.678  1.00  0.00     0.031 A 
ATOM     64  C   UNL     1       7.978   9.850  10.075  1.00  0.00     0.131 A 
ATOM     65  C   UNL     1       6.065  11.822  10.448  1.00  0.00     0.055 A 
ATOM     66  C   UNL     1       8.266  10.947  10.888  1.00  0.00     0.041 A 
ATOM     67  F   UNL     1       8.946   8.940   9.883  1.00  0.00    -0.206 F 
ATOM     68  C   UNL     1       7.314  11.947  11.063  1.00  0.00     0.022 A 
BRANCH  65  69
ATOM     69  S   UNL     1       4.909  13.214  10.582  1.00  0.00     0.124 S 
ATOM     70  O   UNL     1       4.613  13.222  12.013  1.00  0.00    -0.237 OA
ATOM     71  O   UNL     1       5.719  14.333  10.107  1.00  0.00    -0.237 OA
ATOM     72  O   UNL     1       3.796  12.835   9.718  1.00  0.00    -0.744 OA
ENDBRANCH  65  69
ENDBRANCH  39  62
ENDBRANCH  13  14
ENDBRANCH   6   8
ENDBRANCH   3   4
ENDBRANCH   2   3
ENDBRANCH   1   2
BRANCH   1  73
ATOM     73  C   UNL     1       4.842  -3.028  -3.087  1.00  0.00     0.002 C 
BRANCH  73  74
ATOM     74  C   UNL     1       6.367  -2.950  -3.195  1.00  0.00     0.021 C 
BRANCH  74  75
ATOM     75  C   UNL     1       7.109  -4.226  -2.810  1.00  0.00     0.116 C 
BRANCH  75  76
ATOM     76  N   UNL     1       6.779  -5.341  -3.683  1.00  0.00    -0.352 N 
ATOM     77  C   UNL     1       7.620  -6.194  -4.337  1.00  0.00     0.256 C 
ATOM     78  H   UNL     1       5.817  -5.503  -3.821  1.00  0.00     0.163 HD
ATOM     79  O   UNL     1       7.167  -7.052  -5.094  1.00  0.00    -0.269 OA
BRANCH  77  80
ATOM     80  C   UNL     1       9.074  -5.976  -4.213  1.00  0.00     0.106 A 
ATOM     81  C   UNL     1       9.730  -5.655  -5.341  1.00  0.00     0.041 A 
ATOM     82  C   UNL     1       9.793  -6.019  -2.901  1.00  0.00     0.263 A 
ATOM     83  C   UNL     1      11.112  -5.264  -5.290  1.00  0.00     0.058 A 
ATOM     84  N   UNL     1      11.113  -5.550  -2.926  1.00  0.00    -0.309 N 
ATOM     85  O   UNL     1       9.225  -6.403  -1.885  1.00  0.00    -0.268 OA
ATOM     86  Cl  UNL     1      11.909  -4.841  -6.754  1.00  0.00    -0.083 Cl
ATOM     87  C   UNL     1      11.738  -5.180  -4.110  1.00  0.00     0.110 A 
BRANCH  84  88
ATOM     88  C   UNL     1      11.856  -5.482  -1.664  1.00  0.00     0.161 C 
BRANCH  88  89
ATOM     89  C   UNL     1      12.751  -6.685  -1.450  1.00  0.00    -0.028 A 
ATOM     90  C   UNL     1      13.944  -6.832  -2.174  1.00  0.00     0.007 A 
ATOM     91  C   UNL     1      12.391  -7.684  -0.532  1.00  0.00     0.007 A 
ATOM     92  C   UNL     1      14.744  -7.963  -2.011  1.00  0.00     0.021 A 
ATOM     93  C   UNL     1      13.204  -8.807  -0.353  1.00  0.00     0.021 A 
ATOM     94  C   UNL     1      14.370  -8.947  -1.101  1.00  0.00     0.041 A 
ATOM     95  Cl  UNL     1      15.357 -10.344  -0.906  1.00  0.00    -0.084 Cl
ENDBRANCH  88  89
ENDBRANCH  84  88
ENDBRANCH  77  80
ENDBRANCH  75  76
ENDBRANCH  74  75
ENDBRANCH  73  74
ENDBRANCH   1  73
TORSDOF 18
