REMARK SMILES Cc1cc(CS(=O)(=O)[C@@H](C)CC(=O)NCCCCCCNC(=O)c2ccc(-c3c4nc(c(-c5cc(S(=O)(=O)[O-])ccc5F)c5ccc([nH]5)c(-c5cc(S(=O)(=O)[O-])ccc5F)c5nc(c(-c6cc(S(=O)(=O)[O-])ccc6F)c6ccc3[nH]6)C=C5)C=C4)cc2)c2ccccc2n1
REMARK SMILES IDX 17 1 16 2 15 3 14 4 12 5 13 6 11 8 9 9 10 10 6 11 7 12 8 13
REMARK SMILES IDX 5 14 4 15 1 16 2 17 3 18 93 19 92 20 87 21 91 22 88 23 90 24
REMARK SMILES IDX 89 25 18 26 19 27 20 28 21 29 22 30 23 32 24 33 25 34 86 35
REMARK SMILES IDX 26 36 85 37 27 38 28 39 29 40 79 41 30 42 84 43 78 44 80 45
REMARK SMILES IDX 31 46 83 47 77 48 76 49 32 51 64 52 44 53 63 54 45 55 48 56
REMARK SMILES IDX 62 57 81 58 46 59 47 60 61 62 82 63 49 64 33 65 34 66 42 67
REMARK SMILES IDX 35 68 41 69 43 70 40 71 36 72 37 73 38 74 39 75 65 76 66 77
REMARK SMILES IDX 74 78 67 79 73 80 75 81 72 82 68 83 69 84 70 85 71 86 50 87
REMARK SMILES IDX 51 88 59 89 52 90 58 91 60 92 57 93 53 94 54 95 55 96 56 97
REMARK H PARENT 14 7 21 31 80 50 48 61
REMARK Flexibility Score: inf
ROOT
ATOM      1  C   UNL     1       4.842   2.674   0.744  1.00  0.00     0.002 C 
ENDROOT
BRANCH   1   2
ATOM      2  C   UNL     1       3.531   3.152   1.374  1.00  0.00     0.021 C 
BRANCH   2   3
ATOM      3  C   UNL     1       2.539   2.021   1.641  1.00  0.00     0.116 C 
BRANCH   3   4
ATOM      4  N   UNL     1       2.225   1.873   3.046  1.00  0.00    -0.356 N 
ATOM      5  C   UNL     1       1.022   1.671   3.648  1.00  0.00     0.221 C 
ATOM      6  O   UNL     1       0.994   1.442   4.857  1.00  0.00    -0.275 OA
ATOM      7  H   UNL     1       2.996   1.925   3.656  1.00  0.00     0.163 HD
BRANCH   5   8
ATOM      8  C   UNL     1      -0.255   1.723   2.835  1.00  0.00     0.119 C 
BRANCH   8   9
ATOM      9  C   UNL     1      -0.785   3.139   2.648  1.00  0.00     0.115 C 
ATOM     10  C   UNL     1      -2.202   3.296   3.216  1.00  0.00     0.025 C 
BRANCH   9  11
ATOM     11  S   UNL     1      -0.672   3.912   1.000  1.00  0.00     0.157 S 
ATOM     12  O   UNL     1       0.595   4.630   1.012  1.00  0.00    -0.228 OA
ATOM     13  O   UNL     1      -1.890   4.691   0.827  1.00  0.00    -0.228 OA
BRANCH  11  14
ATOM     14  C   UNL     1      -0.593   2.837  -0.455  1.00  0.00     0.173 C 
BRANCH  14  15
ATOM     15  C   UNL     1      -1.033   1.410  -0.282  1.00  0.00    -0.022 A 
ATOM     16  C   UNL     1      -4.205  -0.540   0.366  1.00  0.00     0.067 C 
ATOM     17  C   UNL     1      -2.761  -0.164   0.252  1.00  0.00     0.038 A 
ATOM     18  C   UNL     1      -2.375   1.145   0.005  1.00  0.00     0.029 A 
ATOM     19  N   UNL     1      -1.877  -1.184   0.319  1.00  0.00    -0.253 NA
ATOM     20  C   UNL     1      -0.605  -0.964  -0.031  1.00  0.00     0.071 A 
ATOM     21  C   UNL     1      -0.139   0.303  -0.440  1.00  0.00     0.004 A 
ATOM     22  C   UNL     1       0.277  -2.038   0.011  1.00  0.00     0.029 A 
ATOM     23  C   UNL     1       1.177   0.374  -0.963  1.00  0.00     0.010 A 
ATOM     24  C   UNL     1       1.592  -1.932  -0.435  1.00  0.00     0.002 A 
ATOM     25  C   UNL     1       2.027  -0.733  -0.969  1.00  0.00     0.001 A 
ENDBRANCH  14  15
ENDBRANCH  11  14
ENDBRANCH   9  11
ENDBRANCH   8   9
ENDBRANCH   5   8
ENDBRANCH   3   4
ENDBRANCH   2   3
ENDBRANCH   1   2
BRANCH   1  26
ATOM     26  C   UNL     1       4.710   2.046  -0.648  1.00  0.00     0.002 C 
BRANCH  26  27
ATOM     27  C   UNL     1       4.088   2.932  -1.730  1.00  0.00     0.021 C 
BRANCH  27  28
ATOM     28  C   UNL     1       4.821   4.248  -1.973  1.00  0.00     0.116 C 
BRANCH  28  29
ATOM     29  N   UNL     1       6.220   4.030  -2.313  1.00  0.00    -0.352 N 
ATOM     30  C   UNL     1       6.879   4.215  -3.500  1.00  0.00     0.251 C 
ATOM     31  H   UNL     1       6.780   3.698  -1.574  1.00  0.00     0.163 HD
ATOM     32  O   UNL     1       7.992   3.708  -3.660  1.00  0.00    -0.269 OA
BRANCH  30  33
ATOM     33  C   UNL     1       6.258   5.002  -4.584  1.00  0.00     0.039 A 
ATOM     34  C   UNL     1       6.370   4.559  -5.905  1.00  0.00     0.014 A 
ATOM     35  C   UNL     1       5.581   6.191  -4.300  1.00  0.00     0.014 A 
ATOM     36  C   UNL     1       5.735   5.266  -6.930  1.00  0.00     0.010 A 
ATOM     37  C   UNL     1       4.885   6.849  -5.308  1.00  0.00     0.010 A 
ATOM     38  C   UNL     1       4.951   6.392  -6.633  1.00  0.00    -0.014 A 
BRANCH  38  39
ATOM     39  C   UNL     1       4.177   7.107  -7.680  1.00  0.00     0.031 A 
ATOM     40  C   UNL     1       4.477   8.550  -7.979  1.00  0.00     0.074 A 
ATOM     41  C   UNL     1       3.142   6.486  -8.280  1.00  0.00     0.049 A 
ATOM     42  N   UNL     1       3.826   9.392  -8.740  1.00  0.00    -0.248 NA
ATOM     43  C   UNL     1       5.646   9.132  -7.302  1.00  0.00     0.031 C 
ATOM     44  C   UNL     1       2.735   5.100  -8.039  1.00  0.00     0.029 A 
ATOM     45  N   UNL     1       2.230   6.943  -9.198  1.00  0.00    -0.354 N 
ATOM     46  C   UNL     1       4.492  10.607  -8.617  1.00  0.00     0.074 A 
ATOM     47  C   UNL     1       5.563  10.403  -7.664  1.00  0.00     0.031 C 
ATOM     48  C   UNL     1       1.664   4.817  -8.798  1.00  0.00     0.029 A 
ATOM     49  C   UNL     1       1.274   6.013  -9.537  1.00  0.00     0.049 A 
ATOM     50  H   UNL     1       2.257   7.851  -9.578  1.00  0.00     0.167 HD
ATOM     51  C   UNL     1       4.242  11.778  -9.255  1.00  0.00     0.034 A 
ATOM     52  C   UNL     1       0.192   6.119 -10.333  1.00  0.00     0.034 A 
ATOM     53  C   UNL     1       3.179  11.952 -10.214  1.00  0.00     0.049 A 
ATOM     54  C   UNL     1      -0.084   7.439 -11.006  1.00  0.00     0.074 A 
ATOM     55  C   UNL     1       2.879  13.067 -10.977  1.00  0.00     0.029 A 
ATOM     56  N   UNL     1       2.231  10.987 -10.533  1.00  0.00    -0.354 N 
ATOM     57  N   UNL     1       0.588   8.564 -10.924  1.00  0.00    -0.248 NA
ATOM     58  C   UNL     1      -1.262   7.503 -11.880  1.00  0.00     0.031 C 
ATOM     59  C   UNL     1       1.713  12.801 -11.703  1.00  0.00     0.029 A 
ATOM     60  C   UNL     1       1.324  11.495 -11.450  1.00  0.00     0.049 A 
ATOM     61  H   UNL     1       2.207  10.076 -10.162  1.00  0.00     0.167 HD
ATOM     62  C   UNL     1      -0.076   9.464 -11.752  1.00  0.00     0.074 A 
ATOM     63  C   UNL     1      -1.189   8.745 -12.338  1.00  0.00     0.031 C 
ATOM     64  C   UNL     1       0.208  10.767 -12.007  1.00  0.00     0.034 A 
BRANCH  51  65
ATOM     65  C   UNL     1       5.120  12.959  -8.914  1.00  0.00     0.023 A 
ATOM     66  C   UNL     1       6.504  12.949  -9.164  1.00  0.00     0.031 A 
ATOM     67  C   UNL     1       4.572  14.102  -8.306  1.00  0.00     0.131 A 
ATOM     68  C   UNL     1       7.302  14.021  -8.737  1.00  0.00     0.055 A 
ATOM     69  C   UNL     1       5.360  15.202  -7.958  1.00  0.00     0.041 A 
ATOM     70  F   UNL     1       3.261  14.165  -8.024  1.00  0.00    -0.206 F 
ATOM     71  C   UNL     1       6.737  15.159  -8.159  1.00  0.00     0.022 A 
BRANCH  68  72
ATOM     72  S   UNL     1       9.105  13.842  -8.819  1.00  0.00     0.124 S 
ATOM     73  O   UNL     1       9.323  12.662  -7.986  1.00  0.00    -0.237 OA
ATOM     74  O   UNL     1       9.340  13.668 -10.248  1.00  0.00    -0.237 OA
ATOM     75  O   UNL     1       9.600  15.095  -8.253  1.00  0.00    -0.744 OA
ENDBRANCH  68  72
ENDBRANCH  51  65
BRANCH  52  76
ATOM     76  C   UNL     1      -0.727   4.959 -10.518  1.00  0.00     0.023 A 
ATOM     77  C   UNL     1      -0.875   4.349 -11.773  1.00  0.00     0.031 A 
ATOM     78  C   UNL     1      -1.494   4.462  -9.449  1.00  0.00     0.131 A 
ATOM     79  C   UNL     1      -1.798   3.305 -11.939  1.00  0.00     0.055 A 
ATOM     80  C   UNL     1      -2.373   3.389  -9.607  1.00  0.00     0.041 A 
ATOM     81  F   UNL     1      -1.387   5.004  -8.225  1.00  0.00    -0.206 F 
ATOM     82  C   UNL     1      -2.538   2.812 -10.862  1.00  0.00     0.022 A 
BRANCH  79  83
ATOM     83  S   UNL     1      -2.075   2.648 -13.607  1.00  0.00     0.124 S 
ATOM     84  O   UNL     1      -2.488   3.845 -14.332  1.00  0.00    -0.237 OA
ATOM     85  O   UNL     1      -0.759   2.115 -13.944  1.00  0.00    -0.237 OA
ATOM     86  O   UNL     1      -3.119   1.646 -13.409  1.00  0.00    -0.744 OA
ENDBRANCH  79  83
ENDBRANCH  52  76
BRANCH  64  87
ATOM     87  C   UNL     1      -0.692  11.482 -12.982  1.00  0.00     0.023 A 
ATOM     88  C   UNL     1      -2.030  11.776 -12.669  1.00  0.00     0.031 A 
ATOM     89  C   UNL     1      -0.204  11.873 -14.242  1.00  0.00     0.131 A 
ATOM     90  C   UNL     1      -2.849  12.400 -13.621  1.00  0.00     0.055 A 
ATOM     91  C   UNL     1      -1.007  12.545 -15.163  1.00  0.00     0.041 A 
ATOM     92  F   UNL     1       1.065  11.613 -14.593  1.00  0.00    -0.206 F 
ATOM     93  C   UNL     1      -2.341  12.803 -14.859  1.00  0.00     0.022 A 
BRANCH  90  94
ATOM     94  S   UNL     1      -4.611  12.614 -13.249  1.00  0.00     0.124 S 
ATOM     95  O   UNL     1      -5.054  11.233 -13.080  1.00  0.00    -0.237 OA
ATOM     96  O   UNL     1      -4.580  13.426 -12.037  1.00  0.00    -0.237 OA
ATOM     97  O   UNL     1      -5.132  13.291 -14.435  1.00  0.00    -0.744 OA
ENDBRANCH  90  94
ENDBRANCH  64  87
ENDBRANCH  38  39
ENDBRANCH  30  33
ENDBRANCH  28  29
ENDBRANCH  27  28
ENDBRANCH  26  27
ENDBRANCH   1  26
TORSDOF 20
