REMARK SMILES C[C@](NC(=O)[C@](C)([NH3+])C(F)(F)F)(C(=O)NCCCCCCNC(=O)c1ccc(-c2c3nc(c(-c4cc(S(=O)(=O)[O-])ccc4F)c4ccc([nH]4)c(-c4cc(S(=O)(=O)[O-])ccc4F)c4nc(c(-c5cc(S(=O)(=O)[O-])ccc5F)c5ccc2[nH]5)C=C4)C=C3)cc1)c1ccccc1
REMARK SMILES IDX 18 1 17 2 16 3 15 4 13 5 14 6 2 8 1 9 88 10 89 11 93 12
REMARK SMILES IDX 90 13 92 14 91 15 3 16 4 17 5 19 6 20 7 21 8 22 9 26 10 27
REMARK SMILES IDX 11 28 12 29 19 30 20 31 21 32 22 33 23 34 24 36 25 37 26 38
REMARK SMILES IDX 87 39 27 40 86 41 28 42 29 43 30 44 80 45 31 46 85 47 79 48
REMARK SMILES IDX 81 49 32 50 84 51 78 52 77 53 33 55 65 56 45 57 64 58 46 59
REMARK SMILES IDX 49 60 63 61 82 62 47 63 48 64 62 66 83 67 50 68 34 69 35 70
REMARK SMILES IDX 43 71 36 72 42 73 44 74 41 75 37 76 38 77 39 78 40 79 66 80
REMARK SMILES IDX 67 81 75 82 68 83 74 84 76 85 73 86 69 87 70 88 71 89 72 90
REMARK SMILES IDX 51 91 52 92 60 93 53 94 59 95 61 96 58 97 54 98 55 99 56 100
REMARK SMILES IDX 57 101
REMARK H PARENT 15 7 3 18 8 23 8 24 8 25 22 35 81 54 49 65
REMARK Flexibility Score: inf
ROOT
ATOM      1  C   UNL     1       1.143   7.312  -2.083  1.00  0.00     0.002 C 
ENDROOT
BRANCH   1   2
ATOM      2  C   UNL     1       0.624   6.043  -1.398  1.00  0.00     0.021 C 
BRANCH   2   3
ATOM      3  C   UNL     1       1.566   5.447  -0.355  1.00  0.00     0.116 C 
BRANCH   3   4
ATOM      4  N   UNL     1       1.286   5.824   1.012  1.00  0.00    -0.354 N 
ATOM      5  C   UNL     1       1.557   5.055   2.120  1.00  0.00     0.250 C 
ATOM      6  O   UNL     1       2.200   5.622   3.014  1.00  0.00    -0.272 OA
ATOM      7  H   UNL     1       0.869   6.702   1.163  1.00  0.00     0.163 HD
BRANCH   5   8
ATOM      8  C   UNL     1       1.011   3.550   2.313  1.00  0.00     0.142 C 
ATOM      9  C   UNL     1       2.153   2.534   2.475  1.00  0.00     0.051 C 
BRANCH   8  10
ATOM     10  C   UNL     1       0.244   3.615   3.703  1.00  0.00    -0.013 A 
ATOM     11  C   UNL     1      -1.125   3.900   3.840  1.00  0.00     0.007 A 
ATOM     12  C   UNL     1       0.984   3.550   4.916  1.00  0.00     0.007 A 
ATOM     13  C   UNL     1      -1.713   4.035   5.114  1.00  0.00     0.000 A 
ATOM     14  C   UNL     1       0.397   3.643   6.178  1.00  0.00     0.000 A 
ATOM     15  C   UNL     1      -0.961   3.885   6.278  1.00  0.00     0.000 A 
ENDBRANCH   8  10
BRANCH   8  16
ATOM     16  N   UNL     1       0.112   3.095   1.194  1.00  0.00    -0.332 N 
ATOM     17  C   UNL     1       0.154   2.525  -0.046  1.00  0.00     0.291 C 
ATOM     18  H   UNL     1      -0.826   3.267   1.440  1.00  0.00     0.165 HD
ATOM     19  O   UNL     1      -0.963   2.569  -0.591  1.00  0.00    -0.267 OA
BRANCH  17  20
ATOM     20  C   UNL     1       1.316   1.779  -0.803  1.00  0.00     0.267 C 
ATOM     21  C   UNL     1       1.002   0.278  -0.753  1.00  0.00     0.100 C 
BRANCH  20  22
ATOM     22  N   UNL     1       2.689   1.964  -0.268  1.00  0.00    -0.337 N 
ATOM     23  H   UNL     1       3.350   1.436  -0.838  1.00  0.00     0.345 HD
ATOM     24  H   UNL     1       2.727   1.630   0.695  1.00  0.00     0.345 HD
ATOM     25  H   UNL     1       2.934   2.954  -0.294  1.00  0.00     0.345 HD
ENDBRANCH  20  22
BRANCH  20  26
ATOM     26  C   UNL     1       1.290   2.210  -2.303  1.00  0.00     0.453 C 
ATOM     27  F   UNL     1       2.127   1.437  -3.042  1.00  0.00    -0.164 F 
ATOM     28  F   UNL     1       0.084   2.156  -2.895  1.00  0.00    -0.164 F 
ATOM     29  F   UNL     1       1.750   3.477  -2.434  1.00  0.00    -0.164 F 
ENDBRANCH  20  26
ENDBRANCH  17  20
ENDBRANCH   8  16
ENDBRANCH   5   8
ENDBRANCH   3   4
ENDBRANCH   2   3
ENDBRANCH   1   2
BRANCH   1  30
ATOM     30  C   UNL     1       2.505   7.215  -2.791  1.00  0.00     0.002 C 
BRANCH  30  31
ATOM     31  C   UNL     1       2.646   6.166  -3.897  1.00  0.00     0.021 C 
BRANCH  31  32
ATOM     32  C   UNL     1       1.640   6.270  -5.037  1.00  0.00     0.116 C 
BRANCH  32  33
ATOM     33  N   UNL     1       1.833   7.489  -5.806  1.00  0.00    -0.352 N 
ATOM     34  C   UNL     1       2.203   7.642  -7.122  1.00  0.00     0.251 C 
ATOM     35  H   UNL     1       1.676   8.327  -5.314  1.00  0.00     0.163 HD
ATOM     36  O   UNL     1       2.579   8.737  -7.524  1.00  0.00    -0.269 OA
BRANCH  34  37
ATOM     37  C   UNL     1       2.159   6.483  -8.045  1.00  0.00     0.039 A 
ATOM     38  C   UNL     1       3.205   6.290  -8.952  1.00  0.00     0.014 A 
ATOM     39  C   UNL     1       1.076   5.600  -8.033  1.00  0.00     0.014 A 
ATOM     40  C   UNL     1       3.191   5.182  -9.806  1.00  0.00     0.010 A 
ATOM     41  C   UNL     1       1.101   4.457  -8.829  1.00  0.00     0.010 A 
ATOM     42  C   UNL     1       2.154   4.238  -9.732  1.00  0.00    -0.014 A 
BRANCH  42  43
ATOM     43  C   UNL     1       2.127   3.031 -10.604  1.00  0.00     0.031 A 
ATOM     44  C   UNL     1       0.997   2.845 -11.584  1.00  0.00     0.074 A 
ATOM     45  C   UNL     1       3.070   2.076 -10.467  1.00  0.00     0.049 A 
ATOM     46  N   UNL     1       0.719   1.815 -12.342  1.00  0.00    -0.248 NA
ATOM     47  C   UNL     1       0.036   3.954 -11.706  1.00  0.00     0.031 C 
ATOM     48  C   UNL     1       4.202   2.131  -9.539  1.00  0.00     0.029 A 
ATOM     49  N   UNL     1       3.220   0.862 -11.095  1.00  0.00    -0.354 N 
ATOM     50  C   UNL     1      -0.460   2.139 -13.006  1.00  0.00     0.074 A 
ATOM     51  C   UNL     1      -0.867   3.443 -12.531  1.00  0.00     0.031 C 
ATOM     52  C   UNL     1       4.936   1.014  -9.672  1.00  0.00     0.029 A 
ATOM     53  C   UNL     1       4.300   0.134 -10.648  1.00  0.00     0.049 A 
ATOM     54  H   UNL     1       2.611   0.543 -11.799  1.00  0.00     0.167 HD
ATOM     55  C   UNL     1      -1.132   1.419 -13.937  1.00  0.00     0.034 A 
ATOM     56  C   UNL     1       4.716  -1.109 -10.969  1.00  0.00     0.034 A 
ATOM     57  C   UNL     1      -0.696   0.135 -14.425  1.00  0.00     0.049 A 
ATOM     58  C   UNL     1       3.927  -1.900 -11.989  1.00  0.00     0.074 A 
ATOM     59  C   UNL     1      -1.264  -0.642 -15.420  1.00  0.00     0.029 A 
ATOM     60  N   UNL     1       0.405  -0.566 -13.953  1.00  0.00    -0.354 N 
ATOM     61  N   UNL     1       2.845  -1.552 -12.648  1.00  0.00    -0.248 NA
ATOM     62  C   UNL     1       4.419  -3.245 -12.316  1.00  0.00     0.031 C 
ATOM     63  C   UNL     1      -0.556  -1.845 -15.493  1.00  0.00     0.029 A 
ATOM     64  C   UNL     1       0.510  -1.781 -14.611  1.00  0.00     0.049 A 
ATOM     65  H   UNL     1       1.021  -0.247 -13.254  1.00  0.00     0.167 HD
ATOM     66  C   UNL     1       2.562  -2.617 -13.500  1.00  0.00     0.074 A 
ATOM     67  C   UNL     1       3.587  -3.613 -13.278  1.00  0.00     0.031 C 
ATOM     68  C   UNL     1       1.548  -2.758 -14.391  1.00  0.00     0.034 A 
BRANCH  55  69
ATOM     69  C   UNL     1      -2.426   1.982 -14.472  1.00  0.00     0.023 A 
ATOM     70  C   UNL     1      -2.468   3.162 -15.234  1.00  0.00     0.031 A 
ATOM     71  C   UNL     1      -3.637   1.306 -14.236  1.00  0.00     0.131 A 
ATOM     72  C   UNL     1      -3.699   3.653 -15.695  1.00  0.00     0.055 A 
ATOM     73  C   UNL     1      -4.849   1.760 -14.760  1.00  0.00     0.041 A 
ATOM     74  F   UNL     1      -3.662   0.186 -13.496  1.00  0.00    -0.206 F 
ATOM     75  C   UNL     1      -4.886   2.946 -15.487  1.00  0.00     0.022 A 
BRANCH  72  76
ATOM     76  S   UNL     1      -3.744   5.286 -16.483  1.00  0.00     0.124 S 
ATOM     77  O   UNL     1      -3.250   6.145 -15.410  1.00  0.00    -0.237 OA
ATOM     78  O   UNL     1      -2.852   5.112 -17.623  1.00  0.00    -0.237 OA
ATOM     79  O   UNL     1      -5.155   5.467 -16.817  1.00  0.00    -0.744 OA
ENDBRANCH  72  76
ENDBRANCH  55  69
BRANCH  56  80
ATOM     80  C   UNL     1       5.915  -1.716 -10.314  1.00  0.00     0.023 A 
ATOM     81  C   UNL     1       7.021  -2.127 -11.075  1.00  0.00     0.031 A 
ATOM     82  C   UNL     1       5.934  -1.984  -8.933  1.00  0.00     0.131 A 
ATOM     83  C   UNL     1       8.059  -2.854 -10.470  1.00  0.00     0.055 A 
ATOM     84  C   UNL     1       7.005  -2.642  -8.322  1.00  0.00     0.041 A 
ATOM     85  F   UNL     1       4.904  -1.618  -8.154  1.00  0.00    -0.206 F 
ATOM     86  C   UNL     1       8.066  -3.100  -9.096  1.00  0.00     0.022 A 
BRANCH  83  87
ATOM     87  S   UNL     1       9.325  -3.602 -11.533  1.00  0.00     0.124 S 
ATOM     88  O   UNL     1       8.511  -4.384 -12.455  1.00  0.00    -0.237 OA
ATOM     89  O   UNL     1       9.982  -2.426 -12.094  1.00  0.00    -0.237 OA
ATOM     90  O   UNL     1      10.135  -4.382 -10.599  1.00  0.00    -0.744 OA
ENDBRANCH  83  87
ENDBRANCH  56  80
BRANCH  68  91
ATOM     91  C   UNL     1       1.545  -3.998 -15.251  1.00  0.00     0.023 A 
ATOM     92  C   UNL     1       1.333  -5.280 -14.716  1.00  0.00     0.031 A 
ATOM     93  C   UNL     1       1.744  -3.886 -16.640  1.00  0.00     0.131 A 
ATOM     94  C   UNL     1       1.373  -6.403 -15.557  1.00  0.00     0.055 A 
ATOM     95  C   UNL     1       1.719  -4.998 -17.480  1.00  0.00     0.041 A 
ATOM     96  F   UNL     1       1.954  -2.686 -17.205  1.00  0.00    -0.206 F 
ATOM     97  C   UNL     1       1.544  -6.268 -16.938  1.00  0.00     0.022 A 
BRANCH  94  98
ATOM     98  S   UNL     1       1.277  -8.055 -14.814  1.00  0.00     0.124 S 
ATOM     99  O   UNL     1       2.430  -8.054 -13.921  1.00  0.00    -0.237 OA
ATOM    100  O   UNL     1      -0.031  -8.031 -14.166  1.00  0.00    -0.237 OA
ATOM    101  O   UNL     1       1.382  -8.954 -15.962  1.00  0.00    -0.744 OA
ENDBRANCH  94  98
ENDBRANCH  68  91
ENDBRANCH  42  43
ENDBRANCH  34  37
ENDBRANCH  32  33
ENDBRANCH  31  32
ENDBRANCH  30  31
ENDBRANCH   1  30
TORSDOF 21
