REMARK SMILES CCOc1ccc(-c2nnc3ccc(S[C@@H](CC)C(=O)NCCCCCCNC(=O)c4ccc(-c5c6nc(c(-c7cc(S(=O)(=O)[O-])ccc7F)c7ccc([nH]7)c(-c7cc(S(=O)(=O)[O-])ccc7F)c7nc(c(-c8cc(S(=O)(=O)[O-])ccc8F)c8ccc5[nH]8)C=C7)C=C6)cc4)nn23)cc1
REMARK SMILES IDX 23 1 22 2 21 3 19 4 20 5 16 7 15 8 14 9 8 10 9 11 95 12
REMARK SMILES IDX 10 13 11 14 94 15 12 16 13 17 7 18 4 19 5 20 97 21 6 22
REMARK SMILES IDX 96 23 3 24 2 25 1 26 17 27 18 28 24 29 25 30 26 31 27 32
REMARK SMILES IDX 28 33 29 34 30 36 31 37 32 38 93 39 33 40 92 41 34 42 35 43
REMARK SMILES IDX 36 44 86 45 37 46 91 47 85 48 87 49 38 50 90 51 84 52 83 53
REMARK SMILES IDX 39 55 71 56 51 57 70 58 52 59 55 60 69 61 88 62 53 63 54 64
REMARK SMILES IDX 68 66 89 67 56 68 40 69 41 70 49 71 42 72 48 73 50 74 47 75
REMARK SMILES IDX 43 76 44 77 45 78 46 79 72 80 73 81 81 82 74 83 80 84 82 85
REMARK SMILES IDX 79 86 75 87 76 88 77 89 78 90 57 91 58 92 66 93 59 94 65 95
REMARK SMILES IDX 67 96 64 97 60 98 61 99 62 100 63 101
REMARK H PARENT 21 6 28 35 87 54 55 65
REMARK Flexibility Score: inf
ROOT
ATOM      1  C   UNL     1       9.886  -2.637  -0.352  1.00  0.00     0.021 C 
ENDROOT
BRANCH   1   2
ATOM      2  C   UNL     1      10.392  -4.068  -0.549  1.00  0.00     0.116 C 
BRANCH   2   3
ATOM      3  N   UNL     1      10.065  -4.890   0.587  1.00  0.00    -0.355 N 
ATOM      4  C   UNL     1       9.258  -5.965   0.735  1.00  0.00     0.233 C 
ATOM      5  O   UNL     1       9.182  -6.399   1.895  1.00  0.00    -0.274 OA
ATOM      6  H   UNL     1      10.516  -4.616   1.418  1.00  0.00     0.163 HD
BRANCH   4   7
ATOM      7  C   UNL     1       8.574  -6.732  -0.403  1.00  0.00     0.142 C 
BRANCH   7   8
ATOM      8  S   UNL     1       7.103  -6.040  -1.192  1.00  0.00    -0.091 SA
BRANCH   8   9
ATOM      9  C   UNL     1       7.434  -4.697  -2.241  1.00  0.00     0.118 A 
ATOM     10  C   UNL     1       6.275  -1.494  -3.293  1.00  0.00     0.185 A 
ATOM     11  N   UNL     1       6.984  -0.767  -4.143  1.00  0.00    -0.128 NA
ATOM     12  N   UNL     1       6.985  -2.650  -3.011  1.00  0.00    -0.192 N 
ATOM     13  N   UNL     1       8.076  -1.500  -4.543  1.00  0.00    -0.128 NA
ATOM     14  C   UNL     1       8.004  -2.664  -3.943  1.00  0.00     0.178 A 
ATOM     15  N   UNL     1       6.715  -3.629  -2.082  1.00  0.00    -0.158 NA
ATOM     16  C   UNL     1       8.696  -3.876  -4.130  1.00  0.00     0.054 A 
ATOM     17  C   UNL     1       8.390  -4.921  -3.350  1.00  0.00     0.041 A 
BRANCH  10  18
ATOM     18  C   UNL     1       4.896  -1.238  -2.888  1.00  0.00     0.021 A 
ATOM     19  C   UNL     1       2.195  -0.905  -2.228  1.00  0.00     0.119 A 
ATOM     20  C   UNL     1       2.600  -0.752  -3.550  1.00  0.00     0.047 A 
ATOM     21  C   UNL     1       3.120  -1.227  -1.237  1.00  0.00     0.047 A 
ATOM     22  C   UNL     1       3.951  -0.903  -3.874  1.00  0.00     0.016 A 
ATOM     23  C   UNL     1       4.470  -1.384  -1.563  1.00  0.00     0.016 A 
BRANCH  19  24
ATOM     24  O   UNL     1       0.863  -0.857  -1.929  1.00  0.00    -0.494 OA
BRANCH  24  25
ATOM     25  C   UNL     1       0.466   0.432  -1.446  1.00  0.00     0.226 C 
ATOM     26  C   UNL     1       0.457   0.446   0.073  1.00  0.00     0.049 C 
ENDBRANCH  24  25
ENDBRANCH  19  24
ENDBRANCH  10  18
ENDBRANCH   8   9
ENDBRANCH   7   8
BRANCH   7  27
ATOM     27  C   UNL     1       9.436  -7.814  -1.082  1.00  0.00     0.021 C 
ATOM     28  C   UNL     1      10.423  -7.434  -2.164  1.00  0.00     0.005 C 
ENDBRANCH   7  27
ENDBRANCH   4   7
ENDBRANCH   2   3
ENDBRANCH   1   2
BRANCH   1  29
ATOM     29  C   UNL     1      10.988  -1.615  -0.051  1.00  0.00     0.002 C 
BRANCH  29  30
ATOM     30  C   UNL     1      12.082  -1.484  -1.117  1.00  0.00     0.002 C 
BRANCH  30  31
ATOM     31  C   UNL     1      11.595  -1.298  -2.557  1.00  0.00     0.021 C 
BRANCH  31  32
ATOM     32  C   UNL     1      10.694  -0.087  -2.795  1.00  0.00     0.116 C 
BRANCH  32  33
ATOM     33  N   UNL     1      11.359   1.161  -2.463  1.00  0.00    -0.352 N 
ATOM     34  C   UNL     1      11.604   2.261  -3.244  1.00  0.00     0.251 C 
ATOM     35  H   UNL     1      11.683   1.228  -1.536  1.00  0.00     0.163 HD
ATOM     36  O   UNL     1      12.364   3.135  -2.816  1.00  0.00    -0.269 OA
BRANCH  34  37
ATOM     37  C   UNL     1      10.997   2.402  -4.587  1.00  0.00     0.039 A 
ATOM     38  C   UNL     1      11.778   2.930  -5.621  1.00  0.00     0.014 A 
ATOM     39  C   UNL     1       9.662   2.064  -4.831  1.00  0.00     0.014 A 
ATOM     40  C   UNL     1      11.239   3.075  -6.902  1.00  0.00     0.010 A 
ATOM     41  C   UNL     1       9.143   2.153  -6.123  1.00  0.00     0.010 A 
ATOM     42  C   UNL     1       9.923   2.666  -7.170  1.00  0.00    -0.014 A 
BRANCH  42  43
ATOM     43  C   UNL     1       9.348   2.785  -8.535  1.00  0.00     0.031 A 
ATOM     44  C   UNL     1       8.231   3.757  -8.804  1.00  0.00     0.074 A 
ATOM     45  C   UNL     1       9.804   1.993  -9.524  1.00  0.00     0.049 A 
ATOM     46  N   UNL     1       7.569   3.975  -9.912  1.00  0.00    -0.248 NA
ATOM     47  C   UNL     1       7.792   4.580  -7.668  1.00  0.00     0.031 C 
ATOM     48  C   UNL     1      10.869   0.998  -9.384  1.00  0.00     0.029 A 
ATOM     49  N   UNL     1       9.429   1.894 -10.841  1.00  0.00    -0.354 N 
ATOM     50  C   UNL     1       6.631   4.956  -9.607  1.00  0.00     0.074 A 
ATOM     51  C   UNL     1       6.776   5.247  -8.195  1.00  0.00     0.031 C 
ATOM     52  C   UNL     1      11.073   0.404 -10.571  1.00  0.00     0.029 A 
ATOM     53  C   UNL     1      10.129   0.943 -11.545  1.00  0.00     0.049 A 
ATOM     54  H   UNL     1       8.725   2.452 -11.243  1.00  0.00     0.167 HD
ATOM     55  C   UNL     1       5.746   5.572 -10.431  1.00  0.00     0.034 A 
ATOM     56  C   UNL     1      10.015   0.541 -12.826  1.00  0.00     0.034 A 
ATOM     57  C   UNL     1       5.606   5.265 -11.835  1.00  0.00     0.049 A 
ATOM     58  C   UNL     1       8.987   1.199 -13.710  1.00  0.00     0.074 A 
ATOM     59  C   UNL     1       4.768   5.851 -12.769  1.00  0.00     0.029 A 
ATOM     60  N   UNL     1       6.316   4.277 -12.508  1.00  0.00    -0.354 N 
ATOM     61  N   UNL     1       8.132   2.152 -13.418  1.00  0.00    -0.248 NA
ATOM     62  C   UNL     1       8.915   0.732 -15.101  1.00  0.00     0.031 C 
ATOM     63  C   UNL     1       4.925   5.177 -13.986  1.00  0.00     0.029 A 
ATOM     64  C   UNL     1       5.912   4.218 -13.834  1.00  0.00     0.049 A 
ATOM     65  H   UNL     1       7.005   3.703 -12.102  1.00  0.00     0.167 HD
ATOM     66  C   UNL     1       7.442   2.418 -14.597  1.00  0.00     0.074 A 
ATOM     67  C   UNL     1       7.988   1.533 -15.606  1.00  0.00     0.031 C 
ATOM     68  C   UNL     1       6.453   3.319 -14.827  1.00  0.00     0.034 A 
BRANCH  55  69
ATOM     69  C   UNL     1       4.841   6.614  -9.816  1.00  0.00     0.023 A 
ATOM     70  C   UNL     1       5.356   7.792  -9.245  1.00  0.00     0.031 A 
ATOM     71  C   UNL     1       3.451   6.412  -9.762  1.00  0.00     0.131 A 
ATOM     72  C   UNL     1       4.501   8.679  -8.575  1.00  0.00     0.055 A 
ATOM     73  C   UNL     1       2.594   7.340  -9.165  1.00  0.00     0.041 A 
ATOM     74  F   UNL     1       2.900   5.300 -10.274  1.00  0.00    -0.206 F 
ATOM     75  C   UNL     1       3.120   8.474  -8.551  1.00  0.00     0.022 A 
BRANCH  72  76
ATOM     76  S   UNL     1       5.234  10.025  -7.605  1.00  0.00     0.124 S 
ATOM     77  O   UNL     1       6.083   9.289  -6.671  1.00  0.00    -0.237 OA
ATOM     78  O   UNL     1       5.930  10.805  -8.623  1.00  0.00    -0.237 OA
ATOM     79  O   UNL     1       4.078  10.681  -6.998  1.00  0.00    -0.744 OA
ENDBRANCH  72  76
ENDBRANCH  55  69
BRANCH  56  80
ATOM     80  C   UNL     1      10.887  -0.545 -13.355  1.00  0.00     0.023 A 
ATOM     81  C   UNL     1      11.836  -0.285 -14.356  1.00  0.00     0.031 A 
ATOM     82  C   UNL     1      10.757  -1.867 -12.895  1.00  0.00     0.131 A 
ATOM     83  C   UNL     1      12.591  -1.338 -14.894  1.00  0.00     0.055 A 
ATOM     84  C   UNL     1      11.543  -2.904 -13.400  1.00  0.00     0.041 A 
ATOM     85  F   UNL     1       9.867  -2.169 -11.936  1.00  0.00    -0.206 F 
ATOM     86  C   UNL     1      12.459  -2.644 -14.415  1.00  0.00     0.022 A 
BRANCH  83  87
ATOM     87  S   UNL     1      13.701  -0.990 -16.286  1.00  0.00     0.124 S 
ATOM     88  O   UNL     1      12.773  -0.465 -17.282  1.00  0.00    -0.237 OA
ATOM     89  O   UNL     1      14.627  -0.027 -15.701  1.00  0.00    -0.237 OA
ATOM     90  O   UNL     1      14.277  -2.296 -16.596  1.00  0.00    -0.744 OA
ENDBRANCH  83  87
ENDBRANCH  56  80
BRANCH  68  91
ATOM     91  C   UNL     1       5.934   3.416 -16.241  1.00  0.00     0.023 A 
ATOM     92  C   UNL     1       5.203   2.372 -16.836  1.00  0.00     0.031 A 
ATOM     93  C   UNL     1       6.192   4.565 -17.009  1.00  0.00     0.131 A 
ATOM     94  C   UNL     1       4.801   2.477 -18.176  1.00  0.00     0.055 A 
ATOM     95  C   UNL     1       5.742   4.686 -18.325  1.00  0.00     0.041 A 
ATOM     96  F   UNL     1       6.889   5.590 -16.493  1.00  0.00    -0.206 F 
ATOM     97  C   UNL     1       5.053   3.633 -18.919  1.00  0.00     0.022 A 
BRANCH  94  98
ATOM     98  S   UNL     1       4.016   1.045 -18.966  1.00  0.00     0.124 S 
ATOM     99  O   UNL     1       5.045   0.019 -18.829  1.00  0.00    -0.237 OA
ATOM    100  O   UNL     1       2.817   0.857 -18.155  1.00  0.00    -0.237 OA
ATOM    101  O   UNL     1       3.771   1.498 -20.335  1.00  0.00    -0.744 OA
ENDBRANCH  94  98
ENDBRANCH  68  91
ENDBRANCH  42  43
ENDBRANCH  34  37
ENDBRANCH  32  33
ENDBRANCH  31  32
ENDBRANCH  30  31
ENDBRANCH  29  30
ENDBRANCH   1  29
TORSDOF 22
