REMARK SMILES Cc1cc(Cl)c2c(c1)C=C(C(=O)NCCCCCCNC(=O)c1ccc(-c3c4nc(c(-c5cc(S(=O)(=O)[O-])ccc5F)c5ccc([nH]5)c(-c5cc(S(=O)(=O)[O-])ccc5F)c5nc(c(-c6cc(S(=O)(=O)[O-])ccc6F)c6ccc3[nH]6)C=C5)C=C4)cc1)[C@@H](C(F)(F)F)O2
REMARK SMILES IDX 17 1 16 2 15 3 14 4 13 5 11 6 12 7 10 9 1 10 2 11 3 12 8 13
REMARK SMILES IDX 4 14 7 15 5 16 6 17 9 18 91 19 86 20 87 21 88 22 89 23 90 24
REMARK SMILES IDX 18 25 19 26 20 27 21 28 22 30 23 31 24 32 85 33 25 34 84 35
REMARK SMILES IDX 26 36 27 37 28 38 78 39 29 40 83 41 77 42 79 43 30 44 82 45
REMARK SMILES IDX 76 46 75 47 31 49 63 50 43 51 62 52 44 53 47 54 61 55 80 56
REMARK SMILES IDX 45 57 46 58 60 60 81 61 48 62 32 63 33 64 41 65 34 66 40 67
REMARK SMILES IDX 42 68 39 69 35 70 36 71 37 72 38 73 64 74 65 75 73 76 66 77
REMARK SMILES IDX 72 78 74 79 71 80 67 81 68 82 69 83 70 84 49 85 50 86 58 87
REMARK SMILES IDX 51 88 57 89 59 90 56 91 52 92 53 93 54 94 55 95
REMARK H PARENT 13 8 20 29 79 48 47 59
REMARK Flexibility Score: inf
ROOT
ATOM      1  C   UNL     1       0.609  12.235   0.748  1.00  0.00     0.002 C 
ENDROOT
BRANCH   1   2
ATOM      2  C   UNL     1       1.643  11.327   1.427  1.00  0.00     0.002 C 
BRANCH   2   3
ATOM      3  C   UNL     1       1.118   9.954   1.852  1.00  0.00     0.021 C 
BRANCH   3   4
ATOM      4  C   UNL     1       0.491   9.161   0.710  1.00  0.00     0.116 C 
BRANCH   4   5
ATOM      5  N   UNL     1       1.490   8.434  -0.053  1.00  0.00    -0.352 N 
ATOM      6  C   UNL     1       1.744   7.144  -0.373  1.00  0.00     0.251 C 
ATOM      7  O   UNL     1       2.729   6.964  -1.098  1.00  0.00    -0.270 OA
ATOM      8  H   UNL     1       2.162   9.041  -0.440  1.00  0.00     0.163 HD
BRANCH   6   9
ATOM      9  C   UNL     1       0.940   5.970   0.082  1.00  0.00     0.067 C 
ATOM     10  C   UNL     1       1.003  -0.218  -0.163  1.00  0.00     0.044 C 
ATOM     11  C   UNL     1       0.531   1.138   0.269  1.00  0.00    -0.049 A 
ATOM     12  C   UNL     1      -0.606   1.266   1.074  1.00  0.00     0.028 A 
ATOM     13  C   UNL     1       1.196   2.294  -0.167  1.00  0.00     0.015 A 
ATOM     14  C   UNL     1      -1.056   2.529   1.457  1.00  0.00     0.084 A 
ATOM     15  C   UNL     1       0.746   3.563   0.216  1.00  0.00     0.019 A 
ATOM     16  Cl  UNL     1      -2.452   2.633   2.469  1.00  0.00    -0.080 Cl
ATOM     17  C   UNL     1      -0.386   3.677   1.024  1.00  0.00     0.146 A 
ATOM     18  C   UNL     1       1.472   4.763  -0.184  1.00  0.00     0.025 C 
ATOM     19  O   UNL     1      -0.846   4.886   1.457  1.00  0.00    -0.474 OA
ATOM     20  C   UNL     1      -0.399   6.072   0.756  1.00  0.00     0.314 C 
BRANCH  20  21
ATOM     21  C   UNL     1      -1.510   6.539  -0.201  1.00  0.00     0.429 C 
ATOM     22  F   UNL     1      -2.586   6.983   0.493  1.00  0.00    -0.167 F 
ATOM     23  F   UNL     1      -1.119   7.563  -0.996  1.00  0.00    -0.167 F 
ATOM     24  F   UNL     1      -1.931   5.548  -1.020  1.00  0.00    -0.167 F 
ENDBRANCH  20  21
ENDBRANCH   6   9
ENDBRANCH   4   5
ENDBRANCH   3   4
ENDBRANCH   2   3
ENDBRANCH   1   2
BRANCH   1  25
ATOM     25  C   UNL     1      -0.720  12.384   1.496  1.00  0.00     0.021 C 
BRANCH  25  26
ATOM     26  C   UNL     1      -0.585  12.915   2.918  1.00  0.00     0.116 C 
BRANCH  26  27
ATOM     27  N   UNL     1       0.034  14.229   2.942  1.00  0.00    -0.352 N 
ATOM     28  C   UNL     1      -0.466  15.411   3.423  1.00  0.00     0.251 C 
ATOM     29  H   UNL     1       0.940  14.277   2.558  1.00  0.00     0.163 HD
ATOM     30  O   UNL     1       0.088  16.470   3.141  1.00  0.00    -0.269 OA
BRANCH  28  31
ATOM     31  C   UNL     1      -1.677  15.397   4.267  1.00  0.00     0.039 A 
ATOM     32  C   UNL     1      -2.691  16.323   4.015  1.00  0.00     0.014 A 
ATOM     33  C   UNL     1      -1.806  14.471   5.308  1.00  0.00     0.014 A 
ATOM     34  C   UNL     1      -3.858  16.288   4.779  1.00  0.00     0.010 A 
ATOM     35  C   UNL     1      -2.998  14.392   6.020  1.00  0.00     0.010 A 
ATOM     36  C   UNL     1      -4.032  15.306   5.769  1.00  0.00    -0.014 A 
BRANCH  36  37
ATOM     37  C   UNL     1      -5.277  15.244   6.573  1.00  0.00     0.031 A 
ATOM     38  C   UNL     1      -5.228  15.525   8.050  1.00  0.00     0.074 A 
ATOM     39  C   UNL     1      -6.442  14.918   5.978  1.00  0.00     0.049 A 
ATOM     40  N   UNL     1      -6.192  15.475   8.931  1.00  0.00    -0.248 NA
ATOM     41  C   UNL     1      -3.918  15.892   8.614  1.00  0.00     0.031 C 
ATOM     42  C   UNL     1      -6.607  14.614   4.554  1.00  0.00     0.029 A 
ATOM     43  N   UNL     1      -7.708  14.797   6.490  1.00  0.00    -0.354 N 
ATOM     44  C   UNL     1      -5.610  15.810  10.148  1.00  0.00     0.074 A 
ATOM     45  C   UNL     1      -4.197  15.996   9.905  1.00  0.00     0.031 C 
ATOM     46  C   UNL     1      -7.905  14.384   4.302  1.00  0.00     0.029 A 
ATOM     47  C   UNL     1      -8.659  14.476   5.548  1.00  0.00     0.049 A 
ATOM     48  H   UNL     1      -7.918  14.927   7.444  1.00  0.00     0.167 HD
ATOM     49  C   UNL     1      -6.207  15.978  11.351  1.00  0.00     0.034 A 
ATOM     50  C   UNL     1      -9.986  14.277   5.677  1.00  0.00     0.034 A 
ATOM     51  C   UNL     1      -7.618  15.809  11.578  1.00  0.00     0.049 A 
ATOM     52  C   UNL     1     -10.614  14.409   7.040  1.00  0.00     0.074 A 
ATOM     53  C   UNL     1      -8.325  15.979  12.755  1.00  0.00     0.029 A 
ATOM     54  N   UNL     1      -8.539  15.436  10.609  1.00  0.00    -0.354 N 
ATOM     55  N   UNL     1     -10.046  14.727   8.180  1.00  0.00    -0.248 NA
ATOM     56  C   UNL     1     -12.057  14.155   7.135  1.00  0.00     0.031 C 
ATOM     57  C   UNL     1      -9.662  15.652  12.513  1.00  0.00     0.029 A 
ATOM     58  C   UNL     1      -9.803  15.345  11.169  1.00  0.00     0.049 A 
ATOM     59  H   UNL     1      -8.326  15.262   9.664  1.00  0.00     0.167 HD
ATOM     60  C   UNL     1     -11.069  14.734   9.123  1.00  0.00     0.074 A 
ATOM     61  C   UNL     1     -12.289  14.397   8.418  1.00  0.00     0.031 C 
ATOM     62  C   UNL     1     -11.006  14.998  10.452  1.00  0.00     0.034 A 
BRANCH  49  63
ATOM     63  C   UNL     1      -5.337  16.367  12.517  1.00  0.00     0.023 A 
ATOM     64  C   UNL     1      -4.728  17.631  12.582  1.00  0.00     0.031 A 
ATOM     65  C   UNL     1      -5.143  15.480  13.590  1.00  0.00     0.131 A 
ATOM     66  C   UNL     1      -3.924  17.963  13.682  1.00  0.00     0.055 A 
ATOM     67  C   UNL     1      -4.392  15.839  14.710  1.00  0.00     0.041 A 
ATOM     68  F   UNL     1      -5.686  14.253  13.568  1.00  0.00    -0.206 F 
ATOM     69  C   UNL     1      -3.773  17.085  14.758  1.00  0.00     0.022 A 
BRANCH  66  70
ATOM     70  S   UNL     1      -3.021  19.534  13.656  1.00  0.00     0.124 S 
ATOM     71  O   UNL     1      -2.104  19.328  12.538  1.00  0.00    -0.237 OA
ATOM     72  O   UNL     1      -4.085  20.509  13.438  1.00  0.00    -0.237 OA
ATOM     73  O   UNL     1      -2.388  19.587  14.972  1.00  0.00    -0.744 OA
ENDBRANCH  66  70
ENDBRANCH  49  63
BRANCH  50  74
ATOM     74  C   UNL     1     -10.812  13.931   4.486  1.00  0.00     0.023 A 
ATOM     75  C   UNL     1     -11.784  14.821   4.002  1.00  0.00     0.031 A 
ATOM     76  C   UNL     1     -10.654  12.700   3.824  1.00  0.00     0.131 A 
ATOM     77  C   UNL     1     -12.581  14.457   2.906  1.00  0.00     0.055 A 
ATOM     78  C   UNL     1     -11.420  12.361   2.708  1.00  0.00     0.041 A 
ATOM     79  F   UNL     1      -9.735  11.817   4.244  1.00  0.00    -0.206 F 
ATOM     80  C   UNL     1     -12.397  13.239   2.248  1.00  0.00     0.022 A 
BRANCH  77  81
ATOM     81  S   UNL     1     -13.901  15.583   2.378  1.00  0.00     0.124 S 
ATOM     82  O   UNL     1     -14.758  15.609   3.559  1.00  0.00    -0.237 OA
ATOM     83  O   UNL     1     -13.161  16.808   2.094  1.00  0.00    -0.237 OA
ATOM     84  O   UNL     1     -14.469  14.916   1.209  1.00  0.00    -0.744 OA
ENDBRANCH  77  81
ENDBRANCH  50  74
BRANCH  62  85
ATOM     85  C   UNL     1     -12.293  14.959  11.232  1.00  0.00     0.023 A 
ATOM     86  C   UNL     1     -12.948  13.746  11.501  1.00  0.00     0.031 A 
ATOM     87  C   UNL     1     -12.839  16.143  11.757  1.00  0.00     0.131 A 
ATOM     88  C   UNL     1     -14.130  13.747  12.255  1.00  0.00     0.055 A 
ATOM     89  C   UNL     1     -13.987  16.132  12.548  1.00  0.00     0.041 A 
ATOM     90  F   UNL     1     -12.246  17.327  11.531  1.00  0.00    -0.206 F 
ATOM     91  C   UNL     1     -14.643  14.929  12.796  1.00  0.00     0.022 A 
BRANCH  88  92
ATOM     92  S   UNL     1     -15.011  12.181  12.493  1.00  0.00     0.124 S 
ATOM     93  O   UNL     1     -15.393  11.838  11.127  1.00  0.00    -0.237 OA
ATOM     94  O   UNL     1     -13.990  11.333  13.100  1.00  0.00    -0.237 OA
ATOM     95  O   UNL     1     -16.119  12.541  13.376  1.00  0.00    -0.744 OA
ENDBRANCH  88  92
ENDBRANCH  62  85
ENDBRANCH  36  37
ENDBRANCH  28  31
ENDBRANCH  26  27
ENDBRANCH  25  26
ENDBRANCH   1  25
TORSDOF 17
