REMARK SMILES Cc1cc2c(c(C)c1Cl)C=C(C(=O)NCCCCCCNC(=O)c1ccc(-c3c4nc(c(-c5cc(S(=O)(=O)[O-])ccc5F)c5ccc([nH]5)c(-c5cc(S(=O)(=O)[O-])ccc5F)c5nc(c(-c6cc(S(=O)(=O)[O-])ccc6F)c6ccc3[nH]6)C=C5)C=C4)cc1)[C@@H](C(F)(F)F)O2
REMARK SMILES IDX 18 1 17 2 16 3 15 4 14 5 12 6 13 7 11 9 1 10 2 11 3 12 8 13
REMARK SMILES IDX 4 14 6 15 9 16 5 17 92 18 7 19 10 20 87 21 88 22 89 23 90 24
REMARK SMILES IDX 91 25 19 26 20 27 21 28 22 29 23 31 24 32 25 33 86 34 26 35
REMARK SMILES IDX 85 36 27 37 28 38 29 39 79 40 30 41 84 42 78 43 80 44 31 45
REMARK SMILES IDX 83 46 77 47 76 48 32 50 64 51 44 52 63 53 45 54 48 55 62 56
REMARK SMILES IDX 81 57 46 58 47 59 61 61 82 62 49 63 33 64 34 65 42 66 35 67
REMARK SMILES IDX 41 68 43 69 40 70 36 71 37 72 38 73 39 74 65 75 66 76 74 77
REMARK SMILES IDX 67 78 73 79 75 80 72 81 68 82 69 83 70 84 71 85 50 86 51 87
REMARK SMILES IDX 59 88 52 89 58 90 60 91 57 92 53 93 54 94 55 95 56 96
REMARK H PARENT 14 8 21 30 80 49 48 60
REMARK Flexibility Score: inf
ROOT
ATOM      1  C   UNL     1      -3.076  -3.531  10.847  1.00  0.00     0.002 C 
ENDROOT
BRANCH   1   2
ATOM      2  C   UNL     1      -1.683  -2.898  10.733  1.00  0.00     0.002 C 
BRANCH   2   3
ATOM      3  C   UNL     1      -1.100  -2.873   9.318  1.00  0.00     0.021 C 
BRANCH   3   4
ATOM      4  C   UNL     1      -2.008  -2.194   8.299  1.00  0.00     0.116 C 
BRANCH   4   5
ATOM      5  N   UNL     1      -1.843  -0.751   8.309  1.00  0.00    -0.352 N 
ATOM      6  C   UNL     1      -1.499   0.212   7.423  1.00  0.00     0.251 C 
ATOM      7  O   UNL     1      -1.512   1.366   7.865  1.00  0.00    -0.270 OA
ATOM      8  H   UNL     1      -2.032  -0.372   9.198  1.00  0.00     0.163 HD
BRANCH   6   9
ATOM      9  C   UNL     1      -1.119  -0.027   5.997  1.00  0.00     0.067 C 
ATOM     10  C   UNL     1       1.092   0.142  -0.123  1.00  0.00     0.046 C 
ATOM     11  C   UNL     1       0.614   0.458   1.268  1.00  0.00    -0.028 A 
ATOM     12  C   UNL     1       0.220  -0.605   2.081  1.00  0.00     0.052 A 
ATOM     13  C   UNL     1       0.594   1.763   1.800  1.00  0.00     0.047 A 
ATOM     14  C   UNL     1      -0.204  -0.379   3.385  1.00  0.00     0.128 A 
ATOM     15  C   UNL     1       0.161   2.007   3.128  1.00  0.00    -0.021 A 
ATOM     16  Cl  UNL     1       1.138   3.071   0.792  1.00  0.00    -0.084 Cl
ATOM     17  C   UNL     1      -0.231   0.907   3.929  1.00  0.00     0.022 A 
ATOM     18  O   UNL     1      -0.532  -1.504   4.076  1.00  0.00    -0.475 OA
ATOM     19  C   UNL     1       0.118   3.401   3.710  1.00  0.00     0.047 C 
ATOM     20  C   UNL     1      -0.621   1.035   5.337  1.00  0.00     0.026 C 
ATOM     21  C   UNL     1      -1.296  -1.338   5.293  1.00  0.00     0.314 C 
BRANCH  21  22
ATOM     22  C   UNL     1      -2.772  -1.670   5.011  1.00  0.00     0.429 C 
ATOM     23  F   UNL     1      -2.919  -2.988   4.731  1.00  0.00    -0.167 F 
ATOM     24  F   UNL     1      -3.577  -1.411   6.068  1.00  0.00    -0.167 F 
ATOM     25  F   UNL     1      -3.265  -0.972   3.962  1.00  0.00    -0.167 F 
ENDBRANCH  21  22
ENDBRANCH   6   9
ENDBRANCH   4   5
ENDBRANCH   3   4
ENDBRANCH   2   3
ENDBRANCH   1   2
BRANCH   1  26
ATOM     26  C   UNL     1      -3.221  -4.909  10.194  1.00  0.00     0.021 C 
BRANCH  26  27
ATOM     27  C   UNL     1      -2.255  -5.962  10.726  1.00  0.00     0.116 C 
BRANCH  27  28
ATOM     28  N   UNL     1      -2.421  -6.164  12.155  1.00  0.00    -0.352 N 
ATOM     29  C   UNL     1      -2.718  -7.314  12.836  1.00  0.00     0.251 C 
ATOM     30  H   UNL     1      -2.303  -5.361  12.712  1.00  0.00     0.163 HD
ATOM     31  O   UNL     1      -3.069  -7.253  14.014  1.00  0.00    -0.269 OA
BRANCH  29  32
ATOM     32  C   UNL     1      -2.624  -8.617  12.149  1.00  0.00     0.039 A 
ATOM     33  C   UNL     1      -3.641  -9.556  12.330  1.00  0.00     0.014 A 
ATOM     34  C   UNL     1      -1.522  -8.915  11.339  1.00  0.00     0.014 A 
ATOM     35  C   UNL     1      -3.576 -10.779  11.661  1.00  0.00     0.010 A 
ATOM     36  C   UNL     1      -1.493 -10.106  10.621  1.00  0.00     0.010 A 
ATOM     37  C   UNL     1      -2.515 -11.053  10.783  1.00  0.00    -0.014 A 
BRANCH  37  38
ATOM     38  C   UNL     1      -2.441 -12.337  10.044  1.00  0.00     0.031 A 
ATOM     39  C   UNL     1      -1.331 -13.306  10.342  1.00  0.00     0.074 A 
ATOM     40  C   UNL     1      -3.348 -12.609   9.086  1.00  0.00     0.049 A 
ATOM     41  N   UNL     1      -1.041 -14.435   9.750  1.00  0.00    -0.248 NA
ATOM     42  C   UNL     1      -0.413 -12.947  11.436  1.00  0.00     0.031 C 
ATOM     43  C   UNL     1      -4.466 -11.741   8.709  1.00  0.00     0.029 A 
ATOM     44  N   UNL     1      -3.477 -13.694   8.256  1.00  0.00    -0.354 N 
ATOM     45  C   UNL     1       0.088 -14.922  10.398  1.00  0.00     0.074 A 
ATOM     46  C   UNL     1       0.466 -13.937  11.388  1.00  0.00     0.031 C 
ATOM     47  C   UNL     1      -5.183 -12.342   7.747  1.00  0.00     0.029 A 
ATOM     48  C   UNL     1      -4.551 -13.612   7.402  1.00  0.00     0.049 A 
ATOM     49  H   UNL     1      -2.857 -14.459   8.270  1.00  0.00     0.167 HD
ATOM     50  C   UNL     1       0.735 -16.095  10.200  1.00  0.00     0.034 A 
ATOM     51  C   UNL     1      -4.973 -14.459   6.442  1.00  0.00     0.034 A 
ATOM     52  C   UNL     1       0.340 -17.074   9.219  1.00  0.00     0.049 A 
ATOM     53  C   UNL     1      -4.203 -15.731   6.204  1.00  0.00     0.074 A 
ATOM     54  C   UNL     1       0.915 -18.303   8.952  1.00  0.00     0.029 A 
ATOM     55  N   UNL     1      -0.732 -16.938   8.347  1.00  0.00    -0.354 N 
ATOM     56  N   UNL     1      -3.130 -16.172   6.819  1.00  0.00    -0.248 NA
ATOM     57  C   UNL     1      -4.700 -16.619   5.146  1.00  0.00     0.031 C 
ATOM     58  C   UNL     1       0.232 -18.883   7.879  1.00  0.00     0.029 A 
ATOM     59  C   UNL     1      -0.817 -18.050   7.524  1.00  0.00     0.049 A 
ATOM     60  H   UNL     1      -1.341 -16.165   8.316  1.00  0.00     0.167 HD
ATOM     61  C   UNL     1      -2.839 -17.402   6.237  1.00  0.00     0.074 A 
ATOM     62  C   UNL     1      -3.854 -17.637   5.231  1.00  0.00     0.031 C 
ATOM     63  C   UNL     1      -1.827 -18.263   6.516  1.00  0.00     0.034 A 
BRANCH  50  64
ATOM     64  C   UNL     1       1.944 -16.382  11.053  1.00  0.00     0.023 A 
ATOM     65  C   UNL     1       1.828 -16.609  12.435  1.00  0.00     0.031 A 
ATOM     66  C   UNL     1       3.222 -16.458  10.473  1.00  0.00     0.131 A 
ATOM     67  C   UNL     1       2.976 -16.866  13.199  1.00  0.00     0.055 A 
ATOM     68  C   UNL     1       4.352 -16.777  11.228  1.00  0.00     0.041 A 
ATOM     69  F   UNL     1       3.391 -16.229   9.161  1.00  0.00    -0.206 F 
ATOM     70  C   UNL     1       4.234 -16.976  12.600  1.00  0.00     0.022 A 
BRANCH  67  71
ATOM     71  S   UNL     1       2.815 -16.979  15.001  1.00  0.00     0.124 S 
ATOM     72  O   UNL     1       2.385 -15.626  15.343  1.00  0.00    -0.237 OA
ATOM     73  O   UNL     1       1.815 -18.028  15.165  1.00  0.00    -0.237 OA
ATOM     74  O   UNL     1       4.163 -17.329  15.444  1.00  0.00    -0.744 OA
ENDBRANCH  67  71
ENDBRANCH  50  64
BRANCH  51  75
ATOM     75  C   UNL     1      -6.181 -14.132   5.635  1.00  0.00     0.023 A 
ATOM     76  C   UNL     1      -7.353 -14.895   5.753  1.00  0.00     0.031 A 
ATOM     77  C   UNL     1      -6.181 -13.055   4.731  1.00  0.00     0.131 A 
ATOM     78  C   UNL     1      -8.470 -14.586   4.961  1.00  0.00     0.055 A 
ATOM     79  C   UNL     1      -7.308 -12.725   3.978  1.00  0.00     0.041 A 
ATOM     80  F   UNL     1      -5.087 -12.290   4.588  1.00  0.00    -0.206 F 
ATOM     81  C   UNL     1      -8.460 -13.498   4.085  1.00  0.00     0.022 A 
BRANCH  78  82
ATOM     82  S   UNL     1      -9.933 -15.653   5.066  1.00  0.00     0.124 S 
ATOM     83  O   UNL     1      -9.407 -16.925   4.585  1.00  0.00    -0.237 OA
ATOM     84  O   UNL     1     -10.256 -15.588   6.488  1.00  0.00    -0.237 OA
ATOM     85  O   UNL     1     -10.895 -14.999   4.181  1.00  0.00    -0.744 OA
ENDBRANCH  78  82
ENDBRANCH  51  75
BRANCH  63  86
ATOM     86  C   UNL     1      -1.785 -19.555   5.741  1.00  0.00     0.023 A 
ATOM     87  C   UNL     1      -1.481 -19.580   4.370  1.00  0.00     0.031 A 
ATOM     88  C   UNL     1      -2.025 -20.778   6.393  1.00  0.00     0.131 A 
ATOM     89  C   UNL     1      -1.464 -20.803   3.683  1.00  0.00     0.055 A 
ATOM     90  C   UNL     1      -1.952 -21.995   5.716  1.00  0.00     0.041 A 
ATOM     91  F   UNL     1      -2.318 -20.808   7.703  1.00  0.00    -0.206 F 
ATOM     92  C   UNL     1      -1.679 -22.012   4.351  1.00  0.00     0.022 A 
BRANCH  89  93
ATOM     93  S   UNL     1      -1.215 -20.788   1.888  1.00  0.00     0.124 S 
ATOM     94  O   UNL     1      -2.371 -20.024   1.429  1.00  0.00    -0.237 OA
ATOM     95  O   UNL     1       0.079 -20.126   1.755  1.00  0.00    -0.237 OA
ATOM     96  O   UNL     1      -1.225 -22.204   1.528  1.00  0.00    -0.744 OA
ENDBRANCH  89  93
ENDBRANCH  63  86
ENDBRANCH  37  38
ENDBRANCH  29  32
ENDBRANCH  27  28
ENDBRANCH  26  27
ENDBRANCH   1  26
TORSDOF 17
