REMARK SMILES CC(C)[C@@H](NC(=O)/C(=C\c1ccccc1F)NC(=O)c1ccccc1)C(=O)NCCCCCCNC(=O)c1ccc(-c2c3nc(c(-c4cc(S(=O)(=O)[O-])ccc4F)c4ccc([nH]4)c(-c4cc(S(=O)(=O)[O-])ccc4F)c4nc(c(-c5cc(S(=O)(=O)[O-])ccc5F)c5ccc2[nH]5)C=C4)C=C3)cc1
REMARK SMILES IDX 31 1 30 2 29 3 28 4 26 5 27 6 4 8 2 9 1 10 3 11 5 12 6 13
REMARK SMILES IDX 7 15 8 16 9 17 17 18 18 19 19 21 20 22 21 23 25 24 22 25
REMARK SMILES IDX 24 26 23 27 10 28 11 29 15 30 12 31 14 32 16 33 13 34 32 35
REMARK SMILES IDX 33 36 34 37 35 38 36 39 37 41 38 42 39 43 100 44 40 45 99 46
REMARK SMILES IDX 41 47 42 48 43 49 93 50 44 51 98 52 92 53 94 54 45 55 97 56
REMARK SMILES IDX 91 57 90 58 46 60 78 61 58 62 77 63 59 64 62 65 76 66 95 67
REMARK SMILES IDX 60 68 61 69 75 71 96 72 63 73 47 74 48 75 56 76 49 77 55 78
REMARK SMILES IDX 57 79 54 80 50 81 51 82 52 83 53 84 79 85 80 86 88 87 81 88
REMARK SMILES IDX 87 89 89 90 86 91 82 92 83 93 84 94 85 95 64 96 65 97 73 98
REMARK SMILES IDX 66 99 72 100 74 101 71 102 67 103 68 104 69 105 70 106
REMARK H PARENT 28 7 5 14 17 20 35 40 94 59 62 70
REMARK Flexibility Score: inf
ROOT
ATOM      1  C   UNL     1       0.824   6.404   1.021  1.00  0.00     0.002 C 
ENDROOT
BRANCH   1   2
ATOM      2  C   UNL     1       1.408   5.008   1.276  1.00  0.00     0.021 C 
BRANCH   2   3
ATOM      3  C   UNL     1       0.326   3.941   1.358  1.00  0.00     0.116 C 
BRANCH   3   4
ATOM      4  N   UNL     1      -0.143   3.695   0.019  1.00  0.00    -0.354 N 
ATOM      5  C   UNL     1      -0.006   2.527  -0.655  1.00  0.00     0.242 C 
ATOM      6  O   UNL     1       0.403   2.588  -1.817  1.00  0.00    -0.273 OA
ATOM      7  H   UNL     1      -0.601   4.434  -0.443  1.00  0.00     0.163 HD
BRANCH   5   8
ATOM      8  C   UNL     1      -0.191   1.188   0.065  1.00  0.00     0.174 C 
BRANCH   8   9
ATOM      9  C   UNL     1       1.199   0.670   0.575  1.00  0.00     0.015 C 
ATOM     10  C   UNL     1       1.218  -0.855   0.727  1.00  0.00     0.010 C 
ATOM     11  C   UNL     1       2.377   1.067  -0.335  1.00  0.00     0.010 C 
ENDBRANCH   8   9
BRANCH   8  12
ATOM     12  N   UNL     1      -1.215   1.210   1.140  1.00  0.00    -0.339 N 
ATOM     13  C   UNL     1      -2.569   1.433   0.999  1.00  0.00     0.268 C 
ATOM     14  H   UNL     1      -0.892   1.046   2.055  1.00  0.00     0.164 HD
ATOM     15  O   UNL     1      -3.351   0.583   1.427  1.00  0.00    -0.268 OA
BRANCH  13  16
ATOM     16  C   UNL     1      -3.099   2.788   0.588  1.00  0.00     0.107 C 
ATOM     17  C   UNL     1      -3.241   3.190  -0.696  1.00  0.00     0.043 C 
BRANCH  16  18
ATOM     18  N   UNL     1      -3.577   3.685   1.538  1.00  0.00    -0.317 N 
ATOM     19  C   UNL     1      -3.784   3.676   2.893  1.00  0.00     0.255 C 
ATOM     20  H   UNL     1      -3.832   4.546   1.134  1.00  0.00     0.170 HD
ATOM     21  O   UNL     1      -4.310   4.665   3.409  1.00  0.00    -0.269 OA
BRANCH  19  22
ATOM     22  C   UNL     1      -3.443   2.550   3.764  1.00  0.00     0.040 A 
ATOM     23  C   UNL     1      -4.482   1.846   4.378  1.00  0.00     0.014 A 
ATOM     24  C   UNL     1      -2.112   2.283   4.090  1.00  0.00     0.014 A 
ATOM     25  C   UNL     1      -4.183   0.818   5.271  1.00  0.00     0.001 A 
ATOM     26  C   UNL     1      -1.818   1.248   4.976  1.00  0.00     0.001 A 
ATOM     27  C   UNL     1      -2.852   0.512   5.558  1.00  0.00     0.000 A 
ENDBRANCH  19  22
ENDBRANCH  16  18
BRANCH  17  28
ATOM     28  C   UNL     1      -2.841   2.558  -1.958  1.00  0.00     0.012 A 
ATOM     29  C   UNL     1      -2.161   3.361  -2.890  1.00  0.00     0.011 A 
ATOM     30  C   UNL     1      -3.051   1.216  -2.267  1.00  0.00     0.130 A 
ATOM     31  C   UNL     1      -1.576   2.792  -4.025  1.00  0.00     0.001 A 
ATOM     32  C   UNL     1      -2.481   0.646  -3.404  1.00  0.00     0.040 A 
ATOM     33  F   UNL     1      -3.782   0.436  -1.460  1.00  0.00    -0.206 F 
ATOM     34  C   UNL     1      -1.712   1.427  -4.265  1.00  0.00     0.003 A 
ENDBRANCH  17  28
ENDBRANCH  13  16
ENDBRANCH   8  12
ENDBRANCH   5   8
ENDBRANCH   3   4
ENDBRANCH   2   3
ENDBRANCH   1   2
BRANCH   1  35
ATOM     35  C   UNL     1      -0.146   6.885   2.106  1.00  0.00     0.002 C 
BRANCH  35  36
ATOM     36  C   UNL     1       0.391   6.753   3.532  1.00  0.00     0.021 C 
BRANCH  36  37
ATOM     37  C   UNL     1       1.766   7.374   3.739  1.00  0.00     0.116 C 
BRANCH  37  38
ATOM     38  N   UNL     1       1.770   8.796   3.458  1.00  0.00    -0.352 N 
ATOM     39  C   UNL     1       2.395   9.796   4.160  1.00  0.00     0.251 C 
ATOM     40  H   UNL     1       1.262   9.080   2.664  1.00  0.00     0.163 HD
ATOM     41  O   UNL     1       2.171  10.968   3.893  1.00  0.00    -0.269 OA
BRANCH  39  42
ATOM     42  C   UNL     1       3.309   9.428   5.261  1.00  0.00     0.039 A 
ATOM     43  C   UNL     1       3.150  10.053   6.497  1.00  0.00     0.014 A 
ATOM     44  C   UNL     1       4.295   8.450   5.079  1.00  0.00     0.014 A 
ATOM     45  C   UNL     1       3.959   9.670   7.566  1.00  0.00     0.010 A 
ATOM     46  C   UNL     1       5.050   8.020   6.165  1.00  0.00     0.010 A 
ATOM     47  C   UNL     1       4.896   8.633   7.417  1.00  0.00    -0.014 A 
BRANCH  47  48
ATOM     48  C   UNL     1       5.734   8.201   8.563  1.00  0.00     0.031 A 
ATOM     49  C   UNL     1       7.224   8.403   8.525  1.00  0.00     0.074 A 
ATOM     50  C   UNL     1       5.153   7.619   9.630  1.00  0.00     0.049 A 
ATOM     51  N   UNL     1       8.122   8.078   9.418  1.00  0.00    -0.248 NA
ATOM     52  C   UNL     1       7.780   9.031   7.316  1.00  0.00     0.031 C 
ATOM     53  C   UNL     1       3.719   7.349   9.768  1.00  0.00     0.029 A 
ATOM     54  N   UNL     1       5.690   7.160  10.807  1.00  0.00    -0.354 N 
ATOM     55  C   UNL     1       9.345   8.461   8.881  1.00  0.00     0.074 A 
ATOM     56  C   UNL     1       9.081   8.984   7.559  1.00  0.00     0.031 C 
ATOM     57  C   UNL     1       3.486   6.820  10.979  1.00  0.00     0.029 A 
ATOM     58  C   UNL     1       4.754   6.669  11.687  1.00  0.00     0.049 A 
ATOM     59  H   UNL     1       6.654   7.182  11.002  1.00  0.00     0.167 HD
ATOM     60  C   UNL     1      10.572   8.408   9.452  1.00  0.00     0.034 A 
ATOM     61  C   UNL     1       4.899   6.154  12.924  1.00  0.00     0.034 A 
ATOM     62  C   UNL     1      10.819   7.906  10.779  1.00  0.00     0.049 A 
ATOM     63  C   UNL     1       6.277   6.071  13.523  1.00  0.00     0.074 A 
ATOM     64  C   UNL     1      12.018   7.848  11.466  1.00  0.00     0.029 A 
ATOM     65  N   UNL     1       9.851   7.376  11.621  1.00  0.00    -0.354 N 
ATOM     66  N   UNL     1       7.423   6.445  13.003  1.00  0.00    -0.248 NA
ATOM     67  C   UNL     1       6.385   5.496  14.871  1.00  0.00     0.031 C 
ATOM     68  C   UNL     1      11.787   7.228  12.697  1.00  0.00     0.029 A 
ATOM     69  C   UNL     1      10.432   6.962  12.808  1.00  0.00     0.049 A 
ATOM     70  H   UNL     1       8.893   7.305  11.406  1.00  0.00     0.167 HD
ATOM     71  C   UNL     1       8.385   6.170  13.969  1.00  0.00     0.074 A 
ATOM     72  C   UNL     1       7.687   5.600  15.104  1.00  0.00     0.031 C 
ATOM     73  C   UNL     1       9.724   6.381  13.923  1.00  0.00     0.034 A 
BRANCH  60  74
ATOM     74  C   UNL     1      11.743   8.897   8.640  1.00  0.00     0.023 A 
ATOM     75  C   UNL     1      11.883  10.252   8.296  1.00  0.00     0.031 A 
ATOM     76  C   UNL     1      12.742   8.001   8.221  1.00  0.00     0.131 A 
ATOM     77  C   UNL     1      12.973  10.667   7.517  1.00  0.00     0.055 A 
ATOM     78  C   UNL     1      13.860   8.431   7.503  1.00  0.00     0.041 A 
ATOM     79  F   UNL     1      12.649   6.692   8.505  1.00  0.00    -0.206 F 
ATOM     80  C   UNL     1      13.976   9.770   7.140  1.00  0.00     0.022 A 
BRANCH  77  81
ATOM     81  S   UNL     1      13.020  12.381   6.930  1.00  0.00     0.124 S 
ATOM     82  O   UNL     1      11.846  12.425   6.061  1.00  0.00    -0.237 OA
ATOM     83  O   UNL     1      12.926  13.144   8.169  1.00  0.00    -0.237 OA
ATOM     84  O   UNL     1      14.304  12.471   6.238  1.00  0.00    -0.744 OA
ENDBRANCH  77  81
ENDBRANCH  60  74
BRANCH  61  85
ATOM     85  C   UNL     1       3.703   5.684  13.674  1.00  0.00     0.023 A 
ATOM     86  C   UNL     1       3.237   6.380  14.800  1.00  0.00     0.031 A 
ATOM     87  C   UNL     1       2.993   4.543  13.260  1.00  0.00     0.131 A 
ATOM     88  C   UNL     1       2.102   5.919  15.485  1.00  0.00     0.055 A 
ATOM     89  C   UNL     1       1.844   4.110  13.922  1.00  0.00     0.041 A 
ATOM     90  F   UNL     1       3.394   3.850  12.181  1.00  0.00    -0.206 F 
ATOM     91  C   UNL     1       1.395   4.798  15.045  1.00  0.00     0.022 A 
BRANCH  88  92
ATOM     92  S   UNL     1       1.567   6.799  16.979  1.00  0.00     0.124 S 
ATOM     93  O   UNL     1       2.692   6.566  17.877  1.00  0.00    -0.237 OA
ATOM     94  O   UNL     1       1.406   8.164  16.489  1.00  0.00    -0.237 OA
ATOM     95  O   UNL     1       0.325   6.122  17.344  1.00  0.00    -0.744 OA
ENDBRANCH  88  92
ENDBRANCH  61  85
BRANCH  73  96
ATOM     96  C   UNL     1      10.530   6.019  15.142  1.00  0.00     0.023 A 
ATOM     97  C   UNL     1      10.789   4.681  15.478  1.00  0.00     0.031 A 
ATOM     98  C   UNL     1      11.103   7.031  15.932  1.00  0.00     0.131 A 
ATOM     99  C   UNL     1      11.589   4.388  16.593  1.00  0.00     0.055 A 
ATOM    100  C   UNL     1      11.933   6.734  17.013  1.00  0.00     0.041 A 
ATOM    101  F   UNL     1      10.887   8.325  15.646  1.00  0.00    -0.206 F 
ATOM    102  C   UNL     1      12.177   5.405  17.350  1.00  0.00     0.022 A 
BRANCH  99 103
ATOM    103  S   UNL     1      11.841   2.652  17.055  1.00  0.00     0.124 S 
ATOM    104  O   UNL     1      10.495   2.246  17.445  1.00  0.00    -0.237 OA
ATOM    105  O   UNL     1      12.350   2.066  15.819  1.00  0.00    -0.237 OA
ATOM    106  O   UNL     1      12.809   2.725  18.148  1.00  0.00    -0.744 OA
ENDBRANCH  99 103
ENDBRANCH  73  96
ENDBRANCH  47  48
ENDBRANCH  39  42
ENDBRANCH  37  38
ENDBRANCH  36  37
ENDBRANCH  35  36
ENDBRANCH   1  35
TORSDOF 22
