REMARK SMILES C[C@H]1CCC[C@H](C)N1C(=O)[C@H]1[C@@H](C(=O)NCCCCCCNC(=O)c2ccc(-c3c4nc(c(-c5cc(S(=O)(=O)[O-])ccc5F)c5ccc([nH]5)c(-c5cc(S(=O)(=O)[O-])ccc5F)c5nc(c(-c6cc(S(=O)(=O)[O-])ccc6F)c6ccc3[nH]6)C=C5)C=C4)cc2)[C@H]2CC[C@@H]1O2
REMARK SMILES IDX 19 1 18 2 17 3 16 4 15 5 13 6 14 7 12 9 11 10 91 11 88 12
REMARK SMILES IDX 90 13 92 14 89 15 9 16 1 17 2 18 3 19 8 20 4 21 6 22 5 23
REMARK SMILES IDX 7 24 10 25 20 26 21 27 22 28 23 29 24 31 25 32 26 33 87 34
REMARK SMILES IDX 27 35 86 36 28 37 29 38 30 39 80 40 31 41 85 42 79 43 81 44
REMARK SMILES IDX 32 45 84 46 78 47 77 48 33 50 65 51 45 52 64 53 46 54 49 55
REMARK SMILES IDX 63 56 82 57 47 58 48 59 62 61 83 62 50 63 34 64 35 65 43 66
REMARK SMILES IDX 36 67 42 68 44 69 41 70 37 71 38 72 39 73 40 74 66 75 67 76
REMARK SMILES IDX 75 77 68 78 74 79 76 80 73 81 69 82 70 83 71 84 72 85 51 86
REMARK SMILES IDX 52 87 60 88 53 89 59 90 61 91 58 92 54 93 55 94 56 95 57 96
REMARK H PARENT 15 8 22 30 81 49 49 60
REMARK Flexibility Score: inf
ROOT
ATOM      1  C   UNL     1      -6.982  -4.289  -1.618  1.00  0.00     0.002 C 
ENDROOT
BRANCH   1   2
ATOM      2  C   UNL     1      -6.059  -4.423  -2.835  1.00  0.00     0.002 C 
BRANCH   2   3
ATOM      3  C   UNL     1      -5.660  -3.093  -3.495  1.00  0.00     0.021 C 
BRANCH   3   4
ATOM      4  C   UNL     1      -4.865  -2.186  -2.566  1.00  0.00     0.116 C 
BRANCH   4   5
ATOM      5  N   UNL     1      -3.556  -2.761  -2.334  1.00  0.00    -0.356 N 
ATOM      6  C   UNL     1      -2.300  -2.292  -2.380  1.00  0.00     0.226 C 
ATOM      7  O   UNL     1      -1.419  -3.115  -2.094  1.00  0.00    -0.275 OA
ATOM      8  H   UNL     1      -3.598  -3.713  -2.088  1.00  0.00     0.163 HD
BRANCH   6   9
ATOM      9  C   UNL     1      -1.895  -0.870  -2.679  1.00  0.00     0.122 C 
ATOM     10  C   UNL     1      -2.308   0.261  -1.729  1.00  0.00     0.122 C 
ATOM     11  C   UNL     1      -2.605   1.381  -2.755  1.00  0.00     0.132 C 
ATOM     12  C   UNL     1      -2.033  -0.266  -4.077  1.00  0.00     0.132 C 
ATOM     13  C   UNL     1      -3.839   1.212  -3.640  1.00  0.00     0.035 C 
ATOM     14  O   UNL     1      -1.569   1.087  -3.757  1.00  0.00    -0.373 OA
ATOM     15  C   UNL     1      -3.410   0.103  -4.600  1.00  0.00     0.035 C 
BRANCH  10  16
ATOM     16  C   UNL     1      -3.358  -0.044  -0.666  1.00  0.00     0.229 C 
ATOM     17  C   UNL     1      -0.480  -0.834   0.483  1.00  0.00     0.031 C 
ATOM     18  C   UNL     1      -1.806  -1.403   0.984  1.00  0.00     0.082 C 
ATOM     19  C   UNL     1      -1.766  -1.203   2.526  1.00  0.00     0.025 C 
ATOM     20  N   UNL     1      -3.100  -0.902   0.418  1.00  0.00    -0.337 N 
ATOM     21  C   UNL     1      -3.012  -1.647   3.276  1.00  0.00     0.004 C 
ATOM     22  C   UNL     1      -4.303  -1.418   1.140  1.00  0.00     0.082 C 
ATOM     23  C   UNL     1      -4.250  -1.053   2.625  1.00  0.00     0.025 C 
ATOM     24  C   UNL     1      -4.480  -2.939   0.989  1.00  0.00     0.031 C 
ATOM     25  O   UNL     1      -4.475   0.470  -0.798  1.00  0.00    -0.274 OA
ENDBRANCH  10  16
ENDBRANCH   6   9
ENDBRANCH   4   5
ENDBRANCH   3   4
ENDBRANCH   2   3
ENDBRANCH   1   2
BRANCH   1  26
ATOM     26  C   UNL     1      -8.257  -3.491  -1.869  1.00  0.00     0.021 C 
BRANCH  26  27
ATOM     27  C   UNL     1      -9.070  -4.003  -3.046  1.00  0.00     0.116 C 
BRANCH  27  28
ATOM     28  N   UNL     1      -9.466  -5.391  -2.862  1.00  0.00    -0.352 N 
ATOM     29  C   UNL     1     -10.722  -5.940  -2.949  1.00  0.00     0.251 C 
ATOM     30  H   UNL     1      -8.739  -6.018  -2.646  1.00  0.00     0.163 HD
ATOM     31  O   UNL     1     -10.929  -7.076  -2.550  1.00  0.00    -0.269 OA
BRANCH  29  32
ATOM     32  C   UNL     1     -11.811  -5.116  -3.509  1.00  0.00     0.039 A 
ATOM     33  C   UNL     1     -13.031  -5.056  -2.837  1.00  0.00     0.014 A 
ATOM     34  C   UNL     1     -11.597  -4.364  -4.669  1.00  0.00     0.014 A 
ATOM     35  C   UNL     1     -14.023  -4.193  -3.302  1.00  0.00     0.010 A 
ATOM     36  C   UNL     1     -12.548  -3.437  -5.071  1.00  0.00     0.010 A 
ATOM     37  C   UNL     1     -13.776  -3.351  -4.400  1.00  0.00    -0.014 A 
BRANCH  37  38
ATOM     38  C   UNL     1     -14.801  -2.390  -4.878  1.00  0.00     0.031 A 
ATOM     39  C   UNL     1     -15.361  -2.528  -6.267  1.00  0.00     0.074 A 
ATOM     40  C   UNL     1     -15.183  -1.371  -4.084  1.00  0.00     0.049 A 
ATOM     41  N   UNL     1     -16.212  -1.760  -6.896  1.00  0.00    -0.248 NA
ATOM     42  C   UNL     1     -14.873  -3.663  -7.066  1.00  0.00     0.031 C 
ATOM     43  C   UNL     1     -14.676  -1.115  -2.733  1.00  0.00     0.029 A 
ATOM     44  N   UNL     1     -16.083  -0.358  -4.295  1.00  0.00    -0.354 N 
ATOM     45  C   UNL     1     -16.354  -2.313  -8.164  1.00  0.00     0.074 A 
ATOM     46  C   UNL     1     -15.442  -3.433  -8.238  1.00  0.00     0.031 C 
ATOM     47  C   UNL     1     -15.300  -0.041  -2.225  1.00  0.00     0.029 A 
ATOM     48  C   UNL     1     -16.209   0.502  -3.229  1.00  0.00     0.049 A 
ATOM     49  H   UNL     1     -16.592  -0.256  -5.132  1.00  0.00     0.167 HD
ATOM     50  C   UNL     1     -17.190  -1.938  -9.164  1.00  0.00     0.034 A 
ATOM     51  C   UNL     1     -16.965   1.609  -3.083  1.00  0.00     0.034 A 
ATOM     52  C   UNL     1     -18.097  -0.822  -9.065  1.00  0.00     0.049 A 
ATOM     53  C   UNL     1     -17.855   2.031  -4.224  1.00  0.00     0.074 A 
ATOM     54  C   UNL     1     -19.021  -0.379  -9.994  1.00  0.00     0.029 A 
ATOM     55  N   UNL     1     -18.187   0.036  -7.976  1.00  0.00    -0.354 N 
ATOM     56  N   UNL     1     -18.017   1.468  -5.400  1.00  0.00    -0.248 NA
ATOM     57  C   UNL     1     -18.672   3.233  -4.015  1.00  0.00     0.031 C 
ATOM     58  C   UNL     1     -19.613   0.789  -9.501  1.00  0.00     0.029 A 
ATOM     59  C   UNL     1     -19.125   1.026  -8.226  1.00  0.00     0.049 A 
ATOM     60  H   UNL     1     -17.662  -0.047  -7.147  1.00  0.00     0.167 HD
ATOM     61  C   UNL     1     -18.980   2.229  -6.056  1.00  0.00     0.074 A 
ATOM     62  C   UNL     1     -19.373   3.279  -5.138  1.00  0.00     0.031 C 
ATOM     63  C   UNL     1     -19.497   2.074  -7.303  1.00  0.00     0.034 A 
BRANCH  50  64
ATOM     64  C   UNL     1     -17.136  -2.732 -10.448  1.00  0.00     0.023 A 
ATOM     65  C   UNL     1     -17.438  -4.105 -10.482  1.00  0.00     0.031 A 
ATOM     66  C   UNL     1     -16.746  -2.117 -11.651  1.00  0.00     0.131 A 
ATOM     67  C   UNL     1     -17.265  -4.833 -11.669  1.00  0.00     0.055 A 
ATOM     68  C   UNL     1     -16.664  -2.829 -12.850  1.00  0.00     0.041 A 
ATOM     69  F   UNL     1     -16.421  -0.815 -11.680  1.00  0.00    -0.206 F 
ATOM     70  C   UNL     1     -16.908  -4.199 -12.860  1.00  0.00     0.022 A 
BRANCH  67  71
ATOM     71  S   UNL     1     -17.359  -6.643 -11.595  1.00  0.00     0.124 S 
ATOM     72  O   UNL     1     -16.316  -6.952 -10.618  1.00  0.00    -0.237 OA
ATOM     73  O   UNL     1     -18.731  -6.871 -11.158  1.00  0.00    -0.237 OA
ATOM     74  O   UNL     1     -17.061  -7.058 -12.964  1.00  0.00    -0.744 OA
ENDBRANCH  67  71
ENDBRANCH  50  64
BRANCH  51  75
ATOM     75  C   UNL     1     -16.912   2.402  -1.821  1.00  0.00     0.023 A 
ATOM     76  C   UNL     1     -18.048   2.547  -1.009  1.00  0.00     0.031 A 
ATOM     77  C   UNL     1     -15.736   3.067  -1.429  1.00  0.00     0.131 A 
ATOM     78  C   UNL     1     -18.001   3.378   0.121  1.00  0.00     0.055 A 
ATOM     79  C   UNL     1     -15.677   3.844  -0.271  1.00  0.00     0.041 A 
ATOM     80  F   UNL     1     -14.618   2.962  -2.166  1.00  0.00    -0.206 F 
ATOM     81  C   UNL     1     -16.819   4.015   0.504  1.00  0.00     0.022 A 
BRANCH  78  82
ATOM     82  S   UNL     1     -19.539   3.694   1.030  1.00  0.00     0.124 S 
ATOM     83  O   UNL     1     -20.390   4.253  -0.014  1.00  0.00    -0.237 OA
ATOM     84  O   UNL     1     -19.892   2.359   1.501  1.00  0.00    -0.237 OA
ATOM     85  O   UNL     1     -19.130   4.633   2.072  1.00  0.00    -0.744 OA
ENDBRANCH  78  82
ENDBRANCH  51  75
BRANCH  63  86
ATOM     86  C   UNL     1     -20.580   3.040  -7.722  1.00  0.00     0.023 A 
ATOM     87  C   UNL     1     -20.325   4.412  -7.891  1.00  0.00     0.031 A 
ATOM     88  C   UNL     1     -21.889   2.578  -7.948  1.00  0.00     0.131 A 
ATOM     89  C   UNL     1     -21.377   5.283  -8.213  1.00  0.00     0.055 A 
ATOM     90  C   UNL     1     -22.916   3.439  -8.338  1.00  0.00     0.041 A 
ATOM     91  F   UNL     1     -22.191   1.278  -7.798  1.00  0.00    -0.206 F 
ATOM     92  C   UNL     1     -22.666   4.802  -8.458  1.00  0.00     0.022 A 
BRANCH  89  93
ATOM     93  S   UNL     1     -21.060   7.069  -8.207  1.00  0.00     0.124 S 
ATOM     94  O   UNL     1     -20.592   7.289  -6.843  1.00  0.00    -0.237 OA
ATOM     95  O   UNL     1     -20.056   7.212  -9.257  1.00  0.00    -0.237 OA
ATOM     96  O   UNL     1     -22.366   7.649  -8.517  1.00  0.00    -0.744 OA
ENDBRANCH  89  93
ENDBRANCH  63  86
ENDBRANCH  37  38
ENDBRANCH  29  32
ENDBRANCH  27  28
ENDBRANCH  26  27
ENDBRANCH   1  26
TORSDOF 17
