REMARK SMILES O=C(COc1ccc(Br)cc1)NC(=S)Nc1ccc(Cl)cc1C(=O)NCCCCCCNC(=O)c1ccc(-c2c3nc(c(-c4cc(S(=O)(=O)[O-])ccc4F)c4ccc([nH]4)c(-c4cc(S(=O)(=O)[O-])ccc4F)c4nc(c(-c5cc(S(=O)(=O)[O-])ccc5F)c5ccc2[nH]5)C=C4)C=C3)cc1
REMARK SMILES IDX 27 1 26 2 25 3 23 4 24 5 22 7 16 8 17 9 18 10 21 11 19 12
REMARK SMILES IDX 20 13 15 14 13 16 14 17 12 18 1 19 2 20 3 22 4 23 5 24 6 25
REMARK SMILES IDX 11 26 7 27 10 28 8 29 9 30 28 31 29 32 30 33 31 34 32 35
REMARK SMILES IDX 33 36 34 38 35 39 36 40 97 41 37 42 96 43 38 44 39 45 40 46
REMARK SMILES IDX 90 47 41 48 95 49 89 50 91 51 42 52 94 53 88 54 87 55 43 57
REMARK SMILES IDX 75 58 55 59 74 60 56 61 59 62 73 63 92 64 57 65 58 66 72 68
REMARK SMILES IDX 93 69 60 70 44 71 45 72 53 73 46 74 52 75 54 76 51 77 47 78
REMARK SMILES IDX 48 79 49 80 50 81 76 82 77 83 85 84 78 85 84 86 86 87 83 88
REMARK SMILES IDX 79 89 80 90 81 91 82 92 61 93 62 94 70 95 63 96 69 97 71 98
REMARK SMILES IDX 68 99 64 100 65 101 66 102 67 103
REMARK H PARENT 25 6 15 15 12 21 32 37 91 56 59 67
REMARK Flexibility Score: inf
ROOT
ATOM      1  C   UNL     1       1.486   2.289   4.392  1.00  0.00     0.021 C 
ENDROOT
BRANCH   1   2
ATOM      2  C   UNL     1       0.718   1.248   3.585  1.00  0.00     0.116 C 
BRANCH   2   3
ATOM      3  N   UNL     1      -0.681   1.516   3.378  1.00  0.00    -0.352 N 
ATOM      4  C   UNL     1      -1.564   1.080   2.418  1.00  0.00     0.253 C 
ATOM      5  O   UNL     1      -2.727   1.481   2.547  1.00  0.00    -0.269 OA
ATOM      6  H   UNL     1      -1.079   2.121   4.045  1.00  0.00     0.163 HD
BRANCH   4   7
ATOM      7  C   UNL     1      -1.264   0.215   1.226  1.00  0.00     0.064 A 
ATOM      8  C   UNL     1      -0.324  -0.825   1.067  1.00  0.00     0.053 A 
ATOM      9  C   UNL     1      -0.289  -1.584  -0.126  1.00  0.00     0.028 A 
ATOM     10  C   UNL     1      -1.092  -1.254  -1.211  1.00  0.00     0.023 A 
ATOM     11  C   UNL     1      -2.056   0.535   0.097  1.00  0.00     0.036 A 
ATOM     12  C   UNL     1      -1.948  -0.170  -1.105  1.00  0.00     0.041 A 
ATOM     13  Cl  UNL     1      -2.874   0.312  -2.474  1.00  0.00    -0.084 Cl
BRANCH   8  14
ATOM     14  N   UNL     1       0.644  -1.163   2.019  1.00  0.00    -0.332 N 
ATOM     15  H   UNL     1       0.317  -1.342   2.930  1.00  0.00     0.169 HD
BRANCH  14  16
ATOM     16  C   UNL     1       1.990  -1.273   1.827  1.00  0.00     0.177 C 
ATOM     17  S   UNL     1       2.910  -2.053   2.985  1.00  0.00    -0.040 S 
BRANCH  16  18
ATOM     18  N   UNL     1       2.657  -0.679   0.775  1.00  0.00    -0.300 N 
ATOM     19  O   UNL     1       1.233   0.844  -0.301  1.00  0.00    -0.271 OA
ATOM     20  C   UNL     1       2.307   0.258  -0.210  1.00  0.00     0.264 C 
ATOM     21  H   UNL     1       3.591  -0.982   0.698  1.00  0.00     0.172 HD
BRANCH  20  22
ATOM     22  C   UNL     1       3.444   0.623  -1.170  1.00  0.00     0.329 C 
BRANCH  22  23
ATOM     23  O   UNL     1       4.240   1.730  -0.743  1.00  0.00    -0.484 OA
BRANCH  23  24
ATOM     24  C   UNL     1       3.561   2.919  -0.826  1.00  0.00     0.120 A 
ATOM     25  C   UNL     1       2.721   3.317   0.216  1.00  0.00     0.047 A 
ATOM     26  C   UNL     1       3.780   3.766  -1.910  1.00  0.00     0.047 A 
ATOM     27  C   UNL     1       2.029   4.525   0.139  1.00  0.00     0.019 A 
ATOM     28  C   UNL     1       3.112   4.995  -1.974  1.00  0.00     0.019 A 
ATOM     29  C   UNL     1       2.230   5.362  -0.956  1.00  0.00     0.018 A 
ATOM     30  Br  UNL     1       1.316   7.014  -1.046  1.00  0.00    -0.051 Br
ENDBRANCH  23  24
ENDBRANCH  22  23
ENDBRANCH  20  22
ENDBRANCH  16  18
ENDBRANCH  14  16
ENDBRANCH   8  14
ENDBRANCH   4   7
ENDBRANCH   2   3
ENDBRANCH   1   2
BRANCH   1  31
ATOM     31  C   UNL     1       1.054   2.520   5.843  1.00  0.00     0.002 C 
BRANCH  31  32
ATOM     32  C   UNL     1       0.867   1.292   6.739  1.00  0.00     0.002 C 
BRANCH  32  33
ATOM     33  C   UNL     1       2.014   0.282   6.804  1.00  0.00     0.021 C 
BRANCH  33  34
ATOM     34  C   UNL     1       3.401   0.839   7.106  1.00  0.00     0.116 C 
BRANCH  34  35
ATOM     35  N   UNL     1       3.470   1.533   8.379  1.00  0.00    -0.352 N 
ATOM     36  C   UNL     1       4.341   1.363   9.427  1.00  0.00     0.251 C 
ATOM     37  H   UNL     1       2.789   2.232   8.511  1.00  0.00     0.163 HD
ATOM     38  O   UNL     1       4.132   1.961  10.484  1.00  0.00    -0.269 OA
BRANCH  36  39
ATOM     39  C   UNL     1       5.503   0.451   9.311  1.00  0.00     0.039 A 
ATOM     40  C   UNL     1       5.808  -0.387  10.388  1.00  0.00     0.014 A 
ATOM     41  C   UNL     1       6.305   0.428   8.166  1.00  0.00     0.014 A 
ATOM     42  C   UNL     1       6.872  -1.290  10.291  1.00  0.00     0.010 A 
ATOM     43  C   UNL     1       7.320  -0.522   8.044  1.00  0.00     0.010 A 
ATOM     44  C   UNL     1       7.615  -1.393   9.104  1.00  0.00    -0.014 A 
BRANCH  44  45
ATOM     45  C   UNL     1       8.695  -2.408   8.959  1.00  0.00     0.031 A 
ATOM     46  C   UNL     1      10.123  -1.977   8.757  1.00  0.00     0.074 A 
ATOM     47  C   UNL     1       8.382  -3.719   8.960  1.00  0.00     0.049 A 
ATOM     48  N   UNL     1      11.188  -2.709   8.548  1.00  0.00    -0.248 NA
ATOM     49  C   UNL     1      10.382  -0.530   8.765  1.00  0.00     0.031 C 
ATOM     50  C   UNL     1       7.031  -4.263   9.117  1.00  0.00     0.029 A 
ATOM     51  N   UNL     1       9.171  -4.834   8.820  1.00  0.00    -0.354 N 
ATOM     52  C   UNL     1      12.242  -1.814   8.394  1.00  0.00     0.074 A 
ATOM     53  C   UNL     1      11.673  -0.484   8.470  1.00  0.00     0.031 C 
ATOM     54  C   UNL     1       7.090  -5.604   9.093  1.00  0.00     0.029 A 
ATOM     55  C   UNL     1       8.471  -6.019   8.864  1.00  0.00     0.049 A 
ATOM     56  H   UNL     1      10.147  -4.791   8.699  1.00  0.00     0.167 HD
ATOM     57  C   UNL     1      13.562  -2.076   8.227  1.00  0.00     0.034 A 
ATOM     58  C   UNL     1       8.887  -7.293   8.720  1.00  0.00     0.034 A 
ATOM     59  C   UNL     1      14.114  -3.409   8.155  1.00  0.00     0.049 A 
ATOM     60  C   UNL     1      10.354  -7.558   8.488  1.00  0.00     0.074 A 
ATOM     61  C   UNL     1      15.440  -3.787   8.034  1.00  0.00     0.029 A 
ATOM     62  N   UNL     1      13.371  -4.583   8.187  1.00  0.00    -0.354 N 
ATOM     63  N   UNL     1      11.344  -6.700   8.389  1.00  0.00    -0.248 NA
ATOM     64  C   UNL     1      10.761  -8.963   8.357  1.00  0.00     0.031 C 
ATOM     65  C   UNL     1      15.492  -5.179   7.911  1.00  0.00     0.029 A 
ATOM     66  C   UNL     1      14.208  -5.681   8.049  1.00  0.00     0.049 A 
ATOM     67  H   UNL     1      12.394  -4.629   8.293  1.00  0.00     0.167 HD
ATOM     68  C   UNL     1      12.495  -7.467   8.220  1.00  0.00     0.074 A 
ATOM     69  C   UNL     1      12.076  -8.853   8.245  1.00  0.00     0.031 C 
ATOM     70  C   UNL     1      13.781  -7.061   8.063  1.00  0.00     0.034 A 
BRANCH  57  71
ATOM     71  C   UNL     1      14.495  -0.896   8.079  1.00  0.00     0.023 A 
ATOM     72  C   UNL     1      14.657   0.052   9.105  1.00  0.00     0.031 A 
ATOM     73  C   UNL     1      15.220  -0.703   6.889  1.00  0.00     0.131 A 
ATOM     74  C   UNL     1      15.459   1.185   8.895  1.00  0.00     0.055 A 
ATOM     75  C   UNL     1      16.085   0.380   6.719  1.00  0.00     0.041 A 
ATOM     76  F   UNL     1      15.093  -1.560   5.864  1.00  0.00    -0.206 F 
ATOM     77  C   UNL     1      16.196   1.341   7.719  1.00  0.00     0.022 A 
BRANCH  74  78
ATOM     78  S   UNL     1      15.402   2.524  10.117  1.00  0.00     0.124 S 
ATOM     79  O   UNL     1      13.980   2.859  10.120  1.00  0.00    -0.237 OA
ATOM     80  O   UNL     1      15.909   1.875  11.320  1.00  0.00    -0.237 OA
ATOM     81  O   UNL     1      16.274   3.548   9.543  1.00  0.00    -0.744 OA
ENDBRANCH  74  78
ENDBRANCH  57  71
BRANCH  58  82
ATOM     82  C   UNL     1       7.910  -8.420   8.774  1.00  0.00     0.023 A 
ATOM     83  C   UNL     1       7.990  -9.402   9.774  1.00  0.00     0.031 A 
ATOM     84  C   UNL     1       6.910  -8.559   7.795  1.00  0.00     0.131 A 
ATOM     85  C   UNL     1       7.122 -10.505   9.744  1.00  0.00     0.055 A 
ATOM     86  C   UNL     1       6.009  -9.625   7.805  1.00  0.00     0.041 A 
ATOM     87  F   UNL     1       6.788  -7.650   6.814  1.00  0.00    -0.206 F 
ATOM     88  C   UNL     1       6.122 -10.615   8.776  1.00  0.00     0.022 A 
BRANCH  85  89
ATOM     89  S   UNL     1       7.385 -11.849  10.934  1.00  0.00     0.124 S 
ATOM     90  O   UNL     1       8.759 -12.239  10.641  1.00  0.00    -0.237 OA
ATOM     91  O   UNL     1       7.166 -11.173  12.208  1.00  0.00    -0.237 OA
ATOM     92  O   UNL     1       6.365 -12.830  10.568  1.00  0.00    -0.744 OA
ENDBRANCH  85  89
ENDBRANCH  58  82
BRANCH  70  93
ATOM     93  C   UNL     1      14.835  -8.138   7.957  1.00  0.00     0.023 A 
ATOM     94  C   UNL     1      14.882  -9.029   6.871  1.00  0.00     0.031 A 
ATOM     95  C   UNL     1      15.803  -8.280   8.969  1.00  0.00     0.131 A 
ATOM     96  C   UNL     1      15.837 -10.058   6.850  1.00  0.00     0.055 A 
ATOM     97  C   UNL     1      16.793  -9.262   8.909  1.00  0.00     0.041 A 
ATOM     98  F   UNL     1      15.805  -7.461  10.033  1.00  0.00    -0.206 F 
ATOM     99  C   UNL     1      16.805 -10.168   7.852  1.00  0.00     0.022 A 
BRANCH  96 100
ATOM    100  S   UNL     1      15.735 -11.315   5.547  1.00  0.00     0.124 S 
ATOM    101  O   UNL     1      14.390 -11.847   5.743  1.00  0.00    -0.237 OA
ATOM    102  O   UNL     1      15.938 -10.527   4.335  1.00  0.00    -0.237 OA
ATOM    103  O   UNL     1      16.820 -12.238   5.874  1.00  0.00    -0.744 OA
ENDBRANCH  96 100
ENDBRANCH  70  93
ENDBRANCH  44  45
ENDBRANCH  36  39
ENDBRANCH  34  35
ENDBRANCH  33  34
ENDBRANCH  32  33
ENDBRANCH  31  32
ENDBRANCH   1  31
TORSDOF 22
