REMARK SMILES O=C(NCCCCCCNC(=O)c1ccc2nc(C3CCCCC3)[nH]c2c1)c1ccc(-c2c3nc(c(-c4cc(S(=O)(=O)[O-])ccc4F)c4ccc([nH]4)c(-c4cc(S(=O)(=O)[O-])ccc4F)c4nc(c(-c5cc(S(=O)(=O)[O-])ccc5F)c5ccc2[nH]5)C=C4)C=C3)cc1
REMARK SMILES IDX 5 1 4 2 3 3 1 4 2 5 28 7 29 8 90 9 30 10 89 11 31 12 32 13
REMARK SMILES IDX 33 14 83 15 34 16 88 17 82 18 84 19 35 20 87 21 81 22 80 23
REMARK SMILES IDX 36 25 68 26 48 27 67 28 49 29 52 30 66 31 85 32 50 33 51 34
REMARK SMILES IDX 65 36 86 37 53 38 37 39 38 40 46 41 39 42 45 43 47 44 44 45
REMARK SMILES IDX 40 46 41 47 42 48 43 49 69 50 70 51 78 52 71 53 77 54 79 55
REMARK SMILES IDX 76 56 72 57 73 58 74 59 75 60 54 61 55 62 63 63 56 64 62 65
REMARK SMILES IDX 64 66 61 67 57 68 58 69 59 70 60 71 6 72 7 73 8 74 9 75
REMARK SMILES IDX 10 76 11 77 12 79 13 80 14 81 27 82 15 83 26 84 16 85 25 86
REMARK SMILES IDX 17 87 18 88 19 90 20 91 24 92 21 93 23 94 22 95
REMARK H PARENT 3 6 84 24 52 35 10 78 25 89
REMARK Flexibility Score: inf
ROOT
ATOM      1  C   UNL     1       4.788  -0.670   2.377  1.00  0.00     0.021 C 
ENDROOT
BRANCH   1   2
ATOM      2  C   UNL     1       4.535  -0.791   0.878  1.00  0.00     0.116 C 
BRANCH   2   3
ATOM      3  N   UNL     1       3.119  -0.890   0.566  1.00  0.00    -0.352 N 
ATOM      4  O   UNL     1       1.125  -0.207  -0.224  1.00  0.00    -0.269 OA
ATOM      5  C   UNL     1       2.346  -0.081  -0.228  1.00  0.00     0.251 C 
ATOM      6  H   UNL     1       2.647  -1.645   0.985  1.00  0.00     0.163 HD
BRANCH   5   7
ATOM      7  C   UNL     1       2.984   0.949  -1.076  1.00  0.00     0.039 A 
ATOM      8  C   UNL     1       4.100   0.642  -1.862  1.00  0.00     0.014 A 
ATOM      9  C   UNL     1       2.436   2.233  -1.105  1.00  0.00     0.014 A 
ATOM     10  C   UNL     1       4.731   1.645  -2.594  1.00  0.00     0.010 A 
ATOM     11  C   UNL     1       3.031   3.221  -1.892  1.00  0.00     0.010 A 
ATOM     12  C   UNL     1       4.195   2.941  -2.626  1.00  0.00    -0.014 A 
BRANCH  12  13
ATOM     13  C   UNL     1       4.824   3.996  -3.460  1.00  0.00     0.031 A 
ATOM     14  C   UNL     1       5.430   5.212  -2.821  1.00  0.00     0.074 A 
ATOM     15  C   UNL     1       4.807   3.873  -4.801  1.00  0.00     0.049 A 
ATOM     16  N   UNL     1       5.912   6.291  -3.383  1.00  0.00    -0.248 NA
ATOM     17  C   UNL     1       5.485   5.219  -1.353  1.00  0.00     0.031 C 
ATOM     18  C   UNL     1       4.253   2.732  -5.532  1.00  0.00     0.029 A 
ATOM     19  N   UNL     1       5.247   4.719  -5.786  1.00  0.00    -0.354 N 
ATOM     20  C   UNL     1       6.310   7.119  -2.339  1.00  0.00     0.074 A 
ATOM     21  C   UNL     1       5.975   6.426  -1.110  1.00  0.00     0.031 C 
ATOM     22  C   UNL     1       4.385   2.950  -6.849  1.00  0.00     0.029 A 
ATOM     23  C   UNL     1       4.966   4.272  -7.056  1.00  0.00     0.049 A 
ATOM     24  H   UNL     1       5.718   5.564  -5.603  1.00  0.00     0.167 HD
ATOM     25  C   UNL     1       6.902   8.339  -2.404  1.00  0.00     0.034 A 
ATOM     26  C   UNL     1       5.112   4.874  -8.252  1.00  0.00     0.034 A 
ATOM     27  C   UNL     1       7.211   9.013  -3.644  1.00  0.00     0.049 A 
ATOM     28  C   UNL     1       5.703   6.256  -8.305  1.00  0.00     0.074 A 
ATOM     29  C   UNL     1       7.838  10.233  -3.831  1.00  0.00     0.029 A 
ATOM     30  N   UNL     1       6.896   8.534  -4.912  1.00  0.00    -0.354 N 
ATOM     31  N   UNL     1       6.090   7.024  -7.313  1.00  0.00    -0.248 NA
ATOM     32  C   UNL     1       5.884   6.851  -9.634  1.00  0.00     0.031 C 
ATOM     33  C   UNL     1       7.829  10.527  -5.199  1.00  0.00     0.029 A 
ATOM     34  C   UNL     1       7.281   9.451  -5.879  1.00  0.00     0.049 A 
ATOM     35  H   UNL     1       6.462   7.670  -5.096  1.00  0.00     0.167 HD
ATOM     36  C   UNL     1       6.591   8.181  -7.901  1.00  0.00     0.074 A 
ATOM     37  C   UNL     1       6.452   8.011  -9.334  1.00  0.00     0.031 C 
ATOM     38  C   UNL     1       7.131   9.276  -7.307  1.00  0.00     0.034 A 
BRANCH  25  39
ATOM     39  C   UNL     1       7.191   9.039  -1.094  1.00  0.00     0.023 A 
ATOM     40  C   UNL     1       8.047   8.480  -0.128  1.00  0.00     0.031 A 
ATOM     41  C   UNL     1       6.557  10.255  -0.780  1.00  0.00     0.131 A 
ATOM     42  C   UNL     1       8.164   9.079   1.136  1.00  0.00     0.055 A 
ATOM     43  C   UNL     1       6.754  10.896   0.445  1.00  0.00     0.041 A 
ATOM     44  F   UNL     1       5.713  10.831  -1.651  1.00  0.00    -0.206 F 
ATOM     45  C   UNL     1       7.544  10.297   1.421  1.00  0.00     0.022 A 
BRANCH  42  46
ATOM     46  S   UNL     1       8.980   8.143   2.461  1.00  0.00     0.124 S 
ATOM     47  O   UNL     1       8.227   6.891   2.447  1.00  0.00    -0.237 OA
ATOM     48  O   UNL     1      10.357   8.065   1.989  1.00  0.00    -0.237 OA
ATOM     49  O   UNL     1       8.769   8.972   3.646  1.00  0.00    -0.744 OA
ENDBRANCH  42  46
ENDBRANCH  25  39
BRANCH  26  50
ATOM     50  C   UNL     1       4.639   4.182  -9.482  1.00  0.00     0.023 A 
ATOM     51  C   UNL     1       5.541   3.728 -10.455  1.00  0.00     0.031 A 
ATOM     52  C   UNL     1       3.267   3.940  -9.685  1.00  0.00     0.131 A 
ATOM     53  C   UNL     1       5.059   3.071 -11.599  1.00  0.00     0.055 A 
ATOM     54  C   UNL     1       2.797   3.245 -10.799  1.00  0.00     0.041 A 
ATOM     55  F   UNL     1       2.366   4.346  -8.777  1.00  0.00    -0.206 F 
ATOM     56  C   UNL     1       3.696   2.813 -11.769  1.00  0.00     0.022 A 
BRANCH  53  57
ATOM     57  S   UNL     1       6.239   2.592 -12.889  1.00  0.00     0.124 S 
ATOM     58  O   UNL     1       6.789   3.884 -13.282  1.00  0.00    -0.237 OA
ATOM     59  O   UNL     1       7.141   1.705 -12.162  1.00  0.00    -0.237 OA
ATOM     60  O   UNL     1       5.401   1.938 -13.891  1.00  0.00    -0.744 OA
ENDBRANCH  53  57
ENDBRANCH  26  50
BRANCH  38  61
ATOM     61  C   UNL     1       7.678  10.355  -8.209  1.00  0.00     0.023 A 
ATOM     62  C   UNL     1       6.845  11.174  -8.990  1.00  0.00     0.031 A 
ATOM     63  C   UNL     1       9.066  10.581  -8.259  1.00  0.00     0.131 A 
ATOM     64  C   UNL     1       7.412  12.162  -9.811  1.00  0.00     0.055 A 
ATOM     65  C   UNL     1       9.619  11.598  -9.036  1.00  0.00     0.041 A 
ATOM     66  F   UNL     1       9.907   9.823  -7.537  1.00  0.00    -0.206 F 
ATOM     67  C   UNL     1       8.791  12.392  -9.824  1.00  0.00     0.022 A 
BRANCH  64  68
ATOM     68  S   UNL     1       6.329  13.115 -10.912  1.00  0.00     0.124 S 
ATOM     69  O   UNL     1       5.769  12.071 -11.764  1.00  0.00    -0.237 OA
ATOM     70  O   UNL     1       5.402  13.741  -9.976  1.00  0.00    -0.237 OA
ATOM     71  O   UNL     1       7.246  14.036 -11.582  1.00  0.00    -0.744 OA
ENDBRANCH  64  68
ENDBRANCH  38  61
ENDBRANCH  12  13
ENDBRANCH   5   7
ENDBRANCH   2   3
ENDBRANCH   1   2
BRANCH   1  72
ATOM     72  C   UNL     1       4.304  -1.858   3.213  1.00  0.00     0.002 C 
BRANCH  72  73
ATOM     73  C   UNL     1       4.840  -3.226   2.783  1.00  0.00     0.002 C 
BRANCH  73  74
ATOM     74  C   UNL     1       6.364  -3.335   2.687  1.00  0.00     0.021 C 
BRANCH  74  75
ATOM     75  C   UNL     1       7.119  -2.954   3.959  1.00  0.00     0.116 C 
BRANCH  75  76
ATOM     76  N   UNL     1       6.797  -3.840   5.066  1.00  0.00    -0.352 N 
ATOM     77  C   UNL     1       7.644  -4.592   5.837  1.00  0.00     0.251 C 
ATOM     78  H   UNL     1       5.841  -3.909   5.292  1.00  0.00     0.163 HD
ATOM     79  O   UNL     1       7.204  -5.434   6.615  1.00  0.00    -0.269 OA
BRANCH  77  80
ATOM     80  C   UNL     1       9.104  -4.407   5.706  1.00  0.00     0.042 A 
ATOM     81  C   UNL     1       9.675  -3.135   5.853  1.00  0.00     0.016 A 
ATOM     82  C   UNL     1       9.885  -5.542   5.447  1.00  0.00     0.042 A 
ATOM     83  C   UNL     1      11.052  -2.950   5.681  1.00  0.00     0.031 A 
ATOM     84  C   UNL     1      11.254  -5.322   5.287  1.00  0.00     0.066 A 
ATOM     85  C   UNL     1      11.847  -4.068   5.389  1.00  0.00     0.089 A 
ATOM     86  N   UNL     1      12.296  -6.167   5.016  1.00  0.00    -0.342 N 
ATOM     87  N   UNL     1      13.200  -4.151   5.183  1.00  0.00    -0.233 NA
ATOM     88  C   UNL     1      13.453  -5.425   4.965  1.00  0.00     0.110 A 
ATOM     89  H   UNL     1      12.229  -7.139   4.881  1.00  0.00     0.168 HD
BRANCH  88  90
ATOM     90  C   UNL     1      14.805  -6.028   4.739  1.00  0.00     0.055 C 
ATOM     91  C   UNL     1      15.213  -6.900   5.936  1.00  0.00     0.011 C 
ATOM     92  C   UNL     1      14.870  -6.815   3.422  1.00  0.00     0.011 C 
ATOM     93  C   UNL     1      16.577  -7.549   5.722  1.00  0.00     0.001 C 
ATOM     94  C   UNL     1      16.237  -7.466   3.224  1.00  0.00     0.001 C 
ATOM     95  C   UNL     1      16.622  -8.337   4.417  1.00  0.00     0.000 C 
ENDBRANCH  88  90
ENDBRANCH  77  80
ENDBRANCH  75  76
ENDBRANCH  74  75
ENDBRANCH  73  74
ENDBRANCH  72  73
ENDBRANCH   1  72
TORSDOF 17
