REMARK SMILES CC(C)(C)c1cc(NC(=O)CSC[C@H]([NH3+])C(=O)NCCCCCCNC(=O)c2ccc(-c3c4nc(c(-c5cc(S(=O)(=O)[O-])ccc5F)c5ccc([nH]5)c(-c5cc(S(=O)(=O)[O-])ccc5F)c5nc(c(-c6cc(S(=O)(=O)[O-])ccc6F)c6ccc3[nH]6)C=C5)C=C4)cc2)on1
REMARK SMILES IDX 20 1 19 2 18 3 16 4 17 5 14 7 13 8 12 9 11 10 9 11 8 12
REMARK SMILES IDX 10 14 7 15 5 16 6 17 92 18 91 19 2 20 1 21 3 22 4 23 15 24
REMARK SMILES IDX 21 28 22 29 23 30 24 31 25 32 26 33 27 35 28 36 29 37 90 38
REMARK SMILES IDX 30 39 89 40 31 41 32 42 33 43 83 44 34 45 88 46 82 47 84 48
REMARK SMILES IDX 35 49 87 50 81 51 80 52 36 54 68 55 48 56 67 57 49 58 52 59
REMARK SMILES IDX 66 60 85 61 50 62 51 63 65 65 86 66 53 67 37 68 38 69 46 70
REMARK SMILES IDX 39 71 45 72 47 73 44 74 40 75 41 76 42 77 43 78 69 79 70 80
REMARK SMILES IDX 78 81 71 82 77 83 79 84 76 85 72 86 73 87 74 88 75 89 54 90
REMARK SMILES IDX 55 91 63 92 56 93 62 94 64 95 61 96 57 97 58 98 59 99 60 100
REMARK H PARENT 18 6 8 13 15 25 15 26 15 27 25 34 84 53 52 64
REMARK Flexibility Score: inf
ROOT
ATOM      1  C   UNL     1       6.959  -3.382  -4.999  1.00  0.00     0.021 C 
ENDROOT
BRANCH   1   2
ATOM      2  C   UNL     1       6.139  -4.474  -5.676  1.00  0.00     0.116 C 
BRANCH   2   3
ATOM      3  N   UNL     1       6.674  -5.779  -5.345  1.00  0.00    -0.351 N 
ATOM      4  C   UNL     1       6.115  -6.861  -4.742  1.00  0.00     0.279 C 
ATOM      5  O   UNL     1       6.844  -7.825  -4.493  1.00  0.00    -0.268 OA
ATOM      6  H   UNL     1       7.615  -5.905  -5.606  1.00  0.00     0.163 HD
BRANCH   4   7
ATOM      7  C   UNL     1       4.618  -6.901  -4.407  1.00  0.00     0.280 C 
BRANCH   7   8
ATOM      8  C   UNL     1       3.766  -6.836  -5.687  1.00  0.00     0.145 C 
BRANCH   8   9
ATOM      9  S   UNL     1       3.477  -8.450  -6.500  1.00  0.00    -0.145 SA
BRANCH   9  10
ATOM     10  C   UNL     1       5.082  -8.822  -7.293  1.00  0.00     0.170 C 
BRANCH  10  11
ATOM     11  C   UNL     1       5.656  -7.715  -8.164  1.00  0.00     0.236 C 
ATOM     12  N   UNL     1       5.086  -7.296  -9.327  1.00  0.00    -0.294 N 
ATOM     13  H   UNL     1       5.533  -6.539  -9.771  1.00  0.00     0.173 HD
ATOM     14  O   UNL     1       6.719  -7.162  -7.853  1.00  0.00    -0.274 OA
BRANCH  12  15
ATOM     15  C   UNL     1       3.979  -7.783  -9.960  1.00  0.00     0.231 A 
ATOM     16  C   UNL     1       2.250  -8.213 -11.263  1.00  0.00     0.091 A 
ATOM     17  C   UNL     1       3.343  -7.327 -11.087  1.00  0.00     0.097 A 
ATOM     18  N   UNL     1       2.257  -9.161 -10.315  1.00  0.00    -0.082 NA
ATOM     19  O   UNL     1       3.345  -8.893  -9.517  1.00  0.00    -0.338 OA
BRANCH  16  20
ATOM     20  C   UNL     1       1.172  -8.223 -12.325  1.00  0.00     0.008 C 
ATOM     21  C   UNL     1       1.373  -7.098 -13.360  1.00  0.00     0.018 C 
ATOM     22  C   UNL     1      -0.214  -8.030 -11.677  1.00  0.00     0.018 C 
ATOM     23  C   UNL     1       1.198  -9.572 -13.072  1.00  0.00     0.018 C 
ENDBRANCH  16  20
ENDBRANCH  12  15
ENDBRANCH  10  11
ENDBRANCH   9  10
ENDBRANCH   8   9
ENDBRANCH   7   8
BRANCH   7  24
ATOM     24  N   UNL     1       4.273  -5.851  -3.416  1.00  0.00    -0.347 N 
ATOM     25  H   UNL     1       4.475  -4.932  -3.810  1.00  0.00     0.345 HD
ATOM     26  H   UNL     1       4.827  -5.987  -2.570  1.00  0.00     0.345 HD
ATOM     27  H   UNL     1       3.281  -5.912  -3.186  1.00  0.00     0.345 HD
ENDBRANCH   7  24
ENDBRANCH   4   7
ENDBRANCH   2   3
ENDBRANCH   1   2
BRANCH   1  28
ATOM     28  C   UNL     1       8.384  -3.258  -5.552  1.00  0.00     0.002 C 
BRANCH  28  29
ATOM     29  C   UNL     1       8.466  -2.950  -7.051  1.00  0.00     0.002 C 
BRANCH  29  30
ATOM     30  C   UNL     1       7.689  -1.708  -7.494  1.00  0.00     0.021 C 
BRANCH  30  31
ATOM     31  C   UNL     1       8.075  -0.429  -6.759  1.00  0.00     0.116 C 
BRANCH  31  32
ATOM     32  N   UNL     1       9.468  -0.076  -6.978  1.00  0.00    -0.352 N 
ATOM     33  C   UNL     1      10.000   1.112  -7.412  1.00  0.00     0.251 C 
ATOM     34  H   UNL     1      10.121  -0.788  -6.790  1.00  0.00     0.163 HD
ATOM     35  O   UNL     1      11.181   1.167  -7.746  1.00  0.00    -0.269 OA
BRANCH  33  36
ATOM     36  C   UNL     1       9.139   2.310  -7.500  1.00  0.00     0.039 A 
ATOM     37  C   UNL     1       9.217   3.118  -8.636  1.00  0.00     0.014 A 
ATOM     38  C   UNL     1       8.250   2.629  -6.469  1.00  0.00     0.014 A 
ATOM     39  C   UNL     1       8.360   4.212  -8.764  1.00  0.00     0.010 A 
ATOM     40  C   UNL     1       7.342   3.671  -6.636  1.00  0.00     0.010 A 
ATOM     41  C   UNL     1       7.391   4.477  -7.783  1.00  0.00    -0.014 A 
BRANCH  41  42
ATOM     42  C   UNL     1       6.422   5.592  -7.943  1.00  0.00     0.031 A 
ATOM     43  C   UNL     1       6.409   6.731  -6.962  1.00  0.00     0.074 A 
ATOM     44  C   UNL     1       5.512   5.546  -8.936  1.00  0.00     0.049 A 
ATOM     45  N   UNL     1       5.605   7.762  -6.898  1.00  0.00    -0.248 NA
ATOM     46  C   UNL     1       7.414   6.685  -5.890  1.00  0.00     0.031 C 
ATOM     47  C   UNL     1       5.394   4.468  -9.920  1.00  0.00     0.029 A 
ATOM     48  N   UNL     1       4.509   6.418  -9.278  1.00  0.00    -0.354 N 
ATOM     49  C   UNL     1       5.997   8.479  -5.772  1.00  0.00     0.074 A 
ATOM     50  C   UNL     1       7.062   7.723  -5.148  1.00  0.00     0.031 C 
ATOM     51  C   UNL     1       4.394   4.755 -10.768  1.00  0.00     0.029 A 
ATOM     52  C   UNL     1       3.766   6.008 -10.360  1.00  0.00     0.049 A 
ATOM     53  H   UNL     1       4.338   7.258  -8.794  1.00  0.00     0.167 HD
ATOM     54  C   UNL     1       5.526   9.667  -5.316  1.00  0.00     0.034 A 
ATOM     55  C   UNL     1       2.689   6.565 -10.948  1.00  0.00     0.034 A 
ATOM     56  C   UNL     1       4.461  10.403  -5.957  1.00  0.00     0.049 A 
ATOM     57  C   UNL     1       2.162   7.870 -10.413  1.00  0.00     0.074 A 
ATOM     58  C   UNL     1       3.950  11.645  -5.624  1.00  0.00     0.029 A 
ATOM     59  N   UNL     1       3.728   9.955  -7.050  1.00  0.00    -0.354 N 
ATOM     60  N   UNL     1       2.585   8.574  -9.388  1.00  0.00    -0.248 NA
ATOM     61  C   UNL     1       1.021   8.463 -11.121  1.00  0.00     0.031 C 
ATOM     62  C   UNL     1       2.855  11.906  -6.454  1.00  0.00     0.029 A 
ATOM     63  C   UNL     1       2.739  10.874  -7.373  1.00  0.00     0.049 A 
ATOM     64  H   UNL     1       3.886   9.108  -7.526  1.00  0.00     0.167 HD
ATOM     65  C   UNL     1       1.777   9.706  -9.343  1.00  0.00     0.074 A 
ATOM     66  C   UNL     1       0.852   9.596 -10.454  1.00  0.00     0.031 C 
ATOM     67  C   UNL     1       1.804  10.745  -8.469  1.00  0.00     0.034 A 
BRANCH  54  68
ATOM     68  C   UNL     1       6.137  10.212  -4.044  1.00  0.00     0.023 A 
ATOM     69  C   UNL     1       7.512  10.492  -3.941  1.00  0.00     0.031 A 
ATOM     70  C   UNL     1       5.346  10.403  -2.897  1.00  0.00     0.131 A 
ATOM     71  C   UNL     1       8.068  10.839  -2.701  1.00  0.00     0.055 A 
ATOM     72  C   UNL     1       5.890  10.848  -1.690  1.00  0.00     0.041 A 
ATOM     73  F   UNL     1       4.031  10.135  -2.920  1.00  0.00    -0.206 F 
ATOM     74  C   UNL     1       7.263  11.047  -1.580  1.00  0.00     0.022 A 
BRANCH  71  75
ATOM     75  S   UNL     1       9.875  10.822  -2.530  1.00  0.00     0.124 S 
ATOM     76  O   UNL     1      10.198   9.463  -2.962  1.00  0.00    -0.237 OA
ATOM     77  O   UNL     1      10.287  11.893  -3.429  1.00  0.00    -0.237 OA
ATOM     78  O   UNL     1      10.087  11.081  -1.108  1.00  0.00    -0.744 OA
ENDBRANCH  71  75
ENDBRANCH  54  68
BRANCH  55  79
ATOM     79  C   UNL     1       2.031   5.878 -12.096  1.00  0.00     0.023 A 
ATOM     80  C   UNL     1       2.042   6.434 -13.385  1.00  0.00     0.031 A 
ATOM     81  C   UNL     1       1.382   4.643 -11.916  1.00  0.00     0.131 A 
ATOM     82  C   UNL     1       1.391   5.770 -14.437  1.00  0.00     0.055 A 
ATOM     83  C   UNL     1       0.780   3.962 -12.975  1.00  0.00     0.041 A 
ATOM     84  F   UNL     1       1.349   4.064 -10.705  1.00  0.00    -0.206 F 
ATOM     85  C   UNL     1       0.776   4.531 -14.245  1.00  0.00     0.022 A 
BRANCH  82  86
ATOM     86  S   UNL     1       1.312   6.576 -16.061  1.00  0.00     0.124 S 
ATOM     87  O   UNL     1       0.593   7.805 -15.747  1.00  0.00    -0.237 OA
ATOM     88  O   UNL     1       2.725   6.724 -16.395  1.00  0.00    -0.237 OA
ATOM     89  O   UNL     1       0.579   5.614 -16.881  1.00  0.00    -0.744 OA
ENDBRANCH  82  86
ENDBRANCH  55  79
BRANCH  67  90
ATOM     90  C   UNL     1       0.821  11.870  -8.704  1.00  0.00     0.023 A 
ATOM     91  C   UNL     1      -0.568  11.680  -8.592  1.00  0.00     0.031 A 
ATOM     92  C   UNL     1       1.285  13.151  -9.052  1.00  0.00     0.131 A 
ATOM     93  C   UNL     1      -1.444  12.738  -8.882  1.00  0.00     0.055 A 
ATOM     94  C   UNL     1       0.412  14.217  -9.270  1.00  0.00     0.041 A 
ATOM     95  F   UNL     1       2.600  13.391  -9.181  1.00  0.00    -0.206 F 
ATOM     96  C   UNL     1      -0.962  14.011  -9.199  1.00  0.00     0.022 A 
BRANCH  93  97
ATOM     97  S   UNL     1      -3.225  12.402  -8.943  1.00  0.00     0.124 S 
ATOM     98  O   UNL     1      -3.300  11.354  -9.955  1.00  0.00    -0.237 OA
ATOM     99  O   UNL     1      -3.513  11.989  -7.573  1.00  0.00    -0.237 OA
ATOM    100  O   UNL     1      -3.803  13.686  -9.337  1.00  0.00    -0.744 OA
ENDBRANCH  93  97
ENDBRANCH  67  90
ENDBRANCH  41  42
ENDBRANCH  33  36
ENDBRANCH  31  32
ENDBRANCH  30  31
ENDBRANCH  29  30
ENDBRANCH  28  29
ENDBRANCH   1  28
TORSDOF 23
