REMARK SMILES O=C(NCCCCCCNC(=O)c1ccc(N2C(=O)[C@@H]3N=NC(c4ccccc4)=C3[C@H]2c2cccc(Br)c2)cc1)c1ccc(-c2c3nc(c(-c4cc(S(=O)(=O)[O-])ccc4F)c4ccc([nH]4)c(-c4cc(S(=O)(=O)[O-])ccc4F)c4nc(c(-c5cc(S(=O)(=O)[O-])ccc5F)c5ccc2[nH]5)C=C4)C=C3)cc1
REMARK SMILES IDX 6 1 5 2 4 3 3 4 1 5 2 6 41 8 42 9 103 10 43 11 102 12 44 13
REMARK SMILES IDX 45 14 46 15 96 16 47 17 101 18 95 19 97 20 48 21 100 22
REMARK SMILES IDX 94 23 93 24 49 26 81 27 61 28 80 29 62 30 65 31 79 32 98 33
REMARK SMILES IDX 63 34 64 35 78 37 99 38 66 39 50 40 51 41 59 42 52 43 58 44
REMARK SMILES IDX 60 45 57 46 53 47 54 48 55 49 56 50 82 51 83 52 91 53 84 54
REMARK SMILES IDX 90 55 92 56 89 57 85 58 86 59 87 60 88 61 67 62 68 63 76 64
REMARK SMILES IDX 69 65 75 66 77 67 74 68 70 69 71 70 72 71 73 72 7 73 8 74
REMARK SMILES IDX 9 75 10 76 11 77 12 79 13 80 14 81 40 82 15 83 39 84 16 85
REMARK SMILES IDX 17 86 18 87 31 88 20 89 19 90 30 91 21 92 23 93 22 94 32 95
REMARK SMILES IDX 33 96 38 97 34 98 36 99 35 100 37 101 24 102 25 103 29 104
REMARK SMILES IDX 26 105 28 106 27 107
REMARK H PARENT 3 7 97 25 65 36 10 78
REMARK Flexibility Score: inf
ROOT
ATOM      1  C   UNL     1       4.370  -2.081   2.783  1.00  0.00     0.002 C 
ENDROOT
BRANCH   1   2
ATOM      2  C   UNL     1       4.862  -0.815   2.071  1.00  0.00     0.021 C 
BRANCH   2   3
ATOM      3  C   UNL     1       4.704  -0.814   0.552  1.00  0.00     0.116 C 
BRANCH   3   4
ATOM      4  N   UNL     1       3.341  -0.932   0.078  1.00  0.00    -0.352 N 
ATOM      5  O   UNL     1       1.302  -0.498  -0.654  1.00  0.00    -0.269 OA
ATOM      6  C   UNL     1       2.296  -0.061  -0.066  1.00  0.00     0.251 C 
ATOM      7  H   UNL     1       3.115  -1.848  -0.204  1.00  0.00     0.163 HD
BRANCH   6   8
ATOM      8  C   UNL     1       2.255   1.323   0.482  1.00  0.00     0.039 A 
ATOM      9  C   UNL     1       3.363   2.100   0.822  1.00  0.00     0.014 A 
ATOM     10  C   UNL     1       0.970   1.876   0.649  1.00  0.00     0.014 A 
ATOM     11  C   UNL     1       3.191   3.368   1.380  1.00  0.00     0.010 A 
ATOM     12  C   UNL     1       0.794   3.144   1.194  1.00  0.00     0.010 A 
ATOM     13  C   UNL     1       1.907   3.885   1.581  1.00  0.00    -0.014 A 
BRANCH  13  14
ATOM     14  C   UNL     1       1.773   5.283   2.000  1.00  0.00     0.031 A 
ATOM     15  C   UNL     1       2.244   6.276   0.992  1.00  0.00     0.074 A 
ATOM     16  C   UNL     1       1.119   5.694   3.106  1.00  0.00     0.049 A 
ATOM     17  N   UNL     1       3.192   7.147   1.107  1.00  0.00    -0.248 NA
ATOM     18  C   UNL     1       1.657   6.215  -0.357  1.00  0.00     0.031 C 
ATOM     19  C   UNL     1       0.351   4.874   4.043  1.00  0.00     0.029 A 
ATOM     20  N   UNL     1       0.911   6.966   3.566  1.00  0.00    -0.354 N 
ATOM     21  C   UNL     1       3.181   7.892  -0.071  1.00  0.00     0.074 A 
ATOM     22  C   UNL     1       2.344   7.167  -0.989  1.00  0.00     0.031 C 
ATOM     23  C   UNL     1      -0.411   5.678   4.818  1.00  0.00     0.029 A 
ATOM     24  C   UNL     1      -0.100   7.068   4.519  1.00  0.00     0.049 A 
ATOM     25  H   UNL     1       1.429   7.741   3.251  1.00  0.00     0.167 HD
ATOM     26  C   UNL     1       3.689   9.155  -0.124  1.00  0.00     0.034 A 
ATOM     27  C   UNL     1      -0.691   8.203   4.986  1.00  0.00     0.034 A 
ATOM     28  C   UNL     1       4.573   9.409   0.990  1.00  0.00     0.049 A 
ATOM     29  C   UNL     1       0.245   9.325   4.732  1.00  0.00     0.074 A 
ATOM     30  C   UNL     1       5.724   8.815   1.471  1.00  0.00     0.029 A 
ATOM     31  N   UNL     1       4.124  10.213   2.014  1.00  0.00    -0.354 N 
ATOM     32  N   UNL     1       1.399   9.448   5.326  1.00  0.00    -0.248 NA
ATOM     33  C   UNL     1       0.106  10.072   3.491  1.00  0.00     0.031 C 
ATOM     34  C   UNL     1       5.603   8.879   2.890  1.00  0.00     0.029 A 
ATOM     35  C   UNL     1       4.428   9.571   3.188  1.00  0.00     0.049 A 
ATOM     36  H   UNL     1       3.671  11.082   1.921  1.00  0.00     0.167 HD
ATOM     37  C   UNL     1       2.260   9.906   4.341  1.00  0.00     0.074 A 
ATOM     38  C   UNL     1       1.388  10.373   3.266  1.00  0.00     0.031 C 
ATOM     39  C   UNL     1       3.592   9.608   4.371  1.00  0.00     0.034 A 
BRANCH  26  40
ATOM     40  C   UNL     1       3.123  10.284  -0.966  1.00  0.00     0.023 A 
ATOM     41  C   UNL     1       3.751  11.541  -0.858  1.00  0.00     0.031 A 
ATOM     42  C   UNL     1       1.861  10.286  -1.600  1.00  0.00     0.131 A 
ATOM     43  C   UNL     1       3.083  12.720  -1.231  1.00  0.00     0.055 A 
ATOM     44  C   UNL     1       1.233  11.456  -2.041  1.00  0.00     0.041 A 
ATOM     45  F   UNL     1       1.120   9.183  -1.748  1.00  0.00    -0.206 F 
ATOM     46  C   UNL     1       1.825  12.687  -1.821  1.00  0.00     0.022 A 
BRANCH  43  47
ATOM     47  S   UNL     1       3.805  14.306  -0.732  1.00  0.00     0.124 S 
ATOM     48  O   UNL     1       3.974  14.107   0.704  1.00  0.00    -0.237 OA
ATOM     49  O   UNL     1       5.027  14.342  -1.527  1.00  0.00    -0.237 OA
ATOM     50  O   UNL     1       2.783  15.277  -1.112  1.00  0.00    -0.744 OA
ENDBRANCH  43  47
ENDBRANCH  26  40
BRANCH  27  51
ATOM     51  C   UNL     1      -2.122   8.401   5.358  1.00  0.00     0.023 A 
ATOM     52  C   UNL     1      -2.575   9.482   6.147  1.00  0.00     0.031 A 
ATOM     53  C   UNL     1      -3.118   7.630   4.717  1.00  0.00     0.131 A 
ATOM     54  C   UNL     1      -3.962   9.745   6.271  1.00  0.00     0.055 A 
ATOM     55  C   UNL     1      -4.484   7.889   4.849  1.00  0.00     0.041 A 
ATOM     56  F   UNL     1      -2.795   6.645   3.864  1.00  0.00    -0.206 F 
ATOM     57  C   UNL     1      -4.912   8.955   5.621  1.00  0.00     0.022 A 
BRANCH  54  58
ATOM     58  S   UNL     1      -4.558  11.192   7.209  1.00  0.00     0.124 S 
ATOM     59  O   UNL     1      -4.249  10.820   8.585  1.00  0.00    -0.237 OA
ATOM     60  O   UNL     1      -3.775  12.282   6.639  1.00  0.00    -0.237 OA
ATOM     61  O   UNL     1      -5.987  11.239   6.893  1.00  0.00    -0.744 OA
ENDBRANCH  54  58
ENDBRANCH  27  51
BRANCH  39  62
ATOM     62  C   UNL     1       4.191   9.064   5.650  1.00  0.00     0.023 A 
ATOM     63  C   UNL     1       3.748   7.903   6.323  1.00  0.00     0.031 A 
ATOM     64  C   UNL     1       5.350   9.697   6.137  1.00  0.00     0.131 A 
ATOM     65  C   UNL     1       4.454   7.427   7.446  1.00  0.00     0.055 A 
ATOM     66  C   UNL     1       6.057   9.212   7.235  1.00  0.00     0.041 A 
ATOM     67  F   UNL     1       5.839  10.789   5.524  1.00  0.00    -0.206 F 
ATOM     68  C   UNL     1       5.607   8.077   7.898  1.00  0.00     0.022 A 
BRANCH  65  69
ATOM     69  S   UNL     1       3.879   5.954   8.350  1.00  0.00     0.124 S 
ATOM     70  O   UNL     1       2.453   6.197   8.531  1.00  0.00    -0.237 OA
ATOM     71  O   UNL     1       4.235   4.867   7.442  1.00  0.00    -0.237 OA
ATOM     72  O   UNL     1       4.663   5.988   9.587  1.00  0.00    -0.744 OA
ENDBRANCH  65  69
ENDBRANCH  39  62
ENDBRANCH  13  14
ENDBRANCH   6   8
ENDBRANCH   3   4
ENDBRANCH   2   3
ENDBRANCH   1   2
BRANCH   1  73
ATOM     73  C   UNL     1       4.943  -3.410   2.280  1.00  0.00     0.002 C 
BRANCH  73  74
ATOM     74  C   UNL     1       6.473  -3.511   2.223  1.00  0.00     0.021 C 
BRANCH  74  75
ATOM     75  C   UNL     1       7.205  -3.320   3.553  1.00  0.00     0.116 C 
BRANCH  75  76
ATOM     76  N   UNL     1       6.970  -4.418   4.475  1.00  0.00    -0.352 N 
ATOM     77  C   UNL     1       7.874  -5.197   5.152  1.00  0.00     0.251 C 
ATOM     78  H   UNL     1       6.024  -4.635   4.638  1.00  0.00     0.163 HD
ATOM     79  O   UNL     1       7.493  -6.193   5.764  1.00  0.00    -0.269 OA
BRANCH  77  80
ATOM     80  C   UNL     1       9.324  -4.891   5.111  1.00  0.00     0.039 A 
ATOM     81  C   UNL     1      10.185  -5.917   4.725  1.00  0.00     0.016 A 
ATOM     82  C   UNL     1       9.853  -3.646   5.481  1.00  0.00     0.016 A 
ATOM     83  C   UNL     1      11.555  -5.671   4.632  1.00  0.00     0.027 A 
ATOM     84  C   UNL     1      11.241  -3.404   5.401  1.00  0.00     0.027 A 
ATOM     85  C   UNL     1      12.097  -4.408   4.946  1.00  0.00     0.045 A 
BRANCH  85  86
ATOM     86  N   UNL     1      13.488  -4.160   4.695  1.00  0.00    -0.299 N 
ATOM     87  C   UNL     1      13.985  -4.706   3.465  1.00  0.00     0.259 C 
ATOM     88  C   UNL     1      14.482  -4.346   5.783  1.00  0.00     0.152 C 
ATOM     89  C   UNL     1      15.304  -5.358   3.741  1.00  0.00     0.248 C 
ATOM     90  O   UNL     1      13.407  -4.711   2.380  1.00  0.00    -0.271 OA
ATOM     91  C   UNL     1      15.147  -5.531   5.201  1.00  0.00     0.021 C 
ATOM     92  N   UNL     1      15.454  -6.750   3.289  1.00  0.00    -0.170 NA
ATOM     93  C   UNL     1      15.441  -6.799   5.470  1.00  0.00     0.097 C 
ATOM     94  N   UNL     1      15.663  -7.494   4.296  1.00  0.00    -0.154 NA
BRANCH  88  95
ATOM     95  C   UNL     1      15.505  -3.201   5.959  1.00  0.00    -0.020 A 
ATOM     96  C   UNL     1      16.902  -3.436   5.845  1.00  0.00     0.006 A 
ATOM     97  C   UNL     1      15.112  -1.903   6.320  1.00  0.00     0.022 A 
ATOM     98  C   UNL     1      17.854  -2.434   6.036  1.00  0.00     0.002 A 
ATOM     99  C   UNL     1      16.078  -0.905   6.545  1.00  0.00     0.018 A 
ATOM    100  C   UNL     1      17.442  -1.162   6.396  1.00  0.00     0.016 A 
ATOM    101  Br  UNL     1      15.544   0.825   7.095  1.00  0.00    -0.051 Br
ENDBRANCH  88  95
BRANCH  93 102
ATOM    102  C   UNL     1      15.388  -7.528   6.734  1.00  0.00     0.002 A 
ATOM    103  C   UNL     1      16.462  -7.466   7.633  1.00  0.00     0.010 A 
ATOM    104  C   UNL     1      14.364  -8.457   6.953  1.00  0.00     0.010 A 
ATOM    105  C   UNL     1      16.550  -8.383   8.685  1.00  0.00     0.001 A 
ATOM    106  C   UNL     1      14.452  -9.368   8.007  1.00  0.00     0.001 A 
ATOM    107  C   UNL     1      15.557  -9.348   8.856  1.00  0.00     0.000 A 
ENDBRANCH  93 102
ENDBRANCH  85  86
ENDBRANCH  77  80
ENDBRANCH  75  76
ENDBRANCH  74  75
ENDBRANCH  73  74
ENDBRANCH   1  73
TORSDOF 19
