REMARK SMILES CC(C)CCOc1ccc(C(=O)N2CCC[C@H](C(=O)NCCCCCCNC(=O)c3ccc(-c4c5nc(c(-c6cc(S(=O)(=O)[O-])ccc6F)c6ccc([nH]6)c(-c6cc(S(=O)(=O)[O-])ccc6F)c6nc(c(-c7cc(S(=O)(=O)[O-])ccc7F)c7ccc4[nH]7)C=C6)C=C5)cc3)C2)cc1
REMARK SMILES IDX 22 1 21 2 20 3 18 4 19 5 17 7 13 8 14 9 93 10 15 11 16 12
REMARK SMILES IDX 11 13 12 14 10 15 7 16 8 17 95 18 9 19 94 20 6 21 5 22 4 23
REMARK SMILES IDX 2 24 1 25 3 26 23 27 24 28 25 29 26 30 27 31 28 32 29 34
REMARK SMILES IDX 30 35 31 36 92 37 32 38 91 39 33 40 34 41 35 42 85 43 36 44
REMARK SMILES IDX 90 45 84 46 86 47 37 48 89 49 83 50 82 51 38 53 70 54 50 55
REMARK SMILES IDX 69 56 51 57 54 58 68 59 87 60 52 61 53 62 67 64 88 65 55 66
REMARK SMILES IDX 39 67 40 68 48 69 41 70 47 71 49 72 46 73 42 74 43 75 44 76
REMARK SMILES IDX 45 77 71 78 72 79 80 80 73 81 79 82 81 83 78 84 74 85 75 86
REMARK SMILES IDX 76 87 77 88 56 89 57 90 65 91 58 92 64 93 66 94 63 95 59 96
REMARK SMILES IDX 60 97 61 98 62 99
REMARK H PARENT 20 6 27 33 86 52 54 63
REMARK Flexibility Score: inf
ROOT
ATOM      1  C   UNL     1       8.289   5.500   0.179  1.00  0.00     0.021 C 
ENDROOT
BRANCH   1   2
ATOM      2  C   UNL     1       7.019   5.276  -0.635  1.00  0.00     0.116 C 
BRANCH   2   3
ATOM      3  N   UNL     1       7.167   5.649  -2.023  1.00  0.00    -0.356 N 
ATOM      4  C   UNL     1       6.907   4.957  -3.158  1.00  0.00     0.224 C 
ATOM      5  O   UNL     1       6.981   5.588  -4.220  1.00  0.00    -0.275 OA
ATOM      6  H   UNL     1       7.515   6.559  -2.168  1.00  0.00     0.163 HD
BRANCH   4   7
ATOM      7  C   UNL     1       6.525   3.475  -3.198  1.00  0.00     0.098 C 
ATOM      8  N   UNL     1       5.136   2.710  -1.256  1.00  0.00    -0.338 N 
ATOM      9  C   UNL     1       6.091   1.657  -0.911  1.00  0.00     0.120 C 
ATOM     10  C   UNL     1       5.139   3.178  -2.634  1.00  0.00     0.133 C 
ATOM     11  C   UNL     1       7.520   1.944  -1.362  1.00  0.00     0.022 C 
ATOM     12  C   UNL     1       7.616   2.485  -2.784  1.00  0.00     0.017 C 
BRANCH   8  13
ATOM     13  C   UNL     1       4.310   3.211  -0.245  1.00  0.00     0.253 C 
ATOM     14  O   UNL     1       4.720   3.281   0.915  1.00  0.00    -0.269 OA
BRANCH  13  15
ATOM     15  C   UNL     1       2.868   3.548  -0.504  1.00  0.00     0.040 A 
ATOM     16  C   UNL     1       0.081   3.468  -0.586  1.00  0.00     0.119 A 
ATOM     17  C   UNL     1       0.710   3.921   0.567  1.00  0.00     0.047 A 
ATOM     18  C   UNL     1       0.802   3.259  -1.754  1.00  0.00     0.047 A 
ATOM     19  C   UNL     1       2.105   3.972   0.602  1.00  0.00     0.017 A 
ATOM     20  C   UNL     1       2.195   3.241  -1.694  1.00  0.00     0.017 A 
BRANCH  16  21
ATOM     21  O   UNL     1      -1.232   3.087  -0.572  1.00  0.00    -0.494 OA
BRANCH  21  22
ATOM     22  C   UNL     1      -1.373   1.771   0.019  1.00  0.00     0.230 C 
BRANCH  22  23
ATOM     23  C   UNL     1      -1.063   0.628  -0.971  1.00  0.00     0.044 C 
BRANCH  23  24
ATOM     24  C   UNL     1       0.388   0.090  -0.922  1.00  0.00    -0.014 C 
ATOM     25  C   UNL     1       0.651  -0.795   0.295  1.00  0.00     0.007 C 
ATOM     26  C   UNL     1       0.724  -0.669  -2.209  1.00  0.00     0.007 C 
ENDBRANCH  23  24
ENDBRANCH  22  23
ENDBRANCH  21  22
ENDBRANCH  16  21
ENDBRANCH  13  15
ENDBRANCH   8  13
ENDBRANCH   4   7
ENDBRANCH   2   3
ENDBRANCH   1   2
BRANCH   1  27
ATOM     27  C   UNL     1       8.279   6.796   0.989  1.00  0.00     0.002 C 
BRANCH  27  28
ATOM     28  C   UNL     1       7.127   6.931   1.994  1.00  0.00     0.002 C 
BRANCH  28  29
ATOM     29  C   UNL     1       6.965   5.773   2.984  1.00  0.00     0.021 C 
BRANCH  29  30
ATOM     30  C   UNL     1       8.199   5.465   3.829  1.00  0.00     0.116 C 
BRANCH  30  31
ATOM     31  N   UNL     1       8.684   6.641   4.533  1.00  0.00    -0.352 N 
ATOM     32  C   UNL     1       8.866   6.858   5.874  1.00  0.00     0.251 C 
ATOM     33  H   UNL     1       8.921   7.402   3.955  1.00  0.00     0.163 HD
ATOM     34  O   UNL     1       9.065   8.001   6.276  1.00  0.00    -0.269 OA
BRANCH  32  35
ATOM     35  C   UNL     1       8.814   5.731   6.831  1.00  0.00     0.039 A 
ATOM     36  C   UNL     1       8.173   5.922   8.059  1.00  0.00     0.014 A 
ATOM     37  C   UNL     1       9.431   4.510   6.546  1.00  0.00     0.014 A 
ATOM     38  C   UNL     1       8.110   4.873   8.979  1.00  0.00     0.010 A 
ATOM     39  C   UNL     1       9.308   3.444   7.435  1.00  0.00     0.010 A 
ATOM     40  C   UNL     1       8.654   3.617   8.664  1.00  0.00    -0.014 A 
BRANCH  40  41
ATOM     41  C   UNL     1       8.552   2.482   9.617  1.00  0.00     0.031 A 
ATOM     42  C   UNL     1       9.794   1.899  10.235  1.00  0.00     0.074 A 
ATOM     43  C   UNL     1       7.344   1.950   9.888  1.00  0.00     0.049 A 
ATOM     44  N   UNL     1       9.915   0.882  11.050  1.00  0.00    -0.248 NA
ATOM     45  C   UNL     1      11.072   2.525   9.864  1.00  0.00     0.031 C 
ATOM     46  C   UNL     1       6.075   2.405   9.315  1.00  0.00     0.029 A 
ATOM     47  N   UNL     1       6.983   0.910  10.707  1.00  0.00    -0.354 N 
ATOM     48  C   UNL     1      11.280   0.741  11.282  1.00  0.00     0.074 A 
ATOM     49  C   UNL     1      11.946   1.736  10.470  1.00  0.00     0.031 C 
ATOM     50  C   UNL     1       5.075   1.667   9.821  1.00  0.00     0.029 A 
ATOM     51  C   UNL     1       5.630   0.659  10.718  1.00  0.00     0.049 A 
ATOM     52  H   UNL     1       7.631   0.392  11.237  1.00  0.00     0.167 HD
ATOM     53  C   UNL     1      11.914  -0.123  12.114  1.00  0.00     0.034 A 
ATOM     54  C   UNL     1       4.920  -0.283  11.370  1.00  0.00     0.034 A 
ATOM     55  C   UNL     1      11.230  -1.104  12.922  1.00  0.00     0.049 A 
ATOM     56  C   UNL     1       5.650  -1.246  12.271  1.00  0.00     0.074 A 
ATOM     57  C   UNL     1      11.765  -1.991  13.840  1.00  0.00     0.029 A 
ATOM     58  N   UNL     1       9.859  -1.334  12.905  1.00  0.00    -0.354 N 
ATOM     59  N   UNL     1       6.936  -1.331  12.523  1.00  0.00    -0.248 NA
ATOM     60  C   UNL     1       4.830  -2.233  12.984  1.00  0.00     0.031 C 
ATOM     61  C   UNL     1      10.731  -2.802  14.323  1.00  0.00     0.029 A 
ATOM     62  C   UNL     1       9.537  -2.371  13.768  1.00  0.00     0.049 A 
ATOM     63  H   UNL     1       9.211  -0.833  12.358  1.00  0.00     0.167 HD
ATOM     64  C   UNL     1       7.074  -2.364  13.445  1.00  0.00     0.074 A 
ATOM     65  C   UNL     1       5.739  -2.855  13.719  1.00  0.00     0.031 C 
ATOM     66  C   UNL     1       8.201  -2.862  14.016  1.00  0.00     0.034 A 
BRANCH  53  67
ATOM     67  C   UNL     1      13.423  -0.059  12.164  1.00  0.00     0.023 A 
ATOM     68  C   UNL     1      14.100   1.095  12.600  1.00  0.00     0.031 A 
ATOM     69  C   UNL     1      14.199  -1.154  11.745  1.00  0.00     0.131 A 
ATOM     70  C   UNL     1      15.501   1.155  12.532  1.00  0.00     0.055 A 
ATOM     71  C   UNL     1      15.595  -1.118  11.759  1.00  0.00     0.041 A 
ATOM     72  F   UNL     1      13.613  -2.276  11.298  1.00  0.00    -0.206 F 
ATOM     73  C   UNL     1      16.254   0.047  12.139  1.00  0.00     0.022 A 
BRANCH  70  74
ATOM     74  S   UNL     1      16.314   2.750  12.823  1.00  0.00     0.124 S 
ATOM     75  O   UNL     1      15.700   3.586  11.793  1.00  0.00    -0.237 OA
ATOM     76  O   UNL     1      15.937   3.051  14.199  1.00  0.00    -0.237 OA
ATOM     77  O   UNL     1      17.730   2.456  12.613  1.00  0.00    -0.744 OA
ENDBRANCH  70  74
ENDBRANCH  53  67
BRANCH  54  78
ATOM     78  C   UNL     1       3.442  -0.372  11.193  1.00  0.00     0.023 A 
ATOM     79  C   UNL     1       2.569  -0.146  12.269  1.00  0.00     0.031 A 
ATOM     80  C   UNL     1       2.881  -0.727   9.953  1.00  0.00     0.131 A 
ATOM     81  C   UNL     1       1.188  -0.324  12.099  1.00  0.00     0.055 A 
ATOM     82  C   UNL     1       1.502  -0.849   9.774  1.00  0.00     0.041 A 
ATOM     83  F   UNL     1       3.670  -0.951   8.889  1.00  0.00    -0.206 F 
ATOM     84  C   UNL     1       0.647  -0.660  10.855  1.00  0.00     0.022 A 
BRANCH  81  85
ATOM     85  S   UNL     1       0.110  -0.196  13.552  1.00  0.00     0.124 S 
ATOM     86  O   UNL     1       0.676  -1.210  14.433  1.00  0.00    -0.237 OA
ATOM     87  O   UNL     1       0.312   1.192  13.957  1.00  0.00    -0.237 OA
ATOM     88  O   UNL     1      -1.217  -0.500  13.019  1.00  0.00    -0.744 OA
ENDBRANCH  81  85
ENDBRANCH  54  78
BRANCH  66  89
ATOM     89  C   UNL     1       8.021  -3.977  15.019  1.00  0.00     0.023 A 
ATOM     90  C   UNL     1       7.536  -5.241  14.639  1.00  0.00     0.031 A 
ATOM     91  C   UNL     1       8.318  -3.763  16.377  1.00  0.00     0.131 A 
ATOM     92  C   UNL     1       7.301  -6.221  15.615  1.00  0.00     0.055 A 
ATOM     93  C   UNL     1       8.143  -4.763  17.334  1.00  0.00     0.041 A 
ATOM     94  F   UNL     1       8.781  -2.575  16.797  1.00  0.00    -0.206 F 
ATOM     95  C   UNL     1       7.618  -5.996  16.957  1.00  0.00     0.022 A 
BRANCH  92  96
ATOM     96  S   UNL     1       6.476  -7.759  15.122  1.00  0.00     0.124 S 
ATOM     97  O   UNL     1       5.224  -7.265  14.557  1.00  0.00    -0.237 OA
ATOM     98  O   UNL     1       7.423  -8.330  14.170  1.00  0.00    -0.237 OA
ATOM     99  O   UNL     1       6.341  -8.495  16.378  1.00  0.00    -0.744 OA
ENDBRANCH  92  96
ENDBRANCH  66  89
ENDBRANCH  40  41
ENDBRANCH  32  35
ENDBRANCH  30  31
ENDBRANCH  29  30
ENDBRANCH  28  29
ENDBRANCH  27  28
ENDBRANCH   1  27
TORSDOF 22
