REMARK SMILES CCSc1ccc(-c2cc(Cl)cc3c2O[C@H](C(F)(F)F)C(C(=O)NCCCCCCNC(=O)c2ccc(-c4c5nc(c(-c6cc(S(=O)(=O)[O-])ccc6F)c6ccc([nH]6)c(-c6cc(S(=O)(=O)[O-])ccc6F)c6nc(c(-c7cc(S(=O)(=O)[O-])ccc7F)c7ccc4[nH]7)C=C6)C=C5)cc2)=C3)cc1
REMARK SMILES IDX 27 1 26 2 25 3 24 4 22 5 23 6 21 8 8 9 9 10 14 11 10 12
REMARK SMILES IDX 13 13 15 14 11 15 12 16 97 17 16 18 7 19 4 20 5 21 99 22
REMARK SMILES IDX 6 23 98 24 3 25 2 26 1 27 17 28 18 29 19 30 20 31 28 32
REMARK SMILES IDX 29 33 30 34 31 35 32 36 33 38 34 39 35 40 96 41 36 42 95 43
REMARK SMILES IDX 37 44 38 45 39 46 89 47 40 48 94 49 88 50 90 51 41 52 93 53
REMARK SMILES IDX 87 54 86 55 42 57 74 58 54 59 73 60 55 61 58 62 72 63 91 64
REMARK SMILES IDX 56 65 57 66 71 68 92 69 59 70 43 71 44 72 52 73 45 74 51 75
REMARK SMILES IDX 53 76 50 77 46 78 47 79 48 80 49 81 75 82 76 83 84 84 77 85
REMARK SMILES IDX 83 86 85 87 82 88 78 89 79 90 80 91 81 92 60 93 61 94 69 95
REMARK SMILES IDX 62 96 68 97 70 98 67 99 63 100 64 101 65 102 66 103
REMARK H PARENT 24 7 31 37 90 56 58 67
REMARK Flexibility Score: inf
ROOT
ATOM      1  C   UNL     1      15.949  -3.241   1.109  1.00  0.00     0.002 C 
ENDROOT
BRANCH   1   2
ATOM      2  C   UNL     1      14.880  -2.645   2.041  1.00  0.00     0.021 C 
BRANCH   2   3
ATOM      3  C   UNL     1      14.035  -1.529   1.411  1.00  0.00     0.116 C 
BRANCH   3   4
ATOM      4  N   UNL     1      13.366  -2.032   0.229  1.00  0.00    -0.352 N 
ATOM      5  C   UNL     1      12.023  -2.109   0.075  1.00  0.00     0.251 C 
ATOM      6  O   UNL     1      11.501  -3.157  -0.288  1.00  0.00    -0.270 OA
ATOM      7  H   UNL     1      13.929  -2.340  -0.518  1.00  0.00     0.163 HD
BRANCH   5   8
ATOM      8  C   UNL     1      11.277  -0.822   0.198  1.00  0.00     0.067 C 
ATOM      9  C   UNL     1       7.620  -2.144  -0.930  1.00  0.00     0.026 A 
ATOM     10  C   UNL     1       7.824  -2.977  -2.062  1.00  0.00     0.033 A 
ATOM     11  C   UNL     1       8.703  -1.341  -0.542  1.00  0.00     0.135 A 
ATOM     12  C   UNL     1       8.951  -2.873  -2.873  1.00  0.00     0.042 A 
ATOM     13  C   UNL     1       9.781  -1.162  -1.443  1.00  0.00     0.019 A 
ATOM     14  O   UNL     1       8.809  -0.757   0.715  1.00  0.00    -0.475 OA
ATOM     15  Cl  UNL     1       9.134  -3.924  -4.219  1.00  0.00    -0.084 Cl
ATOM     16  C   UNL     1       9.900  -1.905  -2.614  1.00  0.00     0.032 A 
ATOM     17  C   UNL     1      10.912  -0.320  -0.998  1.00  0.00     0.025 C 
ATOM     18  C   UNL     1      10.199  -0.804   1.270  1.00  0.00     0.314 C 
BRANCH   9  19
ATOM     19  C   UNL     1       6.205  -2.045  -0.487  1.00  0.00    -0.015 A 
ATOM     20  C   UNL     1       3.380  -2.015  -0.889  1.00  0.00     0.007 A 
ATOM     21  C   UNL     1       4.045  -3.191  -0.524  1.00  0.00     0.015 A 
ATOM     22  C   UNL     1       4.120  -0.834  -0.942  1.00  0.00     0.015 A 
ATOM     23  C   UNL     1       5.431  -3.205  -0.303  1.00  0.00     0.010 A 
ATOM     24  C   UNL     1       5.511  -0.844  -0.721  1.00  0.00     0.010 A 
BRANCH  20  25
ATOM     25  S   UNL     1       1.668  -2.197  -1.384  1.00  0.00    -0.126 SA
BRANCH  25  26
ATOM     26  C   UNL     1       0.962  -0.519  -1.292  1.00  0.00     0.071 C 
ATOM     27  C   UNL     1       0.910  -0.006   0.134  1.00  0.00     0.016 C 
ENDBRANCH  25  26
ENDBRANCH  20  25
ENDBRANCH   9  19
BRANCH  18  28
ATOM     28  C   UNL     1      10.491   0.383   2.217  1.00  0.00     0.429 C 
ATOM     29  F   UNL     1       9.593   1.384   2.087  1.00  0.00    -0.167 F 
ATOM     30  F   UNL     1      10.487  -0.010   3.513  1.00  0.00    -0.167 F 
ATOM     31  F   UNL     1      11.715   0.933   1.994  1.00  0.00    -0.167 F 
ENDBRANCH  18  28
ENDBRANCH   5   8
ENDBRANCH   3   4
ENDBRANCH   2   3
ENDBRANCH   1   2
BRANCH   1  32
ATOM     32  C   UNL     1      16.895  -2.215   0.483  1.00  0.00     0.002 C 
BRANCH  32  33
ATOM     33  C   UNL     1      17.680  -1.382   1.496  1.00  0.00     0.021 C 
BRANCH  33  34
ATOM     34  C   UNL     1      18.486  -2.202   2.495  1.00  0.00     0.116 C 
BRANCH  34  35
ATOM     35  N   UNL     1      19.473  -3.045   1.841  1.00  0.00    -0.352 N 
ATOM     36  C   UNL     1      20.792  -3.229   2.157  1.00  0.00     0.251 C 
ATOM     37  H   UNL     1      19.147  -3.554   1.064  1.00  0.00     0.163 HD
ATOM     38  O   UNL     1      21.527  -3.827   1.367  1.00  0.00    -0.269 OA
BRANCH  36  39
ATOM     39  C   UNL     1      21.333  -2.692   3.423  1.00  0.00     0.039 A 
ATOM     40  C   UNL     1      22.595  -2.096   3.416  1.00  0.00     0.014 A 
ATOM     41  C   UNL     1      20.610  -2.790   4.616  1.00  0.00     0.014 A 
ATOM     42  C   UNL     1      23.117  -1.571   4.599  1.00  0.00     0.010 A 
ATOM     43  C   UNL     1      21.093  -2.188   5.774  1.00  0.00     0.010 A 
ATOM     44  C   UNL     1      22.363  -1.594   5.785  1.00  0.00    -0.014 A 
BRANCH  44  45
ATOM     45  C   UNL     1      22.918  -1.041   7.048  1.00  0.00     0.031 A 
ATOM     46  C   UNL     1      23.164  -1.950   8.223  1.00  0.00     0.074 A 
ATOM     47  C   UNL     1      23.184   0.276   7.142  1.00  0.00     0.049 A 
ATOM     48  N   UNL     1      23.632  -1.661   9.411  1.00  0.00    -0.248 NA
ATOM     49  C   UNL     1      22.807  -3.367   8.050  1.00  0.00     0.031 C 
ATOM     50  C   UNL     1      22.944   1.262   6.085  1.00  0.00     0.029 A 
ATOM     51  N   UNL     1      23.715   1.015   8.168  1.00  0.00    -0.354 N 
ATOM     52  C   UNL     1      23.623  -2.856  10.124  1.00  0.00     0.074 A 
ATOM     53  C   UNL     1      23.026  -3.852   9.262  1.00  0.00     0.031 C 
ATOM     54  C   UNL     1      23.362   2.466   6.505  1.00  0.00     0.029 A 
ATOM     55  C   UNL     1      23.855   2.351   7.874  1.00  0.00     0.049 A 
ATOM     56  H   UNL     1      23.973   0.625   9.035  1.00  0.00     0.167 HD
ATOM     57  C   UNL     1      24.100  -3.107  11.369  1.00  0.00     0.034 A 
ATOM     58  C   UNL     1      24.323   3.369   8.623  1.00  0.00     0.034 A 
ATOM     59  C   UNL     1      24.695  -2.099  12.213  1.00  0.00     0.049 A 
ATOM     60  C   UNL     1      24.826   3.073  10.014  1.00  0.00     0.074 A 
ATOM     61  C   UNL     1      25.241  -2.245  13.476  1.00  0.00     0.029 A 
ATOM     62  N   UNL     1      24.818  -0.755  11.882  1.00  0.00    -0.354 N 
ATOM     63  N   UNL     1      24.857   1.927  10.656  1.00  0.00    -0.248 NA
ATOM     64  C   UNL     1      25.377   4.202  10.771  1.00  0.00     0.031 C 
ATOM     65  C   UNL     1      25.623  -0.981  13.938  1.00  0.00     0.029 A 
ATOM     66  C   UNL     1      25.404  -0.057  12.928  1.00  0.00     0.049 A 
ATOM     67  H   UNL     1      24.530  -0.355  11.030  1.00  0.00     0.167 HD
ATOM     68  C   UNL     1      25.463   2.195  11.881  1.00  0.00     0.074 A 
ATOM     69  C   UNL     1      25.798   3.604  11.875  1.00  0.00     0.031 C 
ATOM     70  C   UNL     1      25.723   1.353  12.915  1.00  0.00     0.034 A 
BRANCH  57  71
ATOM     71  C   UNL     1      23.970  -4.521  11.890  1.00  0.00     0.023 A 
ATOM     72  C   UNL     1      24.589  -5.606  11.243  1.00  0.00     0.031 A 
ATOM     73  C   UNL     1      23.189  -4.796  13.026  1.00  0.00     0.131 A 
ATOM     74  C   UNL     1      24.348  -6.917  11.681  1.00  0.00     0.055 A 
ATOM     75  C   UNL     1      23.028  -6.096  13.513  1.00  0.00     0.041 A 
ATOM     76  F   UNL     1      22.552  -3.808  13.675  1.00  0.00    -0.206 F 
ATOM     77  C   UNL     1      23.595  -7.167  12.830  1.00  0.00     0.022 A 
BRANCH  74  78
ATOM     78  S   UNL     1      24.895  -8.294  10.635  1.00  0.00     0.124 S 
ATOM     79  O   UNL     1      24.195  -8.008   9.384  1.00  0.00    -0.237 OA
ATOM     80  O   UNL     1      26.342  -8.118  10.612  1.00  0.00    -0.237 OA
ATOM     81  O   UNL     1      24.419  -9.477  11.349  1.00  0.00    -0.744 OA
ENDBRANCH  74  78
ENDBRANCH  57  71
BRANCH  58  82
ATOM     82  C   UNL     1      24.335   4.761   8.084  1.00  0.00     0.023 A 
ATOM     83  C   UNL     1      25.538   5.459   7.892  1.00  0.00     0.031 A 
ATOM     84  C   UNL     1      23.132   5.429   7.790  1.00  0.00     0.131 A 
ATOM     85  C   UNL     1      25.510   6.798   7.470  1.00  0.00     0.055 A 
ATOM     86  C   UNL     1      23.113   6.741   7.314  1.00  0.00     0.041 A 
ATOM     87  F   UNL     1      21.953   4.808   7.952  1.00  0.00    -0.206 F 
ATOM     88  C   UNL     1      24.307   7.438   7.165  1.00  0.00     0.022 A 
BRANCH  85  89
ATOM     89  S   UNL     1      27.069   7.725   7.416  1.00  0.00     0.124 S 
ATOM     90  O   UNL     1      27.534   7.604   8.793  1.00  0.00    -0.237 OA
ATOM     91  O   UNL     1      27.827   6.984   6.414  1.00  0.00    -0.237 OA
ATOM     92  O   UNL     1      26.652   9.066   7.013  1.00  0.00    -0.744 OA
ENDBRANCH  85  89
ENDBRANCH  58  82
BRANCH  70  93
ATOM     93  C   UNL     1      26.453   1.932  14.104  1.00  0.00     0.023 A 
ATOM     94  C   UNL     1      25.890   2.941  14.905  1.00  0.00     0.031 A 
ATOM     95  C   UNL     1      27.748   1.484  14.424  1.00  0.00     0.131 A 
ATOM     96  C   UNL     1      26.645   3.520  15.936  1.00  0.00     0.055 A 
ATOM     97  C   UNL     1      28.466   2.011  15.498  1.00  0.00     0.041 A 
ATOM     98  F   UNL     1      28.340   0.525  13.694  1.00  0.00    -0.206 F 
ATOM     99  C   UNL     1      27.922   3.048  16.250  1.00  0.00     0.022 A 
BRANCH  96 100
ATOM    100  S   UNL     1      25.987   4.986  16.778  1.00  0.00     0.124 S 
ATOM    101  O   UNL     1      25.756   5.898  15.662  1.00  0.00    -0.237 OA
ATOM    102  O   UNL     1      24.791   4.460  17.429  1.00  0.00    -0.237 OA
ATOM    103  O   UNL     1      27.066   5.375  17.683  1.00  0.00    -0.744 OA
ENDBRANCH  96 100
ENDBRANCH  70  93
ENDBRANCH  44  45
ENDBRANCH  36  39
ENDBRANCH  34  35
ENDBRANCH  33  34
ENDBRANCH  32  33
ENDBRANCH   1  32
TORSDOF 20
