REMARK SMILES CN(CCc1cccs1)C(=O)N[C@H](CC(N)=O)C(=O)NCCCCCCNC(=O)c1ccc(-c2c3nc(c(-c4cc(S(=O)(=O)[O-])ccc4F)c4ccc([nH]4)c(-c4cc(S(=O)(=O)[O-])ccc4F)c4nc(c(-c5cc(S(=O)(=O)[O-])ccc5F)c5ccc2[nH]5)C=C4)C=C3)cc1
REMARK SMILES IDX 22 1 21 2 20 3 18 4 19 5 13 7 12 8 10 9 11 10 2 12 1 13 3 14
REMARK SMILES IDX 4 15 5 16 6 17 9 18 7 19 8 20 14 21 15 22 16 23 17 24 23 27
REMARK SMILES IDX 24 28 25 29 26 30 27 31 28 32 29 34 30 35 31 36 92 37 32 38
REMARK SMILES IDX 91 39 33 40 34 41 35 42 85 43 36 44 90 45 84 46 86 47 37 48
REMARK SMILES IDX 89 49 83 50 82 51 38 53 70 54 50 55 69 56 51 57 54 58 68 59
REMARK SMILES IDX 87 60 52 61 53 62 67 64 88 65 55 66 39 67 40 68 48 69 41 70
REMARK SMILES IDX 47 71 49 72 46 73 42 74 43 75 44 76 45 77 71 78 72 79 80 80
REMARK SMILES IDX 73 81 79 82 81 83 78 84 74 85 75 86 76 87 77 88 56 89 57 90
REMARK SMILES IDX 65 91 58 92 64 93 66 94 63 95 59 96 60 97 61 98 62 99
REMARK H PARENT 20 6 12 11 16 25 16 26 27 33 86 52 54 63
REMARK Flexibility Score: inf
ROOT
ATOM      1  C   UNL     1       0.930  -7.551  -1.964  1.00  0.00     0.021 C 
ENDROOT
BRANCH   1   2
ATOM      2  C   UNL     1      -0.369  -7.077  -1.235  1.00  0.00     0.116 C 
BRANCH   2   3
ATOM      3  N   UNL     1      -0.867  -5.605  -1.053  1.00  0.00    -0.354 N 
ATOM      4  C   UNL     1      -0.569  -4.490  -0.193  1.00  0.00     0.243 C 
ATOM      5  O   UNL     1       0.448  -4.011   0.307  1.00  0.00    -0.273 OA
ATOM      6  H   UNL     1      -1.574  -5.381  -1.701  1.00  0.00     0.163 HD
BRANCH   4   7
ATOM      7  C   UNL     1      -1.689  -3.719   0.388  1.00  0.00     0.182 C 
BRANCH   7   8
ATOM      8  N   UNL     1      -2.702  -4.691   0.445  1.00  0.00    -0.326 N 
ATOM      9  C   UNL     1      -2.559  -5.888   1.110  1.00  0.00     0.317 C 
ATOM     10  O   UNL     1      -3.636  -6.486   1.248  1.00  0.00    -0.249 OA
ATOM     11  H   UNL     1      -3.554  -4.507  -0.013  1.00  0.00     0.166 HD
BRANCH   9  12
ATOM     12  N   UNL     1      -1.299  -6.466   1.518  1.00  0.00    -0.328 N 
ATOM     13  C   UNL     1      -1.610  -7.769   2.142  1.00  0.00     0.148 C 
BRANCH  12  14
ATOM     14  C   UNL     1       0.332  -6.085   1.608  1.00  0.00     0.126 C 
BRANCH  14  15
ATOM     15  C   UNL     1       1.748  -5.938   0.515  1.00  0.00     0.068 C 
BRANCH  15  16
ATOM     16  C   UNL     1       2.148  -4.923  -0.828  1.00  0.00     0.006 A 
ATOM     17  C   UNL     1       1.535  -4.650  -2.076  1.00  0.00     0.015 A 
ATOM     18  S   UNL     1       3.550  -3.892  -0.752  1.00  0.00    -0.149 S 
ATOM     19  C   UNL     1       2.069  -3.591  -2.844  1.00  0.00     0.012 A 
ATOM     20  C   UNL     1       3.200  -3.111  -2.251  1.00  0.00     0.065 A 
ENDBRANCH  15  16
ENDBRANCH  14  15
ENDBRANCH  12  14
ENDBRANCH   9  12
ENDBRANCH   7   8
BRANCH   7  21
ATOM     21  C   UNL     1      -1.535  -2.299  -0.179  1.00  0.00     0.134 C 
BRANCH  21  22
ATOM     22  C   UNL     1      -2.090  -1.884  -1.512  1.00  0.00     0.220 C 
ATOM     23  N   UNL     1      -1.282  -0.966  -2.157  1.00  0.00    -0.370 N 
ATOM     24  O   UNL     1      -3.175  -2.210  -1.932  1.00  0.00    -0.275 OA
ATOM     25  H   UNL     1      -0.405  -0.730  -1.777  1.00  0.00     0.159 HD
ATOM     26  H   UNL     1      -1.584  -0.548  -2.995  1.00  0.00     0.159 HD
ENDBRANCH  21  22
ENDBRANCH   7  21
ENDBRANCH   4   7
ENDBRANCH   2   3
ENDBRANCH   1   2
BRANCH   1  27
ATOM     27  C   UNL     1       1.615  -8.819  -1.393  1.00  0.00     0.002 C 
BRANCH  27  28
ATOM     28  C   UNL     1       0.950 -10.140  -1.719  1.00  0.00     0.002 C 
BRANCH  28  29
ATOM     29  C   UNL     1       0.672 -10.328  -3.204  1.00  0.00     0.021 C 
BRANCH  29  30
ATOM     30  C   UNL     1       1.895 -10.138  -4.100  1.00  0.00     0.116 C 
BRANCH  30  31
ATOM     31  N   UNL     1       2.903 -11.157  -3.854  1.00  0.00    -0.352 N 
ATOM     32  C   UNL     1       3.288 -12.181  -4.685  1.00  0.00     0.251 C 
ATOM     33  H   UNL     1       3.366 -11.107  -2.987  1.00  0.00     0.163 HD
ATOM     34  O   UNL     1       3.927 -13.132  -4.248  1.00  0.00    -0.269 OA
BRANCH  32  35
ATOM     35  C   UNL     1       2.902 -12.117  -6.109  1.00  0.00     0.039 A 
ATOM     36  C   UNL     1       2.301 -13.224  -6.708  1.00  0.00     0.014 A 
ATOM     37  C   UNL     1       3.103 -10.936  -6.831  1.00  0.00     0.014 A 
ATOM     38  C   UNL     1       1.853 -13.127  -8.026  1.00  0.00     0.010 A 
ATOM     39  C   UNL     1       2.580 -10.816  -8.113  1.00  0.00     0.010 A 
ATOM     40  C   UNL     1       1.960 -11.913  -8.728  1.00  0.00    -0.014 A 
BRANCH  40  41
ATOM     41  C   UNL     1       1.447 -11.780 -10.115  1.00  0.00     0.031 A 
ATOM     42  C   UNL     1       2.403 -11.483 -11.239  1.00  0.00     0.074 A 
ATOM     43  C   UNL     1       0.124 -11.877 -10.352  1.00  0.00     0.049 A 
ATOM     44  N   UNL     1       2.151 -11.272 -12.505  1.00  0.00    -0.248 NA
ATOM     45  C   UNL     1       3.827 -11.382 -10.885  1.00  0.00     0.031 C 
ATOM     46  C   UNL     1      -0.899 -12.126  -9.334  1.00  0.00     0.029 A 
ATOM     47  N   UNL     1      -0.590 -11.775 -11.519  1.00  0.00    -0.354 N 
ATOM     48  C   UNL     1       3.382 -11.005 -13.096  1.00  0.00     0.074 A 
ATOM     49  C   UNL     1       4.367 -11.011 -12.036  1.00  0.00     0.031 C 
ATOM     50  C   UNL     1      -2.103 -12.189  -9.926  1.00  0.00     0.029 A 
ATOM     51  C   UNL     1      -1.947 -11.932 -11.354  1.00  0.00     0.049 A 
ATOM     52  H   UNL     1      -0.170 -11.605 -12.394  1.00  0.00     0.167 HD
ATOM     53  C   UNL     1       3.667 -10.800 -14.405  1.00  0.00     0.034 A 
ATOM     54  C   UNL     1      -2.952 -11.863 -12.250  1.00  0.00     0.034 A 
ATOM     55  C   UNL     1       2.669 -10.805 -15.447  1.00  0.00     0.049 A 
ATOM     56  C   UNL     1      -2.615 -11.590 -13.695  1.00  0.00     0.074 A 
ATOM     57  C   UNL     1       2.849 -10.657 -16.811  1.00  0.00     0.029 A 
ATOM     58  N   UNL     1       1.303 -10.953 -15.241  1.00  0.00    -0.354 N 
ATOM     59  N   UNL     1      -1.440 -11.392 -14.247  1.00  0.00    -0.248 NA
ATOM     60  C   UNL     1      -3.738 -11.543 -14.640  1.00  0.00     0.031 C 
ATOM     61  C   UNL     1       1.590 -10.633 -17.419  1.00  0.00     0.029 A 
ATOM     62  C   UNL     1       0.627 -10.860 -16.448  1.00  0.00     0.049 A 
ATOM     63  H   UNL     1       0.877 -11.101 -14.366  1.00  0.00     0.167 HD
ATOM     64  C   UNL     1      -1.681 -11.230 -15.609  1.00  0.00     0.074 A 
ATOM     65  C   UNL     1      -3.111 -11.371 -15.794  1.00  0.00     0.031 C 
ATOM     66  C   UNL     1      -0.802 -10.993 -16.616  1.00  0.00     0.034 A 
BRANCH  53  67
ATOM     67  C   UNL     1       5.107 -10.527 -14.772  1.00  0.00     0.023 A 
ATOM     68  C   UNL     1       6.123 -11.471 -14.537  1.00  0.00     0.031 A 
ATOM     69  C   UNL     1       5.475  -9.297 -15.345  1.00  0.00     0.131 A 
ATOM     70  C   UNL     1       7.461 -11.141 -14.800  1.00  0.00     0.055 A 
ATOM     71  C   UNL     1       6.798  -9.009 -15.687  1.00  0.00     0.041 A 
ATOM     72  F   UNL     1       4.555  -8.345 -15.571  1.00  0.00    -0.206 F 
ATOM     73  C   UNL     1       7.803  -9.928 -15.400  1.00  0.00     0.022 A 
BRANCH  70  74
ATOM     74  S   UNL     1       8.761 -12.258 -14.204  1.00  0.00     0.124 S 
ATOM     75  O   UNL     1       8.487 -12.290 -12.769  1.00  0.00    -0.237 OA
ATOM     76  O   UNL     1       8.480 -13.487 -14.936  1.00  0.00    -0.237 OA
ATOM     77  O   UNL     1       9.997 -11.575 -14.580  1.00  0.00    -0.744 OA
ENDBRANCH  70  74
ENDBRANCH  53  67
BRANCH  54  78
ATOM     78  C   UNL     1      -4.369 -12.037 -11.815  1.00  0.00     0.023 A 
ATOM     79  C   UNL     1      -5.151 -13.097 -12.302  1.00  0.00     0.031 A 
ATOM     80  C   UNL     1      -4.979 -11.117 -10.943  1.00  0.00     0.131 A 
ATOM     81  C   UNL     1      -6.509 -13.181 -11.956  1.00  0.00     0.055 A 
ATOM     82  C   UNL     1      -6.313 -11.241 -10.552  1.00  0.00     0.041 A 
ATOM     83  F   UNL     1      -4.278 -10.085 -10.446  1.00  0.00    -0.206 F 
ATOM     84  C   UNL     1      -7.091 -12.270 -11.072  1.00  0.00     0.022 A 
BRANCH  81  85
ATOM     85  S   UNL     1      -7.533 -14.443 -12.763  1.00  0.00     0.124 S 
ATOM     86  O   UNL     1      -7.349 -14.116 -14.172  1.00  0.00    -0.237 OA
ATOM     87  O   UNL     1      -6.909 -15.678 -12.303  1.00  0.00    -0.237 OA
ATOM     88  O   UNL     1      -8.870 -14.186 -12.232  1.00  0.00    -0.744 OA
ENDBRANCH  81  85
ENDBRANCH  54  78
BRANCH  66  89
ATOM     89  C   UNL     1      -1.363 -10.920 -18.017  1.00  0.00     0.023 A 
ATOM     90  C   UNL     1      -2.240  -9.897 -18.414  1.00  0.00     0.031 A 
ATOM     91  C   UNL     1      -1.012 -11.896 -18.968  1.00  0.00     0.131 A 
ATOM     92  C   UNL     1      -2.783  -9.905 -19.708  1.00  0.00     0.055 A 
ATOM     93  C   UNL     1      -1.499 -11.859 -20.274  1.00  0.00     0.041 A 
ATOM     94  F   UNL     1      -0.181 -12.899 -18.643  1.00  0.00    -0.206 F 
ATOM     95  C   UNL     1      -2.401 -10.867 -20.647  1.00  0.00     0.022 A 
BRANCH  92  96
ATOM     96  S   UNL     1      -4.073  -8.698 -20.119  1.00  0.00     0.124 S 
ATOM     97  O   UNL     1      -5.094  -8.995 -19.119  1.00  0.00    -0.237 OA
ATOM     98  O   UNL     1      -3.374  -7.427 -19.958  1.00  0.00    -0.237 OA
ATOM     99  O   UNL     1      -4.434  -9.037 -21.494  1.00  0.00    -0.744 OA
ENDBRANCH  92  96
ENDBRANCH  66  89
ENDBRANCH  40  41
ENDBRANCH  32  35
ENDBRANCH  30  31
ENDBRANCH  29  30
ENDBRANCH  28  29
ENDBRANCH  27  28
ENDBRANCH   1  27
TORSDOF 23
