REMARK SMILES CC[C@](C)(NS(=O)(=O)c1ccc(OC)c(F)c1)C(=O)NCCCCCCNC(=O)c1ccc(-c2c3nc(c(-c4cc(S(=O)(=O)[O-])ccc4F)c4ccc([nH]4)c(-c4cc(S(=O)(=O)[O-])ccc4F)c4nc(c(-c5cc(S(=O)(=O)[O-])ccc5F)c5ccc2[nH]5)C=C4)C=C3)cc1
REMARK SMILES IDX 23 1 22 2 21 3 20 4 18 5 19 6 3 8 4 9 2 10 1 11 5 12 6 14
REMARK SMILES IDX 7 15 8 16 9 17 10 18 17 19 11 20 15 21 12 22 16 23 13 24
REMARK SMILES IDX 14 25 24 26 25 27 26 28 27 29 28 30 29 32 30 33 31 34 92 35
REMARK SMILES IDX 32 36 91 37 33 38 34 39 35 40 85 41 36 42 90 43 84 44 86 45
REMARK SMILES IDX 37 46 89 47 83 48 82 49 38 51 70 52 50 53 69 54 51 55 54 56
REMARK SMILES IDX 68 57 87 58 52 59 53 60 67 62 88 63 55 64 39 65 40 66 48 67
REMARK SMILES IDX 41 68 47 69 49 70 46 71 42 72 43 73 44 74 45 75 71 76 72 77
REMARK SMILES IDX 80 78 73 79 79 80 81 81 78 82 74 83 75 84 76 85 77 86 56 87
REMARK SMILES IDX 57 88 65 89 58 90 64 91 66 92 63 93 59 94 60 95 61 96 62 97
REMARK H PARENT 20 7 5 13 27 31 86 50 54 61
REMARK Flexibility Score: inf
ROOT
ATOM      1  C   UNL     1       4.646  -6.038   1.349  1.00  0.00     0.002 C 
ENDROOT
BRANCH   1   2
ATOM      2  C   UNL     1       3.128  -5.891   1.197  1.00  0.00     0.021 C 
BRANCH   2   3
ATOM      3  C   UNL     1       2.551  -4.542   1.609  1.00  0.00     0.116 C 
BRANCH   3   4
ATOM      4  N   UNL     1       3.117  -3.429   0.864  1.00  0.00    -0.354 N 
ATOM      5  C   UNL     1       2.616  -2.409   0.129  1.00  0.00     0.241 C 
ATOM      6  O   UNL     1       3.469  -1.565  -0.196  1.00  0.00    -0.273 OA
ATOM      7  H   UNL     1       4.100  -3.413   0.903  1.00  0.00     0.163 HD
BRANCH   5   8
ATOM      8  C   UNL     1       1.153  -2.262  -0.378  1.00  0.00     0.108 C 
ATOM      9  C   UNL     1       0.993  -0.748  -0.746  1.00  0.00     0.040 C 
BRANCH   8  10
ATOM     10  C   UNL     1       0.033  -2.585   0.633  1.00  0.00     0.030 C 
ATOM     11  C   UNL     1       0.211  -1.939   2.007  1.00  0.00     0.006 C 
ENDBRANCH   8  10
BRANCH   8  12
ATOM     12  N   UNL     1       0.897  -2.927  -1.685  1.00  0.00    -0.196 NA
ATOM     13  H   UNL     1       1.424  -2.376  -2.363  1.00  0.00     0.142 HD
BRANCH  12  14
ATOM     14  S   UNL     1       1.194  -4.507  -2.106  1.00  0.00     0.241 S 
ATOM     15  O   UNL     1       0.839  -5.335  -0.978  1.00  0.00    -0.207 OA
ATOM     16  O   UNL     1       0.557  -4.674  -3.391  1.00  0.00    -0.207 OA
BRANCH  14  17
ATOM     17  C   UNL     1       2.935  -4.659  -2.400  1.00  0.00     0.085 A 
ATOM     18  C   UNL     1       3.752  -3.542  -2.562  1.00  0.00     0.026 A 
ATOM     19  C   UNL     1       3.498  -5.938  -2.360  1.00  0.00     0.065 A 
ATOM     20  C   UNL     1       5.142  -3.695  -2.531  1.00  0.00     0.051 A 
ATOM     21  C   UNL     1       4.883  -6.078  -2.347  1.00  0.00     0.166 A 
ATOM     22  C   UNL     1       5.719  -4.959  -2.374  1.00  0.00     0.154 A 
ATOM     23  F   UNL     1       5.384  -7.318  -2.250  1.00  0.00    -0.203 F 
BRANCH  22  24
ATOM     24  O   UNL     1       7.082  -4.956  -2.253  1.00  0.00    -0.494 OA
ATOM     25  C   UNL     1       7.655  -6.089  -1.603  1.00  0.00     0.278 C 
ENDBRANCH  22  24
ENDBRANCH  14  17
ENDBRANCH  12  14
ENDBRANCH   8  12
ENDBRANCH   5   8
ENDBRANCH   3   4
ENDBRANCH   2   3
ENDBRANCH   1   2
BRANCH   1  26
ATOM     26  C   UNL     1       5.099  -6.729   2.635  1.00  0.00     0.002 C 
BRANCH  26  27
ATOM     27  C   UNL     1       4.498  -8.116   2.883  1.00  0.00     0.021 C 
BRANCH  27  28
ATOM     28  C   UNL     1       4.476  -9.049   1.675  1.00  0.00     0.116 C 
BRANCH  28  29
ATOM     29  N   UNL     1       5.814  -9.435   1.253  1.00  0.00    -0.352 N 
ATOM     30  C   UNL     1       6.383 -10.686   1.265  1.00  0.00     0.251 C 
ATOM     31  H   UNL     1       6.384  -8.707   0.915  1.00  0.00     0.163 HD
ATOM     32  O   UNL     1       7.581 -10.829   1.052  1.00  0.00    -0.269 OA
BRANCH  30  33
ATOM     33  C   UNL     1       5.524 -11.849   1.567  1.00  0.00     0.039 A 
ATOM     34  C   UNL     1       5.856 -12.684   2.635  1.00  0.00     0.014 A 
ATOM     35  C   UNL     1       4.359 -12.068   0.825  1.00  0.00     0.014 A 
ATOM     36  C   UNL     1       4.980 -13.708   3.003  1.00  0.00     0.010 A 
ATOM     37  C   UNL     1       3.460 -13.049   1.232  1.00  0.00     0.010 A 
ATOM     38  C   UNL     1       3.761 -13.877   2.324  1.00  0.00    -0.014 A 
BRANCH  38  39
ATOM     39  C   UNL     1       2.794 -14.927   2.732  1.00  0.00     0.031 A 
ATOM     40  C   UNL     1       2.493 -16.068   1.802  1.00  0.00     0.074 A 
ATOM     41  C   UNL     1       2.141 -14.822   3.906  1.00  0.00     0.049 A 
ATOM     42  N   UNL     1       1.621 -17.035   1.931  1.00  0.00    -0.248 NA
ATOM     43  C   UNL     1       3.254 -16.107   0.544  1.00  0.00     0.031 C 
ATOM     44  C   UNL     1       2.315 -13.740   4.878  1.00  0.00     0.029 A 
ATOM     45  N   UNL     1       1.196 -15.635   4.479  1.00  0.00    -0.354 N 
ATOM     46  C   UNL     1       1.711 -17.782   0.763  1.00  0.00     0.074 A 
ATOM     47  C   UNL     1       2.688 -17.127  -0.082  1.00  0.00     0.031 C 
ATOM     48  C   UNL     1       1.524 -13.972   5.938  1.00  0.00     0.029 A 
ATOM     49  C   UNL     1       0.764 -15.197   5.708  1.00  0.00     0.049 A 
ATOM     50  H   UNL     1       0.860 -16.454   4.050  1.00  0.00     0.167 HD
ATOM     51  C   UNL     1       1.056 -18.922   0.433  1.00  0.00     0.034 A 
ATOM     52  C   UNL     1      -0.147 -15.719   6.552  1.00  0.00     0.034 A 
ATOM     53  C   UNL     1       0.111 -19.584   1.296  1.00  0.00     0.049 A 
ATOM     54  C   UNL     1      -0.865 -16.984   6.171  1.00  0.00     0.074 A 
ATOM     55  C   UNL     1      -0.551 -20.782   1.092  1.00  0.00     0.029 A 
ATOM     56  N   UNL     1      -0.311 -19.102   2.528  1.00  0.00    -0.354 N 
ATOM     57  N   UNL     1      -0.755 -17.692   5.071  1.00  0.00    -0.248 NA
ATOM     58  C   UNL     1      -1.830 -17.518   7.140  1.00  0.00     0.031 C 
ATOM     59  C   UNL     1      -1.408 -21.000   2.176  1.00  0.00     0.029 A 
ATOM     60  C   UNL     1      -1.242 -19.965   3.083  1.00  0.00     0.049 A 
ATOM     61  H   UNL     1       0.006 -18.269   2.946  1.00  0.00     0.167 HD
ATOM     62  C   UNL     1      -1.630 -18.762   5.220  1.00  0.00     0.074 A 
ATOM     63  C   UNL     1      -2.259 -18.609   6.518  1.00  0.00     0.031 C 
ATOM     64  C   UNL     1      -1.882 -19.782   4.363  1.00  0.00     0.034 A 
BRANCH  51  65
ATOM     65  C   UNL     1       1.331 -19.504  -0.929  1.00  0.00     0.023 A 
ATOM     66  C   UNL     1       2.596 -20.011  -1.270  1.00  0.00     0.031 A 
ATOM     67  C   UNL     1       0.325 -19.518  -1.911  1.00  0.00     0.131 A 
ATOM     68  C   UNL     1       2.846 -20.440  -2.582  1.00  0.00     0.055 A 
ATOM     69  C   UNL     1       0.560 -20.016  -3.195  1.00  0.00     0.041 A 
ATOM     70  F   UNL     1      -0.896 -19.030  -1.646  1.00  0.00    -0.206 F 
ATOM     71  C   UNL     1       1.831 -20.467  -3.540  1.00  0.00     0.022 A 
BRANCH  68  72
ATOM     72  S   UNL     1       4.550 -20.846  -3.050  1.00  0.00     0.124 S 
ATOM     73  O   UNL     1       5.215 -19.556  -2.885  1.00  0.00    -0.237 OA
ATOM     74  O   UNL     1       4.908 -21.876  -2.082  1.00  0.00    -0.237 OA
ATOM     75  O   UNL     1       4.426 -21.306  -4.431  1.00  0.00    -0.744 OA
ENDBRANCH  68  72
ENDBRANCH  51  65
BRANCH  52  76
ATOM     76  C   UNL     1      -0.430 -15.035   7.840  1.00  0.00     0.023 A 
ATOM     77  C   UNL     1       0.079 -15.536   9.047  1.00  0.00     0.031 A 
ATOM     78  C   UNL     1      -1.184 -13.849   7.874  1.00  0.00     0.131 A 
ATOM     79  C   UNL     1      -0.181 -14.856  10.247  1.00  0.00     0.055 A 
ATOM     80  C   UNL     1      -1.420 -13.164   9.066  1.00  0.00     0.041 A 
ATOM     81  F   UNL     1      -1.675 -13.326   6.739  1.00  0.00    -0.206 F 
ATOM     82  C   UNL     1      -0.918 -13.668  10.262  1.00  0.00     0.022 A 
BRANCH  79  83
ATOM     83  S   UNL     1       0.477 -15.531  11.797  1.00  0.00     0.124 S 
ATOM     84  O   UNL     1      -0.347 -16.722  11.974  1.00  0.00    -0.237 OA
ATOM     85  O   UNL     1       1.878 -15.763  11.463  1.00  0.00    -0.237 OA
ATOM     86  O   UNL     1       0.242 -14.457  12.760  1.00  0.00    -0.744 OA
ENDBRANCH  79  83
ENDBRANCH  52  76
BRANCH  64  87
ATOM     87  C   UNL     1      -2.872 -20.824   4.806  1.00  0.00     0.023 A 
ATOM     88  C   UNL     1      -4.253 -20.566   4.810  1.00  0.00     0.031 A 
ATOM     89  C   UNL     1      -2.429 -22.102   5.186  1.00  0.00     0.131 A 
ATOM     90  C   UNL     1      -5.146 -21.571   5.211  1.00  0.00     0.055 A 
ATOM     91  C   UNL     1      -3.323 -23.110   5.547  1.00  0.00     0.041 A 
ATOM     92  F   UNL     1      -1.118 -22.395   5.196  1.00  0.00    -0.206 F 
ATOM     93  C   UNL     1      -4.690 -22.846   5.564  1.00  0.00     0.022 A 
BRANCH  90  94
ATOM     94  S   UNL     1      -6.917 -21.191   5.285  1.00  0.00     0.124 S 
ATOM     95  O   UNL     1      -6.974 -20.234   6.385  1.00  0.00    -0.237 OA
ATOM     96  O   UNL     1      -7.183 -20.650   3.955  1.00  0.00    -0.237 OA
ATOM     97  O   UNL     1      -7.535 -22.487   5.558  1.00  0.00    -0.744 OA
ENDBRANCH  90  94
ENDBRANCH  64  87
ENDBRANCH  38  39
ENDBRANCH  30  33
ENDBRANCH  28  29
ENDBRANCH  27  28
ENDBRANCH  26  27
ENDBRANCH   1  26
TORSDOF 21
