REMARK SMILES O=C(NCCCCCCNC(=O)c1cccc2c1N[C@H](c1ccccc1Br)[C@H]1CC=C[C@H]21)c1ccc(-c2c3nc(c(-c4cc(S(=O)(=O)[O-])ccc4F)c4ccc([nH]4)c(-c4cc(S(=O)(=O)[O-])ccc4F)c4nc(c(-c5cc(S(=O)(=O)[O-])ccc5F)c5ccc2[nH]5)C=C4)C=C3)cc1
REMARK SMILES IDX 5 1 4 2 3 3 1 4 2 5 33 7 34 8 95 9 35 10 94 11 36 12 37 13
REMARK SMILES IDX 38 14 88 15 39 16 93 17 87 18 89 19 40 20 92 21 86 22 85 23
REMARK SMILES IDX 41 25 73 26 53 27 72 28 54 29 57 30 71 31 90 32 55 33 56 34
REMARK SMILES IDX 70 36 91 37 58 38 42 39 43 40 51 41 44 42 50 43 52 44 49 45
REMARK SMILES IDX 45 46 46 47 47 48 48 49 74 50 75 51 83 52 76 53 82 54 84 55
REMARK SMILES IDX 81 56 77 57 78 58 79 59 80 60 59 61 60 62 68 63 61 64 67 65
REMARK SMILES IDX 69 66 66 67 62 68 63 69 64 70 65 71 6 72 7 73 8 74 9 75
REMARK SMILES IDX 10 76 11 77 12 79 13 80 14 81 18 82 15 83 17 84 19 85 16 86
REMARK SMILES IDX 32 87 20 88 28 90 31 91 29 92 30 93 21 94 22 95 26 96 23 97
REMARK SMILES IDX 25 98 27 99 24 100
REMARK H PARENT 3 6 89 24 57 35 10 78 19 89
REMARK Flexibility Score: inf
ROOT
ATOM      1  C   UNL     1       4.814  -1.022   2.348  1.00  0.00     0.021 C 
ENDROOT
BRANCH   1   2
ATOM      2  C   UNL     1       4.505  -0.752   0.879  1.00  0.00     0.116 C 
BRANCH   2   3
ATOM      3  N   UNL     1       3.078  -0.763   0.612  1.00  0.00    -0.352 N 
ATOM      4  O   UNL     1       1.075   0.058   0.023  1.00  0.00    -0.269 OA
ATOM      5  C   UNL     1       2.300   0.165  -0.025  1.00  0.00     0.251 C 
ATOM      6  H   UNL     1       2.598  -1.558   0.939  1.00  0.00     0.163 HD
BRANCH   5   7
ATOM      7  C   UNL     1       2.911   1.287  -0.773  1.00  0.00     0.039 A 
ATOM      8  C   UNL     1       2.292   2.541  -0.720  1.00  0.00     0.014 A 
ATOM      9  C   UNL     1       4.023   1.094  -1.598  1.00  0.00     0.014 A 
ATOM     10  C   UNL     1       2.781   3.597  -1.493  1.00  0.00     0.010 A 
ATOM     11  C   UNL     1       4.546   2.162  -2.325  1.00  0.00     0.010 A 
ATOM     12  C   UNL     1       3.907   3.412  -2.308  1.00  0.00    -0.014 A 
BRANCH  12  13
ATOM     13  C   UNL     1       4.373   4.470  -3.240  1.00  0.00     0.031 A 
ATOM     14  C   UNL     1       4.235   4.247  -4.722  1.00  0.00     0.074 A 
ATOM     15  C   UNL     1       4.955   5.589  -2.771  1.00  0.00     0.049 A 
ATOM     16  N   UNL     1       4.701   4.962  -5.710  1.00  0.00    -0.248 NA
ATOM     17  C   UNL     1       3.493   3.047  -5.147  1.00  0.00     0.031 C 
ATOM     18  C   UNL     1       5.139   5.910  -1.357  1.00  0.00     0.029 A 
ATOM     19  N   UNL     1       5.519   6.653  -3.433  1.00  0.00    -0.354 N 
ATOM     20  C   UNL     1       4.333   4.288  -6.870  1.00  0.00     0.074 A 
ATOM     21  C   UNL     1       3.639   3.088  -6.464  1.00  0.00     0.031 C 
ATOM     22  C   UNL     1       5.777   7.087  -1.256  1.00  0.00     0.029 A 
ATOM     23  C   UNL     1       6.093   7.583  -2.595  1.00  0.00     0.049 A 
ATOM     24  H   UNL     1       5.514   6.742  -4.413  1.00  0.00     0.167 HD
ATOM     25  C   UNL     1       4.542   4.652  -8.156  1.00  0.00     0.034 A 
ATOM     26  C   UNL     1       6.814   8.691  -2.874  1.00  0.00     0.034 A 
ATOM     27  C   UNL     1       5.190   5.876  -8.542  1.00  0.00     0.049 A 
ATOM     28  C   UNL     1       7.034   9.076  -4.318  1.00  0.00     0.074 A 
ATOM     29  C   UNL     1       5.400   6.358  -9.821  1.00  0.00     0.029 A 
ATOM     30  N   UNL     1       5.716   6.812  -7.666  1.00  0.00    -0.354 N 
ATOM     31  N   UNL     1       6.627   8.459  -5.404  1.00  0.00    -0.248 NA
ATOM     32  C   UNL     1       7.799  10.303  -4.585  1.00  0.00     0.031 C 
ATOM     33  C   UNL     1       6.099   7.559  -9.722  1.00  0.00     0.029 A 
ATOM     34  C   UNL     1       6.266   7.862  -8.379  1.00  0.00     0.049 A 
ATOM     35  H   UNL     1       5.700   6.741  -6.684  1.00  0.00     0.167 HD
ATOM     36  C   UNL     1       7.057   9.239  -6.475  1.00  0.00     0.074 A 
ATOM     37  C   UNL     1       7.743  10.380  -5.910  1.00  0.00     0.031 C 
ATOM     38  C   UNL     1       6.903   9.022  -7.804  1.00  0.00     0.034 A 
BRANCH  25  39
ATOM     39  C   UNL     1       4.047   3.755  -9.260  1.00  0.00     0.023 A 
ATOM     40  C   UNL     1       4.967   3.175 -10.153  1.00  0.00     0.031 A 
ATOM     41  C   UNL     1       2.675   3.614  -9.527  1.00  0.00     0.131 A 
ATOM     42  C   UNL     1       4.502   2.521 -11.301  1.00  0.00     0.055 A 
ATOM     43  C   UNL     1       2.216   2.924 -10.650  1.00  0.00     0.041 A 
ATOM     44  F   UNL     1       1.761   4.150  -8.703  1.00  0.00    -0.206 F 
ATOM     45  C   UNL     1       3.132   2.388 -11.551  1.00  0.00     0.022 A 
BRANCH  42  46
ATOM     46  S   UNL     1       5.657   1.881 -12.544  1.00  0.00     0.124 S 
ATOM     47  O   UNL     1       5.241   0.483 -12.650  1.00  0.00    -0.237 OA
ATOM     48  O   UNL     1       5.347   2.713 -13.704  1.00  0.00    -0.237 OA
ATOM     49  O   UNL     1       6.969   2.091 -11.946  1.00  0.00    -0.744 OA
ENDBRANCH  42  46
ENDBRANCH  25  39
BRANCH  26  50
ATOM     50  C   UNL     1       7.344   9.520  -1.750  1.00  0.00     0.023 A 
ATOM     51  C   UNL     1       8.253   8.981  -0.820  1.00  0.00     0.031 A 
ATOM     52  C   UNL     1       6.883  10.829  -1.536  1.00  0.00     0.131 A 
ATOM     53  C   UNL     1       8.623   9.725   0.309  1.00  0.00     0.055 A 
ATOM     54  C   UNL     1       7.308  11.593  -0.447  1.00  0.00     0.041 A 
ATOM     55  F   UNL     1       6.004  11.384  -2.385  1.00  0.00    -0.206 F 
ATOM     56  C   UNL     1       8.170  11.034   0.492  1.00  0.00     0.022 A 
BRANCH  53  57
ATOM     57  S   UNL     1       9.588   8.964   1.645  1.00  0.00     0.124 S 
ATOM     58  O   UNL     1      10.826   9.738   1.603  1.00  0.00    -0.237 OA
ATOM     59  O   UNL     1       8.735   9.204   2.808  1.00  0.00    -0.237 OA
ATOM     60  O   UNL     1       9.698   7.569   1.241  1.00  0.00    -0.744 OA
ENDBRANCH  53  57
ENDBRANCH  26  50
BRANCH  38  61
ATOM     61  C   UNL     1       7.442  10.031  -8.787  1.00  0.00     0.023 A 
ATOM     62  C   UNL     1       6.553  10.709  -9.644  1.00  0.00     0.031 A 
ATOM     63  C   UNL     1       8.821  10.146  -9.028  1.00  0.00     0.131 A 
ATOM     64  C   UNL     1       7.050  11.415 -10.746  1.00  0.00     0.055 A 
ATOM     65  C   UNL     1       9.314  10.892 -10.099  1.00  0.00     0.041 A 
ATOM     66  F   UNL     1       9.705   9.507  -8.245  1.00  0.00    -0.206 F 
ATOM     67  C   UNL     1       8.427  11.514 -10.975  1.00  0.00     0.022 A 
BRANCH  64  68
ATOM     68  S   UNL     1       5.930  12.134 -11.979  1.00  0.00     0.124 S 
ATOM     69  O   UNL     1       6.334  13.539 -11.972  1.00  0.00    -0.237 OA
ATOM     70  O   UNL     1       6.283  11.390 -13.184  1.00  0.00    -0.237 OA
ATOM     71  O   UNL     1       4.599  11.870 -11.443  1.00  0.00    -0.744 OA
ENDBRANCH  64  68
ENDBRANCH  38  61
ENDBRANCH  12  13
ENDBRANCH   5   7
ENDBRANCH   2   3
ENDBRANCH   1   2
BRANCH   1  72
ATOM     72  C   UNL     1       4.288  -2.350   2.898  1.00  0.00     0.002 C 
BRANCH  72  73
ATOM     73  C   UNL     1       4.679  -3.603   2.109  1.00  0.00     0.002 C 
BRANCH  73  74
ATOM     74  C   UNL     1       6.178  -3.796   1.857  1.00  0.00     0.021 C 
BRANCH  74  75
ATOM     75  C   UNL     1       7.062  -3.692   3.094  1.00  0.00     0.116 C 
BRANCH  75  76
ATOM     76  N   UNL     1       6.725  -4.681   4.103  1.00  0.00    -0.352 N 
ATOM     77  C   UNL     1       7.578  -5.412   4.887  1.00  0.00     0.253 C 
ATOM     78  H   UNL     1       5.764  -4.846   4.240  1.00  0.00     0.163 HD
ATOM     79  O   UNL     1       7.133  -6.275   5.642  1.00  0.00    -0.269 OA
BRANCH  77  80
ATOM     80  C   UNL     1       9.038  -5.195   4.803  1.00  0.00     0.063 A 
ATOM     81  C   UNL     1       9.803  -6.319   4.457  1.00  0.00     0.016 A 
ATOM     82  C   UNL     1       9.647  -3.958   5.103  1.00  0.00     0.051 A 
ATOM     83  C   UNL     1      11.188  -6.225   4.377  1.00  0.00     0.001 A 
ATOM     84  C   UNL     1      11.063  -3.891   5.032  1.00  0.00    -0.017 A 
ATOM     85  N   UNL     1       8.903  -2.813   5.396  1.00  0.00    -0.377 N 
ATOM     86  C   UNL     1      11.817  -5.019   4.674  1.00  0.00     0.006 A 
ATOM     87  C   UNL     1      11.701  -2.605   5.481  1.00  0.00     0.049 C 
ATOM     88  C   UNL     1       9.486  -1.475   5.567  1.00  0.00     0.115 C 
ATOM     89  H   UNL     1       7.928  -2.909   5.494  1.00  0.00     0.161 HD
ATOM     90  C   UNL     1      10.869  -1.442   4.928  1.00  0.00     0.031 C 
ATOM     91  C   UNL     1      13.062  -2.184   5.012  1.00  0.00    -0.023 C 
ATOM     92  C   UNL     1      11.766  -0.230   5.168  1.00  0.00     0.034 C 
ATOM     93  C   UNL     1      13.106  -0.848   4.880  1.00  0.00    -0.030 C 
BRANCH  88  94
ATOM     94  C   UNL     1       8.453  -0.407   5.200  1.00  0.00    -0.011 A 
ATOM     95  C   UNL     1       7.429  -0.205   6.162  1.00  0.00     0.007 A 
ATOM     96  C   UNL     1       8.410   0.421   4.061  1.00  0.00     0.023 A 
ATOM     97  C   UNL     1       6.487   0.822   6.050  1.00  0.00     0.000 A 
ATOM     98  C   UNL     1       7.503   1.494   3.987  1.00  0.00     0.016 A 
ATOM     99  Br  UNL     1       9.408   0.169   2.463  1.00  0.00    -0.050 Br
ATOM    100  C   UNL     1       6.553   1.702   4.981  1.00  0.00     0.001 A 
ENDBRANCH  88  94
ENDBRANCH  77  80
ENDBRANCH  75  76
ENDBRANCH  74  75
ENDBRANCH  73  74
ENDBRANCH  72  73
ENDBRANCH   1  72
TORSDOF 17
