REMARK SMILES C[N@@H+](Cc1ncccc1C(=O)NCCCCCCNC(=O)c1ccc(-c2c3nc(c(-c4cc(S(=O)(=O)[O-])ccc4F)c4ccc([nH]4)c(-c4cc(S(=O)(=O)[O-])ccc4F)c4nc(c(-c5cc(S(=O)(=O)[O-])ccc5F)c5ccc2[nH]5)C=C4)C=C3)cc1)C[C@@H]1CCN(c2ccccc2)C1
REMARK SMILES IDX 14 1 13 2 12 3 10 4 11 5 9 7 4 8 5 9 6 10 8 11 7 12 3 13
REMARK SMILES IDX 2 14 1 15 85 17 86 18 87 19 96 20 88 21 89 22 90 23 91 24
REMARK SMILES IDX 95 25 92 26 94 27 93 28 15 29 16 30 17 31 18 32 19 33 20 34
REMARK SMILES IDX 21 36 22 37 23 38 84 39 24 40 83 41 25 42 26 43 27 44 77 45
REMARK SMILES IDX 28 46 82 47 76 48 78 49 29 50 81 51 75 52 74 53 30 55 62 56
REMARK SMILES IDX 42 57 61 58 43 59 46 60 60 61 79 62 44 63 45 64 59 66 80 67
REMARK SMILES IDX 47 68 31 69 32 70 40 71 33 72 39 73 41 74 38 75 34 76 35 77
REMARK SMILES IDX 36 78 37 79 63 80 64 81 72 82 65 83 71 84 73 85 70 86 66 87
REMARK SMILES IDX 67 88 68 89 69 90 48 91 49 92 57 93 50 94 56 95 58 96 55 97
REMARK SMILES IDX 51 98 52 99 53 100 54 101
REMARK H PARENT 12 6 2 16 19 35 78 54 46 65
REMARK Flexibility Score: inf
ROOT
ATOM      1  C   UNL     1       2.683   5.336  -2.730  1.00  0.00     0.021 C 
ENDROOT
BRANCH   1   2
ATOM      2  C   UNL     1       1.278   4.993  -3.190  1.00  0.00     0.116 C 
BRANCH   2   3
ATOM      3  N   UNL     1       1.084   3.529  -3.551  1.00  0.00    -0.352 N 
ATOM      4  C   UNL     1      -0.061   2.447  -3.315  1.00  0.00     0.253 C 
ATOM      5  O   UNL     1       0.354   1.728  -4.285  1.00  0.00    -0.269 OA
ATOM      6  H   UNL     1       1.850   3.161  -4.050  1.00  0.00     0.163 HD
BRANCH   4   7
ATOM      7  C   UNL     1      -1.556   2.212  -1.791  1.00  0.00     0.067 A 
ATOM      8  C   UNL     1      -1.797   0.941  -0.772  1.00  0.00     0.107 A 
ATOM      9  N   UNL     1      -2.582   0.916   0.365  1.00  0.00    -0.254 NA
ATOM     10  C   UNL     1      -3.206   2.031   0.756  1.00  0.00     0.111 A 
ATOM     11  C   UNL     1      -2.469   3.251  -1.170  1.00  0.00     0.017 A 
ATOM     12  C   UNL     1      -3.195   3.189   0.035  1.00  0.00     0.021 A 
BRANCH   8  13
ATOM     13  C   UNL     1      -1.002  -0.516  -0.789  1.00  0.00     0.320 C 
BRANCH  13  14
ATOM     14  N   UNL     1       0.515  -0.651  -0.740  1.00  0.00    -0.332 N 
ATOM     15  C   UNL     1       1.005  -0.531   0.635  1.00  0.00     0.333 C 
ATOM     16  H   UNL     1       0.715  -1.586  -1.096  1.00  0.00     0.348 HD
BRANCH  14  17
ATOM     17  C   UNL     1       1.246   0.290  -1.639  1.00  0.00     0.267 C 
BRANCH  17  18
ATOM     18  C   UNL     1       0.272   1.405  -1.773  1.00  0.00     0.065 C 
ATOM     19  C   UNL     1      -1.132   0.749  -3.116  1.00  0.00     0.032 C 
ATOM     20  C   UNL     1       0.033   3.404  -1.610  1.00  0.00     0.126 C 
ATOM     21  C   UNL     1      -2.015   2.346  -3.865  1.00  0.00     0.117 C 
ATOM     22  N   UNL     1      -1.270   3.881  -3.029  1.00  0.00    -0.371 N 
BRANCH  22  23
ATOM     23  C   UNL     1      -1.498   4.935  -3.938  1.00  0.00     0.037 A 
ATOM     24  C   UNL     1      -0.902   4.969  -5.222  1.00  0.00     0.026 A 
ATOM     25  C   UNL     1      -2.491   5.890  -3.719  1.00  0.00     0.026 A 
ATOM     26  C   UNL     1      -1.096   6.018  -6.128  1.00  0.00     0.002 A 
ATOM     27  C   UNL     1      -2.765   6.898  -4.661  1.00  0.00     0.002 A 
ATOM     28  C   UNL     1      -2.031   6.995  -5.840  1.00  0.00     0.000 A 
ENDBRANCH  22  23
ENDBRANCH  17  18
ENDBRANCH  14  17
ENDBRANCH  13  14
ENDBRANCH   8  13
ENDBRANCH   4   7
ENDBRANCH   2   3
ENDBRANCH   1   2
BRANCH   1  29
ATOM     29  C   UNL     1       3.625   5.557  -3.906  1.00  0.00     0.002 C 
BRANCH  29  30
ATOM     30  C   UNL     1       3.035   6.399  -5.052  1.00  0.00     0.002 C 
BRANCH  30  31
ATOM     31  C   UNL     1       2.372   7.720  -4.626  1.00  0.00     0.021 C 
BRANCH  31  32
ATOM     32  C   UNL     1       3.267   8.589  -3.764  1.00  0.00     0.116 C 
BRANCH  32  33
ATOM     33  N   UNL     1       4.535   8.804  -4.434  1.00  0.00    -0.352 N 
ATOM     34  C   UNL     1       5.013   9.979  -4.939  1.00  0.00     0.251 C 
ATOM     35  H   UNL     1       5.115   8.016  -4.536  1.00  0.00     0.163 HD
ATOM     36  O   UNL     1       5.813   9.972  -5.868  1.00  0.00    -0.269 OA
BRANCH  34  37
ATOM     37  C   UNL     1       4.551  11.236  -4.326  1.00  0.00     0.039 A 
ATOM     38  C   UNL     1       4.355  12.349  -5.137  1.00  0.00     0.014 A 
ATOM     39  C   UNL     1       4.326  11.303  -2.945  1.00  0.00     0.014 A 
ATOM     40  C   UNL     1       3.929  13.536  -4.554  1.00  0.00     0.010 A 
ATOM     41  C   UNL     1       3.789  12.451  -2.387  1.00  0.00     0.010 A 
ATOM     42  C   UNL     1       3.625  13.590  -3.181  1.00  0.00    -0.014 A 
BRANCH  42  43
ATOM     43  C   UNL     1       3.166  14.858  -2.574  1.00  0.00     0.031 A 
ATOM     44  C   UNL     1       3.996  15.534  -1.520  1.00  0.00     0.074 A 
ATOM     45  C   UNL     1       2.007  15.393  -3.000  1.00  0.00     0.049 A 
ATOM     46  N   UNL     1       3.802  16.688  -0.937  1.00  0.00    -0.248 NA
ATOM     47  C   UNL     1       5.184  14.813  -1.036  1.00  0.00     0.031 C 
ATOM     48  C   UNL     1       1.105  14.777  -3.978  1.00  0.00     0.029 A 
ATOM     49  N   UNL     1       1.402  16.582  -2.694  1.00  0.00    -0.354 N 
ATOM     50  C   UNL     1       4.842  16.831  -0.026  1.00  0.00     0.074 A 
ATOM     51  C   UNL     1       5.615  15.611  -0.072  1.00  0.00     0.031 C 
ATOM     52  C   UNL     1       0.102  15.626  -4.245  1.00  0.00     0.029 A 
ATOM     53  C   UNL     1       0.256  16.816  -3.416  1.00  0.00     0.049 A 
ATOM     54  H   UNL     1       1.754  17.209  -2.021  1.00  0.00     0.167 HD
ATOM     55  C   UNL     1       5.140  17.899   0.753  1.00  0.00     0.034 A 
ATOM     56  C   UNL     1      -0.574  17.876  -3.410  1.00  0.00     0.034 A 
ATOM     57  C   UNL     1       4.346  19.103   0.778  1.00  0.00     0.049 A 
ATOM     58  C   UNL     1      -0.234  19.039  -2.514  1.00  0.00     0.074 A 
ATOM     59  C   UNL     1       4.567  20.265   1.493  1.00  0.00     0.029 A 
ATOM     60  N   UNL     1       3.169  19.294   0.063  1.00  0.00    -0.354 N 
ATOM     61  N   UNL     1       0.790  19.188  -1.704  1.00  0.00    -0.248 NA
ATOM     62  C   UNL     1      -1.153  20.180  -2.546  1.00  0.00     0.031 C 
ATOM     63  C   UNL     1       3.481  21.120   1.283  1.00  0.00     0.029 A 
ATOM     64  C   UNL     1       2.631  20.538   0.354  1.00  0.00     0.049 A 
ATOM     65  H   UNL     1       2.774  18.641  -0.559  1.00  0.00     0.167 HD
ATOM     66  C   UNL     1       0.651  20.457  -1.150  1.00  0.00     0.074 A 
ATOM     67  C   UNL     1      -0.537  21.036  -1.745  1.00  0.00     0.031 C 
ATOM     68  C   UNL     1       1.432  21.089  -0.234  1.00  0.00     0.034 A 
BRANCH  55  69
ATOM     69  C   UNL     1       6.349  17.793   1.653  1.00  0.00     0.023 A 
ATOM     70  C   UNL     1       7.644  17.598   1.139  1.00  0.00     0.031 A 
ATOM     71  C   UNL     1       6.203  17.863   3.050  1.00  0.00     0.131 A 
ATOM     72  C   UNL     1       8.725  17.407   2.013  1.00  0.00     0.055 A 
ATOM     73  C   UNL     1       7.297  17.764   3.912  1.00  0.00     0.041 A 
ATOM     74  F   UNL     1       4.990  18.017   3.604  1.00  0.00    -0.206 F 
ATOM     75  C   UNL     1       8.566  17.519   3.396  1.00  0.00     0.022 A 
BRANCH  72  76
ATOM     76  S   UNL     1      10.310  16.854   1.325  1.00  0.00     0.124 S 
ATOM     77  O   UNL     1       9.925  15.611   0.660  1.00  0.00    -0.237 OA
ATOM     78  O   UNL     1      10.678  17.960   0.450  1.00  0.00    -0.237 OA
ATOM     79  O   UNL     1      11.155  16.683   2.505  1.00  0.00    -0.744 OA
ENDBRANCH  72  76
ENDBRANCH  55  69
BRANCH  56  80
ATOM     80  C   UNL     1      -1.793  17.886  -4.268  1.00  0.00     0.023 A 
ATOM     81  C   UNL     1      -1.974  18.856  -5.266  1.00  0.00     0.031 A 
ATOM     82  C   UNL     1      -2.820  16.945  -4.071  1.00  0.00     0.131 A 
ATOM     83  C   UNL     1      -3.175  18.898  -5.990  1.00  0.00     0.055 A 
ATOM     84  C   UNL     1      -3.984  16.949  -4.841  1.00  0.00     0.041 A 
ATOM     85  F   UNL     1      -2.700  15.994  -3.131  1.00  0.00    -0.206 F 
ATOM     86  C   UNL     1      -4.174  17.941  -5.796  1.00  0.00     0.022 A 
BRANCH  83  87
ATOM     87  S   UNL     1      -3.464  20.295  -7.111  1.00  0.00     0.124 S 
ATOM     88  O   UNL     1      -3.313  21.432  -6.212  1.00  0.00    -0.237 OA
ATOM     89  O   UNL     1      -2.407  20.112  -8.100  1.00  0.00    -0.237 OA
ATOM     90  O   UNL     1      -4.821  20.061  -7.601  1.00  0.00    -0.744 OA
ENDBRANCH  83  87
ENDBRANCH  56  80
BRANCH  68  91
ATOM     91  C   UNL     1       1.032  22.496   0.142  1.00  0.00     0.023 A 
ATOM     92  C   UNL     1      -0.198  22.774   0.762  1.00  0.00     0.031 A 
ATOM     93  C   UNL     1       1.877  23.579  -0.162  1.00  0.00     0.131 A 
ATOM     94  C   UNL     1      -0.590  24.104   0.972  1.00  0.00     0.055 A 
ATOM     95  C   UNL     1       1.520  24.895   0.132  1.00  0.00     0.041 A 
ATOM     96  F   UNL     1       3.063  23.376  -0.758  1.00  0.00    -0.206 F 
ATOM     97  C   UNL     1       0.271  25.165   0.682  1.00  0.00     0.022 A 
BRANCH  94  98
ATOM     98  S   UNL     1      -2.299  24.431   1.482  1.00  0.00     0.124 S 
ATOM     99  O   UNL     1      -3.060  23.767   0.429  1.00  0.00    -0.237 OA
ATOM    100  O   UNL     1      -2.356  23.806   2.800  1.00  0.00    -0.237 OA
ATOM    101  O   UNL     1      -2.382  25.890   1.484  1.00  0.00    -0.744 OA
ENDBRANCH  94  98
ENDBRANCH  68  91
ENDBRANCH  42  43
ENDBRANCH  34  37
ENDBRANCH  32  33
ENDBRANCH  31  32
ENDBRANCH  30  31
ENDBRANCH  29  30
ENDBRANCH   1  29
TORSDOF 21
