REMARK SMILES C[C@@H]1C[C@H](C)C[C@H]([N@@H+]2[C@@H](C(=O)NCCCCCCNC(=O)c3ccc(-c4c5nc(c(-c6cc(S(=O)(=O)[O-])ccc6F)c6ccc([nH]6)c(-c6cc(S(=O)(=O)[O-])ccc6F)c6nc(c(-c7cc(S(=O)(=O)[O-])ccc7F)c7ccc4[nH]7)C=C6)C=C5)cc3)CC[C@@H]3CCCC[C@@H]32)C1
REMARK SMILES IDX 16 1 15 2 14 3 13 4 12 5 10 6 11 7 9 9 8 10 92 11 85 13
REMARK SMILES IDX 87 14 91 15 86 16 88 17 90 18 89 19 7 20 5 21 4 22 6 23 3 24
REMARK SMILES IDX 2 25 93 26 1 27 17 28 18 29 19 30 20 31 21 33 22 34 23 35
REMARK SMILES IDX 84 36 24 37 83 38 25 39 26 40 27 41 77 42 28 43 82 44 76 45
REMARK SMILES IDX 78 46 29 47 81 48 75 49 74 50 30 52 62 53 42 54 61 55 43 56
REMARK SMILES IDX 46 57 60 58 79 59 44 60 45 61 59 63 80 64 47 65 31 66 32 67
REMARK SMILES IDX 40 68 33 69 39 70 41 71 38 72 34 73 35 74 36 75 37 76 63 77
REMARK SMILES IDX 64 78 72 79 65 80 71 81 73 82 70 83 66 84 67 85 68 86 69 87
REMARK SMILES IDX 48 88 49 89 57 90 50 91 56 92 58 93 55 94 51 95 52 96 53 97
REMARK SMILES IDX 54 98
REMARK H PARENT 12 8 8 12 19 32 78 51 46 62
REMARK Flexibility Score: inf
ROOT
ATOM      1  C   UNL     1       6.167  -2.155  -5.242  1.00  0.00     0.002 C 
ENDROOT
BRANCH   1   2
ATOM      2  C   UNL     1       6.523  -2.499  -3.790  1.00  0.00     0.002 C 
BRANCH   2   3
ATOM      3  C   UNL     1       5.419  -2.191  -2.778  1.00  0.00     0.021 C 
BRANCH   3   4
ATOM      4  C   UNL     1       4.168  -3.046  -2.979  1.00  0.00     0.116 C 
BRANCH   4   5
ATOM      5  N   UNL     1       4.296  -4.285  -2.236  1.00  0.00    -0.351 N 
ATOM      6  C   UNL     1       3.756  -4.683  -1.049  1.00  0.00     0.278 C 
ATOM      7  O   UNL     1       4.371  -5.587  -0.465  1.00  0.00    -0.268 OA
ATOM      8  H   UNL     1       4.874  -4.957  -2.664  1.00  0.00     0.163 HD
BRANCH   6   9
ATOM      9  C   UNL     1       2.355  -4.244  -0.543  1.00  0.00     0.274 C 
ATOM     10  N   UNL     1       1.904  -2.873  -0.931  1.00  0.00    -0.320 N 
ATOM     11  C   UNL     1       2.620  -1.838  -0.131  1.00  0.00     0.188 C 
ATOM     12  H   UNL     1       2.156  -2.291  -1.730  1.00  0.00     0.349 HD
ATOM     13  C   UNL     1       2.156  -4.468   0.965  1.00  0.00     0.076 C 
ATOM     14  C   UNL     1       2.672  -2.012   1.403  1.00  0.00     0.048 C 
ATOM     15  C   UNL     1       2.640  -0.331  -0.455  1.00  0.00     0.065 C 
ATOM     16  C   UNL     1       2.900  -3.461   1.825  1.00  0.00     0.016 C 
ATOM     17  C   UNL     1       1.490  -1.344   2.089  1.00  0.00     0.010 C 
ATOM     18  C   UNL     1       2.143   0.679   0.593  1.00  0.00     0.006 C 
ATOM     19  C   UNL     1       1.516   0.169   1.890  1.00  0.00     0.001 C 
BRANCH  10  20
ATOM     20  C   UNL     1       0.578  -2.909  -1.615  1.00  0.00     0.185 C 
ATOM     21  C   UNL     1      -0.761  -0.026  -0.680  1.00  0.00     0.008 C 
ATOM     22  C   UNL     1      -1.383  -1.214  -1.365  1.00  0.00    -0.008 C 
ATOM     23  C   UNL     1      -0.730  -2.519  -0.920  1.00  0.00     0.068 C 
ATOM     24  C   UNL     1      -1.415  -1.022  -2.884  1.00  0.00     0.007 C 
ATOM     25  C   UNL     1      -0.141  -1.391  -3.658  1.00  0.00    -0.008 C 
ATOM     26  C   UNL     1       0.515  -2.676  -3.152  1.00  0.00     0.068 C 
ATOM     27  C   UNL     1       0.878  -0.269  -3.830  1.00  0.00     0.008 C 
ENDBRANCH  10  20
ENDBRANCH   6   9
ENDBRANCH   4   5
ENDBRANCH   3   4
ENDBRANCH   2   3
ENDBRANCH   1   2
BRANCH   1  28
ATOM     28  C   UNL     1       5.699  -0.714  -5.471  1.00  0.00     0.021 C 
BRANCH  28  29
ATOM     29  C   UNL     1       6.696   0.350  -5.022  1.00  0.00     0.116 C 
BRANCH  29  30
ATOM     30  N   UNL     1       7.952   0.240  -5.743  1.00  0.00    -0.352 N 
ATOM     31  C   UNL     1       8.599   1.177  -6.508  1.00  0.00     0.251 C 
ATOM     32  H   UNL     1       8.403  -0.632  -5.673  1.00  0.00     0.163 HD
ATOM     33  O   UNL     1       9.502   0.827  -7.259  1.00  0.00    -0.269 OA
BRANCH  31  34
ATOM     34  C   UNL     1       8.201   2.599  -6.426  1.00  0.00     0.039 A 
ATOM     35  C   UNL     1       8.156   3.359  -7.597  1.00  0.00     0.014 A 
ATOM     36  C   UNL     1       7.915   3.193  -5.192  1.00  0.00     0.014 A 
ATOM     37  C   UNL     1       7.798   4.707  -7.533  1.00  0.00     0.010 A 
ATOM     38  C   UNL     1       7.484   4.516  -5.140  1.00  0.00     0.010 A 
ATOM     39  C   UNL     1       7.444   5.294  -6.307  1.00  0.00    -0.014 A 
BRANCH  39  40
ATOM     40  C   UNL     1       7.091   6.735  -6.218  1.00  0.00     0.031 A 
ATOM     41  C   UNL     1       7.969   7.667  -5.424  1.00  0.00     0.074 A 
ATOM     42  C   UNL     1       5.975   7.194  -6.817  1.00  0.00     0.049 A 
ATOM     43  N   UNL     1       7.800   8.937  -5.155  1.00  0.00    -0.248 NA
ATOM     44  C   UNL     1       9.183   7.085  -4.830  1.00  0.00     0.031 C 
ATOM     45  C   UNL     1       5.032   6.378  -7.586  1.00  0.00     0.029 A 
ATOM     46  N   UNL     1       5.438   8.456  -6.868  1.00  0.00    -0.354 N 
ATOM     47  C   UNL     1       8.882   9.303  -4.361  1.00  0.00     0.074 A 
ATOM     48  C   UNL     1       9.657   8.103  -4.128  1.00  0.00     0.031 C 
ATOM     49  C   UNL     1       4.045   7.164  -8.046  1.00  0.00     0.029 A 
ATOM     50  C   UNL     1       4.257   8.528  -7.571  1.00  0.00     0.049 A 
ATOM     51  H   UNL     1       5.859   9.237  -6.441  1.00  0.00     0.167 HD
ATOM     52  C   UNL     1       9.218  10.531  -3.896  1.00  0.00     0.034 A 
ATOM     53  C   UNL     1       3.434   9.572  -7.794  1.00  0.00     0.034 A 
ATOM     54  C   UNL     1       8.439  11.720  -4.143  1.00  0.00     0.049 A 
ATOM     55  C   UNL     1       3.818  10.926  -7.247  1.00  0.00     0.074 A 
ATOM     56  C   UNL     1       8.684  13.016  -3.726  1.00  0.00     0.029 A 
ATOM     57  N   UNL     1       7.263  11.758  -4.882  1.00  0.00    -0.354 N 
ATOM     58  N   UNL     1       4.857  11.258  -6.515  1.00  0.00    -0.248 NA
ATOM     59  C   UNL     1       2.933  12.050  -7.576  1.00  0.00     0.031 C 
ATOM     60  C   UNL     1       7.631  13.826  -4.164  1.00  0.00     0.029 A 
ATOM     61  C   UNL     1       6.769  13.052  -4.924  1.00  0.00     0.049 A 
ATOM     62  H   UNL     1       6.841  10.979  -5.312  1.00  0.00     0.167 HD
ATOM     63  C   UNL     1       4.771  12.637  -6.338  1.00  0.00     0.074 A 
ATOM     64  C   UNL     1       3.590  13.073  -7.052  1.00  0.00     0.031 C 
ATOM     65  C   UNL     1       5.594  13.471  -5.651  1.00  0.00     0.034 A 
BRANCH  52  66
ATOM     66  C   UNL     1      10.476  10.641  -3.067  1.00  0.00     0.023 A 
ATOM     67  C   UNL     1      11.739  10.339  -3.608  1.00  0.00     0.031 A 
ATOM     68  C   UNL     1      10.417  11.034  -1.719  1.00  0.00     0.131 A 
ATOM     69  C   UNL     1      12.878  10.367  -2.790  1.00  0.00     0.055 A 
ATOM     70  C   UNL     1      11.566  11.141  -0.932  1.00  0.00     0.041 A 
ATOM     71  F   UNL     1       9.239  11.313  -1.139  1.00  0.00    -0.206 F 
ATOM     72  C   UNL     1      12.805  10.794  -1.463  1.00  0.00     0.022 A 
BRANCH  69  73
ATOM     73  S   UNL     1      14.434   9.711  -3.450  1.00  0.00     0.124 S 
ATOM     74  O   UNL     1      14.072   8.323  -3.729  1.00  0.00    -0.237 OA
ATOM     75  O   UNL     1      14.667  10.557  -4.615  1.00  0.00    -0.237 OA
ATOM     76  O   UNL     1      15.377   9.892  -2.349  1.00  0.00    -0.744 OA
ENDBRANCH  69  73
ENDBRANCH  52  66
BRANCH  53  77
ATOM     77  C   UNL     1       2.162   9.392  -8.555  1.00  0.00     0.023 A 
ATOM     78  C   UNL     1       1.933  10.075  -9.760  1.00  0.00     0.031 A 
ATOM     79  C   UNL     1       1.125   8.588  -8.049  1.00  0.00     0.131 A 
ATOM     80  C   UNL     1       0.676  10.001 -10.380  1.00  0.00     0.055 A 
ATOM     81  C   UNL     1      -0.101   8.464  -8.705  1.00  0.00     0.041 A 
ATOM     82  F   UNL     1       1.289   7.907  -6.903  1.00  0.00    -0.206 F 
ATOM     83  C   UNL     1      -0.339   9.190  -9.868  1.00  0.00     0.022 A 
BRANCH  80  84
ATOM     84  S   UNL     1       0.342  11.085 -11.796  1.00  0.00     0.124 S 
ATOM     85  O   UNL     1       0.653  12.398 -11.244  1.00  0.00    -0.237 OA
ATOM     86  O   UNL     1       1.274  10.571 -12.795  1.00  0.00    -0.237 OA
ATOM     87  O   UNL     1      -1.071  10.845 -12.081  1.00  0.00    -0.744 OA
ENDBRANCH  80  84
ENDBRANCH  53  77
BRANCH  65  88
ATOM     88  C   UNL     1       5.283  14.947  -5.710  1.00  0.00     0.023 A 
ATOM     89  C   UNL     1       4.110  15.486  -5.153  1.00  0.00     0.031 A 
ATOM     90  C   UNL     1       6.172  15.826  -6.356  1.00  0.00     0.131 A 
ATOM     91  C   UNL     1       3.824  16.850  -5.314  1.00  0.00     0.055 A 
ATOM     92  C   UNL     1       5.915  17.194  -6.452  1.00  0.00     0.041 A 
ATOM     93  F   UNL     1       7.308  15.367  -6.906  1.00  0.00    -0.206 F 
ATOM     94  C   UNL     1       4.726  17.710  -5.944  1.00  0.00     0.022 A 
BRANCH  91  95
ATOM     95  S   UNL     1       2.200  17.465  -4.789  1.00  0.00     0.124 S 
ATOM     96  O   UNL     1       1.291  16.606  -5.541  1.00  0.00    -0.237 OA
ATOM     97  O   UNL     1       2.236  17.247  -3.347  1.00  0.00    -0.237 OA
ATOM     98  O   UNL     1       2.214  18.867  -5.204  1.00  0.00    -0.744 OA
ENDBRANCH  91  95
ENDBRANCH  65  88
ENDBRANCH  39  40
ENDBRANCH  31  34
ENDBRANCH  29  30
ENDBRANCH  28  29
ENDBRANCH   1  28
TORSDOF 17
