REMARK SMILES CC(C)C[NH2+][C@@H](CC(=O)Nc1cccc(Cl)c1)C(=O)NCCCCCCNC(=O)c1ccc(-c2c3nc(c(-c4cc(S(=O)(=O)[O-])ccc4F)c4ccc([nH]4)c(-c4cc(S(=O)(=O)[O-])ccc4F)c4nc(c(-c5cc(S(=O)(=O)[O-])ccc5F)c5ccc2[nH]5)C=C4)C=C3)cc1
REMARK SMILES IDX 23 1 22 2 21 3 20 4 18 5 19 6 6 8 5 9 4 12 2 13 1 14 3 15
REMARK SMILES IDX 7 16 8 17 9 18 10 19 11 21 12 22 17 23 13 24 15 25 14 26
REMARK SMILES IDX 16 27 24 28 25 29 26 30 27 31 28 32 29 34 30 35 31 36 92 37
REMARK SMILES IDX 32 38 91 39 33 40 34 41 35 42 85 43 36 44 90 45 84 46 86 47
REMARK SMILES IDX 37 48 89 49 83 50 82 51 38 53 70 54 50 55 69 56 51 57 54 58
REMARK SMILES IDX 68 59 87 60 52 61 53 62 67 64 88 65 55 66 39 67 40 68 48 69
REMARK SMILES IDX 41 70 47 71 49 72 46 73 42 74 43 75 44 76 45 77 71 78 72 79
REMARK SMILES IDX 80 80 73 81 79 82 81 83 78 84 74 85 75 86 76 87 77 88 56 89
REMARK SMILES IDX 57 90 65 91 58 92 64 93 66 94 63 95 59 96 60 97 61 98 62 99
REMARK H PARENT 20 7 5 10 5 11 10 20 27 33 86 52 54 63
REMARK Flexibility Score: inf
ROOT
ATOM      1  C   UNL     1      -1.871   5.163  -2.108  1.00  0.00     0.002 C 
ENDROOT
BRANCH   1   2
ATOM      2  C   UNL     1      -1.490   3.722  -1.806  1.00  0.00     0.021 C 
BRANCH   2   3
ATOM      3  C   UNL     1      -2.623   2.861  -1.259  1.00  0.00     0.116 C 
BRANCH   3   4
ATOM      4  N   UNL     1      -3.441   2.188  -2.236  1.00  0.00    -0.351 N 
ATOM      5  C   UNL     1      -3.941   0.915  -2.220  1.00  0.00     0.278 C 
ATOM      6  O   UNL     1      -4.707   0.620  -3.148  1.00  0.00    -0.268 OA
ATOM      7  H   UNL     1      -3.675   2.723  -3.029  1.00  0.00     0.163 HD
BRANCH   5   8
ATOM      8  C   UNL     1      -3.538  -0.186  -1.175  1.00  0.00     0.281 C 
BRANCH   8   9
ATOM      9  N   UNL     1      -2.267  -0.785  -1.553  1.00  0.00    -0.335 N 
ATOM     10  H   UNL     1      -2.451  -1.367  -2.370  1.00  0.00     0.346 HD
ATOM     11  H   UNL     1      -1.660   0.027  -1.668  1.00  0.00     0.346 HD
BRANCH   9  12
ATOM     12  C   UNL     1      -1.520  -1.615  -0.611  1.00  0.00     0.264 C 
BRANCH  12  13
ATOM     13  C   UNL     1       0.281  -1.408  -0.430  1.00  0.00     0.038 C 
ATOM     14  C   UNL     1       1.444   0.418  -0.070  1.00  0.00     0.013 C 
ATOM     15  C   UNL     1       0.430  -2.968   0.324  1.00  0.00     0.013 C 
ENDBRANCH  12  13
ENDBRANCH   9  12
ENDBRANCH   8   9
BRANCH   8  16
ATOM     16  C   UNL     1      -3.786   0.160   0.285  1.00  0.00     0.175 C 
BRANCH  16  17
ATOM     17  C   UNL     1      -2.893   1.058   1.122  1.00  0.00     0.230 C 
ATOM     18  O   UNL     1      -3.442   1.876   1.876  1.00  0.00    -0.274 OA
ATOM     19  N   UNL     1      -1.544   0.947   1.248  1.00  0.00    -0.326 N 
ATOM     20  H   UNL     1      -1.198   1.427   2.036  1.00  0.00     0.169 HD
BRANCH  19  21
ATOM     21  C   UNL     1      -0.526   0.310   0.519  1.00  0.00     0.042 A 
ATOM     22  C   UNL     1      -0.207   0.476  -1.270  1.00  0.00     0.026 A 
ATOM     23  C   UNL     1       0.625  -0.621   1.539  1.00  0.00     0.046 A 
ATOM     24  C   UNL     1       1.252  -0.283  -2.016  1.00  0.00     0.004 A 
ATOM     25  C   UNL     1       2.094  -1.331   0.791  1.00  0.00     0.043 A 
ATOM     26  C   UNL     1       2.374  -1.235  -0.985  1.00  0.00     0.020 A 
ATOM     27  Cl  UNL     1       3.317  -1.990   1.810  1.00  0.00    -0.084 Cl
ENDBRANCH  19  21
ENDBRANCH  16  17
ENDBRANCH   8  16
ENDBRANCH   5   8
ENDBRANCH   3   4
ENDBRANCH   2   3
ENDBRANCH   1   2
BRANCH   1  28
ATOM     28  C   UNL     1      -2.478   5.931  -0.930  1.00  0.00     0.002 C 
BRANCH  28  29
ATOM     29  C   UNL     1      -1.623   5.989   0.341  1.00  0.00     0.021 C 
BRANCH  29  30
ATOM     30  C   UNL     1      -0.230   6.587   0.156  1.00  0.00     0.116 C 
BRANCH  30  31
ATOM     31  N   UNL     1      -0.281   7.913  -0.438  1.00  0.00    -0.352 N 
ATOM     32  C   UNL     1       0.184   9.112   0.040  1.00  0.00     0.251 C 
ATOM     33  H   UNL     1      -0.716   7.958  -1.320  1.00  0.00     0.163 HD
ATOM     34  O   UNL     1      -0.166  10.157  -0.502  1.00  0.00    -0.269 OA
BRANCH  32  35
ATOM     35  C   UNL     1       1.088   9.145   1.210  1.00  0.00     0.039 A 
ATOM     36  C   UNL     1       0.891  10.120   2.189  1.00  0.00     0.014 A 
ATOM     37  C   UNL     1       2.137   8.229   1.333  1.00  0.00     0.014 A 
ATOM     38  C   UNL     1       1.710  10.139   3.321  1.00  0.00     0.010 A 
ATOM     39  C   UNL     1       2.898   8.198   2.499  1.00  0.00     0.010 A 
ATOM     40  C   UNL     1       2.695   9.154   3.505  1.00  0.00    -0.014 A 
BRANCH  40  41
ATOM     41  C   UNL     1       3.515   9.112   4.745  1.00  0.00     0.031 A 
ATOM     42  C   UNL     1       5.008   9.287   4.673  1.00  0.00     0.074 A 
ATOM     43  C   UNL     1       2.918   8.869   5.929  1.00  0.00     0.049 A 
ATOM     44  N   UNL     1       5.894   9.226   5.634  1.00  0.00    -0.248 NA
ATOM     45  C   UNL     1       5.582   9.540   3.343  1.00  0.00     0.031 C 
ATOM     46  C   UNL     1       1.482   8.653   6.121  1.00  0.00     0.029 A 
ATOM     47  N   UNL     1       3.439   8.762   7.195  1.00  0.00    -0.354 N 
ATOM     48  C   UNL     1       7.129   9.426   5.025  1.00  0.00     0.074 A 
ATOM     49  C   UNL     1       6.880   9.544   3.604  1.00  0.00     0.031 C 
ATOM     50  C   UNL     1       1.234   8.475   7.428  1.00  0.00     0.029 A 
ATOM     51  C   UNL     1       2.494   8.500   8.162  1.00  0.00     0.049 A 
ATOM     52  H   UNL     1       4.398   8.862   7.393  1.00  0.00     0.167 HD
ATOM     53  C   UNL     1       8.353   9.525   5.602  1.00  0.00     0.034 A 
ATOM     54  C   UNL     1       2.629   8.287   9.487  1.00  0.00     0.034 A 
ATOM     55  C   UNL     1       8.581   9.405   7.022  1.00  0.00     0.049 A 
ATOM     56  C   UNL     1       4.008   8.344  10.095  1.00  0.00     0.074 A 
ATOM     57  C   UNL     1       9.773   9.534   7.714  1.00  0.00     0.029 A 
ATOM     58  N   UNL     1       7.605   9.114   7.966  1.00  0.00    -0.354 N 
ATOM     59  N   UNL     1       5.160   8.582   9.511  1.00  0.00    -0.248 NA
ATOM     60  C   UNL     1       4.104   8.114  11.542  1.00  0.00     0.031 C 
ATOM     61  C   UNL     1       9.534   9.229   9.057  1.00  0.00     0.029 A 
ATOM     62  C   UNL     1       8.176   9.015   9.226  1.00  0.00     0.049 A 
ATOM     63  H   UNL     1       6.647   8.995   7.770  1.00  0.00     0.167 HD
ATOM     64  C   UNL     1       6.112   8.566  10.528  1.00  0.00     0.074 A 
ATOM     65  C   UNL     1       5.396   8.312  11.761  1.00  0.00     0.031 C 
ATOM     66  C   UNL     1       7.455   8.751  10.450  1.00  0.00     0.034 A 
BRANCH  53  67
ATOM     67  C   UNL     1       9.540   9.742   4.692  1.00  0.00     0.023 A 
ATOM     68  C   UNL     1       9.658  10.890   3.888  1.00  0.00     0.031 A 
ATOM     69  C   UNL     1      10.566   8.783   4.620  1.00  0.00     0.131 A 
ATOM     70  C   UNL     1      10.734  11.013   2.996  1.00  0.00     0.055 A 
ATOM     71  C   UNL     1      11.680   8.955   3.797  1.00  0.00     0.041 A 
ATOM     72  F   UNL     1      10.499   7.654   5.343  1.00  0.00    -0.206 F 
ATOM     73  C   UNL     1      11.762  10.069   2.967  1.00  0.00     0.022 A 
BRANCH  70  74
ATOM     74  S   UNL     1      10.689  12.345   1.766  1.00  0.00     0.124 S 
ATOM     75  O   UNL     1       9.433  12.064   1.073  1.00  0.00    -0.237 OA
ATOM     76  O   UNL     1      10.707  13.543   2.596  1.00  0.00    -0.237 OA
ATOM     77  O   UNL     1      11.893  12.117   0.970  1.00  0.00    -0.744 OA
ENDBRANCH  70  74
ENDBRANCH  53  67
BRANCH  54  78
ATOM     78  C   UNL     1       1.436   7.975  10.330  1.00  0.00     0.023 A 
ATOM     79  C   UNL     1       1.059   8.813  11.392  1.00  0.00     0.031 A 
ATOM     80  C   UNL     1       0.689   6.802  10.122  1.00  0.00     0.131 A 
ATOM     81  C   UNL     1       0.005   8.438  12.239  1.00  0.00     0.055 A 
ATOM     82  C   UNL     1      -0.403   6.468  10.925  1.00  0.00     0.041 A 
ATOM     83  F   UNL     1       1.006   5.960   9.125  1.00  0.00    -0.206 F 
ATOM     84  C   UNL     1      -0.740   7.281  12.002  1.00  0.00     0.022 A 
BRANCH  81  85
ATOM     85  S   UNL     1      -0.301   9.424  13.731  1.00  0.00     0.124 S 
ATOM     86  O   UNL     1       0.992   9.356  14.400  1.00  0.00    -0.237 OA
ATOM     87  O   UNL     1      -0.667  10.720  13.168  1.00  0.00    -0.237 OA
ATOM     88  O   UNL     1      -1.387   8.706  14.395  1.00  0.00    -0.744 OA
ENDBRANCH  81  85
ENDBRANCH  54  78
BRANCH  66  89
ATOM     89  C   UNL     1       8.231   8.740  11.746  1.00  0.00     0.023 A 
ATOM     90  C   UNL     1       8.324   7.591  12.551  1.00  0.00     0.031 A 
ATOM     91  C   UNL     1       8.885   9.906  12.187  1.00  0.00     0.131 A 
ATOM     92  C   UNL     1       8.998   7.650  13.780  1.00  0.00     0.055 A 
ATOM     93  C   UNL     1       9.619   9.937  13.372  1.00  0.00     0.041 A 
ATOM     94  F   UNL     1       8.825  11.038  11.465  1.00  0.00    -0.206 F 
ATOM     95  C   UNL     1       9.666   8.809  14.185  1.00  0.00     0.022 A 
BRANCH  92  96
ATOM     96  S   UNL     1       8.894   6.226  14.899  1.00  0.00     0.124 S 
ATOM     97  O   UNL     1       7.452   6.089  15.079  1.00  0.00    -0.237 OA
ATOM     98  O   UNL     1       9.543   5.173  14.125  1.00  0.00    -0.237 OA
ATOM     99  O   UNL     1       9.628   6.667  16.083  1.00  0.00    -0.744 OA
ENDBRANCH  92  96
ENDBRANCH  66  89
ENDBRANCH  40  41
ENDBRANCH  32  35
ENDBRANCH  30  31
ENDBRANCH  29  30
ENDBRANCH  28  29
ENDBRANCH   1  28
TORSDOF 22
