REMARK SMILES CO[C@H]1C[C@@H](C(=O)NCCCCCCNC(=O)c2ccc(-c3c4nc(c(-c5cc(S(=O)(=O)[O-])ccc5F)c5ccc([nH]5)c(-c5cc(S(=O)(=O)[O-])ccc5F)c5nc(c(-c6cc(S(=O)(=O)[O-])ccc6F)c6ccc3[nH]6)C=C5)C=C4)cc2)N(C(=O)Nc2cc(C)cc(F)c2)C1
REMARK SMILES IDX 12 1 11 2 10 3 9 4 8 5 6 6 7 7 5 9 3 10 4 11 93 12 81 13
REMARK SMILES IDX 2 14 1 15 82 16 83 17 84 18 85 20 86 21 92 22 87 23 90 24
REMARK SMILES IDX 88 25 89 26 91 27 13 28 14 29 15 30 16 31 17 33 18 34 19 35
REMARK SMILES IDX 80 36 20 37 79 38 21 39 22 40 23 41 73 42 24 43 78 44 72 45
REMARK SMILES IDX 74 46 25 47 77 48 71 49 70 50 26 52 58 53 38 54 57 55 39 56
REMARK SMILES IDX 42 57 56 58 75 59 40 60 41 61 55 63 76 64 43 65 27 66 28 67
REMARK SMILES IDX 36 68 29 69 35 70 37 71 34 72 30 73 31 74 32 75 33 76 59 77
REMARK SMILES IDX 60 78 68 79 61 80 67 81 69 82 66 83 62 84 63 85 64 86 65 87
REMARK SMILES IDX 44 88 45 89 53 90 46 91 52 92 54 93 51 94 47 95 48 96 49 97
REMARK SMILES IDX 50 98
REMARK H PARENT 8 8 84 19 15 32 74 51 42 62
REMARK Flexibility Score: inf
ROOT
ATOM      1  C   UNL     1       6.013   6.681   0.609  1.00  0.00     0.002 C 
ENDROOT
BRANCH   1   2
ATOM      2  C   UNL     1       4.500   6.667   0.802  1.00  0.00     0.002 C 
BRANCH   2   3
ATOM      3  C   UNL     1       3.673   6.042  -0.330  1.00  0.00     0.021 C 
BRANCH   3   4
ATOM      4  C   UNL     1       4.009   4.601  -0.726  1.00  0.00     0.116 C 
BRANCH   4   5
ATOM      5  N   UNL     1       3.947   3.619   0.339  1.00  0.00    -0.354 N 
ATOM      6  C   UNL     1       2.945   2.840   0.830  1.00  0.00     0.242 C 
ATOM      7  O   UNL     1       3.278   1.973   1.650  1.00  0.00    -0.273 OA
ATOM      8  H   UNL     1       4.807   3.489   0.801  1.00  0.00     0.163 HD
BRANCH   6   9
ATOM      9  C   UNL     1       1.469   2.893   0.355  1.00  0.00     0.179 C 
ATOM     10  C   UNL     1       0.486   2.171  -1.760  1.00  0.00     0.140 C 
ATOM     11  C   UNL     1       1.358   1.695  -0.611  1.00  0.00     0.069 C 
ATOM     12  C   UNL     1       0.666   3.686  -1.760  1.00  0.00     0.154 C 
ATOM     13  N   UNL     1       0.900   4.049  -0.354  1.00  0.00    -0.310 N 
BRANCH  10  14
ATOM     14  O   UNL     1       0.710   1.545  -3.019  1.00  0.00    -0.380 OA
ATOM     15  C   UNL     1       2.059   1.343  -3.415  1.00  0.00     0.195 C 
ENDBRANCH  10  14
BRANCH  13  16
ATOM     16  C   UNL     1       0.260   5.167   0.108  1.00  0.00     0.322 C 
ATOM     17  O   UNL     1      -0.330   5.914  -0.686  1.00  0.00    -0.248 OA
ATOM     18  N   UNL     1       0.097   5.518   1.404  1.00  0.00    -0.308 N 
ATOM     19  H   UNL     1      -0.707   6.076   1.511  1.00  0.00     0.171 HD
BRANCH  18  20
ATOM     20  C   UNL     1       0.729   5.326   2.641  1.00  0.00     0.046 A 
ATOM     21  C   UNL     1       0.076   5.734   3.812  1.00  0.00     0.029 A 
ATOM     22  C   UNL     1       2.027   4.890   2.771  1.00  0.00     0.065 A 
ATOM     23  C   UNL     1       0.681   5.582   5.078  1.00  0.00    -0.046 A 
ATOM     24  C   UNL     1       2.620   4.680   4.008  1.00  0.00     0.125 A 
ATOM     25  C   UNL     1       0.043   6.128   6.319  1.00  0.00     0.044 C 
ATOM     26  C   UNL     1       1.949   5.004   5.168  1.00  0.00     0.042 A 
ATOM     27  F   UNL     1       3.876   4.219   4.069  1.00  0.00    -0.207 F 
ENDBRANCH  18  20
ENDBRANCH  13  16
ENDBRANCH   6   9
ENDBRANCH   4   5
ENDBRANCH   3   4
ENDBRANCH   2   3
ENDBRANCH   1   2
BRANCH   1  28
ATOM     28  C   UNL     1       6.493   7.263  -0.717  1.00  0.00     0.021 C 
BRANCH  28  29
ATOM     29  C   UNL     1       6.029   8.690  -0.990  1.00  0.00     0.116 C 
BRANCH  29  30
ATOM     30  N   UNL     1       6.695   9.656  -0.130  1.00  0.00    -0.352 N 
ATOM     31  C   UNL     1       7.561  10.663  -0.480  1.00  0.00     0.251 C 
ATOM     32  H   UNL     1       6.499   9.578   0.831  1.00  0.00     0.163 HD
ATOM     33  O   UNL     1       8.203  11.253   0.389  1.00  0.00    -0.269 OA
BRANCH  31  34
ATOM     34  C   UNL     1       7.739  11.012  -1.906  1.00  0.00     0.039 A 
ATOM     35  C   UNL     1       9.031  11.140  -2.422  1.00  0.00     0.014 A 
ATOM     36  C   UNL     1       6.629  11.190  -2.738  1.00  0.00     0.014 A 
ATOM     37  C   UNL     1       9.209  11.377  -3.788  1.00  0.00     0.010 A 
ATOM     38  C   UNL     1       6.811  11.350  -4.110  1.00  0.00     0.010 A 
ATOM     39  C   UNL     1       8.102  11.446  -4.650  1.00  0.00    -0.014 A 
BRANCH  39  40
ATOM     40  C   UNL     1       8.274  11.622  -6.117  1.00  0.00     0.031 A 
ATOM     41  C   UNL     1       7.744  12.857  -6.795  1.00  0.00     0.074 A 
ATOM     42  C   UNL     1       8.847  10.644  -6.848  1.00  0.00     0.049 A 
ATOM     43  N   UNL     1       7.722  13.159  -8.068  1.00  0.00    -0.248 NA
ATOM     44  C   UNL     1       7.133  13.873  -5.925  1.00  0.00     0.031 C 
ATOM     45  C   UNL     1       9.367   9.384  -6.312  1.00  0.00     0.029 A 
ATOM     46  N   UNL     1       9.081  10.550  -8.197  1.00  0.00    -0.354 N 
ATOM     47  C   UNL     1       7.084  14.393  -8.154  1.00  0.00     0.074 A 
ATOM     48  C   UNL     1       6.681  14.749  -6.810  1.00  0.00     0.031 C 
ATOM     49  C   UNL     1       9.879   8.656  -7.318  1.00  0.00     0.029 A 
ATOM     50  C   UNL     1       9.681   9.370  -8.575  1.00  0.00     0.049 A 
ATOM     51  H   UNL     1       8.842  11.260  -8.836  1.00  0.00     0.167 HD
ATOM     52  C   UNL     1       6.875  15.167  -9.248  1.00  0.00     0.034 A 
ATOM     53  C   UNL     1      10.020   8.909  -9.796  1.00  0.00     0.034 A 
ATOM     54  C   UNL     1       7.292  14.801 -10.580  1.00  0.00     0.049 A 
ATOM     55  C   UNL     1       9.748   9.772 -11.003  1.00  0.00     0.074 A 
ATOM     56  C   UNL     1       7.180  15.534 -11.750  1.00  0.00     0.029 A 
ATOM     57  N   UNL     1       7.893  13.597 -10.925  1.00  0.00    -0.354 N 
ATOM     58  N   UNL     1       9.189  10.960 -11.061  1.00  0.00    -0.248 NA
ATOM     59  C   UNL     1      10.160   9.238 -12.307  1.00  0.00     0.031 C 
ATOM     60  C   UNL     1       7.646  14.746 -12.808  1.00  0.00     0.029 A 
ATOM     61  C   UNL     1       8.125  13.553 -12.292  1.00  0.00     0.049 A 
ATOM     62  H   UNL     1       8.121  12.879 -10.291  1.00  0.00     0.167 HD
ATOM     63  C   UNL     1       9.214  11.325 -12.404  1.00  0.00     0.074 A 
ATOM     64  C   UNL     1       9.854  10.240 -13.118  1.00  0.00     0.031 C 
ATOM     65  C   UNL     1       8.755  12.459 -12.994  1.00  0.00     0.034 A 
BRANCH  52  66
ATOM     66  C   UNL     1       6.139  16.471  -9.047  1.00  0.00     0.023 A 
ATOM     67  C   UNL     1       6.659  17.496  -8.236  1.00  0.00     0.031 A 
ATOM     68  C   UNL     1       4.888  16.685  -9.652  1.00  0.00     0.131 A 
ATOM     69  C   UNL     1       5.899  18.649  -7.989  1.00  0.00     0.055 A 
ATOM     70  C   UNL     1       4.175  17.872  -9.470  1.00  0.00     0.041 A 
ATOM     71  F   UNL     1       4.329  15.737 -10.420  1.00  0.00    -0.206 F 
ATOM     72  C   UNL     1       4.672  18.856  -8.621  1.00  0.00     0.022 A 
BRANCH  69  73
ATOM     73  S   UNL     1       6.471  19.805  -6.713  1.00  0.00     0.124 S 
ATOM     74  O   UNL     1       6.525  18.941  -5.536  1.00  0.00    -0.237 OA
ATOM     75  O   UNL     1       7.756  20.247  -7.241  1.00  0.00    -0.237 OA
ATOM     76  O   UNL     1       5.425  20.825  -6.681  1.00  0.00    -0.744 OA
ENDBRANCH  69  73
ENDBRANCH  52  66
BRANCH  53  77
ATOM     77  C   UNL     1      10.643   7.562  -9.951  1.00  0.00     0.023 A 
ATOM     78  C   UNL     1      11.949   7.421 -10.445  1.00  0.00     0.031 A 
ATOM     79  C   UNL     1       9.923   6.392  -9.649  1.00  0.00     0.131 A 
ATOM     80  C   UNL     1      12.479   6.141 -10.670  1.00  0.00     0.055 A 
ATOM     81  C   UNL     1      10.474   5.121  -9.822  1.00  0.00     0.041 A 
ATOM     82  F   UNL     1       8.671   6.469  -9.170  1.00  0.00    -0.206 F 
ATOM     83  C   UNL     1      11.755   4.990 -10.349  1.00  0.00     0.022 A 
BRANCH  80  84
ATOM     84  S   UNL     1      14.099   5.999 -11.473  1.00  0.00     0.124 S 
ATOM     85  O   UNL     1      13.871   6.707 -12.727  1.00  0.00    -0.237 OA
ATOM     86  O   UNL     1      14.972   6.662 -10.510  1.00  0.00    -0.237 OA
ATOM     87  O   UNL     1      14.292   4.556 -11.596  1.00  0.00    -0.744 OA
ENDBRANCH  80  84
ENDBRANCH  53  77
BRANCH  65  88
ATOM     88  C   UNL     1       8.975  12.597 -14.481  1.00  0.00     0.023 A 
ATOM     89  C   UNL     1       8.327  11.762 -15.408  1.00  0.00     0.031 A 
ATOM     90  C   UNL     1       9.854  13.578 -14.975  1.00  0.00     0.131 A 
ATOM     91  C   UNL     1       8.610  11.887 -16.777  1.00  0.00     0.055 A 
ATOM     92  C   UNL     1      10.083  13.738 -16.342  1.00  0.00     0.041 A 
ATOM     93  F   UNL     1      10.502  14.401 -14.135  1.00  0.00    -0.206 F 
ATOM     94  C   UNL     1       9.470  12.881 -17.251  1.00  0.00     0.022 A 
BRANCH  91  95
ATOM     95  S   UNL     1       7.906  10.673 -17.927  1.00  0.00     0.124 S 
ATOM     96  O   UNL     1       8.439   9.418 -17.406  1.00  0.00    -0.237 OA
ATOM     97  O   UNL     1       6.471  10.876 -17.756  1.00  0.00    -0.237 OA
ATOM     98  O   UNL     1       8.439  11.081 -19.226  1.00  0.00    -0.744 OA
ENDBRANCH  91  95
ENDBRANCH  65  88
ENDBRANCH  39  40
ENDBRANCH  31  34
ENDBRANCH  29  30
ENDBRANCH  28  29
ENDBRANCH   1  28
TORSDOF 19
