REMARK SMILES COc1ccc(CCN2/C(=[NH+]/C(=O)CCC(=O)NCCCCCCNC(=O)c3ccc(-c4c5nc(c(-c6cc(S(=O)(=O)[O-])ccc6F)c6ccc([nH]6)c(-c6cc(S(=O)(=O)[O-])ccc6F)c6nc(c(-c7cc(S(=O)(=O)[O-])ccc7F)c7ccc4[nH]7)C=C6)C=C5)cc3)S[C@@H]3CS(=O)(=O)C[C@@H]32)cc1
REMARK SMILES IDX 20 1 19 2 18 3 16 4 17 5 15 7 14 8 12 9 9 10 10 11 98 12
REMARK SMILES IDX 11 13 91 14 92 15 97 16 93 18 94 19 13 20 95 21 96 22 8 23
REMARK SMILES IDX 7 24 6 25 3 26 4 27 100 28 5 29 99 30 2 31 1 32 21 33 22 34
REMARK SMILES IDX 23 35 24 36 25 37 26 38 27 40 28 41 29 42 90 43 30 44 89 45
REMARK SMILES IDX 31 46 32 47 33 48 83 49 34 50 88 51 82 52 84 53 35 54 87 55
REMARK SMILES IDX 81 56 80 57 36 59 68 60 48 61 67 62 49 63 52 64 66 65 85 66
REMARK SMILES IDX 50 67 51 68 65 70 86 71 53 72 37 73 38 74 46 75 39 76 45 77
REMARK SMILES IDX 47 78 44 79 40 80 41 81 42 82 43 83 69 84 70 85 78 86 71 87
REMARK SMILES IDX 77 88 79 89 76 90 72 91 73 92 74 93 75 94 54 95 55 96 63 97
REMARK SMILES IDX 56 98 62 99 64 100 61 101 57 102 58 103 59 104 60 105
REMARK H PARENT 18 6 11 17 25 39 84 58 52 69
REMARK Flexibility Score: inf
ROOT
ATOM      1  C   UNL     1      -1.770   4.472  -3.521  1.00  0.00     0.021 C 
ENDROOT
BRANCH   1   2
ATOM      2  C   UNL     1      -1.590   5.001  -2.094  1.00  0.00     0.116 C 
BRANCH   2   3
ATOM      3  N   UNL     1      -0.498   5.968  -1.927  1.00  0.00    -0.356 N 
ATOM      4  C   UNL     1      -0.283   7.179  -2.514  1.00  0.00     0.220 C 
ATOM      5  O   UNL     1       0.826   7.703  -2.399  1.00  0.00    -0.275 OA
ATOM      6  H   UNL     1       0.195   5.697  -1.282  1.00  0.00     0.163 HD
BRANCH   4   7
ATOM      7  C   UNL     1      -1.422   7.877  -3.209  1.00  0.00     0.112 C 
BRANCH   7   8
ATOM      8  C   UNL     1      -1.063   8.372  -4.611  1.00  0.00     0.138 C 
BRANCH   8   9
ATOM      9  C   UNL     1      -1.290   7.356  -5.725  1.00  0.00     0.308 C 
ATOM     10  N   UNL     1       0.772   4.435  -6.716  1.00  0.00    -0.251 N 
ATOM     11  C   UNL     1      -0.253   5.469  -6.749  1.00  0.00     0.314 C 
ATOM     12  C   UNL     1       0.435   3.154  -7.444  1.00  0.00     0.206 C 
ATOM     13  N   UNL     1      -0.165   6.612  -6.107  1.00  0.00    -0.205 N 
ATOM     14  S   UNL     1      -1.841   4.961  -7.492  1.00  0.00    -0.030 SA
ATOM     15  C   UNL     1      -1.503   3.211  -7.798  1.00  0.00     0.120 C 
ATOM     16  C   UNL     1       1.035   1.462  -6.556  1.00  0.00     0.187 C 
ATOM     17  H   UNL     1       0.728   6.960  -5.884  1.00  0.00     0.316 HD
ATOM     18  C   UNL     1      -2.422   1.542  -7.097  1.00  0.00     0.156 C 
ATOM     19  S   UNL     1      -0.779   0.114  -6.165  1.00  0.00     0.155 S 
ATOM     20  O   UNL     1      -2.454   7.243  -6.115  1.00  0.00    -0.247 OA
ATOM     21  O   UNL     1      -0.946  -0.070  -4.730  1.00  0.00    -0.229 OA
ATOM     22  O   UNL     1      -0.625  -1.119  -6.923  1.00  0.00    -0.229 OA
BRANCH  10  23
ATOM     23  C   UNL     1       2.214   4.552  -6.180  1.00  0.00     0.242 C 
BRANCH  23  24
ATOM     24  C   UNL     1       2.829   4.261  -4.611  1.00  0.00     0.081 C 
BRANCH  24  25
ATOM     25  C   UNL     1       2.764   3.091  -3.531  1.00  0.00    -0.044 A 
ATOM     26  C   UNL     1       2.316   0.868  -1.696  1.00  0.00     0.118 A 
ATOM     27  C   UNL     1       1.499   1.968  -1.690  1.00  0.00     0.046 A 
ATOM     28  C   UNL     1       3.438   0.930  -2.529  1.00  0.00     0.046 A 
ATOM     29  C   UNL     1       1.846   3.096  -2.458  1.00  0.00     0.007 A 
ATOM     30  C   UNL     1       3.645   2.005  -3.455  1.00  0.00     0.007 A 
BRANCH  26  31
ATOM     31  O   UNL     1       2.104  -0.270  -0.972  1.00  0.00    -0.497 OA
ATOM     32  C   UNL     1       1.394  -0.165   0.267  1.00  0.00     0.278 C 
ENDBRANCH  26  31
ENDBRANCH  24  25
ENDBRANCH  23  24
ENDBRANCH  10  23
ENDBRANCH   8   9
ENDBRANCH   7   8
ENDBRANCH   4   7
ENDBRANCH   2   3
ENDBRANCH   1   2
BRANCH   1  33
ATOM     33  C   UNL     1      -0.435   4.154  -4.118  1.00  0.00     0.002 C 
BRANCH  33  34
ATOM     34  C   UNL     1      -0.057   2.800  -4.735  1.00  0.00     0.002 C 
BRANCH  34  35
ATOM     35  C   UNL     1      -0.847   2.321  -6.051  1.00  0.00     0.021 C 
BRANCH  35  36
ATOM     36  C   UNL     1      -0.532   1.390  -7.960  1.00  0.00     0.116 C 
BRANCH  36  37
ATOM     37  N   UNL     1       0.676   1.080  -8.880  1.00  0.00    -0.352 N 
ATOM     38  C   UNL     1       0.711   0.195  -9.952  1.00  0.00     0.251 C 
ATOM     39  H   UNL     1       1.511   1.563  -8.684  1.00  0.00     0.163 HD
ATOM     40  O   UNL     1       1.773  -0.071 -10.500  1.00  0.00    -0.269 OA
BRANCH  38  41
ATOM     41  C   UNL     1      -0.565  -0.337 -10.452  1.00  0.00     0.039 A 
ATOM     42  C   UNL     1      -0.846  -1.699 -10.392  1.00  0.00     0.014 A 
ATOM     43  C   UNL     1      -1.528   0.590 -10.860  1.00  0.00     0.014 A 
ATOM     44  C   UNL     1      -2.132  -2.127 -10.709  1.00  0.00     0.010 A 
ATOM     45  C   UNL     1      -2.835   0.179 -11.025  1.00  0.00     0.010 A 
ATOM     46  C   UNL     1      -3.138  -1.188 -10.997  1.00  0.00    -0.014 A 
BRANCH  46  47
ATOM     47  C   UNL     1      -4.504  -1.611 -11.369  1.00  0.00     0.031 A 
ATOM     48  C   UNL     1      -5.017  -1.249 -12.737  1.00  0.00     0.074 A 
ATOM     49  C   UNL     1      -5.267  -2.263 -10.471  1.00  0.00     0.049 A 
ATOM     50  N   UNL     1      -6.197  -1.450 -13.256  1.00  0.00    -0.248 NA
ATOM     51  C   UNL     1      -4.093  -0.520 -13.627  1.00  0.00     0.031 C 
ATOM     52  C   UNL     1      -4.856  -2.618  -9.108  1.00  0.00     0.029 A 
ATOM     53  N   UNL     1      -6.541  -2.754 -10.569  1.00  0.00    -0.354 N 
ATOM     54  C   UNL     1      -6.159  -0.857 -14.514  1.00  0.00     0.074 A 
ATOM     55  C   UNL     1      -4.875  -0.215 -14.649  1.00  0.00     0.031 C 
ATOM     56  C   UNL     1      -5.841  -3.316  -8.521  1.00  0.00     0.029 A 
ATOM     57  C   UNL     1      -6.971  -3.408  -9.438  1.00  0.00     0.049 A 
ATOM     58  H   UNL     1      -7.098  -2.648 -11.374  1.00  0.00     0.167 HD
ATOM     59  C   UNL     1      -7.103  -0.882 -15.482  1.00  0.00     0.034 A 
ATOM     60  C   UNL     1      -8.149  -4.009  -9.182  1.00  0.00     0.034 A 
ATOM     61  C   UNL     1      -8.356  -1.571 -15.326  1.00  0.00     0.049 A 
ATOM     62  C   UNL     1      -9.190  -4.007 -10.277  1.00  0.00     0.074 A 
ATOM     63  C   UNL     1      -9.371  -1.727 -16.250  1.00  0.00     0.029 A 
ATOM     64  N   UNL     1      -8.761  -2.219 -14.166  1.00  0.00    -0.354 N 
ATOM     65  N   UNL     1      -9.117  -3.491 -11.485  1.00  0.00    -0.248 NA
ATOM     66  C   UNL     1     -10.463  -4.675  -9.984  1.00  0.00     0.031 C 
ATOM     67  C   UNL     1     -10.427  -2.391 -15.620  1.00  0.00     0.029 A 
ATOM     68  C   UNL     1     -10.030  -2.741 -14.337  1.00  0.00     0.049 A 
ATOM     69  H   UNL     1      -8.225  -2.295 -13.344  1.00  0.00     0.167 HD
ATOM     70  C   UNL     1     -10.320  -3.813 -12.107  1.00  0.00     0.074 A 
ATOM     71  C   UNL     1     -11.087  -4.581 -11.147  1.00  0.00     0.031 C 
ATOM     72  C   UNL     1     -10.759  -3.507 -13.355  1.00  0.00     0.034 A 
BRANCH  59  73
ATOM     73  C   UNL     1      -6.828  -0.134 -16.761  1.00  0.00     0.023 A 
ATOM     74  C   UNL     1      -5.767  -0.479 -17.617  1.00  0.00     0.031 A 
ATOM     75  C   UNL     1      -7.643   0.951 -17.129  1.00  0.00     0.131 A 
ATOM     76  C   UNL     1      -5.518   0.285 -18.767  1.00  0.00     0.055 A 
ATOM     77  C   UNL     1      -7.441   1.655 -18.316  1.00  0.00     0.041 A 
ATOM     78  F   UNL     1      -8.648   1.350 -16.333  1.00  0.00    -0.206 F 
ATOM     79  C   UNL     1      -6.367   1.330 -19.139  1.00  0.00     0.022 A 
BRANCH  76  80
ATOM     80  S   UNL     1      -3.997  -0.025 -19.705  1.00  0.00     0.124 S 
ATOM     81  O   UNL     1      -2.971   0.253 -18.701  1.00  0.00    -0.237 OA
ATOM     82  O   UNL     1      -4.145  -1.421 -20.096  1.00  0.00    -0.237 OA
ATOM     83  O   UNL     1      -4.065   0.942 -20.799  1.00  0.00    -0.744 OA
ENDBRANCH  76  80
ENDBRANCH  59  73
BRANCH  60  84
ATOM     84  C   UNL     1      -8.420  -4.651  -7.862  1.00  0.00     0.023 A 
ATOM     85  C   UNL     1      -8.749  -6.013  -7.777  1.00  0.00     0.031 A 
ATOM     86  C   UNL     1      -8.435  -3.899  -6.673  1.00  0.00     0.131 A 
ATOM     87  C   UNL     1      -9.159  -6.561  -6.551  1.00  0.00     0.055 A 
ATOM     88  C   UNL     1      -8.768  -4.468  -5.442  1.00  0.00     0.041 A 
ATOM     89  F   UNL     1      -8.129  -2.592  -6.690  1.00  0.00    -0.206 F 
ATOM     90  C   UNL     1      -9.155  -5.802  -5.380  1.00  0.00     0.022 A 
BRANCH  87  91
ATOM     91  S   UNL     1      -9.849  -8.239  -6.545  1.00  0.00     0.124 S 
ATOM     92  O   UNL     1     -10.907  -8.125  -7.542  1.00  0.00    -0.237 OA
ATOM     93  O   UNL     1      -8.693  -9.043  -6.924  1.00  0.00    -0.237 OA
ATOM     94  O   UNL     1     -10.305  -8.413  -5.167  1.00  0.00    -0.744 OA
ENDBRANCH  87  91
ENDBRANCH  60  84
BRANCH  72  95
ATOM     95  C   UNL     1     -12.101  -4.058 -13.763  1.00  0.00     0.023 A 
ATOM     96  C   UNL     1     -13.289  -3.650 -13.135  1.00  0.00     0.031 A 
ATOM     97  C   UNL     1     -12.187  -5.000 -14.803  1.00  0.00     0.131 A 
ATOM     98  C   UNL     1     -14.507  -4.232 -13.510  1.00  0.00     0.055 A 
ATOM     99  C   UNL     1     -13.411  -5.515 -15.226  1.00  0.00     0.041 A 
ATOM    100  F   UNL     1     -11.080  -5.424 -15.435  1.00  0.00    -0.206 F 
ATOM    101  C   UNL     1     -14.579  -5.143 -14.568  1.00  0.00     0.022 A 
BRANCH  98 102
ATOM    102  S   UNL     1     -15.980  -3.866 -12.521  1.00  0.00     0.124 S 
ATOM    103  O   UNL     1     -15.566  -4.299 -11.191  1.00  0.00    -0.237 OA
ATOM    104  O   UNL     1     -16.129  -2.425 -12.704  1.00  0.00    -0.237 OA
ATOM    105  O   UNL     1     -17.021  -4.681 -13.144  1.00  0.00    -0.744 OA
ENDBRANCH  98 102
ENDBRANCH  72  95
ENDBRANCH  46  47
ENDBRANCH  38  41
ENDBRANCH  36  37
ENDBRANCH  35  36
ENDBRANCH  34  35
ENDBRANCH  33  34
ENDBRANCH   1  33
TORSDOF 22
