REMARK SMILES Cc1cc2n(n1)[C@H](C(F)(F)F)CCN2C(=O)c1cnn([C@@H](C)C(=O)NCCCCCCNC(=O)c2ccc(-c3c4nc(c(-c5cc(S(=O)(=O)[O-])ccc5F)c5ccc([nH]5)c(-c5cc(S(=O)(=O)[O-])ccc5F)c5nc(c(-c6cc(S(=O)(=O)[O-])ccc6F)c6ccc3[nH]6)C=C5)C=C4)cc2)c1
REMARK SMILES IDX 28 1 27 2 26 3 25 4 23 5 24 6 21 8 22 9 20 10 17 11 18 12
REMARK SMILES IDX 98 13 19 14 15 15 16 16 14 17 1 18 2 19 3 20 6 21 4 22 5 23
REMARK SMILES IDX 7 24 13 25 12 26 8 27 9 28 10 29 11 30 29 31 30 32 31 33
REMARK SMILES IDX 32 34 33 35 34 37 35 38 36 39 97 40 37 41 96 42 38 43 39 44
REMARK SMILES IDX 40 45 90 46 41 47 95 48 89 49 91 50 42 51 94 52 88 53 87 54
REMARK SMILES IDX 43 56 75 57 55 58 74 59 56 60 59 61 73 62 92 63 57 64 58 65
REMARK SMILES IDX 72 67 93 68 60 69 44 70 45 71 53 72 46 73 52 74 54 75 51 76
REMARK SMILES IDX 47 77 48 78 49 79 50 80 76 81 77 82 85 83 78 84 84 85 86 86
REMARK SMILES IDX 83 87 79 88 80 89 81 90 82 91 61 92 62 93 70 94 63 95 69 96
REMARK SMILES IDX 71 97 68 98 64 99 65 100 66 101 67 102
REMARK H PARENT 25 7 32 36 91 55 59 66
REMARK Flexibility Score: inf
ROOT
ATOM      1  C   UNL     1      -5.012  -8.045   7.322  1.00  0.00     0.002 C 
ENDROOT
BRANCH   1   2
ATOM      2  C   UNL     1      -3.936  -6.973   7.516  1.00  0.00     0.021 C 
BRANCH   2   3
ATOM      3  C   UNL     1      -2.825  -7.350   8.497  1.00  0.00     0.116 C 
BRANCH   3   4
ATOM      4  N   UNL     1      -1.871  -8.279   7.918  1.00  0.00    -0.354 N 
ATOM      5  C   UNL     1      -0.573  -8.106   7.544  1.00  0.00     0.244 C 
ATOM      6  O   UNL     1      -0.016  -9.075   7.011  1.00  0.00    -0.273 OA
ATOM      7  H   UNL     1      -2.221  -9.187   7.771  1.00  0.00     0.163 HD
BRANCH   5   8
ATOM      8  C   UNL     1       0.224  -6.829   7.793  1.00  0.00     0.193 C 
ATOM      9  C   UNL     1       0.385  -6.460   9.265  1.00  0.00     0.044 C 
BRANCH   8  10
ATOM     10  N   UNL     1      -0.190  -5.728   6.929  1.00  0.00    -0.260 N 
ATOM     11  C   UNL     1      -0.266  -4.200   5.329  1.00  0.00     0.078 A 
ATOM     12  C   UNL     1      -1.464  -4.282   6.063  1.00  0.00     0.149 A 
ATOM     13  C   UNL     1       0.525  -5.189   5.894  1.00  0.00     0.123 A 
ATOM     14  N   UNL     1      -1.355  -5.084   7.122  1.00  0.00    -0.180 NA
BRANCH  11  15
ATOM     15  C   UNL     1       0.079  -3.412   4.177  1.00  0.00     0.262 C 
ATOM     16  O   UNL     1       0.580  -3.914   3.167  1.00  0.00    -0.269 OA
BRANCH  15  17
ATOM     17  N   UNL     1      -0.052  -1.969   4.337  1.00  0.00    -0.293 N 
ATOM     18  C   UNL     1       1.613   0.175   0.102  1.00  0.00     0.069 C 
ATOM     19  C   UNL     1       1.137  -0.118   1.478  1.00  0.00     0.062 A 
ATOM     20  C   UNL     1       0.878  -1.385   2.056  1.00  0.00     0.072 A 
ATOM     21  N   UNL     1       0.859   0.873   2.331  1.00  0.00    -0.176 NA
ATOM     22  C   UNL     1       0.390  -1.117   3.316  1.00  0.00     0.134 A 
ATOM     23  N   UNL     1       0.359   0.249   3.399  1.00  0.00    -0.237 N 
ATOM     24  C   UNL     1      -0.251   1.002   4.471  1.00  0.00     0.216 C 
ATOM     25  C   UNL     1      -0.421  -1.327   5.622  1.00  0.00     0.130 C 
ATOM     26  C   UNL     1      -1.001   0.078   5.444  1.00  0.00     0.059 C 
BRANCH  24  27
ATOM     27  C   UNL     1       0.781   1.853   5.177  1.00  0.00     0.410 C 
ATOM     28  F   UNL     1       0.209   2.501   6.225  1.00  0.00    -0.169 F 
ATOM     29  F   UNL     1       1.772   1.090   5.697  1.00  0.00    -0.169 F 
ATOM     30  F   UNL     1       1.338   2.799   4.399  1.00  0.00    -0.169 F 
ENDBRANCH  24  27
ENDBRANCH  15  17
ENDBRANCH  11  15
ENDBRANCH   8  10
ENDBRANCH   5   8
ENDBRANCH   3   4
ENDBRANCH   2   3
ENDBRANCH   1   2
BRANCH   1  31
ATOM     31  C   UNL     1      -5.683  -8.572   8.598  1.00  0.00     0.002 C 
BRANCH  31  32
ATOM     32  C   UNL     1      -6.203  -7.527   9.595  1.00  0.00     0.021 C 
BRANCH  32  33
ATOM     33  C   UNL     1      -7.345  -6.662   9.079  1.00  0.00     0.116 C 
BRANCH  33  34
ATOM     34  N   UNL     1      -8.547  -7.438   8.789  1.00  0.00    -0.352 N 
ATOM     35  C   UNL     1      -9.681  -7.050   8.102  1.00  0.00     0.251 C 
ATOM     36  H   UNL     1      -8.550  -8.362   9.127  1.00  0.00     0.163 HD
ATOM     37  O   UNL     1     -10.731  -7.665   8.254  1.00  0.00    -0.269 OA
BRANCH  35  38
ATOM     38  C   UNL     1      -9.613  -5.873   7.215  1.00  0.00     0.039 A 
ATOM     39  C   UNL     1     -10.639  -4.927   7.188  1.00  0.00     0.014 A 
ATOM     40  C   UNL     1      -8.476  -5.699   6.434  1.00  0.00     0.014 A 
ATOM     41  C   UNL     1     -10.464  -3.759   6.443  1.00  0.00     0.010 A 
ATOM     42  C   UNL     1      -8.243  -4.485   5.827  1.00  0.00     0.010 A 
ATOM     43  C   UNL     1      -9.249  -3.522   5.781  1.00  0.00    -0.014 A 
BRANCH  43  44
ATOM     44  C   UNL     1      -9.010  -2.251   5.087  1.00  0.00     0.031 A 
ATOM     45  C   UNL     1      -9.318  -0.998   5.838  1.00  0.00     0.074 A 
ATOM     46  C   UNL     1      -8.369  -2.152   3.902  1.00  0.00     0.049 A 
ATOM     47  N   UNL     1     -10.168  -0.076   5.526  1.00  0.00    -0.248 NA
ATOM     48  C   UNL     1      -8.640  -0.763   7.121  1.00  0.00     0.031 C 
ATOM     49  C   UNL     1      -7.729  -3.212   3.114  1.00  0.00     0.029 A 
ATOM     50  N   UNL     1      -8.060  -1.027   3.196  1.00  0.00    -0.354 N 
ATOM     51  C   UNL     1     -10.029   0.941   6.469  1.00  0.00     0.074 A 
ATOM     52  C   UNL     1      -9.163   0.409   7.491  1.00  0.00     0.031 C 
ATOM     53  C   UNL     1      -6.913  -2.663   2.190  1.00  0.00     0.029 A 
ATOM     54  C   UNL     1      -7.128  -1.229   2.189  1.00  0.00     0.049 A 
ATOM     55  H   UNL     1      -8.463  -0.148   3.385  1.00  0.00     0.167 HD
ATOM     56  C   UNL     1     -10.522   2.194   6.252  1.00  0.00     0.034 A 
ATOM     57  C   UNL     1      -6.554  -0.296   1.394  1.00  0.00     0.034 A 
ATOM     58  C   UNL     1     -11.486   2.195   5.175  1.00  0.00     0.049 A 
ATOM     59  C   UNL     1      -7.443   0.881   1.372  1.00  0.00     0.074 A 
ATOM     60  C   UNL     1     -12.694   1.560   4.955  1.00  0.00     0.029 A 
ATOM     61  N   UNL     1     -11.095   2.663   3.942  1.00  0.00    -0.354 N 
ATOM     62  N   UNL     1      -8.632   0.860   0.840  1.00  0.00    -0.248 NA
ATOM     63  C   UNL     1      -7.205   1.960   2.317  1.00  0.00     0.031 C 
ATOM     64  C   UNL     1     -12.686   1.229   3.567  1.00  0.00     0.029 A 
ATOM     65  C   UNL     1     -11.506   1.734   3.018  1.00  0.00     0.049 A 
ATOM     66  H   UNL     1     -10.614   3.502   3.758  1.00  0.00     0.167 HD
ATOM     67  C   UNL     1      -9.413   1.622   1.690  1.00  0.00     0.074 A 
ATOM     68  C   UNL     1      -8.461   2.375   2.502  1.00  0.00     0.031 C 
ATOM     69  C   UNL     1     -10.743   1.358   1.847  1.00  0.00     0.034 A 
BRANCH  56  70
ATOM     70  C   UNL     1      -9.963   3.485   6.815  1.00  0.00     0.023 A 
ATOM     71  C   UNL     1     -10.629   4.686   6.490  1.00  0.00     0.031 A 
ATOM     72  C   UNL     1      -8.693   3.636   7.413  1.00  0.00     0.131 A 
ATOM     73  C   UNL     1     -10.011   5.936   6.673  1.00  0.00     0.055 A 
ATOM     74  C   UNL     1      -8.114   4.886   7.664  1.00  0.00     0.041 A 
ATOM     75  F   UNL     1      -7.902   2.595   7.696  1.00  0.00    -0.206 F 
ATOM     76  C   UNL     1      -8.758   6.045   7.266  1.00  0.00     0.022 A 
BRANCH  73  77
ATOM     77  S   UNL     1     -10.786   7.401   5.936  1.00  0.00     0.124 S 
ATOM     78  O   UNL     1     -11.018   6.954   4.566  1.00  0.00    -0.237 OA
ATOM     79  O   UNL     1     -11.969   7.566   6.772  1.00  0.00    -0.237 OA
ATOM     80  O   UNL     1      -9.763   8.434   6.087  1.00  0.00    -0.744 OA
ENDBRANCH  73  77
ENDBRANCH  56  70
BRANCH  57  81
ATOM     81  C   UNL     1      -5.154  -0.285   0.924  1.00  0.00     0.023 A 
ATOM     82  C   UNL     1      -4.741   0.436  -0.211  1.00  0.00     0.031 A 
ATOM     83  C   UNL     1      -4.148  -0.812   1.760  1.00  0.00     0.131 A 
ATOM     84  C   UNL     1      -3.366   0.622  -0.460  1.00  0.00     0.055 A 
ATOM     85  C   UNL     1      -2.795  -0.638   1.497  1.00  0.00     0.041 A 
ATOM     86  F   UNL     1      -4.441  -1.435   2.914  1.00  0.00    -0.206 F 
ATOM     87  C   UNL     1      -2.398   0.099   0.397  1.00  0.00     0.022 A 
BRANCH  84  88
ATOM     88  S   UNL     1      -2.811   1.626  -1.870  1.00  0.00     0.124 S 
ATOM     89  O   UNL     1      -3.250   0.826  -3.006  1.00  0.00    -0.237 OA
ATOM     90  O   UNL     1      -3.512   2.884  -1.642  1.00  0.00    -0.237 OA
ATOM     91  O   UNL     1      -1.360   1.688  -1.688  1.00  0.00    -0.744 OA
ENDBRANCH  84  88
ENDBRANCH  57  81
BRANCH  69  92
ATOM     92  C   UNL     1     -11.398   0.398   0.875  1.00  0.00     0.023 A 
ATOM     93  C   UNL     1     -11.005  -0.948   0.698  1.00  0.00     0.031 A 
ATOM     94  C   UNL     1     -12.543   0.838   0.191  1.00  0.00     0.131 A 
ATOM     95  C   UNL     1     -11.741  -1.795  -0.152  1.00  0.00     0.055 A 
ATOM     96  C   UNL     1     -13.282  -0.009  -0.635  1.00  0.00     0.041 A 
ATOM     97  F   UNL     1     -12.985   2.097   0.345  1.00  0.00    -0.206 F 
ATOM     98  C   UNL     1     -12.881  -1.329  -0.815  1.00  0.00     0.022 A 
BRANCH  95  99
ATOM     99  S   UNL     1     -11.218  -3.522  -0.408  1.00  0.00     0.124 S 
ATOM    100  O   UNL     1      -9.805  -3.403  -0.752  1.00  0.00    -0.237 OA
ATOM    101  O   UNL     1     -11.508  -4.137   0.885  1.00  0.00    -0.237 OA
ATOM    102  O   UNL     1     -12.075  -3.978  -1.504  1.00  0.00    -0.744 OA
ENDBRANCH  95  99
ENDBRANCH  69  92
ENDBRANCH  43  44
ENDBRANCH  35  38
ENDBRANCH  33  34
ENDBRANCH  32  33
ENDBRANCH  31  32
ENDBRANCH   1  31
TORSDOF 20
