REMARK SMILES O=C(Cc1ccn(-c2ccccc2F)c1)NCCCCCCNC(=O)c1ccc(-c2c3nc(c(-c4cc(S(=O)(=O)[O-])ccc4F)c4ccc([nH]4)c(-c4cc(S(=O)(=O)[O-])ccc4F)c4nc(c(-c5cc(S(=O)(=O)[O-])ccc5F)c5ccc2[nH]5)C=C4)C=C3)cc1
REMARK SMILES IDX 20 1 19 2 18 3 17 4 16 5 1 6 2 7 3 9 4 10 5 11 15 12 6 13
REMARK SMILES IDX 7 14 8 15 9 16 13 17 10 18 12 19 14 20 11 21 21 22 22 23
REMARK SMILES IDX 23 24 24 25 25 27 26 28 27 29 88 30 28 31 87 32 29 33 30 34
REMARK SMILES IDX 31 35 81 36 32 37 86 38 80 39 82 40 33 41 85 42 79 43 78 44
REMARK SMILES IDX 34 46 66 47 46 48 65 49 47 50 50 51 64 52 83 53 48 54 49 55
REMARK SMILES IDX 63 57 84 58 51 59 35 60 36 61 44 62 37 63 43 64 45 65 42 66
REMARK SMILES IDX 38 67 39 68 40 69 41 70 67 71 68 72 76 73 69 74 75 75 77 76
REMARK SMILES IDX 74 77 70 78 71 79 72 80 73 81 52 82 53 83 61 84 54 85 60 86
REMARK SMILES IDX 62 87 59 88 55 89 56 90 57 91 58 92
REMARK H PARENT 16 8 23 26 82 45 50 56
REMARK Flexibility Score: inf
ROOT
ATOM      1  C   UNL     1       4.567   3.436  -2.660  1.00  0.00     0.002 C 
ENDROOT
BRANCH   1   2
ATOM      2  C   UNL     1       4.144   3.524  -1.190  1.00  0.00     0.002 C 
BRANCH   2   3
ATOM      3  C   UNL     1       2.646   3.312  -0.923  1.00  0.00     0.021 C 
BRANCH   3   4
ATOM      4  C   UNL     1       2.098   1.960  -1.382  1.00  0.00     0.116 C 
BRANCH   4   5
ATOM      5  N   UNL     1       2.772   0.872  -0.708  1.00  0.00    -0.356 N 
ATOM      6  O   UNL     1       0.892  -0.232   0.023  1.00  0.00    -0.275 OA
ATOM      7  C   UNL     1       2.115  -0.137  -0.037  1.00  0.00     0.224 C 
ATOM      8  H   UNL     1       3.756   0.851  -0.729  1.00  0.00     0.163 HD
BRANCH   7   9
ATOM      9  C   UNL     1       3.044  -1.089   0.696  1.00  0.00     0.137 C 
BRANCH   9  10
ATOM     10  C   UNL     1       3.861  -1.941  -0.223  1.00  0.00    -0.021 A 
ATOM     11  C   UNL     1       5.082  -1.597  -0.863  1.00  0.00     0.024 A 
ATOM     12  C   UNL     1       3.594  -3.250  -0.583  1.00  0.00     0.095 A 
ATOM     13  C   UNL     1       5.524  -2.708  -1.545  1.00  0.00     0.091 A 
ATOM     14  N   UNL     1       4.619  -3.735  -1.368  1.00  0.00    -0.321 N 
BRANCH  14  15
ATOM     15  C   UNL     1       4.754  -5.056  -1.863  1.00  0.00     0.081 A 
ATOM     16  C   UNL     1       6.032  -5.604  -2.044  1.00  0.00     0.030 A 
ATOM     17  C   UNL     1       3.630  -5.830  -2.158  1.00  0.00     0.147 A 
ATOM     18  C   UNL     1       6.171  -6.919  -2.499  1.00  0.00     0.002 A 
ATOM     19  C   UNL     1       3.771  -7.129  -2.642  1.00  0.00     0.041 A 
ATOM     20  F   UNL     1       2.388  -5.335  -2.055  1.00  0.00    -0.205 F 
ATOM     21  C   UNL     1       5.042  -7.678  -2.805  1.00  0.00     0.003 A 
ENDBRANCH  14  15
ENDBRANCH   9  10
ENDBRANCH   7   9
ENDBRANCH   4   5
ENDBRANCH   3   4
ENDBRANCH   2   3
ENDBRANCH   1   2
BRANCH   1  22
ATOM     22  C   UNL     1       3.842   4.405  -3.606  1.00  0.00     0.021 C 
BRANCH  22  23
ATOM     23  C   UNL     1       4.083   5.884  -3.289  1.00  0.00     0.116 C 
BRANCH  23  24
ATOM     24  N   UNL     1       5.459   6.252  -3.571  1.00  0.00    -0.352 N 
ATOM     25  C   UNL     1       6.057   7.486  -3.615  1.00  0.00     0.251 C 
ATOM     26  H   UNL     1       6.059   5.495  -3.761  1.00  0.00     0.163 HD
ATOM     27  O   UNL     1       7.105   7.598  -4.243  1.00  0.00    -0.269 OA
BRANCH  25  28
ATOM     28  C   UNL     1       5.479   8.672  -2.941  1.00  0.00     0.039 A 
ATOM     29  C   UNL     1       5.668   9.918  -3.554  1.00  0.00     0.014 A 
ATOM     30  C   UNL     1       4.867   8.601  -1.684  1.00  0.00     0.014 A 
ATOM     31  C   UNL     1       5.200  11.078  -2.943  1.00  0.00     0.010 A 
ATOM     32  C   UNL     1       4.389   9.762  -1.070  1.00  0.00     0.010 A 
ATOM     33  C   UNL     1       4.535  10.998  -1.712  1.00  0.00    -0.014 A 
BRANCH  33  34
ATOM     34  C   UNL     1       3.786  12.193  -1.247  1.00  0.00     0.031 A 
ATOM     35  C   UNL     1       2.421  12.308  -1.992  1.00  0.00     0.074 A 
ATOM     36  C   UNL     1       4.395  13.002  -0.321  1.00  0.00     0.049 A 
ATOM     37  N   UNL     1       1.698  13.347  -2.280  1.00  0.00    -0.248 NA
ATOM     38  C   UNL     1       1.810  11.076  -2.577  1.00  0.00     0.031 C 
ATOM     39  C   UNL     1       5.694  12.721   0.341  1.00  0.00     0.029 A 
ATOM     40  N   UNL     1       4.068  14.213   0.261  1.00  0.00    -0.354 N 
ATOM     41  C   UNL     1       0.486  12.891  -2.861  1.00  0.00     0.074 A 
ATOM     42  C   UNL     1       0.670  11.500  -3.126  1.00  0.00     0.031 C 
ATOM     43  C   UNL     1       6.073  13.747   1.141  1.00  0.00     0.029 A 
ATOM     44  C   UNL     1       5.067  14.791   1.102  1.00  0.00     0.049 A 
ATOM     45  H   UNL     1       3.200  14.650   0.105  1.00  0.00     0.167 HD
ATOM     46  C   UNL     1      -0.636  13.667  -2.976  1.00  0.00     0.034 A 
ATOM     47  C   UNL     1       5.094  16.035   1.687  1.00  0.00     0.034 A 
ATOM     48  C   UNL     1      -0.352  14.980  -2.513  1.00  0.00     0.049 A 
ATOM     49  C   UNL     1       3.764  16.596   1.403  1.00  0.00     0.074 A 
ATOM     50  C   UNL     1       0.409  15.999  -3.018  1.00  0.00     0.029 A 
ATOM     51  N   UNL     1      -0.636  15.238  -1.194  1.00  0.00    -0.354 N 
ATOM     52  N   UNL     1       2.658  16.220   1.969  1.00  0.00    -0.248 NA
ATOM     53  C   UNL     1       3.654  17.616   0.352  1.00  0.00     0.031 C 
ATOM     54  C   UNL     1       0.996  16.553  -1.863  1.00  0.00     0.029 A 
ATOM     55  C   UNL     1       0.392  16.009  -0.723  1.00  0.00     0.049 A 
ATOM     56  H   UNL     1      -1.422  14.929  -0.689  1.00  0.00     0.167 HD
ATOM     57  C   UNL     1       1.709  16.725   1.118  1.00  0.00     0.074 A 
ATOM     58  C   UNL     1       2.337  17.793   0.372  1.00  0.00     0.031 C 
ATOM     59  C   UNL     1       0.705  15.928   0.682  1.00  0.00     0.034 A 
BRANCH  46  60
ATOM     60  C   UNL     1      -2.090  13.366  -3.261  1.00  0.00     0.023 A 
ATOM     61  C   UNL     1      -2.933  14.485  -3.502  1.00  0.00     0.031 A 
ATOM     62  C   UNL     1      -2.735  12.155  -2.988  1.00  0.00     0.131 A 
ATOM     63  C   UNL     1      -4.322  14.415  -3.330  1.00  0.00     0.055 A 
ATOM     64  C   UNL     1      -4.134  12.072  -2.876  1.00  0.00     0.041 A 
ATOM     65  F   UNL     1      -2.046  11.035  -2.734  1.00  0.00    -0.206 F 
ATOM     66  C   UNL     1      -4.931  13.209  -3.009  1.00  0.00     0.022 A 
BRANCH  63  67
ATOM     67  S   UNL     1      -5.278  15.961  -3.378  1.00  0.00     0.124 S 
ATOM     68  O   UNL     1      -4.647  16.748  -2.326  1.00  0.00    -0.237 OA
ATOM     69  O   UNL     1      -5.046  16.421  -4.745  1.00  0.00    -0.237 OA
ATOM     70  O   UNL     1      -6.644  15.524  -3.098  1.00  0.00    -0.744 OA
ENDBRANCH  63  67
ENDBRANCH  46  60
BRANCH  47  71
ATOM     71  C   UNL     1       6.050  16.983   2.413  1.00  0.00     0.023 A 
ATOM     72  C   UNL     1       7.381  16.726   2.783  1.00  0.00     0.031 A 
ATOM     73  C   UNL     1       5.621  18.330   2.669  1.00  0.00     0.131 A 
ATOM     74  C   UNL     1       8.209  17.783   3.271  1.00  0.00     0.055 A 
ATOM     75  C   UNL     1       6.459  19.377   3.052  1.00  0.00     0.041 A 
ATOM     76  F   UNL     1       4.340  18.707   2.546  1.00  0.00    -0.206 F 
ATOM     77  C   UNL     1       7.773  19.109   3.341  1.00  0.00     0.022 A 
BRANCH  74  78
ATOM     78  S   UNL     1       9.917  17.493   3.829  1.00  0.00     0.124 S 
ATOM     79  O   UNL     1       9.742  17.372   5.273  1.00  0.00    -0.237 OA
ATOM     80  O   UNL     1      10.295  16.273   3.126  1.00  0.00    -0.237 OA
ATOM     81  O   UNL     1      10.615  18.701   3.388  1.00  0.00    -0.744 OA
ENDBRANCH  74  78
ENDBRANCH  47  71
BRANCH  59  82
ATOM     82  C   UNL     1       0.311  14.803   1.618  1.00  0.00     0.023 A 
ATOM     83  C   UNL     1      -0.359  15.111   2.811  1.00  0.00     0.031 A 
ATOM     84  C   UNL     1       0.634  13.450   1.409  1.00  0.00     0.131 A 
ATOM     85  C   UNL     1      -0.689  14.099   3.731  1.00  0.00     0.055 A 
ATOM     86  C   UNL     1       0.303  12.439   2.321  1.00  0.00     0.041 A 
ATOM     87  F   UNL     1       1.297  13.065   0.319  1.00  0.00    -0.206 F 
ATOM     88  C   UNL     1      -0.367  12.761   3.492  1.00  0.00     0.022 A 
BRANCH  85  89
ATOM     89  S   UNL     1      -1.601  14.543   5.233  1.00  0.00     0.124 S 
ATOM     90  O   UNL     1      -0.579  15.200   6.040  1.00  0.00    -0.237 OA
ATOM     91  O   UNL     1      -2.659  15.405   4.717  1.00  0.00    -0.237 OA
ATOM     92  O   UNL     1      -2.059  13.252   5.747  1.00  0.00    -0.744 OA
ENDBRANCH  85  89
ENDBRANCH  59  82
ENDBRANCH  33  34
ENDBRANCH  25  28
ENDBRANCH  23  24
ENDBRANCH  22  23
ENDBRANCH   1  22
TORSDOF 18
