REMARK SMILES COc1ccc(/C(=C/C(=O)NCCCCCCNC(=O)c2ccc(-c3c4nc(c(-c5cc(S(=O)(=O)[O-])ccc5F)c5ccc([nH]5)c(-c5cc(S(=O)(=O)[O-])ccc5F)c5nc(c(-c6cc(S(=O)(=O)[O-])ccc6F)c6ccc3[nH]6)C=C5)C=C4)cc2)C(C)C)cc1C
REMARK SMILES IDX 15 1 14 2 13 3 12 4 11 5 9 6 10 7 8 9 7 10 6 11 3 12 4 13
REMARK SMILES IDX 88 14 5 15 87 16 89 17 2 18 1 19 84 20 85 21 86 22 16 23
REMARK SMILES IDX 17 24 18 25 19 26 20 28 21 29 22 30 83 31 23 32 82 33 24 34
REMARK SMILES IDX 25 35 26 36 76 37 27 38 81 39 75 40 77 41 28 42 80 43 74 44
REMARK SMILES IDX 73 45 29 47 61 48 41 49 60 50 42 51 45 52 59 53 78 54 43 55
REMARK SMILES IDX 44 56 58 58 79 59 46 60 30 61 31 62 39 63 32 64 38 65 40 66
REMARK SMILES IDX 37 67 33 68 34 69 35 70 36 71 62 72 63 73 71 74 64 75 70 76
REMARK SMILES IDX 72 77 69 78 65 79 66 80 67 81 68 82 47 83 48 84 56 85 49 86
REMARK SMILES IDX 55 87 57 88 54 89 50 90 51 91 52 92 53 93
REMARK H PARENT 11 8 18 27 77 46 45 57
REMARK Flexibility Score: inf
ROOT
ATOM      1  C   UNL     1       5.704  -9.081   6.332  1.00  0.00     0.002 C 
ENDROOT
BRANCH   1   2
ATOM      2  C   UNL     1       5.221  -8.066   7.377  1.00  0.00     0.002 C 
BRANCH   2   3
ATOM      3  C   UNL     1       4.255  -6.981   6.885  1.00  0.00     0.021 C 
BRANCH   3   4
ATOM      4  C   UNL     1       3.024  -7.499   6.122  1.00  0.00     0.116 C 
BRANCH   4   5
ATOM      5  N   UNL     1       1.783  -6.919   6.618  1.00  0.00    -0.353 N 
ATOM      6  C   UNL     1       0.859  -6.026   6.222  1.00  0.00     0.244 C 
ATOM      7  O   UNL     1      -0.186  -6.017   6.891  1.00  0.00    -0.270 OA
ATOM      8  H   UNL     1       1.554  -7.289   7.501  1.00  0.00     0.163 HD
BRANCH   6   9
ATOM      9  C   UNL     1       0.881  -5.059   5.077  1.00  0.00     0.075 C 
ATOM     10  C   UNL     1       1.773  -4.345   4.346  1.00  0.00    -0.033 C 
BRANCH  10  11
ATOM     11  C   UNL     1       1.275  -3.246   3.420  1.00  0.00    -0.021 A 
ATOM     12  C   UNL     1       0.382  -1.095   1.728  1.00  0.00     0.121 A 
ATOM     13  C   UNL     1       1.666  -1.613   1.615  1.00  0.00     0.047 A 
ATOM     14  C   UNL     1      -0.467  -1.622   2.705  1.00  0.00    -0.008 A 
ATOM     15  C   UNL     1       2.089  -2.672   2.434  1.00  0.00     0.012 A 
ATOM     16  C   UNL     1      -0.009  -2.672   3.538  1.00  0.00     0.015 A 
ATOM     17  C   UNL     1      -1.874  -1.122   2.898  1.00  0.00     0.048 C 
BRANCH  12  18
ATOM     18  O   UNL     1      -0.106  -0.073   0.959  1.00  0.00    -0.496 OA
ATOM     19  C   UNL     1       0.621   0.241  -0.223  1.00  0.00     0.278 C 
ENDBRANCH  12  18
ENDBRANCH  10  11
BRANCH  10  20
ATOM     20  C   UNL     1       3.267  -4.595   4.455  1.00  0.00     0.014 C 
ATOM     21  C   UNL     1       3.815  -5.409   3.271  1.00  0.00     0.012 C 
ATOM     22  C   UNL     1       4.161  -3.412   4.835  1.00  0.00     0.012 C 
ENDBRANCH  10  20
ENDBRANCH   6   9
ENDBRANCH   4   5
ENDBRANCH   3   4
ENDBRANCH   2   3
ENDBRANCH   1   2
BRANCH   1  23
ATOM     23  C   UNL     1       6.402  -8.489   5.111  1.00  0.00     0.021 C 
BRANCH  23  24
ATOM     24  C   UNL     1       7.820  -7.998   5.387  1.00  0.00     0.116 C 
BRANCH  24  25
ATOM     25  N   UNL     1       8.854  -8.993   5.104  1.00  0.00    -0.352 N 
ATOM     26  C   UNL     1      10.226  -8.853   5.196  1.00  0.00     0.251 C 
ATOM     27  H   UNL     1       8.532  -9.875   4.811  1.00  0.00     0.163 HD
ATOM     28  O   UNL     1      10.993  -9.767   4.904  1.00  0.00    -0.269 OA
BRANCH  26  29
ATOM     29  C   UNL     1      10.761  -7.602   5.772  1.00  0.00     0.039 A 
ATOM     30  C   UNL     1      11.497  -7.704   6.957  1.00  0.00     0.014 A 
ATOM     31  C   UNL     1      10.309  -6.367   5.310  1.00  0.00     0.014 A 
ATOM     32  C   UNL     1      11.566  -6.604   7.804  1.00  0.00     0.010 A 
ATOM     33  C   UNL     1      10.303  -5.301   6.187  1.00  0.00     0.010 A 
ATOM     34  C   UNL     1      10.864  -5.449   7.461  1.00  0.00    -0.014 A 
BRANCH  34  35
ATOM     35  C   UNL     1      10.553  -4.408   8.432  1.00  0.00     0.031 A 
ATOM     36  C   UNL     1      11.319  -3.149   8.442  1.00  0.00     0.074 A 
ATOM     37  C   UNL     1       9.560  -4.611   9.327  1.00  0.00     0.049 A 
ATOM     38  N   UNL     1      11.398  -2.356   9.457  1.00  0.00    -0.248 NA
ATOM     39  C   UNL     1      12.158  -2.731   7.322  1.00  0.00     0.031 C 
ATOM     40  C   UNL     1       8.951  -3.631  10.222  1.00  0.00     0.029 A 
ATOM     41  N   UNL     1       9.093  -5.844   9.788  1.00  0.00    -0.354 N 
ATOM     42  C   UNL     1      12.020  -1.206   9.035  1.00  0.00     0.074 A 
ATOM     43  C   UNL     1      12.609  -1.556   7.769  1.00  0.00     0.031 C 
ATOM     44  C   UNL     1       8.411  -4.278  11.266  1.00  0.00     0.029 A 
ATOM     45  C   UNL     1       8.781  -5.678  11.150  1.00  0.00     0.049 A 
ATOM     46  H   UNL     1       9.000  -6.670   9.261  1.00  0.00     0.167 HD
ATOM     47  C   UNL     1      11.818  -0.058   9.739  1.00  0.00     0.034 A 
ATOM     48  C   UNL     1       9.435  -6.394  12.109  1.00  0.00     0.034 A 
ATOM     49  C   UNL     1      11.280  -0.351  11.073  1.00  0.00     0.049 A 
ATOM     50  C   UNL     1      10.216  -5.538  13.085  1.00  0.00     0.074 A 
ATOM     51  C   UNL     1      10.040  -0.183  11.664  1.00  0.00     0.029 A 
ATOM     52  N   UNL     1      12.014  -1.167  11.936  1.00  0.00    -0.354 N 
ATOM     53  N   UNL     1      10.498  -4.277  12.900  1.00  0.00    -0.248 NA
ATOM     54  C   UNL     1      10.758  -6.051  14.340  1.00  0.00     0.031 C 
ATOM     55  C   UNL     1       9.994  -1.008  12.824  1.00  0.00     0.029 A 
ATOM     56  C   UNL     1      11.225  -1.629  12.972  1.00  0.00     0.049 A 
ATOM     57  H   UNL     1      12.967  -1.384  11.822  1.00  0.00     0.167 HD
ATOM     58  C   UNL     1      11.266  -3.818  13.941  1.00  0.00     0.074 A 
ATOM     59  C   UNL     1      11.367  -4.960  14.835  1.00  0.00     0.031 C 
ATOM     60  C   UNL     1      11.770  -2.546  13.971  1.00  0.00     0.034 A 
BRANCH  47  61
ATOM     61  C   UNL     1      11.871   1.345   9.141  1.00  0.00     0.023 A 
ATOM     62  C   UNL     1      11.463   2.442   9.936  1.00  0.00     0.031 A 
ATOM     63  C   UNL     1      12.152   1.670   7.792  1.00  0.00     0.131 A 
ATOM     64  C   UNL     1      11.324   3.739   9.392  1.00  0.00     0.055 A 
ATOM     65  C   UNL     1      12.062   2.966   7.268  1.00  0.00     0.041 A 
ATOM     66  F   UNL     1      12.471   0.757   6.871  1.00  0.00    -0.206 F 
ATOM     67  C   UNL     1      11.636   4.009   8.064  1.00  0.00     0.022 A 
BRANCH  64  68
ATOM     68  S   UNL     1      10.646   5.075  10.416  1.00  0.00     0.124 S 
ATOM     69  O   UNL     1       9.309   4.577  10.721  1.00  0.00    -0.237 OA
ATOM     70  O   UNL     1      11.590   5.126  11.526  1.00  0.00    -0.237 OA
ATOM     71  O   UNL     1      10.679   6.235   9.526  1.00  0.00    -0.744 OA
ENDBRANCH  64  68
ENDBRANCH  47  61
BRANCH  48  72
ATOM     72  C   UNL     1       9.811  -7.768  11.673  1.00  0.00     0.023 A 
ATOM     73  C   UNL     1       8.769  -8.660  11.340  1.00  0.00     0.031 A 
ATOM     74  C   UNL     1      11.105  -8.077  11.232  1.00  0.00     0.131 A 
ATOM     75  C   UNL     1       9.010  -9.745  10.485  1.00  0.00     0.055 A 
ATOM     76  C   UNL     1      11.348  -9.182  10.406  1.00  0.00     0.041 A 
ATOM     77  F   UNL     1      12.129  -7.250  11.486  1.00  0.00    -0.206 F 
ATOM     78  C   UNL     1      10.293  -9.997   9.995  1.00  0.00     0.022 A 
BRANCH  75  79
ATOM     79  S   UNL     1       7.606 -10.693   9.827  1.00  0.00     0.124 S 
ATOM     80  O   UNL     1       7.537 -11.819  10.751  1.00  0.00    -0.237 OA
ATOM     81  O   UNL     1       6.500  -9.742   9.906  1.00  0.00    -0.237 OA
ATOM     82  O   UNL     1       8.031 -11.016   8.467  1.00  0.00    -0.744 OA
ENDBRANCH  75  79
ENDBRANCH  48  72
BRANCH  60  83
ATOM     83  C   UNL     1      12.772  -2.028  14.986  1.00  0.00     0.023 A 
ATOM     84  C   UNL     1      13.604  -2.859  15.754  1.00  0.00     0.031 A 
ATOM     85  C   UNL     1      12.972  -0.637  15.161  1.00  0.00     0.131 A 
ATOM     86  C   UNL     1      14.498  -2.325  16.701  1.00  0.00     0.055 A 
ATOM     87  C   UNL     1      13.922  -0.106  16.041  1.00  0.00     0.041 A 
ATOM     88  F   UNL     1      12.256   0.269  14.479  1.00  0.00    -0.206 F 
ATOM     89  C   UNL     1      14.680  -0.952  16.835  1.00  0.00     0.022 A 
BRANCH  86  90
ATOM     90  S   UNL     1      15.366  -3.468  17.809  1.00  0.00     0.124 S 
ATOM     91  O   UNL     1      14.256  -4.091  18.526  1.00  0.00    -0.237 OA
ATOM     92  O   UNL     1      16.080  -4.331  16.874  1.00  0.00    -0.237 OA
ATOM     93  O   UNL     1      16.212  -2.593  18.618  1.00  0.00    -0.744 OA
ENDBRANCH  86  90
ENDBRANCH  60  83
ENDBRANCH  34  35
ENDBRANCH  26  29
ENDBRANCH  24  25
ENDBRANCH  23  24
ENDBRANCH   1  23
TORSDOF 19
