REMARK SMILES COc1ccc(OCCNc2c(Cl)cccc2C(=O)NCCCCCCNC(=O)c2ccc(-c3c4nc(c(-c5cc(S(=O)(=O)[O-])ccc5F)c5ccc([nH]5)c(-c5cc(S(=O)(=O)[O-])ccc5F)c5nc(c(-c6cc(S(=O)(=O)[O-])ccc6F)c6ccc3[nH]6)C=C5)C=C4)cc2)cc1
REMARK SMILES IDX 22 1 21 2 20 3 18 4 19 5 17 7 11 8 12 9 13 10 14 11 16 12
REMARK SMILES IDX 15 13 10 14 9 16 8 17 7 18 6 19 3 20 4 21 94 22 5 23 93 24
REMARK SMILES IDX 2 25 1 26 23 27 24 28 25 29 26 30 27 31 28 32 29 34 30 35
REMARK SMILES IDX 31 36 92 37 32 38 91 39 33 40 34 41 35 42 85 43 36 44 90 45
REMARK SMILES IDX 84 46 86 47 37 48 89 49 83 50 82 51 38 53 70 54 50 55 69 56
REMARK SMILES IDX 51 57 54 58 68 59 87 60 52 61 53 62 67 64 88 65 55 66 39 67
REMARK SMILES IDX 40 68 48 69 41 70 47 71 49 72 46 73 42 74 43 75 44 76 45 77
REMARK SMILES IDX 71 78 72 79 80 80 73 81 79 82 81 83 78 84 74 85 75 86 76 87
REMARK SMILES IDX 77 88 56 89 57 90 65 91 58 92 64 93 66 94 63 95 59 96 60 97
REMARK SMILES IDX 61 98 62 99
REMARK H PARENT 20 6 10 15 27 33 86 52 54 63
REMARK Flexibility Score: inf
ROOT
ATOM      1  C   UNL     1       1.091   0.887  -6.559  1.00  0.00     0.021 C 
ENDROOT
BRANCH   1   2
ATOM      2  C   UNL     1       2.414   0.449  -5.934  1.00  0.00     0.116 C 
BRANCH   2   3
ATOM      3  N   UNL     1       3.587   0.921  -6.637  1.00  0.00    -0.352 N 
ATOM      4  C   UNL     1       4.904   0.974  -6.256  1.00  0.00     0.253 C 
ATOM      5  O   UNL     1       5.723   1.384  -7.083  1.00  0.00    -0.269 OA
ATOM      6  H   UNL     1       3.410   1.262  -7.543  1.00  0.00     0.163 HD
BRANCH   4   7
ATOM      7  C   UNL     1       5.397   0.670  -4.886  1.00  0.00     0.064 A 
ATOM      8  C   UNL     1       5.207  -0.528  -4.172  1.00  0.00     0.066 A 
ATOM      9  C   UNL     1       5.840  -0.624  -2.901  1.00  0.00     0.065 A 
ATOM     10  Cl  UNL     1       5.689  -2.049  -1.919  1.00  0.00    -0.082 Cl
ATOM     11  C   UNL     1       6.637   0.396  -2.374  1.00  0.00     0.023 A 
ATOM     12  C   UNL     1       6.225   1.686  -4.349  1.00  0.00     0.016 A 
ATOM     13  C   UNL     1       6.830   1.558  -3.100  1.00  0.00     0.003 A 
BRANCH   8  14
ATOM     14  N   UNL     1       4.296  -1.510  -4.516  1.00  0.00    -0.380 N 
ATOM     15  H   UNL     1       3.493  -1.582  -3.951  1.00  0.00     0.160 HD
BRANCH  14  16
ATOM     16  C   UNL     1       4.396  -2.446  -5.623  1.00  0.00     0.154 C 
BRANCH  16  17
ATOM     17  C   UNL     1       3.523  -3.704  -5.367  1.00  0.00     0.250 C 
BRANCH  17  18
ATOM     18  O   UNL     1       2.115  -3.446  -5.214  1.00  0.00    -0.492 OA
BRANCH  18  19
ATOM     19  C   UNL     1       1.610  -3.088  -3.993  1.00  0.00     0.119 A 
ATOM     20  C   UNL     1       0.496  -1.907  -1.704  1.00  0.00     0.119 A 
ATOM     21  C   UNL     1      -0.286  -2.093  -2.839  1.00  0.00     0.050 A 
ATOM     22  C   UNL     1       1.788  -2.421  -1.669  1.00  0.00     0.050 A 
ATOM     23  C   UNL     1       0.275  -2.672  -3.983  1.00  0.00     0.050 A 
ATOM     24  C   UNL     1       2.328  -3.038  -2.801  1.00  0.00     0.050 A 
BRANCH  20  25
ATOM     25  O   UNL     1      -0.077  -1.293  -0.626  1.00  0.00    -0.497 OA
ATOM     26  C   UNL     1       0.656  -0.148  -0.191  1.00  0.00     0.278 C 
ENDBRANCH  20  25
ENDBRANCH  18  19
ENDBRANCH  17  18
ENDBRANCH  16  17
ENDBRANCH  14  16
ENDBRANCH   8  14
ENDBRANCH   4   7
ENDBRANCH   2   3
ENDBRANCH   1   2
BRANCH   1  27
ATOM     27  C   UNL     1       0.891   0.581  -8.053  1.00  0.00     0.002 C 
BRANCH  27  28
ATOM     28  C   UNL     1       1.208  -0.835  -8.545  1.00  0.00     0.002 C 
BRANCH  28  29
ATOM     29  C   UNL     1       0.504  -1.986  -7.833  1.00  0.00     0.021 C 
BRANCH  29  30
ATOM     30  C   UNL     1      -1.013  -1.916  -7.723  1.00  0.00     0.116 C 
BRANCH  30  31
ATOM     31  N   UNL     1      -1.687  -1.916  -9.005  1.00  0.00    -0.352 N 
ATOM     32  C   UNL     1      -2.810  -2.597  -9.407  1.00  0.00     0.251 C 
ATOM     33  H   UNL     1      -1.279  -1.341  -9.692  1.00  0.00     0.163 HD
ATOM     34  O   UNL     1      -3.147  -2.526 -10.592  1.00  0.00    -0.269 OA
BRANCH  32  35
ATOM     35  C   UNL     1      -3.601  -3.433  -8.466  1.00  0.00     0.039 A 
ATOM     36  C   UNL     1      -4.185  -4.609  -8.954  1.00  0.00     0.014 A 
ATOM     37  C   UNL     1      -3.824  -3.065  -7.136  1.00  0.00     0.014 A 
ATOM     38  C   UNL     1      -4.957  -5.417  -8.112  1.00  0.00     0.010 A 
ATOM     39  C   UNL     1      -4.524  -3.914  -6.275  1.00  0.00     0.010 A 
ATOM     40  C   UNL     1      -5.122  -5.088  -6.758  1.00  0.00    -0.014 A 
BRANCH  40  41
ATOM     41  C   UNL     1      -5.968  -5.928  -5.862  1.00  0.00     0.031 A 
ATOM     42  C   UNL     1      -7.223  -5.352  -5.254  1.00  0.00     0.074 A 
ATOM     43  C   UNL     1      -5.607  -7.195  -5.577  1.00  0.00     0.049 A 
ATOM     44  N   UNL     1      -8.078  -5.905  -4.429  1.00  0.00    -0.248 NA
ATOM     45  C   UNL     1      -7.543  -3.959  -5.597  1.00  0.00     0.031 C 
ATOM     46  C   UNL     1      -4.400  -7.860  -6.074  1.00  0.00     0.029 A 
ATOM     47  N   UNL     1      -6.216  -8.152  -4.803  1.00  0.00    -0.354 N 
ATOM     48  C   UNL     1      -9.025  -4.926  -4.147  1.00  0.00     0.074 A 
ATOM     49  C   UNL     1      -8.598  -3.725  -4.832  1.00  0.00     0.031 C 
ATOM     50  C   UNL     1      -4.375  -9.123  -5.619  1.00  0.00     0.029 A 
ATOM     51  C   UNL     1      -5.537  -9.350  -4.764  1.00  0.00     0.049 A 
ATOM     52  H   UNL     1      -7.060  -7.997  -4.321  1.00  0.00     0.167 HD
ATOM     53  C   UNL     1     -10.160  -5.023  -3.409  1.00  0.00     0.034 A 
ATOM     54  C   UNL     1      -5.816 -10.497  -4.112  1.00  0.00     0.034 A 
ATOM     55  C   UNL     1     -10.582  -6.231  -2.742  1.00  0.00     0.049 A 
ATOM     56  C   UNL     1      -7.075 -10.578  -3.283  1.00  0.00     0.074 A 
ATOM     57  C   UNL     1     -11.731  -6.453  -2.003  1.00  0.00     0.029 A 
ATOM     58  N   UNL     1      -9.869  -7.424  -2.729  1.00  0.00    -0.354 N 
ATOM     59  N   UNL     1      -7.983  -9.655  -3.063  1.00  0.00    -0.248 NA
ATOM     60  C   UNL     1      -7.357 -11.864  -2.632  1.00  0.00     0.031 C 
ATOM     61  C   UNL     1     -11.680  -7.753  -1.487  1.00  0.00     0.029 A 
ATOM     62  C   UNL     1     -10.542  -8.375  -1.975  1.00  0.00     0.049 A 
ATOM     63  H   UNL     1      -9.011  -7.573  -3.188  1.00  0.00     0.167 HD
ATOM     64  C   UNL     1      -8.963 -10.264  -2.282  1.00  0.00     0.074 A 
ATOM     65  C   UNL     1      -8.540 -11.635  -2.083  1.00  0.00     0.031 C 
ATOM     66  C   UNL     1     -10.111  -9.740  -1.781  1.00  0.00     0.034 A 
BRANCH  53  67
ATOM     67  C   UNL     1     -11.007  -3.777  -3.267  1.00  0.00     0.023 A 
ATOM     68  C   UNL     1     -11.592  -3.148  -4.381  1.00  0.00     0.031 A 
ATOM     69  C   UNL     1     -11.207  -3.189  -2.005  1.00  0.00     0.131 A 
ATOM     70  C   UNL     1     -12.272  -1.931  -4.224  1.00  0.00     0.055 A 
ATOM     71  C   UNL     1     -11.963  -2.026  -1.844  1.00  0.00     0.041 A 
ATOM     72  F   UNL     1     -10.659  -3.728  -0.904  1.00  0.00    -0.206 F 
ATOM     73  C   UNL     1     -12.486  -1.379  -2.960  1.00  0.00     0.022 A 
BRANCH  70  74
ATOM     74  S   UNL     1     -12.733  -0.999  -5.711  1.00  0.00     0.124 S 
ATOM     75  O   UNL     1     -11.434  -0.802  -6.350  1.00  0.00    -0.237 OA
ATOM     76  O   UNL     1     -13.646  -1.913  -6.387  1.00  0.00    -0.237 OA
ATOM     77  O   UNL     1     -13.347   0.216  -5.178  1.00  0.00    -0.744 OA
ENDBRANCH  70  74
ENDBRANCH  53  67
BRANCH  54  78
ATOM     78  C   UNL     1      -4.895 -11.668  -4.209  1.00  0.00     0.023 A 
ATOM     79  C   UNL     1      -5.314 -12.876  -4.791  1.00  0.00     0.031 A 
ATOM     80  C   UNL     1      -3.596 -11.612  -3.674  1.00  0.00     0.131 A 
ATOM     81  C   UNL     1      -4.464 -13.993  -4.777  1.00  0.00     0.055 A 
ATOM     82  C   UNL     1      -2.732 -12.709  -3.714  1.00  0.00     0.041 A 
ATOM     83  F   UNL     1      -3.142 -10.482  -3.108  1.00  0.00    -0.206 F 
ATOM     84  C   UNL     1      -3.171 -13.913  -4.255  1.00  0.00     0.022 A 
BRANCH  81  85
ATOM     85  S   UNL     1      -5.107 -15.584  -5.366  1.00  0.00     0.124 S 
ATOM     86  O   UNL     1      -6.261 -15.778  -4.495  1.00  0.00    -0.237 OA
ATOM     87  O   UNL     1      -5.400 -15.292  -6.765  1.00  0.00    -0.237 OA
ATOM     88  O   UNL     1      -3.994 -16.504  -5.144  1.00  0.00    -0.744 OA
ENDBRANCH  81  85
ENDBRANCH  54  78
BRANCH  66  89
ATOM     89  C   UNL     1     -11.025 -10.677  -1.025  1.00  0.00     0.023 A 
ATOM     90  C   UNL     1     -10.645 -11.271   0.191  1.00  0.00     0.031 A 
ATOM     91  C   UNL     1     -12.292 -10.996  -1.547  1.00  0.00     0.131 A 
ATOM     92  C   UNL     1     -11.494 -12.202   0.810  1.00  0.00     0.055 A 
ATOM     93  C   UNL     1     -13.160 -11.870  -0.892  1.00  0.00     0.041 A 
ATOM     94  F   UNL     1     -12.708 -10.462  -2.707  1.00  0.00    -0.206 F 
ATOM     95  C   UNL     1     -12.756 -12.492   0.285  1.00  0.00     0.022 A 
BRANCH  92  96
ATOM     96  S   UNL     1     -10.880 -13.118   2.251  1.00  0.00     0.124 S 
ATOM     97  O   UNL     1      -9.664 -13.730   1.726  1.00  0.00    -0.237 OA
ATOM     98  O   UNL     1     -10.688 -12.059   3.235  1.00  0.00    -0.237 OA
ATOM     99  O   UNL     1     -11.964 -14.053   2.550  1.00  0.00    -0.744 OA
ENDBRANCH  92  96
ENDBRANCH  66  89
ENDBRANCH  40  41
ENDBRANCH  32  35
ENDBRANCH  30  31
ENDBRANCH  29  30
ENDBRANCH  28  29
ENDBRANCH  27  28
ENDBRANCH   1  27
TORSDOF 22
