REMARK SMILES O=C(NCCCCCCNC(=O)c1ccccc1/N=C/c1coc2ccccc2c1=O)c1ccc(-c2c3nc(c(-c4cc(S(=O)(=O)[O-])ccc4F)c4ccc([nH]4)c(-c4cc(S(=O)(=O)[O-])ccc4F)c4nc(c(-c5cc(S(=O)(=O)[O-])ccc5F)c5ccc2[nH]5)C=C4)C=C3)cc1
REMARK SMILES IDX 6 1 5 2 4 3 3 4 1 5 2 6 32 8 33 9 94 10 34 11 93 12 35 13
REMARK SMILES IDX 36 14 37 15 87 16 38 17 92 18 86 19 88 20 39 21 91 22 85 23
REMARK SMILES IDX 84 24 40 26 72 27 52 28 71 29 53 30 56 31 70 32 89 33 54 34
REMARK SMILES IDX 55 35 69 37 90 38 57 39 41 40 42 41 50 42 43 43 49 44 51 45
REMARK SMILES IDX 48 46 44 47 45 48 46 49 47 50 73 51 74 52 82 53 75 54 81 55
REMARK SMILES IDX 83 56 80 57 76 58 77 59 78 60 79 61 58 62 59 63 67 64 60 65
REMARK SMILES IDX 66 66 68 67 65 68 61 69 62 70 63 71 64 72 7 73 8 74 9 75
REMARK SMILES IDX 10 76 11 77 12 79 13 80 14 81 18 82 15 83 17 84 16 85 19 86
REMARK SMILES IDX 20 87 21 88 22 89 30 90 23 91 29 92 31 93 24 94 28 95 25 96
REMARK SMILES IDX 27 97 26 98
REMARK H PARENT 3 7 88 25 56 36 10 78
REMARK Flexibility Score: inf
ROOT
ATOM      1  C   UNL     1       4.250  -3.260   2.091  1.00  0.00     0.002 C 
ENDROOT
BRANCH   1   2
ATOM      2  C   UNL     1       4.830  -1.861   1.870  1.00  0.00     0.021 C 
BRANCH   2   3
ATOM      3  C   UNL     1       4.602  -1.238   0.494  1.00  0.00     0.116 C 
BRANCH   3   4
ATOM      4  N   UNL     1       3.198  -1.143   0.135  1.00  0.00    -0.352 N 
ATOM      5  O   UNL     1       1.273  -0.218  -0.547  1.00  0.00    -0.269 OA
ATOM      6  C   UNL     1       2.493  -0.112  -0.434  1.00  0.00     0.251 C 
ATOM      7  H   UNL     1       2.666  -1.947   0.333  1.00  0.00     0.163 HD
BRANCH   6   8
ATOM      8  C   UNL     1       3.163   1.129  -0.896  1.00  0.00     0.039 A 
ATOM      9  C   UNL     1       4.376   1.109  -1.591  1.00  0.00     0.014 A 
ATOM     10  C   UNL     1       2.509   2.350  -0.685  1.00  0.00     0.014 A 
ATOM     11  C   UNL     1       4.973   2.306  -1.994  1.00  0.00     0.010 A 
ATOM     12  C   UNL     1       3.087   3.545  -1.124  1.00  0.00     0.010 A 
ATOM     13  C   UNL     1       4.334   3.534  -1.763  1.00  0.00    -0.014 A 
BRANCH  13  14
ATOM     14  C   UNL     1       4.964   4.800  -2.215  1.00  0.00     0.031 A 
ATOM     15  C   UNL     1       5.558   5.758  -1.219  1.00  0.00     0.074 A 
ATOM     16  C   UNL     1       4.994   5.094  -3.528  1.00  0.00     0.049 A 
ATOM     17  N   UNL     1       6.137   6.913  -1.428  1.00  0.00    -0.248 NA
ATOM     18  C   UNL     1       5.478   5.369   0.196  1.00  0.00     0.031 C 
ATOM     19  C   UNL     1       4.426   4.266  -4.593  1.00  0.00     0.029 A 
ATOM     20  N   UNL     1       5.525   6.172  -4.188  1.00  0.00    -0.354 N 
ATOM     21  C   UNL     1       6.475   7.402  -0.172  1.00  0.00     0.074 A 
ATOM     22  C   UNL     1       6.022   6.421   0.794  1.00  0.00     0.031 C 
ATOM     23  C   UNL     1       4.650   4.862  -5.776  1.00  0.00     0.029 A 
ATOM     24  C   UNL     1       5.359   6.117  -5.550  1.00  0.00     0.049 A 
ATOM     25  H   UNL     1       5.981   6.914  -3.730  1.00  0.00     0.167 HD
ATOM     26  C   UNL     1       7.106   8.559   0.149  1.00  0.00     0.034 A 
ATOM     27  C   UNL     1       5.729   6.984  -6.510  1.00  0.00     0.034 A 
ATOM     28  C   UNL     1       7.571   9.529  -0.810  1.00  0.00     0.049 A 
ATOM     29  C   UNL     1       6.447   8.247  -6.135  1.00  0.00     0.074 A 
ATOM     30  C   UNL     1       8.263  10.707  -0.585  1.00  0.00     0.029 A 
ATOM     31  N   UNL     1       7.385   9.436  -2.182  1.00  0.00    -0.354 N 
ATOM     32  N   UNL     1       6.765   8.690  -4.942  1.00  0.00    -0.248 NA
ATOM     33  C   UNL     1       6.856   9.125  -7.239  1.00  0.00     0.031 C 
ATOM     34  C   UNL     1       8.469  11.341  -1.818  1.00  0.00     0.029 A 
ATOM     35  C   UNL     1       7.934  10.542  -2.814  1.00  0.00     0.049 A 
ATOM     36  H   UNL     1       6.929   8.694  -2.640  1.00  0.00     0.167 HD
ATOM     37  C   UNL     1       7.408   9.903  -5.152  1.00  0.00     0.074 A 
ATOM     38  C   UNL     1       7.441  10.120  -6.585  1.00  0.00     0.031 C 
ATOM     39  C   UNL     1       7.930  10.758  -4.238  1.00  0.00     0.034 A 
BRANCH  26  40
ATOM     40  C   UNL     1       7.288   8.847   1.614  1.00  0.00     0.023 A 
ATOM     41  C   UNL     1       8.219   8.138   2.391  1.00  0.00     0.031 A 
ATOM     42  C   UNL     1       6.490   9.816   2.246  1.00  0.00     0.131 A 
ATOM     43  C   UNL     1       8.295   8.374   3.772  1.00  0.00     0.055 A 
ATOM     44  C   UNL     1       6.604  10.079   3.612  1.00  0.00     0.041 A 
ATOM     45  F   UNL     1       5.573  10.504   1.549  1.00  0.00    -0.206 F 
ATOM     46  C   UNL     1       7.502   9.348   4.385  1.00  0.00     0.022 A 
BRANCH  43  47
ATOM     47  S   UNL     1       9.365   7.310   4.777  1.00  0.00     0.124 S 
ATOM     48  O   UNL     1       8.861   5.979   4.449  1.00  0.00    -0.237 OA
ATOM     49  O   UNL     1      10.694   7.632   4.271  1.00  0.00    -0.237 OA
ATOM     50  O   UNL     1       9.096   7.748   6.146  1.00  0.00    -0.744 OA
ENDBRANCH  43  47
ENDBRANCH  26  40
BRANCH  27  51
ATOM     51  C   UNL     1       5.388   6.701  -7.924  1.00  0.00     0.023 A 
ATOM     52  C   UNL     1       6.327   6.131  -8.793  1.00  0.00     0.031 A 
ATOM     53  C   UNL     1       4.104   6.991  -8.414  1.00  0.00     0.131 A 
ATOM     54  C   UNL     1       5.969   5.879 -10.125  1.00  0.00     0.055 A 
ATOM     55  C   UNL     1       3.748   6.726  -9.735  1.00  0.00     0.041 A 
ATOM     56  F   UNL     1       3.176   7.526  -7.604  1.00  0.00    -0.206 F 
ATOM     57  C   UNL     1       4.686   6.167 -10.600  1.00  0.00     0.022 A 
BRANCH  54  58
ATOM     58  S   UNL     1       7.202   5.149 -11.234  1.00  0.00     0.124 S 
ATOM     59  O   UNL     1       8.166   6.236 -11.363  1.00  0.00    -0.237 OA
ATOM     60  O   UNL     1       7.646   3.984 -10.476  1.00  0.00    -0.237 OA
ATOM     61  O   UNL     1       6.435   4.846 -12.441  1.00  0.00    -0.744 OA
ENDBRANCH  54  58
ENDBRANCH  27  51
BRANCH  39  62
ATOM     62  C   UNL     1       8.585  11.996  -4.779  1.00  0.00     0.023 A 
ATOM     63  C   UNL     1       7.822  13.103  -5.184  1.00  0.00     0.031 A 
ATOM     64  C   UNL     1       9.982  12.054  -4.918  1.00  0.00     0.131 A 
ATOM     65  C   UNL     1       8.463  14.220  -5.740  1.00  0.00     0.055 A 
ATOM     66  C   UNL     1      10.615  13.177  -5.450  1.00  0.00     0.041 A 
ATOM     67  F   UNL     1      10.746  11.014  -4.550  1.00  0.00    -0.206 F 
ATOM     68  C   UNL     1       9.855  14.266  -5.870  1.00  0.00     0.022 A 
BRANCH  65  69
ATOM     69  S   UNL     1       7.452  15.603  -6.333  1.00  0.00     0.124 S 
ATOM     70  O   UNL     1       6.668  14.975  -7.392  1.00  0.00    -0.237 OA
ATOM     71  O   UNL     1       6.713  15.988  -5.135  1.00  0.00    -0.237 OA
ATOM     72  O   UNL     1       8.439  16.579  -6.789  1.00  0.00    -0.744 OA
ENDBRANCH  65  69
ENDBRANCH  39  62
ENDBRANCH  13  14
ENDBRANCH   6   8
ENDBRANCH   3   4
ENDBRANCH   2   3
ENDBRANCH   1   2
BRANCH   1  73
ATOM     73  C   UNL     1       4.728  -4.348   1.127  1.00  0.00     0.002 C 
BRANCH  73  74
ATOM     74  C   UNL     1       6.237  -4.620   1.096  1.00  0.00     0.021 C 
BRANCH  74  75
ATOM     75  C   UNL     1       6.910  -4.874   2.445  1.00  0.00     0.116 C 
BRANCH  75  76
ATOM     76  N   UNL     1       6.282  -5.938   3.213  1.00  0.00    -0.352 N 
ATOM     77  C   UNL     1       6.852  -6.853   4.058  1.00  0.00     0.253 C 
ATOM     78  H   UNL     1       5.306  -6.011   3.110  1.00  0.00     0.163 HD
ATOM     79  O   UNL     1       6.138  -7.648   4.670  1.00  0.00    -0.269 OA
BRANCH  77  80
ATOM     80  C   UNL     1       8.314  -6.957   4.223  1.00  0.00     0.065 A 
ATOM     81  C   UNL     1       8.896  -8.206   3.951  1.00  0.00     0.016 A 
ATOM     82  C   UNL     1       9.111  -5.908   4.694  1.00  0.00     0.076 A 
ATOM     83  C   UNL     1      10.272  -8.398   4.096  1.00  0.00     0.001 A 
ATOM     84  C   UNL     1      10.494  -6.116   4.823  1.00  0.00     0.029 A 
ATOM     85  C   UNL     1      11.074  -7.348   4.528  1.00  0.00     0.002 A 
BRANCH  82  86
ATOM     86  N   UNL     1       8.676  -4.608   4.943  1.00  0.00    -0.255 NA
ATOM     87  C   UNL     1       7.963  -4.338   5.988  1.00  0.00     0.127 C 
BRANCH  87  88
ATOM     88  C   UNL     1       7.825  -2.912   6.331  1.00  0.00     0.076 A 
ATOM     89  C   UNL     1       8.478  -2.565   7.451  1.00  0.00     0.209 A 
ATOM     90  C   UNL     1       7.758  -1.890   5.265  1.00  0.00     0.201 A 
ATOM     91  O   UNL     1       9.145  -1.361   7.604  1.00  0.00    -0.463 OA
ATOM     92  C   UNL     1       8.944  -1.030   5.219  1.00  0.00     0.065 A 
ATOM     93  O   UNL     1       6.854  -1.834   4.449  1.00  0.00    -0.288 OA
ATOM     94  C   UNL     1       9.624  -0.834   6.421  1.00  0.00     0.137 A 
ATOM     95  C   UNL     1       9.447  -0.563   4.008  1.00  0.00     0.016 A 
ATOM     96  C   UNL     1      10.836  -0.161   6.421  1.00  0.00     0.048 A 
ATOM     97  C   UNL     1      10.678   0.087   4.005  1.00  0.00     0.001 A 
ATOM     98  C   UNL     1      11.370   0.282   5.207  1.00  0.00     0.004 A 
ENDBRANCH  87  88
ENDBRANCH  82  86
ENDBRANCH  77  80
ENDBRANCH  75  76
ENDBRANCH  74  75
ENDBRANCH  73  74
ENDBRANCH   1  73
TORSDOF 18
