REMARK SMILES C[C@H](c1ccccc1)N1C(=O)c2ccc(C(=O)NCCCCCCNC(=O)c3ccc(-c4c5nc(c(-c6cc(S(=O)(=O)[O-])ccc6F)c6ccc([nH]6)c(-c6cc(S(=O)(=O)[O-])ccc6F)c6nc(c(-c7cc(S(=O)(=O)[O-])ccc7F)c7ccc4[nH]7)C=C6)C=C5)cc3)cc2C1=O
REMARK SMILES IDX 22 1 21 2 20 3 19 4 18 5 16 6 17 7 15 9 9 10 10 11 93 12
REMARK SMILES IDX 11 13 12 14 92 15 94 16 13 17 91 18 14 19 2 20 1 21 3 22
REMARK SMILES IDX 4 23 8 24 5 25 7 26 6 27 23 28 24 29 25 30 26 31 27 33 28 34
REMARK SMILES IDX 29 35 90 36 30 37 89 38 31 39 32 40 33 41 83 42 34 43 88 44
REMARK SMILES IDX 82 45 84 46 35 47 87 48 81 49 80 50 36 52 68 53 48 54 67 55
REMARK SMILES IDX 49 56 52 57 66 58 85 59 50 60 51 61 65 63 86 64 53 65 37 66
REMARK SMILES IDX 38 67 46 68 39 69 45 70 47 71 44 72 40 73 41 74 42 75 43 76
REMARK SMILES IDX 69 77 70 78 78 79 71 80 77 81 79 82 76 83 72 84 73 85 74 86
REMARK SMILES IDX 75 87 54 88 55 89 63 90 56 91 62 92 64 93 61 94 57 95 58 96
REMARK SMILES IDX 59 97 60 98
REMARK H PARENT 18 8 25 32 84 51 52 62
REMARK Flexibility Score: inf
ROOT
ATOM      1  C   UNL     1     -10.025  -4.816  -1.258  1.00  0.00     0.002 C 
ENDROOT
BRANCH   1   2
ATOM      2  C   UNL     1      -9.568  -4.699   0.198  1.00  0.00     0.002 C 
BRANCH   2   3
ATOM      3  C   UNL     1      -8.060  -4.568   0.434  1.00  0.00     0.021 C 
BRANCH   3   4
ATOM      4  C   UNL     1      -7.344  -3.461  -0.340  1.00  0.00     0.116 C 
BRANCH   4   5
ATOM      5  N   UNL     1      -7.887  -2.141  -0.075  1.00  0.00    -0.352 N 
ATOM      6  C   UNL     1      -7.294  -1.000   0.392  1.00  0.00     0.251 C 
ATOM      7  O   UNL     1      -7.981  -0.007   0.620  1.00  0.00    -0.269 OA
ATOM      8  H   UNL     1      -8.850  -2.052  -0.263  1.00  0.00     0.163 HD
BRANCH   6   9
ATOM      9  C   UNL     1      -5.843  -0.942   0.683  1.00  0.00     0.040 A 
ATOM     10  N   UNL     1      -1.276  -1.258   0.303  1.00  0.00    -0.267 N 
ATOM     11  C   UNL     1      -1.747  -0.828   1.514  1.00  0.00     0.262 C 
ATOM     12  C   UNL     1      -2.305  -1.598  -0.536  1.00  0.00     0.262 C 
ATOM     13  O   UNL     1      -1.164  -0.558   2.546  1.00  0.00    -0.269 OA
ATOM     14  C   UNL     1      -3.196  -0.762   1.399  1.00  0.00     0.053 A 
ATOM     15  C   UNL     1      -3.549  -1.280   0.168  1.00  0.00     0.054 A 
ATOM     16  O   UNL     1      -2.268  -2.062  -1.659  1.00  0.00    -0.269 OA
ATOM     17  C   UNL     1      -4.125  -0.258   2.286  1.00  0.00     0.015 A 
ATOM     18  C   UNL     1      -4.871  -1.383  -0.228  1.00  0.00     0.028 A 
ATOM     19  C   UNL     1      -5.466  -0.344   1.911  1.00  0.00     0.015 A 
BRANCH  10  20
ATOM     20  C   UNL     1       0.135  -1.287  -0.088  1.00  0.00     0.121 C 
ATOM     21  C   UNL     1       0.961  -2.253   0.764  1.00  0.00     0.037 C 
BRANCH  20  22
ATOM     22  C   UNL     1       0.685   0.138  -0.136  1.00  0.00    -0.025 A 
ATOM     23  C   UNL     1       1.044   0.834   1.031  1.00  0.00     0.006 A 
ATOM     24  C   UNL     1       0.722   0.830  -1.357  1.00  0.00     0.006 A 
ATOM     25  C   UNL     1       1.364   2.191   0.990  1.00  0.00     0.000 A 
ATOM     26  C   UNL     1       1.070   2.183  -1.400  1.00  0.00     0.000 A 
ATOM     27  C   UNL     1       1.371   2.867  -0.225  1.00  0.00     0.000 A 
ENDBRANCH  20  22
ENDBRANCH  10  20
ENDBRANCH   6   9
ENDBRANCH   4   5
ENDBRANCH   3   4
ENDBRANCH   2   3
ENDBRANCH   1   2
BRANCH   1  28
ATOM     28  C   UNL     1      -9.345  -5.901  -2.096  1.00  0.00     0.021 C 
BRANCH  28  29
ATOM     29  C   UNL     1      -9.424  -7.319  -1.538  1.00  0.00     0.116 C 
BRANCH  29  30
ATOM     30  N   UNL     1     -10.783  -7.830  -1.484  1.00  0.00    -0.352 N 
ATOM     31  C   UNL     1     -11.299  -8.996  -1.999  1.00  0.00     0.251 C 
ATOM     32  H   UNL     1     -11.428  -7.257  -1.010  1.00  0.00     0.163 HD
ATOM     33  O   UNL     1     -12.513  -9.181  -1.979  1.00  0.00    -0.269 OA
BRANCH  31  34
ATOM     34  C   UNL     1     -10.403 -10.008  -2.605  1.00  0.00     0.039 A 
ATOM     35  C   UNL     1     -10.758 -10.574  -3.833  1.00  0.00     0.014 A 
ATOM     36  C   UNL     1      -9.219 -10.400  -1.972  1.00  0.00     0.014 A 
ATOM     37  C   UNL     1      -9.892 -11.472  -4.462  1.00  0.00     0.010 A 
ATOM     38  C   UNL     1      -8.328 -11.247  -2.630  1.00  0.00     0.010 A 
ATOM     39  C   UNL     1      -8.650 -11.785  -3.886  1.00  0.00    -0.014 A 
BRANCH  39  40
ATOM     40  C   UNL     1      -7.668 -12.650  -4.591  1.00  0.00     0.031 A 
ATOM     41  C   UNL     1      -7.278 -13.984  -4.017  1.00  0.00     0.074 A 
ATOM     42  C   UNL     1      -7.068 -12.197  -5.709  1.00  0.00     0.049 A 
ATOM     43  N   UNL     1      -6.377 -14.836  -4.437  1.00  0.00    -0.248 NA
ATOM     44  C   UNL     1      -7.973 -14.395  -2.791  1.00  0.00     0.031 C 
ATOM     45  C   UNL     1      -7.324 -10.898  -6.336  1.00  0.00     0.029 A 
ATOM     46  N   UNL     1      -6.105 -12.765  -6.505  1.00  0.00    -0.354 N 
ATOM     47  C   UNL     1      -6.393 -15.885  -3.524  1.00  0.00     0.074 A 
ATOM     48  C   UNL     1      -7.346 -15.523  -2.494  1.00  0.00     0.031 C 
ATOM     49  C   UNL     1      -6.540 -10.771  -7.419  1.00  0.00     0.029 A 
ATOM     50  C   UNL     1      -5.700 -11.958  -7.542  1.00  0.00     0.049 A 
ATOM     51  H   UNL     1      -5.739 -13.666  -6.348  1.00  0.00     0.167 HD
ATOM     52  C   UNL     1      -5.696 -17.050  -3.554  1.00  0.00     0.034 A 
ATOM     53  C   UNL     1      -4.745 -12.140  -8.475  1.00  0.00     0.034 A 
ATOM     54  C   UNL     1      -4.746 -17.391  -4.586  1.00  0.00     0.049 A 
ATOM     55  C   UNL     1      -3.959 -13.424  -8.477  1.00  0.00     0.074 A 
ATOM     56  C   UNL     1      -4.030 -18.565  -4.750  1.00  0.00     0.029 A 
ATOM     57  N   UNL     1      -4.363 -16.549  -5.625  1.00  0.00    -0.354 N 
ATOM     58  N   UNL     1      -4.028 -14.434  -7.641  1.00  0.00    -0.248 NA
ATOM     59  C   UNL     1      -2.974 -13.596  -9.552  1.00  0.00     0.031 C 
ATOM     60  C   UNL     1      -3.170 -18.409  -5.843  1.00  0.00     0.029 A 
ATOM     61  C   UNL     1      -3.396 -17.164  -6.408  1.00  0.00     0.049 A 
ATOM     62  H   UNL     1      -4.725 -15.648  -5.781  1.00  0.00     0.167 HD
ATOM     63  C   UNL     1      -3.103 -15.368  -8.098  1.00  0.00     0.074 A 
ATOM     64  C   UNL     1      -2.505 -14.808  -9.294  1.00  0.00     0.031 C 
ATOM     65  C   UNL     1      -2.781 -16.580  -7.578  1.00  0.00     0.034 A 
BRANCH  52  66
ATOM     66  C   UNL     1      -5.927 -18.018  -2.416  1.00  0.00     0.023 A 
ATOM     67  C   UNL     1      -7.195 -18.576  -2.172  1.00  0.00     0.031 A 
ATOM     68  C   UNL     1      -4.885 -18.347  -1.531  1.00  0.00     0.131 A 
ATOM     69  C   UNL     1      -7.413 -19.348  -1.021  1.00  0.00     0.055 A 
ATOM     70  C   UNL     1      -5.088 -19.191  -0.436  1.00  0.00     0.041 A 
ATOM     71  F   UNL     1      -3.656 -17.834  -1.700  1.00  0.00    -0.206 F 
ATOM     72  C   UNL     1      -6.362 -19.680  -0.164  1.00  0.00     0.022 A 
BRANCH  69  73
ATOM     73  S   UNL     1      -9.121 -19.763  -0.571  1.00  0.00     0.124 S 
ATOM     74  O   UNL     1      -9.735 -18.439  -0.492  1.00  0.00    -0.237 OA
ATOM     75  O   UNL     1      -9.546 -20.600  -1.686  1.00  0.00    -0.237 OA
ATOM     76  O   UNL     1      -8.979 -20.452   0.710  1.00  0.00    -0.744 OA
ENDBRANCH  69  73
ENDBRANCH  52  66
BRANCH  53  77
ATOM     77  C   UNL     1      -4.461 -11.066  -9.466  1.00  0.00     0.023 A 
ATOM     78  C   UNL     1      -4.766 -11.230 -10.825  1.00  0.00     0.031 A 
ATOM     79  C   UNL     1      -3.873  -9.854  -9.059  1.00  0.00     0.131 A 
ATOM     80  C   UNL     1      -4.457 -10.208 -11.737  1.00  0.00     0.055 A 
ATOM     81  C   UNL     1      -3.606  -8.825  -9.963  1.00  0.00     0.041 A 
ATOM     82  F   UNL     1      -3.573  -9.646  -7.767  1.00  0.00    -0.206 F 
ATOM     83  C   UNL     1      -3.891  -9.003 -11.313  1.00  0.00     0.022 A 
BRANCH  80  84
ATOM     84  S   UNL     1      -4.767 -10.493 -13.501  1.00  0.00     0.124 S 
ATOM     85  O   UNL     1      -3.913 -11.644 -13.771  1.00  0.00    -0.237 OA
ATOM     86  O   UNL     1      -6.205 -10.742 -13.520  1.00  0.00    -0.237 OA
ATOM     87  O   UNL     1      -4.347  -9.242 -14.127  1.00  0.00    -0.744 OA
ENDBRANCH  80  84
ENDBRANCH  53  77
BRANCH  65  88
ATOM     88  C   UNL     1      -1.740 -17.383  -8.319  1.00  0.00     0.023 A 
ATOM     89  C   UNL     1      -0.394 -16.979  -8.366  1.00  0.00     0.031 A 
ATOM     90  C   UNL     1      -2.103 -18.558  -9.001  1.00  0.00     0.131 A 
ATOM     91  C   UNL     1       0.531 -17.717  -9.119  1.00  0.00     0.055 A 
ATOM     92  C   UNL     1      -1.167 -19.318  -9.704  1.00  0.00     0.041 A 
ATOM     93  F   UNL     1      -3.375 -18.988  -8.993  1.00  0.00    -0.206 F 
ATOM     94  C   UNL     1       0.156 -18.892  -9.776  1.00  0.00     0.022 A 
BRANCH  91  95
ATOM     95  S   UNL     1       2.219 -17.078  -9.297  1.00  0.00     0.124 S 
ATOM     96  O   UNL     1       1.988 -15.787  -9.939  1.00  0.00    -0.237 OA
ATOM     97  O   UNL     1       2.683 -17.029  -7.915  1.00  0.00    -0.237 OA
ATOM     98  O   UNL     1       2.878 -18.077 -10.136  1.00  0.00    -0.744 OA
ENDBRANCH  91  95
ENDBRANCH  65  88
ENDBRANCH  39  40
ENDBRANCH  31  34
ENDBRANCH  29  30
ENDBRANCH  28  29
ENDBRANCH   1  28
TORSDOF 18
