REMARK SMILES CCN(CC)C(=O)CN(CC(=O)NCCCCCCNC(=O)c1ccc(-c2c3nc(c(-c4cc(S(=O)(=O)[O-])ccc4F)c4ccc([nH]4)c(-c4cc(S(=O)(=O)[O-])ccc4F)c4nc(c(-c5cc(S(=O)(=O)[O-])ccc5F)c5ccc2[nH]5)C=C4)C=C3)cc1)c1ccccc1
REMARK SMILES IDX 16 1 15 2 14 3 13 4 11 5 12 6 10 8 9 9 8 10 6 11 3 12 7 13
REMARK SMILES IDX 2 14 1 15 4 16 5 17 86 18 87 19 91 20 88 21 90 22 89 23
REMARK SMILES IDX 17 24 18 25 19 26 20 27 21 28 22 30 23 31 24 32 85 33 25 34
REMARK SMILES IDX 84 35 26 36 27 37 28 38 78 39 29 40 83 41 77 42 79 43 30 44
REMARK SMILES IDX 82 45 76 46 75 47 31 49 63 50 43 51 62 52 44 53 47 54 61 55
REMARK SMILES IDX 80 56 45 57 46 58 60 60 81 61 48 62 32 63 33 64 41 65 34 66
REMARK SMILES IDX 40 67 42 68 39 69 35 70 36 71 37 72 38 73 64 74 65 75 73 76
REMARK SMILES IDX 66 77 72 78 74 79 71 80 67 81 68 82 69 83 70 84 49 85 50 86
REMARK SMILES IDX 58 87 51 88 57 89 59 90 56 91 52 92 53 93 54 94 55 95
REMARK H PARENT 13 7 20 29 79 48 47 59
REMARK Flexibility Score: inf
ROOT
ATOM      1  C   UNL     1       6.436   6.660  -3.099  1.00  0.00     0.002 C 
ENDROOT
BRANCH   1   2
ATOM      2  C   UNL     1       5.497   5.916  -2.140  1.00  0.00     0.021 C 
BRANCH   2   3
ATOM      3  C   UNL     1       4.227   6.693  -1.801  1.00  0.00     0.116 C 
BRANCH   3   4
ATOM      4  N   UNL     1       3.377   6.850  -2.957  1.00  0.00    -0.355 N 
ATOM      5  C   UNL     1       2.273   6.139  -3.314  1.00  0.00     0.239 C 
ATOM      6  O   UNL     1       1.725   6.440  -4.381  1.00  0.00    -0.273 OA
ATOM      7  H   UNL     1       3.632   7.574  -3.574  1.00  0.00     0.163 HD
BRANCH   5   8
ATOM      8  C   UNL     1       1.668   5.079  -2.392  1.00  0.00     0.217 C 
BRANCH   8   9
ATOM      9  N   UNL     1       2.488   3.899  -2.027  1.00  0.00    -0.353 N 
BRANCH   9  10
ATOM     10  C   UNL     1       2.901   3.753  -0.607  1.00  0.00     0.217 C 
BRANCH  10  11
ATOM     11  C   UNL     1       2.362   2.568   0.207  1.00  0.00     0.242 C 
ATOM     12  N   UNL     1       0.996   2.383   0.402  1.00  0.00    -0.342 N 
ATOM     13  O   UNL     1       3.176   1.796   0.734  1.00  0.00    -0.273 OA
BRANCH  12  14
ATOM     14  C   UNL     1       0.574   1.178   1.119  1.00  0.00     0.116 C 
ATOM     15  C   UNL     1       0.725  -0.074   0.262  1.00  0.00     0.027 C 
ENDBRANCH  12  14
BRANCH  12  16
ATOM     16  C   UNL     1      -0.057   3.280  -0.061  1.00  0.00     0.116 C 
ATOM     17  C   UNL     1      -0.190   4.522   0.807  1.00  0.00     0.027 C 
ENDBRANCH  12  16
ENDBRANCH  10  11
ENDBRANCH   9  10
BRANCH   9  18
ATOM     18  C   UNL     1       2.856   2.957  -2.982  1.00  0.00     0.038 A 
ATOM     19  C   UNL     1       3.256   3.318  -4.279  1.00  0.00     0.026 A 
ATOM     20  C   UNL     1       2.860   1.579  -2.714  1.00  0.00     0.026 A 
ATOM     21  C   UNL     1       3.638   2.372  -5.242  1.00  0.00     0.002 A 
ATOM     22  C   UNL     1       3.226   0.622  -3.671  1.00  0.00     0.002 A 
ATOM     23  C   UNL     1       3.620   1.019  -4.938  1.00  0.00     0.000 A 
ENDBRANCH   9  18
ENDBRANCH   8   9
ENDBRANCH   5   8
ENDBRANCH   3   4
ENDBRANCH   2   3
ENDBRANCH   1   2
BRANCH   1  24
ATOM     24  C   UNL     1       6.855   8.059  -2.634  1.00  0.00     0.002 C 
BRANCH  24  25
ATOM     25  C   UNL     1       7.481   8.112  -1.237  1.00  0.00     0.021 C 
BRANCH  25  26
ATOM     26  C   UNL     1       8.754   7.287  -1.086  1.00  0.00     0.116 C 
BRANCH  26  27
ATOM     27  N   UNL     1       9.816   7.776  -1.950  1.00  0.00    -0.352 N 
ATOM     28  C   UNL     1      11.086   8.175  -1.625  1.00  0.00     0.251 C 
ATOM     29  H   UNL     1       9.590   7.828  -2.907  1.00  0.00     0.163 HD
ATOM     30  O   UNL     1      11.760   8.786  -2.456  1.00  0.00    -0.269 OA
BRANCH  28  31
ATOM     31  C   UNL     1      11.634   7.892  -0.282  1.00  0.00     0.039 A 
ATOM     32  C   UNL     1      12.379   8.880   0.367  1.00  0.00     0.014 A 
ATOM     33  C   UNL     1      11.435   6.651   0.331  1.00  0.00     0.014 A 
ATOM     34  C   UNL     1      12.879   8.642   1.649  1.00  0.00     0.010 A 
ATOM     35  C   UNL     1      11.869   6.442   1.639  1.00  0.00     0.010 A 
ATOM     36  C   UNL     1      12.603   7.432   2.309  1.00  0.00    -0.014 A 
BRANCH  36  37
ATOM     37  C   UNL     1      13.088   7.189   3.693  1.00  0.00     0.031 A 
ATOM     38  C   UNL     1      14.082   6.092   3.965  1.00  0.00     0.074 A 
ATOM     39  C   UNL     1      12.609   7.936   4.708  1.00  0.00     0.049 A 
ATOM     40  N   UNL     1      14.596   5.704   5.105  1.00  0.00    -0.248 NA
ATOM     41  C   UNL     1      14.539   5.311   2.805  1.00  0.00     0.031 C 
ATOM     42  C   UNL     1      11.619   9.008   4.572  1.00  0.00     0.029 A 
ATOM     43  N   UNL     1      12.889   7.914   6.051  1.00  0.00    -0.354 N 
ATOM     44  C   UNL     1      15.435   4.638   4.801  1.00  0.00     0.074 A 
ATOM     45  C   UNL     1      15.302   4.394   3.380  1.00  0.00     0.031 C 
ATOM     46  C   UNL     1      11.404   9.562   5.776  1.00  0.00     0.029 A 
ATOM     47  C   UNL     1      12.199   8.858   6.777  1.00  0.00     0.049 A 
ATOM     48  H   UNL     1      13.524   7.281   6.458  1.00  0.00     0.167 HD
ATOM     49  C   UNL     1      16.263   3.945   5.622  1.00  0.00     0.034 A 
ATOM     50  C   UNL     1      12.203   9.122   8.098  1.00  0.00     0.034 A 
ATOM     51  C   UNL     1      16.385   4.200   7.038  1.00  0.00     0.049 A 
ATOM     52  C   UNL     1      13.096   8.305   8.999  1.00  0.00     0.074 A 
ATOM     53  C   UNL     1      17.211   3.578   7.958  1.00  0.00     0.029 A 
ATOM     54  N   UNL     1      15.657   5.151   7.741  1.00  0.00    -0.354 N 
ATOM     55  N   UNL     1      13.915   7.326   8.687  1.00  0.00    -0.248 NA
ATOM     56  C   UNL     1      13.074   8.637  10.429  1.00  0.00     0.031 C 
ATOM     57  C   UNL     1      16.934   4.104   9.225  1.00  0.00     0.029 A 
ATOM     58  C   UNL     1      15.995   5.113   9.086  1.00  0.00     0.049 A 
ATOM     59  H   UNL     1      14.997   5.763   7.343  1.00  0.00     0.167 HD
ATOM     60  C   UNL     1      14.533   6.955   9.879  1.00  0.00     0.074 A 
ATOM     61  C   UNL     1      14.005   7.827  10.908  1.00  0.00     0.031 C 
ATOM     62  C   UNL     1      15.455   5.985  10.104  1.00  0.00     0.034 A 
BRANCH  49  63
ATOM     63  C   UNL     1      17.084   2.836   5.006  1.00  0.00     0.023 A 
ATOM     64  C   UNL     1      18.040   3.096   4.008  1.00  0.00     0.031 A 
ATOM     65  C   UNL     1      16.897   1.500   5.402  1.00  0.00     0.131 A 
ATOM     66  C   UNL     1      18.715   2.035   3.388  1.00  0.00     0.055 A 
ATOM     67  C   UNL     1      17.634   0.455   4.840  1.00  0.00     0.041 A 
ATOM     68  F   UNL     1      15.985   1.184   6.335  1.00  0.00    -0.206 F 
ATOM     69  C   UNL     1      18.539   0.717   3.816  1.00  0.00     0.022 A 
BRANCH  66  70
ATOM     70  S   UNL     1      19.717   2.387   1.918  1.00  0.00     0.124 S 
ATOM     71  O   UNL     1      18.724   2.967   1.017  1.00  0.00    -0.237 OA
ATOM     72  O   UNL     1      20.725   3.305   2.435  1.00  0.00    -0.237 OA
ATOM     73  O   UNL     1      20.216   1.072   1.520  1.00  0.00    -0.744 OA
ENDBRANCH  66  70
ENDBRANCH  49  63
BRANCH  50  74
ATOM     74  C   UNL     1      11.340  10.201   8.663  1.00  0.00     0.023 A 
ATOM     75  C   UNL     1      11.905  11.310   9.312  1.00  0.00     0.031 A 
ATOM     76  C   UNL     1       9.938  10.107   8.621  1.00  0.00     0.131 A 
ATOM     77  C   UNL     1      11.076  12.248   9.946  1.00  0.00     0.055 A 
ATOM     78  C   UNL     1       9.116  11.077   9.199  1.00  0.00     0.041 A 
ATOM     79  F   UNL     1       9.343   9.070   8.011  1.00  0.00    -0.206 F 
ATOM     80  C   UNL     1       9.685  12.147   9.882  1.00  0.00     0.022 A 
BRANCH  77  81
ATOM     81  S   UNL     1      11.847  13.545  10.954  1.00  0.00     0.124 S 
ATOM     82  O   UNL     1      12.627  12.758  11.902  1.00  0.00    -0.237 OA
ATOM     83  O   UNL     1      12.608  14.290   9.957  1.00  0.00    -0.237 OA
ATOM     84  O   UNL     1      10.704  14.257  11.523  1.00  0.00    -0.744 OA
ENDBRANCH  77  81
ENDBRANCH  50  74
BRANCH  62  85
ATOM     85  C   UNL     1      15.987   5.858  11.511  1.00  0.00     0.023 A 
ATOM     86  C   UNL     1      15.165   5.469  12.584  1.00  0.00     0.031 A 
ATOM     87  C   UNL     1      17.334   6.155  11.787  1.00  0.00     0.131 A 
ATOM     88  C   UNL     1      15.679   5.453  13.889  1.00  0.00     0.055 A 
ATOM     89  C   UNL     1      17.857   6.071  13.078  1.00  0.00     0.041 A 
ATOM     90  F   UNL     1      18.166   6.534  10.803  1.00  0.00    -0.206 F 
ATOM     91  C   UNL     1      17.024   5.734  14.140  1.00  0.00     0.022 A 
BRANCH  88  92
ATOM     92  S   UNL     1      14.538   5.166  15.270  1.00  0.00     0.124 S 
ATOM     93  O   UNL     1      13.566   6.239  15.088  1.00  0.00    -0.237 OA
ATOM     94  O   UNL     1      14.055   3.816  15.000  1.00  0.00    -0.237 OA
ATOM     95  O   UNL     1      15.390   5.294  16.451  1.00  0.00    -0.744 OA
ENDBRANCH  88  92
ENDBRANCH  62  85
ENDBRANCH  36  37
ENDBRANCH  28  31
ENDBRANCH  26  27
ENDBRANCH  25  26
ENDBRANCH  24  25
ENDBRANCH   1  24
TORSDOF 22
