REMARK SMILES CC(C)(C)c1cc2c(cc1Cl)C=C(C(=O)NCCCCCCNC(=O)c1ccc(-c3c4nc(c(-c5cc(S(=O)(=O)[O-])ccc5F)c5ccc([nH]5)c(-c5cc(S(=O)(=O)[O-])ccc5F)c5nc(c(-c6cc(S(=O)(=O)[O-])ccc6F)c6ccc3[nH]6)C=C5)C=C4)cc1)[C@H](C(F)(F)F)O2
REMARK SMILES IDX 20 1 19 2 18 3 17 4 16 5 14 6 15 7 13 9 5 10 6 11 10 12 7 13
REMARK SMILES IDX 9 14 11 15 8 16 94 17 12 18 89 19 2 20 1 21 3 22 4 23 90 24
REMARK SMILES IDX 91 25 92 26 93 27 21 28 22 29 23 30 24 31 25 33 26 34 27 35
REMARK SMILES IDX 88 36 28 37 87 38 29 39 30 40 31 41 81 42 32 43 86 44 80 45
REMARK SMILES IDX 82 46 33 47 85 48 79 49 78 50 34 52 66 53 46 54 65 55 47 56
REMARK SMILES IDX 50 57 64 58 83 59 48 60 49 61 63 63 84 64 51 65 35 66 36 67
REMARK SMILES IDX 44 68 37 69 43 70 45 71 42 72 38 73 39 74 40 75 41 76 67 77
REMARK SMILES IDX 68 78 76 79 69 80 75 81 77 82 74 83 70 84 71 85 72 86 73 87
REMARK SMILES IDX 52 88 53 89 61 90 54 91 60 92 62 93 59 94 55 95 56 96 57 97
REMARK SMILES IDX 58 98
REMARK H PARENT 16 8 23 32 82 51 50 62
REMARK Flexibility Score: inf
ROOT
ATOM      1  C   UNL     1       1.941  10.525   8.102  1.00  0.00     0.002 C 
ENDROOT
BRANCH   1   2
ATOM      2  C   UNL     1       1.024   9.313   8.306  1.00  0.00     0.002 C 
BRANCH   2   3
ATOM      3  C   UNL     1       0.707   8.499   7.048  1.00  0.00     0.021 C 
BRANCH   3   4
ATOM      4  C   UNL     1       1.928   7.894   6.358  1.00  0.00     0.116 C 
BRANCH   4   5
ATOM      5  N   UNL     1       2.320   6.635   6.968  1.00  0.00    -0.352 N 
ATOM      6  C   UNL     1       2.368   5.328   6.621  1.00  0.00     0.251 C 
ATOM      7  O   UNL     1       2.808   4.573   7.496  1.00  0.00    -0.270 OA
ATOM      8  H   UNL     1       2.639   6.769   7.890  1.00  0.00     0.163 HD
BRANCH   6   9
ATOM      9  C   UNL     1       1.945   4.755   5.306  1.00  0.00     0.067 C 
ATOM     10  C   UNL     1       1.056   1.576   1.415  1.00  0.00    -0.020 A 
ATOM     11  C   UNL     1       0.947   2.970   1.649  1.00  0.00     0.053 A 
ATOM     12  C   UNL     1       1.559   0.815   2.494  1.00  0.00     0.045 A 
ATOM     13  C   UNL     1       1.326   3.568   2.850  1.00  0.00     0.128 A 
ATOM     14  C   UNL     1       1.956   1.431   3.701  1.00  0.00     0.032 A 
ATOM     15  Cl  UNL     1       1.722  -0.905   2.511  1.00  0.00    -0.084 Cl
ATOM     16  C   UNL     1       1.842   2.807   3.883  1.00  0.00     0.019 A 
ATOM     17  O   UNL     1       1.191   4.922   2.922  1.00  0.00    -0.475 OA
ATOM     18  C   UNL     1       2.260   3.459   5.115  1.00  0.00     0.025 C 
ATOM     19  C   UNL     1       1.171   5.504   4.255  1.00  0.00     0.314 C 
BRANCH  10  20
ATOM     20  C   UNL     1       0.564   1.064   0.038  1.00  0.00    -0.012 C 
ATOM     21  C   UNL     1       0.956  -0.372  -0.366  1.00  0.00     0.016 C 
ATOM     22  C   UNL     1       1.111   1.962  -1.107  1.00  0.00     0.016 C 
ATOM     23  C   UNL     1      -0.980   1.137   0.028  1.00  0.00     0.016 C 
ENDBRANCH  10  20
BRANCH  19  24
ATOM     24  C   UNL     1      -0.287   5.780   4.662  1.00  0.00     0.429 C 
ATOM     25  F   UNL     1      -1.139   4.823   4.226  1.00  0.00    -0.167 F 
ATOM     26  F   UNL     1      -0.450   5.859   6.002  1.00  0.00    -0.167 F 
ATOM     27  F   UNL     1      -0.708   6.963   4.149  1.00  0.00    -0.167 F 
ENDBRANCH  19  24
ENDBRANCH   6   9
ENDBRANCH   4   5
ENDBRANCH   3   4
ENDBRANCH   2   3
ENDBRANCH   1   2
BRANCH   1  28
ATOM     28  C   UNL     1       1.574  11.444   6.935  1.00  0.00     0.021 C 
BRANCH  28  29
ATOM     29  C   UNL     1       0.151  11.991   6.968  1.00  0.00     0.116 C 
BRANCH  29  30
ATOM     30  N   UNL     1      -0.070  12.901   8.081  1.00  0.00    -0.352 N 
ATOM     31  C   UNL     1      -0.459  14.219   8.052  1.00  0.00     0.251 C 
ATOM     32  H   UNL     1       0.081  12.521   8.977  1.00  0.00     0.163 HD
ATOM     33  O   UNL     1      -0.444  14.892   9.079  1.00  0.00    -0.269 OA
BRANCH  31  34
ATOM     34  C   UNL     1      -0.858  14.824   6.764  1.00  0.00     0.039 A 
ATOM     35  C   UNL     1      -1.786  14.181   5.940  1.00  0.00     0.014 A 
ATOM     36  C   UNL     1      -0.253  16.014   6.354  1.00  0.00     0.014 A 
ATOM     37  C   UNL     1      -1.986  14.640   4.643  1.00  0.00     0.010 A 
ATOM     38  C   UNL     1      -0.514  16.515   5.075  1.00  0.00     0.010 A 
ATOM     39  C   UNL     1      -1.342  15.805   4.192  1.00  0.00    -0.014 A 
BRANCH  39  40
ATOM     40  C   UNL     1      -1.542  16.264   2.793  1.00  0.00     0.031 A 
ATOM     41  C   UNL     1      -0.400  16.256   1.813  1.00  0.00     0.074 A 
ATOM     42  C   UNL     1      -2.769  16.652   2.398  1.00  0.00     0.049 A 
ATOM     43  N   UNL     1      -0.390  16.625   0.559  1.00  0.00    -0.248 NA
ATOM     44  C   UNL     1       0.901  15.771   2.303  1.00  0.00     0.031 C 
ATOM     45  C   UNL     1      -3.951  16.679   3.259  1.00  0.00     0.029 A 
ATOM     46  N   UNL     1      -3.233  17.081   1.180  1.00  0.00    -0.354 N 
ATOM     47  C   UNL     1       0.913  16.434   0.113  1.00  0.00     0.074 A 
ATOM     48  C   UNL     1       1.675  15.943   1.240  1.00  0.00     0.031 C 
ATOM     49  C   UNL     1      -5.012  17.059   2.534  1.00  0.00     0.029 A 
ATOM     50  C   UNL     1      -4.577  17.374   1.176  1.00  0.00     0.049 A 
ATOM     51  H   UNL     1      -2.660  17.171   0.385  1.00  0.00     0.167 HD
ATOM     52  C   UNL     1       1.420  16.637  -1.126  1.00  0.00     0.034 A 
ATOM     53  C   UNL     1      -5.370  17.859   0.198  1.00  0.00     0.034 A 
ATOM     54  C   UNL     1       0.642  17.109  -2.243  1.00  0.00     0.049 A 
ATOM     55  C   UNL     1      -4.772  18.122  -1.159  1.00  0.00     0.074 A 
ATOM     56  C   UNL     1       1.060  17.323  -3.545  1.00  0.00     0.029 A 
ATOM     57  N   UNL     1      -0.706  17.435  -2.198  1.00  0.00    -0.354 N 
ATOM     58  N   UNL     1      -3.545  17.905  -1.571  1.00  0.00    -0.248 NA
ATOM     59  C   UNL     1      -5.654  18.698  -2.182  1.00  0.00     0.031 C 
ATOM     60  C   UNL     1      -0.018  17.827  -4.272  1.00  0.00     0.029 A 
ATOM     61  C   UNL     1      -1.128  17.871  -3.443  1.00  0.00     0.049 A 
ATOM     62  H   UNL     1      -1.278  17.365  -1.400  1.00  0.00     0.167 HD
ATOM     63  C   UNL     1      -3.512  18.303  -2.904  1.00  0.00     0.074 A 
ATOM     64  C   UNL     1      -4.849  18.752  -3.236  1.00  0.00     0.031 C 
ATOM     65  C   UNL     1      -2.467  18.303  -3.769  1.00  0.00     0.034 A 
BRANCH  52  66
ATOM     66  C   UNL     1       2.879  16.345  -1.369  1.00  0.00     0.023 A 
ATOM     67  C   UNL     1       3.759  17.388  -1.716  1.00  0.00     0.031 A 
ATOM     68  C   UNL     1       3.369  15.027  -1.387  1.00  0.00     0.131 A 
ATOM     69  C   UNL     1       5.074  17.092  -2.095  1.00  0.00     0.055 A 
ATOM     70  C   UNL     1       4.690  14.741  -1.734  1.00  0.00     0.041 A 
ATOM     71  F   UNL     1       2.569  13.999  -1.062  1.00  0.00    -0.206 F 
ATOM     72  C   UNL     1       5.546  15.775  -2.101  1.00  0.00     0.022 A 
BRANCH  69  73
ATOM     73  S   UNL     1       6.209  18.394  -2.648  1.00  0.00     0.124 S 
ATOM     74  O   UNL     1       7.296  18.274  -1.679  1.00  0.00    -0.237 OA
ATOM     75  O   UNL     1       6.533  17.962  -4.005  1.00  0.00    -0.237 OA
ATOM     76  O   UNL     1       5.419  19.616  -2.546  1.00  0.00    -0.744 OA
ENDBRANCH  69  73
ENDBRANCH  52  66
BRANCH  53  77
ATOM     77  C   UNL     1      -6.818  18.080   0.484  1.00  0.00     0.023 A 
ATOM     78  C   UNL     1      -7.227  18.981   1.486  1.00  0.00     0.031 A 
ATOM     79  C   UNL     1      -7.802  17.303  -0.147  1.00  0.00     0.131 A 
ATOM     80  C   UNL     1      -8.569  19.020   1.883  1.00  0.00     0.055 A 
ATOM     81  C   UNL     1      -9.151  17.399   0.201  1.00  0.00     0.041 A 
ATOM     82  F   UNL     1      -7.460  16.424  -1.101  1.00  0.00    -0.206 F 
ATOM     83  C   UNL     1      -9.537  18.246   1.236  1.00  0.00     0.022 A 
BRANCH  80  84
ATOM     84  S   UNL     1      -9.076  19.960   3.351  1.00  0.00     0.124 S 
ATOM     85  O   UNL     1     -10.002  20.934   2.783  1.00  0.00    -0.237 OA
ATOM     86  O   UNL     1      -9.682  18.919   4.178  1.00  0.00    -0.237 OA
ATOM     87  O   UNL     1      -7.821  20.502   3.861  1.00  0.00    -0.744 OA
ENDBRANCH  80  84
ENDBRANCH  53  77
BRANCH  65  88
ATOM     88  C   UNL     1      -2.693  18.799  -5.175  1.00  0.00     0.023 A 
ATOM     89  C   UNL     1      -2.548  17.917  -6.263  1.00  0.00     0.031 A 
ATOM     90  C   UNL     1      -2.878  20.165  -5.442  1.00  0.00     0.131 A 
ATOM     91  C   UNL     1      -2.541  18.420  -7.569  1.00  0.00     0.055 A 
ATOM     92  C   UNL     1      -2.916  20.656  -6.748  1.00  0.00     0.041 A 
ATOM     93  F   UNL     1      -3.013  21.044  -4.436  1.00  0.00    -0.206 F 
ATOM     94  C   UNL     1      -2.731  19.784  -7.818  1.00  0.00     0.022 A 
BRANCH  91  95
ATOM     95  S   UNL     1      -2.200  17.340  -8.986  1.00  0.00     0.124 S 
ATOM     96  O   UNL     1      -3.404  17.513  -9.796  1.00  0.00    -0.237 OA
ATOM     97  O   UNL     1      -0.986  17.934  -9.539  1.00  0.00    -0.237 OA
ATOM     98  O   UNL     1      -2.038  16.018  -8.391  1.00  0.00    -0.744 OA
ENDBRANCH  91  95
ENDBRANCH  65  88
ENDBRANCH  39  40
ENDBRANCH  31  34
ENDBRANCH  29  30
ENDBRANCH  28  29
ENDBRANCH   1  28
TORSDOF 18
