REMARK SMILES O=C(NCCCCCCNC(=O)c1ccccc1-n1ccnn1)c1ccc(-c2c3nc(c(-c4cc(S(=O)(=O)[O-])ccc4F)c4ccc([nH]4)c(-c4cc(S(=O)(=O)[O-])ccc4F)c4nc(c(-c5cc(S(=O)(=O)[O-])ccc5F)c5ccc2[nH]5)C=C4)C=C3)cc1
REMARK SMILES IDX 5 1 4 2 3 3 1 4 2 5 24 7 25 8 86 9 26 10 85 11 27 12 28 13
REMARK SMILES IDX 29 14 79 15 30 16 84 17 78 18 80 19 31 20 83 21 77 22 76 23
REMARK SMILES IDX 32 25 64 26 44 27 63 28 45 29 48 30 62 31 81 32 46 33 47 34
REMARK SMILES IDX 61 36 82 37 49 38 33 39 34 40 42 41 35 42 41 43 43 44 40 45
REMARK SMILES IDX 36 46 37 47 38 48 39 49 65 50 66 51 74 52 67 53 73 54 75 55
REMARK SMILES IDX 72 56 68 57 69 58 70 59 71 60 50 61 51 62 59 63 52 64 58 65
REMARK SMILES IDX 60 66 57 67 53 68 54 69 55 70 56 71 6 72 7 73 8 74 9 75
REMARK SMILES IDX 10 76 11 77 12 79 13 80 14 81 18 82 15 83 17 84 16 85 19 86
REMARK SMILES IDX 20 87 23 88 21 89 22 90
REMARK H PARENT 3 6 80 24 48 35 10 78
REMARK Flexibility Score: inf
ROOT
ATOM      1  C   UNL     1       4.920  -0.398   2.219  1.00  0.00     0.021 C 
ENDROOT
BRANCH   1   2
ATOM      2  C   UNL     1       4.752  -0.751   0.744  1.00  0.00     0.116 C 
BRANCH   2   3
ATOM      3  N   UNL     1       3.387  -0.981   0.321  1.00  0.00    -0.352 N 
ATOM      4  O   UNL     1       1.344  -0.746  -0.484  1.00  0.00    -0.269 OA
ATOM      5  C   UNL     1       2.346  -0.174  -0.046  1.00  0.00     0.251 C 
ATOM      6  H   UNL     1       3.155  -1.937   0.291  1.00  0.00     0.163 HD
BRANCH   5   7
ATOM      7  C   UNL     1       2.320   1.306   0.106  1.00  0.00     0.039 A 
ATOM      8  C   UNL     1       3.436   2.137   0.206  1.00  0.00     0.014 A 
ATOM      9  C   UNL     1       1.039   1.891   0.139  1.00  0.00     0.014 A 
ATOM     10  C   UNL     1       3.277   3.509   0.406  1.00  0.00     0.010 A 
ATOM     11  C   UNL     1       0.876   3.260   0.326  1.00  0.00     0.010 A 
ATOM     12  C   UNL     1       1.998   4.068   0.483  1.00  0.00    -0.014 A 
BRANCH  12  13
ATOM     13  C   UNL     1       1.873   5.526   0.534  1.00  0.00     0.031 A 
ATOM     14  C   UNL     1       2.320   6.229  -0.703  1.00  0.00     0.074 A 
ATOM     15  C   UNL     1       1.250   6.202   1.521  1.00  0.00     0.049 A 
ATOM     16  N   UNL     1       3.272   7.093  -0.834  1.00  0.00    -0.248 NA
ATOM     17  C   UNL     1       1.698   5.838  -1.979  1.00  0.00     0.031 C 
ATOM     18  C   UNL     1       0.507   5.649   2.654  1.00  0.00     0.029 A 
ATOM     19  N   UNL     1       1.056   7.549   1.655  1.00  0.00    -0.354 N 
ATOM     20  C   UNL     1       3.242   7.511  -2.163  1.00  0.00     0.074 A 
ATOM     21  C   UNL     1       2.370   6.594  -2.848  1.00  0.00     0.031 C 
ATOM     22  C   UNL     1      -0.235   6.628   3.221  1.00  0.00     0.029 A 
ATOM     23  C   UNL     1       0.071   7.896   2.576  1.00  0.00     0.049 A 
ATOM     24  H   UNL     1       1.569   8.216   1.144  1.00  0.00     0.167 HD
ATOM     25  C   UNL     1       3.782   8.700  -2.555  1.00  0.00     0.034 A 
ATOM     26  C   UNL     1      -0.505   9.117   2.752  1.00  0.00     0.034 A 
ATOM     27  C   UNL     1       4.687   9.217  -1.557  1.00  0.00     0.049 A 
ATOM     28  C   UNL     1       0.427  10.127   2.195  1.00  0.00     0.074 A 
ATOM     29  C   UNL     1       5.847   8.756  -0.965  1.00  0.00     0.029 A 
ATOM     30  N   UNL     1       4.253  10.250  -0.758  1.00  0.00    -0.354 N 
ATOM     31  N   UNL     1       1.600  10.382   2.706  1.00  0.00    -0.248 NA
ATOM     32  C   UNL     1       0.260  10.526   0.805  1.00  0.00     0.031 C 
ATOM     33  C   UNL     1       5.750   9.171   0.396  1.00  0.00     0.029 A 
ATOM     34  C   UNL     1       4.579   9.919   0.533  1.00  0.00     0.049 A 
ATOM     35  H   UNL     1       3.795  11.069  -1.055  1.00  0.00     0.167 HD
ATOM     36  C   UNL     1       2.436  10.550   1.614  1.00  0.00     0.074 A 
ATOM     37  C   UNL     1       1.538  10.730   0.475  1.00  0.00     0.031 C 
ATOM     38  C   UNL     1       3.768  10.252   1.687  1.00  0.00     0.034 A 
BRANCH  25  39
ATOM     39  C   UNL     1       3.255   9.573  -3.674  1.00  0.00     0.023 A 
ATOM     40  C   UNL     1       3.954  10.767  -3.948  1.00  0.00     0.031 A 
ATOM     41  C   UNL     1       1.976   9.464  -4.261  1.00  0.00     0.131 A 
ATOM     42  C   UNL     1       3.347  11.815  -4.662  1.00  0.00     0.055 A 
ATOM     43  C   UNL     1       1.405  10.480  -5.034  1.00  0.00     0.041 A 
ATOM     44  F   UNL     1       1.167   8.420  -4.043  1.00  0.00    -0.206 F 
ATOM     45  C   UNL     1       2.075  11.679  -5.209  1.00  0.00     0.022 A 
BRANCH  42  46
ATOM     46  S   UNL     1       4.173  13.428  -4.692  1.00  0.00     0.124 S 
ATOM     47  O   UNL     1       4.360  13.688  -3.269  1.00  0.00    -0.237 OA
ATOM     48  O   UNL     1       5.379  13.133  -5.458  1.00  0.00    -0.237 OA
ATOM     49  O   UNL     1       3.204  14.292  -5.362  1.00  0.00    -0.744 OA
ENDBRANCH  42  46
ENDBRANCH  25  39
BRANCH  26  50
ATOM     50  C   UNL     1      -1.932   9.410   3.076  1.00  0.00     0.023 A 
ATOM     51  C   UNL     1      -2.373  10.653   3.584  1.00  0.00     0.031 A 
ATOM     52  C   UNL     1      -2.937   8.513   2.648  1.00  0.00     0.131 A 
ATOM     53  C   UNL     1      -3.758  10.946   3.652  1.00  0.00     0.055 A 
ATOM     54  C   UNL     1      -4.300   8.805   2.722  1.00  0.00     0.041 A 
ATOM     55  F   UNL     1      -2.625   7.349   2.057  1.00  0.00    -0.206 F 
ATOM     56  C   UNL     1      -4.717  10.028   3.218  1.00  0.00     0.022 A 
BRANCH  53  57
ATOM     57  S   UNL     1      -4.341  12.579   4.222  1.00  0.00     0.124 S 
ATOM     58  O   UNL     1      -4.005  12.551   5.641  1.00  0.00    -0.237 OA
ATOM     59  O   UNL     1      -3.572  13.496   3.389  1.00  0.00    -0.237 OA
ATOM     60  O   UNL     1      -5.776  12.550   3.932  1.00  0.00    -0.744 OA
ENDBRANCH  53  57
ENDBRANCH  26  50
BRANCH  38  61
ATOM     61  C   UNL     1       4.392  10.031   3.048  1.00  0.00     0.023 A 
ATOM     62  C   UNL     1       3.964   9.066   3.988  1.00  0.00     0.031 A 
ATOM     63  C   UNL     1       5.562  10.755   3.343  1.00  0.00     0.131 A 
ATOM     64  C   UNL     1       4.697   8.866   5.175  1.00  0.00     0.055 A 
ATOM     65  C   UNL     1       6.296  10.537   4.507  1.00  0.00     0.041 A 
ATOM     66  F   UNL     1       6.035  11.666   2.477  1.00  0.00    -0.206 F 
ATOM     67  C   UNL     1       5.863   9.595   5.431  1.00  0.00     0.022 A 
BRANCH  64  68
ATOM     68  S   UNL     1       4.138   7.659   6.421  1.00  0.00     0.124 S 
ATOM     69  O   UNL     1       2.722   7.964   6.583  1.00  0.00    -0.237 OA
ATOM     70  O   UNL     1       4.449   6.380   5.786  1.00  0.00    -0.237 OA
ATOM     71  O   UNL     1       4.965   7.970   7.589  1.00  0.00    -0.744 OA
ENDBRANCH  64  68
ENDBRANCH  38  61
ENDBRANCH  12  13
ENDBRANCH   5   7
ENDBRANCH   2   3
ENDBRANCH   1   2
BRANCH   1  72
ATOM     72  C   UNL     1       4.382  -1.436   3.212  1.00  0.00     0.002 C 
BRANCH  72  73
ATOM     73  C   UNL     1       4.811  -2.890   2.983  1.00  0.00     0.002 C 
BRANCH  73  74
ATOM     74  C   UNL     1       6.318  -3.155   2.889  1.00  0.00     0.021 C 
BRANCH  74  75
ATOM     75  C   UNL     1       7.138  -2.723   4.100  1.00  0.00     0.116 C 
BRANCH  75  76
ATOM     76  N   UNL     1       6.798  -3.459   5.309  1.00  0.00    -0.352 N 
ATOM     77  C   UNL     1       7.610  -3.878   6.332  1.00  0.00     0.253 C 
ATOM     78  H   UNL     1       5.846  -3.691   5.407  1.00  0.00     0.163 HD
ATOM     79  O   UNL     1       7.147  -4.515   7.278  1.00  0.00    -0.269 OA
BRANCH  77  80
ATOM     80  C   UNL     1       9.064  -3.614   6.293  1.00  0.00     0.065 A 
ATOM     81  C   UNL     1       9.883  -4.757   6.277  1.00  0.00     0.016 A 
ATOM     82  C   UNL     1       9.645  -2.343   6.180  1.00  0.00     0.079 A 
ATOM     83  C   UNL     1      11.261  -4.640   6.096  1.00  0.00     0.001 A 
ATOM     84  C   UNL     1      11.030  -2.240   5.949  1.00  0.00     0.029 A 
ATOM     85  C   UNL     1      11.831  -3.383   5.915  1.00  0.00     0.002 A 
BRANCH  82  86
ATOM     86  N   UNL     1       8.897  -1.147   6.274  1.00  0.00    -0.220 N 
ATOM     87  C   UNL     1       7.724  -0.884   6.942  1.00  0.00     0.137 A 
ATOM     88  N   UNL     1       9.292  -0.036   5.607  1.00  0.00    -0.062 NA
ATOM     89  C   UNL     1       7.377   0.385   6.548  1.00  0.00     0.157 A 
ATOM     90  N   UNL     1       8.339   0.878   5.720  1.00  0.00    -0.139 NA
ENDBRANCH  82  86
ENDBRANCH  77  80
ENDBRANCH  75  76
ENDBRANCH  74  75
ENDBRANCH  73  74
ENDBRANCH  72  73
ENDBRANCH   1  72
TORSDOF 17
