REMARK SMILES O=C(NCCCCCCNC(=O)c1cc(F)ccc1NS(=O)(=O)c1ccc(Cl)s1)c1ccc(-c2c3nc(c(-c4cc(S(=O)(=O)[O-])ccc4F)c4ccc([nH]4)c(-c4cc(S(=O)(=O)[O-])ccc4F)c4nc(c(-c5cc(S(=O)(=O)[O-])ccc5F)c5ccc2[nH]5)C=C4)C=C3)cc1
REMARK SMILES IDX 6 1 5 2 4 3 3 4 1 5 2 6 30 8 31 9 92 10 32 11 91 12 33 13
REMARK SMILES IDX 34 14 35 15 85 16 36 17 90 18 84 19 86 20 37 21 89 22 83 23
REMARK SMILES IDX 82 24 38 26 70 27 50 28 69 29 51 30 54 31 68 32 87 33 52 34
REMARK SMILES IDX 53 35 67 37 88 38 55 39 39 40 40 41 48 42 41 43 47 44 49 45
REMARK SMILES IDX 46 46 42 47 43 48 44 49 45 50 71 51 72 52 80 53 73 54 79 55
REMARK SMILES IDX 81 56 78 57 74 58 75 59 76 60 77 61 56 62 57 63 65 64 58 65
REMARK SMILES IDX 64 66 66 67 63 68 59 69 60 70 61 71 62 72 7 73 8 74 9 75
REMARK SMILES IDX 10 76 11 77 12 79 13 80 14 81 19 82 15 83 18 84 16 85 17 86
REMARK SMILES IDX 20 87 21 89 22 90 23 91 24 92 25 93 29 94 26 95 27 96 28 97
REMARK H PARENT 3 7 86 25 54 36 10 78 20 88
REMARK Flexibility Score: inf
ROOT
ATOM      1  C   UNL     1       4.277  -1.882   3.182  1.00  0.00     0.002 C 
ENDROOT
BRANCH   1   2
ATOM      2  C   UNL     1       4.734  -0.622   2.442  1.00  0.00     0.021 C 
BRANCH   2   3
ATOM      3  C   UNL     1       4.511  -0.635   0.932  1.00  0.00     0.116 C 
BRANCH   3   4
ATOM      4  N   UNL     1       3.107  -0.753   0.581  1.00  0.00    -0.352 N 
ATOM      5  O   UNL     1       1.135  -0.128  -0.304  1.00  0.00    -0.269 OA
ATOM      6  C   UNL     1       2.352   0.032  -0.253  1.00  0.00     0.251 C 
ATOM      7  H   UNL     1       2.629  -1.504   1.002  1.00  0.00     0.163 HD
BRANCH   6   8
ATOM      8  C   UNL     1       2.997   1.080  -1.075  1.00  0.00     0.039 A 
ATOM      9  C   UNL     1       4.142   0.804  -1.829  1.00  0.00     0.014 A 
ATOM     10  C   UNL     1       2.418   2.351  -1.118  1.00  0.00     0.014 A 
ATOM     11  C   UNL     1       4.755   1.821  -2.559  1.00  0.00     0.010 A 
ATOM     12  C   UNL     1       3.008   3.358  -1.886  1.00  0.00     0.010 A 
ATOM     13  C   UNL     1       4.187   3.104  -2.603  1.00  0.00    -0.014 A 
BRANCH  13  14
ATOM     14  C   UNL     1       4.795   4.168  -3.441  1.00  0.00     0.031 A 
ATOM     15  C   UNL     1       5.455   5.359  -2.806  1.00  0.00     0.074 A 
ATOM     16  C   UNL     1       4.746   4.056  -4.783  1.00  0.00     0.049 A 
ATOM     17  N   UNL     1       5.922   6.441  -3.372  1.00  0.00    -0.248 NA
ATOM     18  C   UNL     1       5.612   5.328  -1.343  1.00  0.00     0.031 C 
ATOM     19  C   UNL     1       4.166   2.928  -5.516  1.00  0.00     0.029 A 
ATOM     20  N   UNL     1       5.192   4.898  -5.769  1.00  0.00    -0.354 N 
ATOM     21  C   UNL     1       6.419   7.228  -2.341  1.00  0.00     0.074 A 
ATOM     22  C   UNL     1       6.186   6.502  -1.109  1.00  0.00     0.031 C 
ATOM     23  C   UNL     1       4.310   3.140  -6.833  1.00  0.00     0.029 A 
ATOM     24  C   UNL     1       4.932   4.443  -7.040  1.00  0.00     0.049 A 
ATOM     25  H   UNL     1       5.654   5.748  -5.585  1.00  0.00     0.167 HD
ATOM     26  C   UNL     1       7.013   8.444  -2.417  1.00  0.00     0.034 A 
ATOM     27  C   UNL     1       5.138   5.024  -8.237  1.00  0.00     0.034 A 
ATOM     28  C   UNL     1       7.236   9.162  -3.647  1.00  0.00     0.049 A 
ATOM     29  C   UNL     1       5.735   6.404  -8.286  1.00  0.00     0.074 A 
ATOM     30  C   UNL     1       7.799  10.415  -3.825  1.00  0.00     0.029 A 
ATOM     31  N   UNL     1       6.913   8.691  -4.911  1.00  0.00    -0.354 N 
ATOM     32  N   UNL     1       6.125   7.169  -7.294  1.00  0.00    -0.248 NA
ATOM     33  C   UNL     1       5.906   7.002  -9.616  1.00  0.00     0.031 C 
ATOM     34  C   UNL     1       7.781  10.716  -5.192  1.00  0.00     0.029 A 
ATOM     35  C   UNL     1       7.255   9.630  -5.871  1.00  0.00     0.049 A 
ATOM     36  H   UNL     1       6.500   7.816  -5.098  1.00  0.00     0.167 HD
ATOM     37  C   UNL     1       6.590   8.339  -7.882  1.00  0.00     0.074 A 
ATOM     38  C   UNL     1       6.452   8.171  -9.315  1.00  0.00     0.031 C 
ATOM     39  C   UNL     1       7.086   9.455  -7.292  1.00  0.00     0.034 A 
BRANCH  26  40
ATOM     40  C   UNL     1       7.429   9.097  -1.127  1.00  0.00     0.023 A 
ATOM     41  C   UNL     1       8.550   8.651  -0.407  1.00  0.00     0.031 A 
ATOM     42  C   UNL     1       6.710  10.197  -0.628  1.00  0.00     0.131 A 
ATOM     43  C   UNL     1       8.903   9.287   0.792  1.00  0.00     0.055 A 
ATOM     44  C   UNL     1       7.097  10.858   0.539  1.00  0.00     0.041 A 
ATOM     45  F   UNL     1       5.622  10.649  -1.271  1.00  0.00    -0.206 F 
ATOM     46  C   UNL     1       8.198  10.401   1.258  1.00  0.00     0.022 A 
BRANCH  43  47
ATOM     47  S   UNL     1      10.277   8.617   1.769  1.00  0.00     0.124 S 
ATOM     48  O   UNL     1       9.698   7.373   2.272  1.00  0.00    -0.237 OA
ATOM     49  O   UNL     1      11.336   8.470   0.777  1.00  0.00    -0.237 OA
ATOM     50  O   UNL     1      10.511   9.645   2.781  1.00  0.00    -0.744 OA
ENDBRANCH  43  47
ENDBRANCH  26  40
BRANCH  27  51
ATOM     51  C   UNL     1       4.725   4.334  -9.488  1.00  0.00     0.023 A 
ATOM     52  C   UNL     1       5.680   3.879 -10.408  1.00  0.00     0.031 A 
ATOM     53  C   UNL     1       3.365   4.151  -9.794  1.00  0.00     0.131 A 
ATOM     54  C   UNL     1       5.262   3.289 -11.610  1.00  0.00     0.055 A 
ATOM     55  C   UNL     1       2.955   3.527 -10.972  1.00  0.00     0.041 A 
ATOM     56  F   UNL     1       2.415   4.566  -8.941  1.00  0.00    -0.206 F 
ATOM     57  C   UNL     1       3.907   3.101 -11.893  1.00  0.00     0.022 A 
BRANCH  54  58
ATOM     58  S   UNL     1       6.520   2.814 -12.826  1.00  0.00     0.124 S 
ATOM     59  O   UNL     1       7.128   4.101 -13.143  1.00  0.00    -0.237 OA
ATOM     60  O   UNL     1       7.346   1.885 -12.062  1.00  0.00    -0.237 OA
ATOM     61  O   UNL     1       5.740   2.208 -13.903  1.00  0.00    -0.744 OA
ENDBRANCH  54  58
ENDBRANCH  27  51
BRANCH  39  62
ATOM     62  C   UNL     1       7.529  10.563  -8.207  1.00  0.00     0.023 A 
ATOM     63  C   UNL     1       6.598  11.346  -8.909  1.00  0.00     0.031 A 
ATOM     64  C   UNL     1       8.897  10.824  -8.392  1.00  0.00     0.131 A 
ATOM     65  C   UNL     1       7.049  12.327  -9.804  1.00  0.00     0.055 A 
ATOM     66  C   UNL     1       9.339  11.831  -9.250  1.00  0.00     0.041 A 
ATOM     67  F   UNL     1       9.823  10.101  -7.743  1.00  0.00    -0.206 F 
ATOM     68  C   UNL     1       8.413  12.583  -9.969  1.00  0.00     0.022 A 
BRANCH  65  69
ATOM     69  S   UNL     1       5.828  13.227 -10.798  1.00  0.00     0.124 S 
ATOM     70  O   UNL     1       5.233  12.155 -11.590  1.00  0.00    -0.237 OA
ATOM     71  O   UNL     1       4.968  13.819  -9.779  1.00  0.00    -0.237 OA
ATOM     72  O   UNL     1       6.637  14.181 -11.554  1.00  0.00    -0.744 OA
ENDBRANCH  65  69
ENDBRANCH  39  62
ENDBRANCH  13  14
ENDBRANCH   6   8
ENDBRANCH   3   4
ENDBRANCH   2   3
ENDBRANCH   1   2
BRANCH   1  73
ATOM     73  C   UNL     1       4.844  -3.200   2.649  1.00  0.00     0.002 C 
BRANCH  73  74
ATOM     74  C   UNL     1       6.374  -3.274   2.552  1.00  0.00     0.021 C 
BRANCH  74  75
ATOM     75  C   UNL     1       7.123  -3.010   3.860  1.00  0.00     0.116 C 
BRANCH  75  76
ATOM     76  N   UNL     1       6.794  -4.011   4.858  1.00  0.00    -0.352 N 
ATOM     77  C   UNL     1       7.632  -4.788   5.607  1.00  0.00     0.253 C 
ATOM     78  H   UNL     1       5.832  -4.151   5.017  1.00  0.00     0.163 HD
ATOM     79  O   UNL     1       7.208  -5.820   6.124  1.00  0.00    -0.269 OA
BRANCH  77  80
ATOM     80  C   UNL     1       9.049  -4.420   5.815  1.00  0.00     0.066 A 
ATOM     81  C   UNL     1       9.368  -3.103   6.172  1.00  0.00     0.055 A 
ATOM     82  C   UNL     1      10.038  -5.431   5.800  1.00  0.00     0.062 A 
ATOM     83  C   UNL     1      10.680  -2.783   6.484  1.00  0.00     0.124 A 
ATOM     84  C   UNL     1      11.346  -5.073   6.151  1.00  0.00     0.030 A 
ATOM     85  F   UNL     1      10.997  -1.522   6.802  1.00  0.00    -0.207 F 
ATOM     86  C   UNL     1      11.667  -3.756   6.489  1.00  0.00     0.041 A 
BRANCH  82  87
ATOM     87  N   UNL     1       9.710  -6.705   5.197  1.00  0.00    -0.278 N 
ATOM     88  H   UNL     1       8.915  -6.758   4.618  1.00  0.00     0.180 HD
BRANCH  87  89
ATOM     89  S   UNL     1      10.620  -8.099   5.435  1.00  0.00     0.271 S 
ATOM     90  O   UNL     1      10.868  -8.242   6.851  1.00  0.00    -0.200 OA
ATOM     91  O   UNL     1       9.994  -9.146   4.655  1.00  0.00    -0.200 OA
BRANCH  89  92
ATOM     92  C   UNL     1      12.209  -7.863   4.665  1.00  0.00     0.141 A 
ATOM     93  C   UNL     1      12.652  -7.003   3.672  1.00  0.00     0.036 A 
ATOM     94  S   UNL     1      13.491  -8.823   5.278  1.00  0.00    -0.110 S 
ATOM     95  C   UNL     1      14.069  -7.052   3.511  1.00  0.00     0.034 A 
ATOM     96  C   UNL     1      14.624  -7.994   4.338  1.00  0.00     0.094 A 
ATOM     97  Cl  UNL     1      16.293  -8.365   4.496  1.00  0.00    -0.072 Cl
ENDBRANCH  89  92
ENDBRANCH  87  89
ENDBRANCH  82  87
ENDBRANCH  77  80
ENDBRANCH  75  76
ENDBRANCH  74  75
ENDBRANCH  73  74
ENDBRANCH   1  73
TORSDOF 19
