REMARK SMILES [NH3+][C@@]1(C(=O)NCCCCCCNC(=O)c2ccc(-c3c4nc(c(-c5cc(S(=O)(=O)[O-])ccc5F)c5ccc([nH]5)c(-c5cc(S(=O)(=O)[O-])ccc5F)c5nc(c(-c6cc(S(=O)(=O)[O-])ccc6F)c6ccc3[nH]6)C=C5)C=C4)cc2)CC[N@@H+](Cc2ccc(OCC(=O)N3CCCCC3)cc2)C1
REMARK SMILES IDX 7 1 6 2 5 3 3 4 4 5 2 7 78 8 98 9 79 10 80 11 1 13 81 17
REMARK SMILES IDX 82 18 83 19 97 20 84 21 96 22 85 23 86 24 87 25 88 26 89 27
REMARK SMILES IDX 90 28 91 29 95 30 92 31 94 32 93 33 8 34 9 35 10 36 11 37
REMARK SMILES IDX 12 38 13 39 14 41 15 42 16 43 77 44 17 45 76 46 18 47 19 48
REMARK SMILES IDX 20 49 70 50 21 51 75 52 69 53 71 54 22 55 74 56 68 57 67 58
REMARK SMILES IDX 23 60 55 61 35 62 54 63 36 64 39 65 53 66 72 67 37 68 38 69
REMARK SMILES IDX 52 71 73 72 40 73 24 74 25 75 33 76 26 77 32 78 34 79 31 80
REMARK SMILES IDX 27 81 28 82 29 83 30 84 56 85 57 86 65 87 58 88 64 89 66 90
REMARK SMILES IDX 63 91 59 92 60 93 61 94 62 95 41 96 42 97 50 98 43 99 49 100
REMARK SMILES IDX 51 101 48 102 44 103 45 104 46 105 47 106
REMARK H PARENT 5 6 80 12 1 14 1 15 1 16 12 40 71 59 39 70
REMARK Flexibility Score: inf
ROOT
ATOM      1  C   UNL     1      -1.017   0.833  -5.409  1.00  0.00     0.021 C 
ENDROOT
BRANCH   1   2
ATOM      2  C   UNL     1      -1.489  -0.267  -4.439  1.00  0.00     0.116 C 
BRANCH   2   3
ATOM      3  N   UNL     1      -0.477  -0.931  -3.610  1.00  0.00    -0.350 N 
ATOM      4  C   UNL     1      -0.025  -0.861  -2.325  1.00  0.00     0.287 C 
ATOM      5  O   UNL     1       0.769  -1.774  -2.025  1.00  0.00    -0.268 OA
ATOM      6  H   UNL     1       0.010  -1.615  -4.123  1.00  0.00     0.163 HD
BRANCH   4   7
ATOM      7  C   UNL     1      -0.312   0.245  -1.217  1.00  0.00     0.228 C 
ATOM      8  C   UNL     1      -1.624   1.021  -1.311  1.00  0.00     0.146 C 
ATOM      9  C   UNL     1       0.722   1.392  -1.260  1.00  0.00     0.342 C 
ATOM     10  C   UNL     1      -1.267   2.341  -2.043  1.00  0.00     0.270 C 
ATOM     11  N   UNL     1       0.148   2.203  -2.316  1.00  0.00    -0.325 N 
ATOM     12  H   UNL     1       0.190   1.752  -3.230  1.00  0.00     0.348 HD
BRANCH   7  13
ATOM     13  N   UNL     1      -0.190  -0.453   0.104  1.00  0.00    -0.340 N 
ATOM     14  H   UNL     1      -0.866  -1.214   0.150  1.00  0.00     0.345 HD
ATOM     15  H   UNL     1      -0.372   0.211   0.857  1.00  0.00     0.345 HD
ATOM     16  H   UNL     1       0.753  -0.829   0.204  1.00  0.00     0.345 HD
ENDBRANCH   7  13
BRANCH  11  17
ATOM     17  C   UNL     1       0.967   3.211  -2.988  1.00  0.00     0.299 C 
BRANCH  17  18
ATOM     18  C   UNL     1       2.078   2.557  -3.826  1.00  0.00     0.006 A 
ATOM     19  C   UNL     1       3.137   3.196  -4.465  1.00  0.00     0.013 A 
ATOM     20  C   UNL     1       2.016   1.184  -4.030  1.00  0.00     0.013 A 
ATOM     21  C   UNL     1       4.073   2.441  -5.231  1.00  0.00     0.047 A 
ATOM     22  C   UNL     1       2.913   0.432  -4.748  1.00  0.00     0.047 A 
ATOM     23  C   UNL     1       3.956   1.049  -5.377  1.00  0.00     0.120 A 
BRANCH  23  24
ATOM     24  O   UNL     1       4.890   0.343  -6.081  1.00  0.00    -0.484 OA
BRANCH  24  25
ATOM     25  C   UNL     1       4.481  -0.927  -6.584  1.00  0.00     0.329 C 
BRANCH  25  26
ATOM     26  C   UNL     1       4.107  -2.237  -5.794  1.00  0.00     0.260 C 
ATOM     27  O   UNL     1       3.298  -3.015  -6.318  1.00  0.00    -0.271 OA
ATOM     28  N   UNL     1       4.677  -2.537  -4.565  1.00  0.00    -0.340 N 
ATOM     29  C   UNL     1       4.353  -3.808  -3.902  1.00  0.00     0.119 C 
ATOM     30  C   UNL     1       5.573  -1.678  -3.802  1.00  0.00     0.119 C 
ATOM     31  C   UNL     1       3.809  -3.600  -2.487  1.00  0.00     0.022 C 
ATOM     32  C   UNL     1       4.961  -1.359  -2.438  1.00  0.00     0.022 C 
ATOM     33  C   UNL     1       4.669  -2.642  -1.664  1.00  0.00     0.004 C 
ENDBRANCH  25  26
ENDBRANCH  24  25
ENDBRANCH  23  24
ENDBRANCH  17  18
ENDBRANCH  11  17
ENDBRANCH   4   7
ENDBRANCH   2   3
ENDBRANCH   1   2
BRANCH   1  34
ATOM     34  C   UNL     1       0.040   0.447  -6.456  1.00  0.00     0.002 C 
BRANCH  34  35
ATOM     35  C   UNL     1      -0.443  -0.193  -7.755  1.00  0.00     0.002 C 
BRANCH  35  36
ATOM     36  C   UNL     1      -1.366   0.658  -8.623  1.00  0.00     0.021 C 
BRANCH  36  37
ATOM     37  C   UNL     1      -0.789   1.993  -9.089  1.00  0.00     0.116 C 
BRANCH  37  38
ATOM     38  N   UNL     1       0.293   1.843 -10.055  1.00  0.00    -0.352 N 
ATOM     39  C   UNL     1       0.365   2.344 -11.342  1.00  0.00     0.251 C 
ATOM     40  H   UNL     1       1.069   1.319  -9.753  1.00  0.00     0.163 HD
ATOM     41  O   UNL     1       1.266   2.036 -12.095  1.00  0.00    -0.269 OA
BRANCH  39  42
ATOM     42  C   UNL     1      -0.715   3.256 -11.777  1.00  0.00     0.039 A 
ATOM     43  C   UNL     1      -1.546   2.881 -12.834  1.00  0.00     0.014 A 
ATOM     44  C   UNL     1      -0.971   4.411 -11.035  1.00  0.00     0.014 A 
ATOM     45  C   UNL     1      -2.693   3.632 -13.097  1.00  0.00     0.010 A 
ATOM     46  C   UNL     1      -2.154   5.108 -11.249  1.00  0.00     0.010 A 
ATOM     47  C   UNL     1      -3.030   4.725 -12.279  1.00  0.00    -0.014 A 
BRANCH  47  48
ATOM     48  C   UNL     1      -4.287   5.490 -12.490  1.00  0.00     0.031 A 
ATOM     49  C   UNL     1      -4.213   6.947 -12.860  1.00  0.00     0.074 A 
ATOM     50  C   UNL     1      -5.481   4.899 -12.282  1.00  0.00     0.049 A 
ATOM     51  N   UNL     1      -5.180   7.813 -13.017  1.00  0.00    -0.248 NA
ATOM     52  C   UNL     1      -2.866   7.513 -13.036  1.00  0.00     0.031 C 
ATOM     53  C   UNL     1      -5.676   3.508 -11.865  1.00  0.00     0.029 A 
ATOM     54  N   UNL     1      -6.759   5.391 -12.384  1.00  0.00    -0.354 N 
ATOM     55  C   UNL     1      -4.559   9.027 -13.291  1.00  0.00     0.074 A 
ATOM     56  C   UNL     1      -3.133   8.798 -13.204  1.00  0.00     0.031 C 
ATOM     57  C   UNL     1      -6.992   3.253 -11.777  1.00  0.00     0.029 A 
ATOM     58  C   UNL     1      -7.737   4.469 -12.088  1.00  0.00     0.049 A 
ATOM     59  H   UNL     1      -6.957   6.320 -12.646  1.00  0.00     0.167 HD
ATOM     60  C   UNL     1      -5.125  10.216 -13.614  1.00  0.00     0.034 A 
ATOM     61  C   UNL     1      -9.080   4.592 -12.065  1.00  0.00     0.034 A 
ATOM     62  C   UNL     1      -6.549  10.415 -13.719  1.00  0.00     0.049 A 
ATOM     63  C   UNL     1      -9.688   5.925 -12.430  1.00  0.00     0.074 A 
ATOM     64  C   UNL     1      -7.233  11.554 -14.106  1.00  0.00     0.029 A 
ATOM     65  N   UNL     1      -7.509   9.453 -13.430  1.00  0.00    -0.354 N 
ATOM     66  N   UNL     1      -9.086   7.047 -12.755  1.00  0.00    -0.248 NA
ATOM     67  C   UNL     1     -11.154   6.005 -12.440  1.00  0.00     0.031 C 
ATOM     68  C   UNL     1      -8.604  11.302 -13.983  1.00  0.00     0.029 A 
ATOM     69  C   UNL     1      -8.778   9.982 -13.599  1.00  0.00     0.049 A 
ATOM     70  H   UNL     1      -7.315   8.530 -13.147  1.00  0.00     0.167 HD
ATOM     71  C   UNL     1     -10.103   7.955 -13.038  1.00  0.00     0.074 A 
ATOM     72  C   UNL     1     -11.353   7.245 -12.862  1.00  0.00     0.031 C 
ATOM     73  C   UNL     1     -10.014   9.258 -13.411  1.00  0.00     0.034 A 
BRANCH  60  74
ATOM     74  C   UNL     1      -4.198  11.384 -13.855  1.00  0.00     0.023 A 
ATOM     75  C   UNL     1      -3.245  11.373 -14.889  1.00  0.00     0.031 A 
ATOM     76  C   UNL     1      -4.242  12.512 -13.017  1.00  0.00     0.131 A 
ATOM     77  C   UNL     1      -2.323  12.423 -15.006  1.00  0.00     0.055 A 
ATOM     78  C   UNL     1      -3.378  13.595 -13.193  1.00  0.00     0.041 A 
ATOM     79  F   UNL     1      -5.114  12.574 -11.998  1.00  0.00    -0.206 F 
ATOM     80  C   UNL     1      -2.399  13.547 -14.182  1.00  0.00     0.022 A 
BRANCH  77  81
ATOM     81  S   UNL     1      -0.928  12.226 -16.148  1.00  0.00     0.124 S 
ATOM     82  O   UNL     1      -0.281  11.027 -15.619  1.00  0.00    -0.237 OA
ATOM     83  O   UNL     1      -1.594  12.076 -17.437  1.00  0.00    -0.237 OA
ATOM     84  O   UNL     1      -0.168  13.462 -15.977  1.00  0.00    -0.744 OA
ENDBRANCH  77  81
ENDBRANCH  60  74
BRANCH  61  85
ATOM     85  C   UNL     1      -9.946   3.437 -11.684  1.00  0.00     0.023 A 
ATOM     86  C   UNL     1     -10.851   2.874 -12.600  1.00  0.00     0.031 A 
ATOM     87  C   UNL     1      -9.919   2.909 -10.381  1.00  0.00     0.131 A 
ATOM     88  C   UNL     1     -11.725   1.855 -12.187  1.00  0.00     0.055 A 
ATOM     89  C   UNL     1     -10.751   1.858  -9.991  1.00  0.00     0.041 A 
ATOM     90  F   UNL     1      -9.072   3.405  -9.465  1.00  0.00    -0.206 F 
ATOM     91  C   UNL     1     -11.672   1.334 -10.893  1.00  0.00     0.022 A 
BRANCH  88  92
ATOM     92  S   UNL     1     -13.000   1.281 -13.344  1.00  0.00     0.124 S 
ATOM     93  O   UNL     1     -13.710   2.520 -13.641  1.00  0.00    -0.237 OA
ATOM     94  O   UNL     1     -12.197   0.725 -14.427  1.00  0.00    -0.237 OA
ATOM     95  O   UNL     1     -13.752   0.302 -12.562  1.00  0.00    -0.744 OA
ENDBRANCH  88  92
ENDBRANCH  61  85
BRANCH  73  96
ATOM     96  C   UNL     1     -11.308   9.980 -13.696  1.00  0.00     0.023 A 
ATOM     97  C   UNL     1     -12.244  10.249 -12.683  1.00  0.00     0.031 A 
ATOM     98  C   UNL     1     -11.608  10.402 -15.004  1.00  0.00     0.131 A 
ATOM     99  C   UNL     1     -13.460  10.871 -13.004  1.00  0.00     0.055 A 
ATOM    100  C   UNL     1     -12.790  11.078 -15.305  1.00  0.00     0.041 A 
ATOM    101  F   UNL     1     -10.750  10.169 -16.011  1.00  0.00    -0.206 F 
ATOM    102  C   UNL     1     -13.731  11.304 -14.305  1.00  0.00     0.022 A 
BRANCH  99 103
ATOM    103  S   UNL     1     -14.726  11.024 -11.714  1.00  0.00     0.124 S 
ATOM    104  O   UNL     1     -14.938   9.631 -11.331  1.00  0.00    -0.237 OA
ATOM    105  O   UNL     1     -14.062  11.863 -10.722  1.00  0.00    -0.237 OA
ATOM    106  O   UNL     1     -15.848  11.654 -12.407  1.00  0.00    -0.744 OA
ENDBRANCH  99 103
ENDBRANCH  73  96
ENDBRANCH  47  48
ENDBRANCH  39  42
ENDBRANCH  37  38
ENDBRANCH  36  37
ENDBRANCH  35  36
ENDBRANCH  34  35
ENDBRANCH   1  34
TORSDOF 22
