REMARK SMILES C[C@@H]1[C@@H](C(=O)NCCCCCCNC(=O)c2ccc(-c3c4nc(c(-c5cc(S(=O)(=O)[O-])ccc5F)c5ccc([nH]5)c(-c5cc(S(=O)(=O)[O-])ccc5F)c5nc(c(-c6cc(S(=O)(=O)[O-])ccc6F)c6ccc3[nH]6)C=C5)C=C4)cc2)CCN1C(=O)CN1C(=O)CNC1=O
REMARK SMILES IDX 9 1 8 2 7 3 6 4 4 5 5 6 3 8 1 9 2 10 81 11 79 12 80 13 82 14
REMARK SMILES IDX 83 15 84 16 85 17 86 18 90 19 87 20 88 21 89 22 91 23 10 25
REMARK SMILES IDX 11 26 12 27 13 28 14 29 15 31 16 32 17 33 78 34 18 35 77 36
REMARK SMILES IDX 19 37 20 38 21 39 71 40 22 41 76 42 70 43 72 44 23 45 75 46
REMARK SMILES IDX 69 47 68 48 24 50 56 51 36 52 55 53 37 54 40 55 54 56 73 57
REMARK SMILES IDX 38 58 39 59 53 61 74 62 41 63 25 64 26 65 34 66 27 67 33 68
REMARK SMILES IDX 35 69 32 70 28 71 29 72 30 73 31 74 57 75 58 76 66 77 59 78
REMARK SMILES IDX 65 79 67 80 64 81 60 82 61 83 62 84 63 85 42 86 43 87 51 88
REMARK SMILES IDX 44 89 50 90 52 91 49 92 45 93 46 94 47 95 48 96
REMARK H PARENT 6 7 89 24 13 30 72 49 40 60
REMARK Flexibility Score: inf
ROOT
ATOM      1  C   UNL     1      -3.778   4.238  -2.618  1.00  0.00     0.002 C 
ENDROOT
BRANCH   1   2
ATOM      2  C   UNL     1      -2.912   4.270  -1.353  1.00  0.00     0.021 C 
BRANCH   2   3
ATOM      3  C   UNL     1      -2.464   2.907  -0.832  1.00  0.00     0.116 C 
BRANCH   3   4
ATOM      4  N   UNL     1      -1.517   2.278  -1.725  1.00  0.00    -0.356 N 
ATOM      5  C   UNL     1      -0.382   1.588  -1.446  1.00  0.00     0.225 C 
ATOM      6  O   UNL     1       0.451   1.512  -2.356  1.00  0.00    -0.275 OA
ATOM      7  H   UNL     1      -1.728   2.362  -2.683  1.00  0.00     0.163 HD
BRANCH   5   8
ATOM      8  C   UNL     1      -0.061   1.091  -0.033  1.00  0.00     0.102 C 
ATOM      9  C   UNL     1       1.940  -0.070   1.016  1.00  0.00     0.032 C 
ATOM     10  C   UNL     1       0.914  -0.112  -0.118  1.00  0.00     0.094 C 
ATOM     11  N   UNL     1       0.048  -1.300  -0.012  1.00  0.00    -0.338 N 
ATOM     12  C   UNL     1      -1.190   0.515   0.830  1.00  0.00     0.037 C 
ATOM     13  C   UNL     1      -1.284  -0.941   0.422  1.00  0.00     0.121 C 
BRANCH  11  14
ATOM     14  C   UNL     1       0.252  -2.570  -0.533  1.00  0.00     0.243 C 
ATOM     15  O   UNL     1      -0.614  -3.447  -0.478  1.00  0.00    -0.273 OA
BRANCH  14  16
ATOM     16  C   UNL     1       1.563  -2.828  -1.261  1.00  0.00     0.230 C 
BRANCH  16  17
ATOM     17  N   UNL     1       1.537  -2.607  -2.694  1.00  0.00    -0.253 N 
ATOM     18  C   UNL     1       2.531  -3.058  -3.517  1.00  0.00     0.250 C 
ATOM     19  C   UNL     1       0.752  -1.714  -3.359  1.00  0.00     0.325 C 
ATOM     20  O   UNL     1       3.416  -3.852  -3.225  1.00  0.00    -0.272 OA
ATOM     21  C   UNL     1       2.402  -2.369  -4.865  1.00  0.00     0.218 C 
ATOM     22  N   UNL     1       1.264  -1.539  -4.625  1.00  0.00    -0.329 N 
ATOM     23  O   UNL     1      -0.253  -1.151  -2.969  1.00  0.00    -0.248 OA
ATOM     24  H   UNL     1       0.889  -0.916  -5.288  1.00  0.00     0.165 HD
ENDBRANCH  16  17
ENDBRANCH  14  16
ENDBRANCH  11  14
ENDBRANCH   5   8
ENDBRANCH   3   4
ENDBRANCH   2   3
ENDBRANCH   1   2
BRANCH   1  25
ATOM     25  C   UNL     1      -5.067   3.417  -2.530  1.00  0.00     0.002 C 
BRANCH  25  26
ATOM     26  C   UNL     1      -5.977   3.721  -1.338  1.00  0.00     0.021 C 
BRANCH  26  27
ATOM     27  C   UNL     1      -6.354   5.188  -1.149  1.00  0.00     0.116 C 
BRANCH  27  28
ATOM     28  N   UNL     1      -7.061   5.740  -2.288  1.00  0.00    -0.352 N 
ATOM     29  C   UNL     1      -8.214   6.484  -2.327  1.00  0.00     0.251 C 
ATOM     30  H   UNL     1      -6.653   5.553  -3.165  1.00  0.00     0.163 HD
ATOM     31  O   UNL     1      -8.729   6.735  -3.414  1.00  0.00    -0.269 OA
BRANCH  29  32
ATOM     32  C   UNL     1      -8.855   6.953  -1.076  1.00  0.00     0.039 A 
ATOM     33  C   UNL     1     -10.248   6.883  -0.974  1.00  0.00     0.014 A 
ATOM     34  C   UNL     1      -8.108   7.482  -0.019  1.00  0.00     0.014 A 
ATOM     35  C   UNL     1     -10.883   7.295   0.200  1.00  0.00     0.010 A 
ATOM     36  C   UNL     1      -8.737   7.825   1.179  1.00  0.00     0.010 A 
ATOM     37  C   UNL     1     -10.133   7.743   1.299  1.00  0.00    -0.014 A 
BRANCH  37  38
ATOM     38  C   UNL     1     -10.803   8.143   2.567  1.00  0.00     0.031 A 
ATOM     39  C   UNL     1     -10.734   9.569   3.045  1.00  0.00     0.074 A 
ATOM     40  C   UNL     1     -11.448   7.215   3.301  1.00  0.00     0.049 A 
ATOM     41  N   UNL     1     -11.232  10.103   4.132  1.00  0.00    -0.248 NA
ATOM     42  C   UNL     1      -9.984  10.512   2.204  1.00  0.00     0.031 C 
ATOM     43  C   UNL     1     -11.552   5.794   2.963  1.00  0.00     0.029 A 
ATOM     44  N   UNL     1     -12.139   7.324   4.483  1.00  0.00    -0.354 N 
ATOM     45  C   UNL     1     -10.852  11.441   4.108  1.00  0.00     0.074 A 
ATOM     46  C   UNL     1     -10.025  11.618   2.933  1.00  0.00     0.031 C 
ATOM     47  C   UNL     1     -12.290   5.172   3.896  1.00  0.00     0.029 A 
ATOM     48  C   UNL     1     -12.675   6.135   4.923  1.00  0.00     0.049 A 
ATOM     49  H   UNL     1     -12.241   8.173   4.970  1.00  0.00     0.167 HD
ATOM     50  C   UNL     1     -11.182  12.435   4.970  1.00  0.00     0.034 A 
ATOM     51  C   UNL     1     -13.391   5.851   6.030  1.00  0.00     0.034 A 
ATOM     52  C   UNL     1     -12.016  12.245   6.133  1.00  0.00     0.049 A 
ATOM     53  C   UNL     1     -13.721   6.968   6.989  1.00  0.00     0.074 A 
ATOM     54  C   UNL     1     -12.456  13.191   7.043  1.00  0.00     0.029 A 
ATOM     55  N   UNL     1     -12.530  11.025   6.554  1.00  0.00    -0.354 N 
ATOM     56  N   UNL     1     -13.399   8.239   6.921  1.00  0.00    -0.248 NA
ATOM     57  C   UNL     1     -14.521   6.612   8.168  1.00  0.00     0.031 C 
ATOM     58  C   UNL     1     -13.173  12.535   8.049  1.00  0.00     0.029 A 
ATOM     59  C   UNL     1     -13.251  11.189   7.727  1.00  0.00     0.049 A 
ATOM     60  H   UNL     1     -12.401  10.168   6.087  1.00  0.00     0.167 HD
ATOM     61  C   UNL     1     -13.984   8.838   8.034  1.00  0.00     0.074 A 
ATOM     62  C   UNL     1     -14.694   7.793   8.742  1.00  0.00     0.031 C 
ATOM     63  C   UNL     1     -13.941  10.135   8.434  1.00  0.00     0.034 A 
BRANCH  50  64
ATOM     64  C   UNL     1     -10.618  13.810   4.695  1.00  0.00     0.023 A 
ATOM     65  C   UNL     1     -10.936  14.519   3.523  1.00  0.00     0.031 A 
ATOM     66  C   UNL     1      -9.732  14.414   5.606  1.00  0.00     0.131 A 
ATOM     67  C   UNL     1     -10.314  15.748   3.255  1.00  0.00     0.055 A 
ATOM     68  C   UNL     1      -9.182  15.676   5.373  1.00  0.00     0.041 A 
ATOM     69  F   UNL     1      -9.374  13.780   6.733  1.00  0.00    -0.206 F 
ATOM     70  C   UNL     1      -9.460  16.344   4.184  1.00  0.00     0.022 A 
BRANCH  67  71
ATOM     71  S   UNL     1     -10.523  16.484   1.610  1.00  0.00     0.124 S 
ATOM     72  O   UNL     1      -9.999  15.427   0.747  1.00  0.00    -0.237 OA
ATOM     73  O   UNL     1     -11.962  16.708   1.545  1.00  0.00    -0.237 OA
ATOM     74  O   UNL     1      -9.704  17.693   1.669  1.00  0.00    -0.744 OA
ENDBRANCH  67  71
ENDBRANCH  50  64
BRANCH  51  75
ATOM     75  C   UNL     1     -13.840   4.456   6.304  1.00  0.00     0.023 A 
ATOM     76  C   UNL     1     -15.205   4.130   6.353  1.00  0.00     0.031 A 
ATOM     77  C   UNL     1     -12.910   3.435   6.572  1.00  0.00     0.131 A 
ATOM     78  C   UNL     1     -15.604   2.833   6.710  1.00  0.00     0.055 A 
ATOM     79  C   UNL     1     -13.311   2.131   6.872  1.00  0.00     0.041 A 
ATOM     80  F   UNL     1     -11.593   3.690   6.536  1.00  0.00    -0.206 F 
ATOM     81  C   UNL     1     -14.666   1.828   6.956  1.00  0.00     0.022 A 
BRANCH  78  82
ATOM     82  S   UNL     1     -17.372   2.500   6.941  1.00  0.00     0.124 S 
ATOM     83  O   UNL     1     -17.726   3.475   7.966  1.00  0.00    -0.237 OA
ATOM     84  O   UNL     1     -17.903   2.751   5.605  1.00  0.00    -0.237 OA
ATOM     85  O   UNL     1     -17.402   1.103   7.369  1.00  0.00    -0.744 OA
ENDBRANCH  78  82
ENDBRANCH  51  75
BRANCH  63  86
ATOM     86  C   UNL     1     -14.718  10.493   9.678  1.00  0.00     0.023 A 
ATOM     87  C   UNL     1     -14.361   9.992  10.943  1.00  0.00     0.031 A 
ATOM     88  C   UNL     1     -15.842  11.333   9.594  1.00  0.00     0.131 A 
ATOM     89  C   UNL     1     -15.156  10.285  12.061  1.00  0.00     0.055 A 
ATOM     90  C   UNL     1     -16.592  11.673  10.721  1.00  0.00     0.041 A 
ATOM     91  F   UNL     1     -16.232  11.839   8.413  1.00  0.00    -0.206 F 
ATOM     92  C   UNL     1     -16.260  11.136  11.961  1.00  0.00     0.022 A 
BRANCH  89  93
ATOM     93  S   UNL     1     -14.788   9.456  13.632  1.00  0.00     0.124 S 
ATOM     94  O   UNL     1     -14.897   8.048  13.264  1.00  0.00    -0.237 OA
ATOM     95  O   UNL     1     -13.443   9.935  13.930  1.00  0.00    -0.237 OA
ATOM     96  O   UNL     1     -15.832   9.945  14.531  1.00  0.00    -0.744 OA
ENDBRANCH  89  93
ENDBRANCH  63  86
ENDBRANCH  37  38
ENDBRANCH  29  32
ENDBRANCH  27  28
ENDBRANCH  26  27
ENDBRANCH  25  26
ENDBRANCH   1  25
TORSDOF 19
