REMARK SMILES O=C(COc1ccc(Br)cc1/C=C1\C(=O)Nc2ccc(Br)cc21)NCCCCCCNC(=O)c1ccc(-c2c3nc(c(-c4cc(S(=O)(=O)[O-])ccc4F)c4ccc([nH]4)c(-c4cc(S(=O)(=O)[O-])ccc4F)c4nc(c(-c5cc(S(=O)(=O)[O-])ccc5F)c5ccc2[nH]5)C=C4)C=C3)cc1
REMARK SMILES IDX 27 1 26 2 25 3 24 4 1 5 2 6 3 8 4 9 5 10 6 11 11 12 7 13
REMARK SMILES IDX 10 14 8 15 9 16 12 17 13 18 14 19 23 20 15 21 16 22 17 23
REMARK SMILES IDX 22 24 18 26 20 27 19 28 21 29 28 30 29 31 30 32 31 33 32 34
REMARK SMILES IDX 33 36 34 37 35 38 96 39 36 40 95 41 37 42 38 43 39 44 89 45
REMARK SMILES IDX 40 46 94 47 88 48 90 49 41 50 93 51 87 52 86 53 42 55 74 56
REMARK SMILES IDX 54 57 73 58 55 59 58 60 72 61 91 62 56 63 57 64 71 66 92 67
REMARK SMILES IDX 59 68 43 69 44 70 52 71 45 72 51 73 53 74 50 75 46 76 47 77
REMARK SMILES IDX 48 78 49 79 75 80 76 81 84 82 77 83 83 84 85 85 82 86 78 87
REMARK SMILES IDX 79 88 80 89 81 90 60 91 61 92 69 93 62 94 68 95 70 96 67 97
REMARK SMILES IDX 63 98 64 99 65 100 66 101
REMARK H PARENT 24 7 16 25 31 35 90 54 58 65
REMARK Flexibility Score: inf
ROOT
ATOM      1  C   UNL     1       4.333   3.064  -1.934  1.00  0.00     0.002 C 
ENDROOT
BRANCH   1   2
ATOM      2  C   UNL     1       2.873   2.828  -1.535  1.00  0.00     0.021 C 
BRANCH   2   3
ATOM      3  C   UNL     1       2.416   1.372  -1.578  1.00  0.00     0.116 C 
BRANCH   3   4
ATOM      4  N   UNL     1       3.217   0.466  -0.762  1.00  0.00    -0.353 N 
ATOM      5  O   UNL     1       1.532  -0.118   0.686  1.00  0.00    -0.271 OA
ATOM      6  C   UNL     1       2.655  -0.321   0.228  1.00  0.00     0.257 C 
ATOM      7  H   UNL     1       4.187   0.413  -0.920  1.00  0.00     0.163 HD
BRANCH   6   8
ATOM      8  C   UNL     1       3.524  -1.519   0.705  1.00  0.00     0.329 C 
BRANCH   8   9
ATOM      9  O   UNL     1       4.195  -2.407  -0.204  1.00  0.00    -0.483 OA
BRANCH   9  10
ATOM     10  C   UNL     1       3.361  -3.194  -0.974  1.00  0.00     0.127 A 
ATOM     11  C   UNL     1       2.388  -2.554  -1.771  1.00  0.00     0.048 A 
ATOM     12  C   UNL     1       3.523  -4.603  -1.055  1.00  0.00     0.018 A 
ATOM     13  C   UNL     1       1.475  -3.256  -2.546  1.00  0.00     0.019 A 
ATOM     14  C   UNL     1       2.590  -5.266  -1.879  1.00  0.00     0.027 A 
ATOM     15  C   UNL     1       1.569  -4.622  -2.580  1.00  0.00     0.018 A 
ATOM     16  Br  UNL     1       0.337  -5.633  -3.594  1.00  0.00    -0.051 Br
BRANCH  12  17
ATOM     17  C   UNL     1       4.577  -5.387  -0.302  1.00  0.00     0.026 C 
ATOM     18  C   UNL     1       4.692  -6.729  -0.105  1.00  0.00     0.050 C 
ATOM     19  C   UNL     1       3.705  -7.784  -0.533  1.00  0.00     0.256 C 
ATOM     20  C   UNL     1       5.378  -7.370   1.039  1.00  0.00     0.012 A 
ATOM     21  O   UNL     1       3.418  -8.157  -1.651  1.00  0.00    -0.269 OA
ATOM     22  N   UNL     1       3.382  -8.435   0.643  1.00  0.00    -0.321 N 
ATOM     23  C   UNL     1       4.410  -8.250   1.563  1.00  0.00     0.049 A 
ATOM     24  C   UNL     1       6.680  -7.471   1.491  1.00  0.00     0.026 A 
ATOM     25  H   UNL     1       2.557  -8.947   0.804  1.00  0.00     0.170 HD
ATOM     26  C   UNL     1       4.603  -9.040   2.674  1.00  0.00     0.028 A 
ATOM     27  C   UNL     1       6.931  -8.371   2.545  1.00  0.00     0.018 A 
ATOM     28  C   UNL     1       5.896  -9.092   3.178  1.00  0.00     0.018 A 
ATOM     29  Br  UNL     1       8.717  -8.750   3.055  1.00  0.00    -0.051 Br
ENDBRANCH  12  17
ENDBRANCH   9  10
ENDBRANCH   8   9
ENDBRANCH   6   8
ENDBRANCH   3   4
ENDBRANCH   2   3
ENDBRANCH   1   2
BRANCH   1  30
ATOM     30  C   UNL     1       4.721   2.622  -3.349  1.00  0.00     0.002 C 
BRANCH  30  31
ATOM     31  C   UNL     1       3.982   3.321  -4.491  1.00  0.00     0.021 C 
BRANCH  31  32
ATOM     32  C   UNL     1       4.100   4.841  -4.516  1.00  0.00     0.116 C 
BRANCH  32  33
ATOM     33  N   UNL     1       5.466   5.312  -4.712  1.00  0.00    -0.352 N 
ATOM     34  C   UNL     1       5.960   6.199  -5.644  1.00  0.00     0.251 C 
ATOM     35  H   UNL     1       6.132   4.942  -4.089  1.00  0.00     0.163 HD
ATOM     36  O   UNL     1       7.169   6.386  -5.737  1.00  0.00    -0.269 OA
BRANCH  34  37
ATOM     37  C   UNL     1       5.023   6.884  -6.563  1.00  0.00     0.039 A 
ATOM     38  C   UNL     1       3.852   7.464  -6.073  1.00  0.00     0.014 A 
ATOM     39  C   UNL     1       5.285   6.883  -7.935  1.00  0.00     0.014 A 
ATOM     40  C   UNL     1       2.854   7.848  -6.962  1.00  0.00     0.010 A 
ATOM     41  C   UNL     1       4.317   7.361  -8.824  1.00  0.00     0.010 A 
ATOM     42  C   UNL     1       3.065   7.785  -8.349  1.00  0.00    -0.014 A 
BRANCH  42  43
ATOM     43  C   UNL     1       1.960   8.142  -9.280  1.00  0.00     0.031 A 
ATOM     44  C   UNL     1       1.376   7.114 -10.215  1.00  0.00     0.074 A 
ATOM     45  C   UNL     1       1.444   9.387  -9.245  1.00  0.00     0.049 A 
ATOM     46  N   UNL     1       0.403   7.248 -11.081  1.00  0.00    -0.248 NA
ATOM     47  C   UNL     1       1.958   5.763 -10.180  1.00  0.00     0.031 C 
ATOM     48  C   UNL     1       1.918  10.460  -8.371  1.00  0.00     0.029 A 
ATOM     49  N   UNL     1       0.406   9.957  -9.939  1.00  0.00    -0.354 N 
ATOM     50  C   UNL     1       0.269   6.011 -11.703  1.00  0.00     0.074 A 
ATOM     51  C   UNL     1       1.285   5.148 -11.144  1.00  0.00     0.031 C 
ATOM     52  C   UNL     1       1.145  11.540  -8.544  1.00  0.00     0.029 A 
ATOM     53  C   UNL     1       0.171  11.269  -9.599  1.00  0.00     0.049 A 
ATOM     54  H   UNL     1      -0.120   9.473 -10.616  1.00  0.00     0.167 HD
ATOM     55  C   UNL     1      -0.631   5.628 -12.641  1.00  0.00     0.034 A 
ATOM     56  C   UNL     1      -0.711  12.165 -10.088  1.00  0.00     0.034 A 
ATOM     57  C   UNL     1      -1.655   6.495 -13.170  1.00  0.00     0.049 A 
ATOM     58  C   UNL     1      -1.673  11.727 -11.162  1.00  0.00     0.074 A 
ATOM     59  C   UNL     1      -2.637   6.186 -14.095  1.00  0.00     0.029 A 
ATOM     60  N   UNL     1      -1.836   7.827 -12.827  1.00  0.00    -0.354 N 
ATOM     61  N   UNL     1      -1.817  10.540 -11.703  1.00  0.00    -0.248 NA
ATOM     62  C   UNL     1      -2.593  12.742 -11.693  1.00  0.00     0.031 C 
ATOM     63  C   UNL     1      -3.359   7.346 -14.369  1.00  0.00     0.029 A 
ATOM     64  C   UNL     1      -2.891   8.361 -13.550  1.00  0.00     0.049 A 
ATOM     65  H   UNL     1      -1.296   8.320 -12.168  1.00  0.00     0.167 HD
ATOM     66  C   UNL     1      -2.857  10.660 -12.621  1.00  0.00     0.074 A 
ATOM     67  C   UNL     1      -3.323  12.028 -12.542  1.00  0.00     0.031 C 
ATOM     68  C   UNL     1      -3.369   9.722 -13.457  1.00  0.00     0.034 A 
BRANCH  55  69
ATOM     69  C   UNL     1      -0.584   4.212 -13.168  1.00  0.00     0.023 A 
ATOM     70  C   UNL     1      -0.357   3.981 -14.539  1.00  0.00     0.031 A 
ATOM     71  C   UNL     1      -0.915   3.112 -12.357  1.00  0.00     0.131 A 
ATOM     72  C   UNL     1      -0.510   2.692 -15.065  1.00  0.00     0.055 A 
ATOM     73  C   UNL     1      -1.018   1.821 -12.878  1.00  0.00     0.041 A 
ATOM     74  F   UNL     1      -1.145   3.277 -11.044  1.00  0.00    -0.206 F 
ATOM     75  C   UNL     1      -0.831   1.609 -14.241  1.00  0.00     0.022 A 
BRANCH  72  76
ATOM     76  S   UNL     1      -0.380   2.384 -16.848  1.00  0.00     0.124 S 
ATOM     77  O   UNL     1       0.705   1.406 -16.904  1.00  0.00    -0.237 OA
ATOM     78  O   UNL     1      -1.706   1.862 -17.165  1.00  0.00    -0.237 OA
ATOM     79  O   UNL     1      -0.065   3.692 -17.409  1.00  0.00    -0.744 OA
ENDBRANCH  72  76
ENDBRANCH  55  69
BRANCH  56  80
ATOM     80  C   UNL     1      -0.728  13.547  -9.522  1.00  0.00     0.023 A 
ATOM     81  C   UNL     1       0.417  14.364  -9.581  1.00  0.00     0.031 A 
ATOM     82  C   UNL     1      -1.841  14.023  -8.810  1.00  0.00     0.131 A 
ATOM     83  C   UNL     1       0.454  15.568  -8.867  1.00  0.00     0.055 A 
ATOM     84  C   UNL     1      -1.829  15.264  -8.169  1.00  0.00     0.041 A 
ATOM     85  F   UNL     1      -2.952  13.278  -8.714  1.00  0.00    -0.206 F 
ATOM     86  C   UNL     1      -0.669  16.033  -8.178  1.00  0.00     0.022 A 
BRANCH  83  87
ATOM     87  S   UNL     1       2.006  16.490  -8.683  1.00  0.00     0.124 S 
ATOM     88  O   UNL     1       1.665  17.782  -9.269  1.00  0.00    -0.237 OA
ATOM     89  O   UNL     1       2.186  16.481  -7.233  1.00  0.00    -0.237 OA
ATOM     90  O   UNL     1       2.972  15.692  -9.431  1.00  0.00    -0.744 OA
ENDBRANCH  83  87
ENDBRANCH  56  80
BRANCH  68  91
ATOM     91  C   UNL     1      -4.509  10.105 -14.371  1.00  0.00     0.023 A 
ATOM     92  C   UNL     1      -5.746   9.438 -14.267  1.00  0.00     0.031 A 
ATOM     93  C   UNL     1      -4.322  10.991 -15.445  1.00  0.00     0.131 A 
ATOM     94  C   UNL     1      -6.725   9.625 -15.250  1.00  0.00     0.055 A 
ATOM     95  C   UNL     1      -5.323  11.218 -16.391  1.00  0.00     0.041 A 
ATOM     96  F   UNL     1      -3.158  11.643 -15.597  1.00  0.00    -0.206 F 
ATOM     97  C   UNL     1      -6.524  10.519 -16.306  1.00  0.00     0.022 A 
BRANCH  94  98
ATOM     98  S   UNL     1      -8.249   8.640 -15.253  1.00  0.00     0.124 S 
ATOM     99  O   UNL     1      -9.278   9.675 -15.167  1.00  0.00    -0.237 OA
ATOM    100  O   UNL     1      -8.166   7.950 -16.537  1.00  0.00    -0.237 OA
ATOM    101  O   UNL     1      -8.123   7.791 -14.073  1.00  0.00    -0.744 OA
ENDBRANCH  94  98
ENDBRANCH  68  91
ENDBRANCH  42  43
ENDBRANCH  34  37
ENDBRANCH  32  33
ENDBRANCH  31  32
ENDBRANCH  30  31
ENDBRANCH   1  30
TORSDOF 19
