REMARK SMILES C[C@@H](C(=O)NCCCCCCNC(=O)c1ccc(-c2c3nc(c(-c4cc(S(=O)(=O)[O-])ccc4F)c4ccc([nH]4)c(-c4cc(S(=O)(=O)[O-])ccc4F)c4nc(c(-c5cc(S(=O)(=O)[O-])ccc5F)c5ccc2[nH]5)C=C4)C=C3)cc1)S(=O)(=O)N[C@@]12C[C@@H]3C[C@@](C)(C[C@@](C)(C3)C1)C2
REMARK SMILES IDX 8 1 7 2 6 3 5 4 3 5 4 6 2 8 1 9 78 10 79 11 80 12 81 13
REMARK SMILES IDX 82 15 83 16 92 17 93 18 84 19 89 20 86 21 91 22 85 23 88 24
REMARK SMILES IDX 90 25 87 26 9 27 10 28 11 29 12 30 13 31 14 33 15 34 16 35
REMARK SMILES IDX 77 36 17 37 76 38 18 39 19 40 20 41 70 42 21 43 75 44 69 45
REMARK SMILES IDX 71 46 22 47 74 48 68 49 67 50 23 52 55 53 35 54 54 55 36 56
REMARK SMILES IDX 39 57 53 58 72 59 37 60 38 61 52 63 73 64 40 65 24 66 25 67
REMARK SMILES IDX 33 68 26 69 32 70 34 71 31 72 27 73 28 74 29 75 30 76 56 77
REMARK SMILES IDX 57 78 65 79 58 80 64 81 66 82 63 83 59 84 60 85 61 86 62 87
REMARK SMILES IDX 41 88 42 89 50 90 43 91 49 92 51 93 48 94 44 95 45 96 46 97
REMARK SMILES IDX 47 98
REMARK H PARENT 5 7 81 14 12 32 71 51 39 62
REMARK Flexibility Score: inf
ROOT
ATOM      1  C   UNL     1       5.037   1.514   2.401  1.00  0.00     0.002 C 
ENDROOT
BRANCH   1   2
ATOM      2  C   UNL     1       4.249   0.505   1.549  1.00  0.00     0.021 C 
BRANCH   2   3
ATOM      3  C   UNL     1       3.474  -0.511   2.395  1.00  0.00     0.116 C 
BRANCH   3   4
ATOM      4  N   UNL     1       2.295   0.126   2.950  1.00  0.00    -0.355 N 
ATOM      5  C   UNL     1       0.999   0.151   2.521  1.00  0.00     0.239 C 
ATOM      6  O   UNL     1       0.307   1.055   2.996  1.00  0.00    -0.274 OA
ATOM      7  H   UNL     1       2.457   0.627   3.781  1.00  0.00     0.163 HD
BRANCH   5   8
ATOM      8  C   UNL     1       0.458  -0.917   1.584  1.00  0.00     0.209 C 
ATOM      9  C   UNL     1       1.117  -1.089   0.219  1.00  0.00     0.037 C 
BRANCH   8  10
ATOM     10  S   UNL     1      -1.358  -0.741   1.451  1.00  0.00     0.223 S 
ATOM     11  O   UNL     1      -1.833  -1.623   0.406  1.00  0.00    -0.212 OA
ATOM     12  O   UNL     1      -1.914  -0.899   2.783  1.00  0.00    -0.212 OA
BRANCH  10  13
ATOM     13  N   UNL     1      -1.736   0.832   1.008  1.00  0.00    -0.208 NA
ATOM     14  H   UNL     1      -1.343   1.414   1.747  1.00  0.00     0.141 HD
BRANCH  13  15
ATOM     15  C   UNL     1      -1.371   1.520  -0.251  1.00  0.00     0.034 C 
ATOM     16  C   UNL     1      -2.438   2.604  -0.573  1.00  0.00     0.027 C 
ATOM     17  C   UNL     1      -0.048   2.285  -0.046  1.00  0.00     0.030 C 
ATOM     18  C   UNL     1      -1.346   0.577  -1.465  1.00  0.00     0.030 C 
ATOM     19  C   UNL     1      -2.051   3.376  -1.860  1.00  0.00    -0.008 C 
ATOM     20  C   UNL     1       0.391   3.000  -1.337  1.00  0.00    -0.030 C 
ATOM     21  C   UNL     1      -0.905   1.310  -2.743  1.00  0.00    -0.030 C 
ATOM     22  C   UNL     1      -0.681   4.056  -1.676  1.00  0.00     0.010 C 
ATOM     23  C   UNL     1      -1.952   2.399  -3.046  1.00  0.00     0.010 C 
ATOM     24  C   UNL     1       0.468   1.974  -2.491  1.00  0.00     0.013 C 
ATOM     25  C   UNL     1       1.759   3.656  -1.124  1.00  0.00     0.011 C 
ATOM     26  C   UNL     1      -0.804   0.306  -3.896  1.00  0.00     0.011 C 
ENDBRANCH  13  15
ENDBRANCH  10  13
ENDBRANCH   8  10
ENDBRANCH   5   8
ENDBRANCH   3   4
ENDBRANCH   2   3
ENDBRANCH   1   2
BRANCH   1  27
ATOM     27  C   UNL     1       6.118   0.890   3.293  1.00  0.00     0.002 C 
BRANCH  27  28
ATOM     28  C   UNL     1       7.163   0.059   2.545  1.00  0.00     0.021 C 
BRANCH  28  29
ATOM     29  C   UNL     1       8.010   0.863   1.563  1.00  0.00     0.116 C 
BRANCH  29  30
ATOM     30  N   UNL     1       8.844   1.837   2.252  1.00  0.00    -0.352 N 
ATOM     31  C   UNL     1      10.213   1.940   2.281  1.00  0.00     0.251 C 
ATOM     32  H   UNL     1       8.357   2.518   2.772  1.00  0.00     0.163 HD
ATOM     33  O   UNL     1      10.757   2.660   3.112  1.00  0.00    -0.269 OA
BRANCH  31  34
ATOM     34  C   UNL     1      11.022   1.163   1.318  1.00  0.00     0.039 A 
ATOM     35  C   UNL     1      12.122   0.439   1.781  1.00  0.00     0.014 A 
ATOM     36  C   UNL     1      10.680   1.139  -0.038  1.00  0.00     0.014 A 
ATOM     37  C   UNL     1      12.832  -0.378   0.897  1.00  0.00     0.010 A 
ATOM     38  C   UNL     1      11.349   0.278  -0.903  1.00  0.00     0.010 A 
ATOM     39  C   UNL     1      12.421  -0.501  -0.441  1.00  0.00    -0.014 A 
BRANCH  39  40
ATOM     40  C   UNL     1      13.061  -1.479  -1.361  1.00  0.00     0.031 A 
ATOM     41  C   UNL     1      13.798  -1.001  -2.581  1.00  0.00     0.074 A 
ATOM     42  C   UNL     1      12.890  -2.799  -1.139  1.00  0.00     0.049 A 
ATOM     43  N   UNL     1      14.319  -1.701  -3.555  1.00  0.00    -0.248 NA
ATOM     44  C   UNL     1      13.947   0.454  -2.741  1.00  0.00     0.031 C 
ATOM     45  C   UNL     1      12.160  -3.377  -0.008  1.00  0.00     0.029 A 
ATOM     46  N   UNL     1      13.293  -3.894  -1.863  1.00  0.00    -0.354 N 
ATOM     47  C   UNL     1      14.839  -0.775  -4.454  1.00  0.00     0.074 A 
ATOM     48  C   UNL     1      14.541   0.538  -3.923  1.00  0.00     0.031 C 
ATOM     49  C   UNL     1      12.171  -4.715  -0.112  1.00  0.00     0.029 A 
ATOM     50  C   UNL     1      12.857  -5.093  -1.343  1.00  0.00     0.049 A 
ATOM     51  H   UNL     1      13.843  -3.829  -2.677  1.00  0.00     0.167 HD
ATOM     52  C   UNL     1      15.510  -1.006  -5.608  1.00  0.00     0.034 A 
ATOM     53  C   UNL     1      12.966  -6.350  -1.819  1.00  0.00     0.034 A 
ATOM     54  C   UNL     1      15.820  -2.324  -6.106  1.00  0.00     0.049 A 
ATOM     55  C   UNL     1      13.690  -6.571  -3.125  1.00  0.00     0.074 A 
ATOM     56  C   UNL     1      16.591  -2.666  -7.203  1.00  0.00     0.029 A 
ATOM     57  N   UNL     1      15.361  -3.513  -5.556  1.00  0.00    -0.354 N 
ATOM     58  N   UNL     1      14.259  -5.686  -3.912  1.00  0.00    -0.248 NA
ATOM     59  C   UNL     1      13.788  -7.955  -3.608  1.00  0.00     0.031 C 
ATOM     60  C   UNL     1      16.526  -4.053  -7.367  1.00  0.00     0.029 A 
ATOM     61  C   UNL     1      15.782  -4.585  -6.327  1.00  0.00     0.049 A 
ATOM     62  H   UNL     1      14.816  -3.584  -4.740  1.00  0.00     0.167 HD
ATOM     63  C   UNL     1      14.800  -6.412  -4.969  1.00  0.00     0.074 A 
ATOM     64  C   UNL     1      14.511  -7.806  -4.708  1.00  0.00     0.031 C 
ATOM     65  C   UNL     1      15.472  -5.968  -6.061  1.00  0.00     0.034 A 
BRANCH  52  66
ATOM     66  C   UNL     1      15.930   0.181  -6.437  1.00  0.00     0.023 A 
ATOM     67  C   UNL     1      16.896   1.098  -5.990  1.00  0.00     0.031 A 
ATOM     68  C   UNL     1      15.380   0.372  -7.718  1.00  0.00     0.131 A 
ATOM     69  C   UNL     1      17.252   2.187  -6.801  1.00  0.00     0.055 A 
ATOM     70  C   UNL     1      15.787   1.419  -8.546  1.00  0.00     0.041 A 
ATOM     71  F   UNL     1      14.439  -0.463  -8.187  1.00  0.00    -0.206 F 
ATOM     72  C   UNL     1      16.723   2.339  -8.086  1.00  0.00     0.022 A 
BRANCH  69  73
ATOM     73  S   UNL     1      18.351   3.458  -6.117  1.00  0.00     0.124 S 
ATOM     74  O   UNL     1      17.578   3.930  -4.971  1.00  0.00    -0.237 OA
ATOM     75  O   UNL     1      19.556   2.699  -5.807  1.00  0.00    -0.237 OA
ATOM     76  O   UNL     1      18.483   4.420  -7.209  1.00  0.00    -0.744 OA
ENDBRANCH  69  73
ENDBRANCH  52  66
BRANCH  53  77
ATOM     77  C   UNL     1      12.335  -7.497  -1.101  1.00  0.00     0.023 A 
ATOM     78  C   UNL     1      13.109  -8.565  -0.621  1.00  0.00     0.031 A 
ATOM     79  C   UNL     1      10.938  -7.582  -0.955  1.00  0.00     0.131 A 
ATOM     80  C   UNL     1      12.480  -9.698  -0.080  1.00  0.00     0.055 A 
ATOM     81  C   UNL     1      10.322  -8.681  -0.355  1.00  0.00     0.041 A 
ATOM     82  F   UNL     1      10.146  -6.590  -1.396  1.00  0.00    -0.206 F 
ATOM     83  C   UNL     1      11.094  -9.757   0.070  1.00  0.00     0.022 A 
BRANCH  80  84
ATOM     84  S   UNL     1      13.497 -11.150   0.306  1.00  0.00     0.124 S 
ATOM     85  O   UNL     1      14.166 -11.390  -0.968  1.00  0.00    -0.237 OA
ATOM     86  O   UNL     1      14.337 -10.650   1.389  1.00  0.00    -0.237 OA
ATOM     87  O   UNL     1      12.514 -12.159   0.695  1.00  0.00    -0.744 OA
ENDBRANCH  80  84
ENDBRANCH  53  77
BRANCH  65  88
ATOM     88  C   UNL     1      15.958  -7.008  -7.038  1.00  0.00     0.023 A 
ATOM     89  C   UNL     1      15.061  -7.757  -7.819  1.00  0.00     0.031 A 
ATOM     90  C   UNL     1      17.335  -7.248  -7.196  1.00  0.00     0.131 A 
ATOM     91  C   UNL     1      15.549  -8.741  -8.692  1.00  0.00     0.055 A 
ATOM     92  C   UNL     1      17.817  -8.186  -8.109  1.00  0.00     0.041 A 
ATOM     93  F   UNL     1      18.235  -6.562  -6.472  1.00  0.00    -0.206 F 
ATOM     94  C   UNL     1      16.922  -8.947  -8.856  1.00  0.00     0.022 A 
BRANCH  91  95
ATOM     95  S   UNL     1      14.361  -9.798  -9.563  1.00  0.00     0.124 S 
ATOM     96  O   UNL     1      13.680 -10.463  -8.458  1.00  0.00    -0.237 OA
ATOM     97  O   UNL     1      13.566  -8.828 -10.310  1.00  0.00    -0.237 OA
ATOM     98  O   UNL     1      15.209 -10.664 -10.382  1.00  0.00    -0.744 OA
ENDBRANCH  91  95
ENDBRANCH  65  88
ENDBRANCH  39  40
ENDBRANCH  31  34
ENDBRANCH  29  30
ENDBRANCH  28  29
ENDBRANCH  27  28
ENDBRANCH   1  27
TORSDOF 19
