REMARK SMILES COc1ccc(/C=C2\SC(=S)[NH+]=C2NCCCCCCNC(=O)c2ccc(-c3c4nc(c(-c5cc(S(=O)(=O)[O-])ccc5F)c5ccc([nH]5)c(-c5cc(S(=O)(=O)[O-])ccc5F)c5nc(c(-c6cc(S(=O)(=O)[O-])ccc6F)c6ccc3[nH]6)C=C5)C=C4)cc2)c(C(=O)[O-])c1OC
REMARK SMILES IDX 18 1 17 2 16 3 15 4 14 5 7 6 8 7 9 8 13 9 10 10 12 11 11 12
REMARK SMILES IDX 6 15 3 16 4 17 91 18 5 19 87 20 2 21 1 22 92 23 93 24 88 25
REMARK SMILES IDX 89 26 90 27 19 28 20 29 21 30 22 31 23 33 24 34 25 35 86 36
REMARK SMILES IDX 26 37 85 38 27 39 28 40 29 41 79 42 30 43 84 44 78 45 80 46
REMARK SMILES IDX 31 47 83 48 77 49 76 50 32 52 64 53 44 54 63 55 45 56 48 57
REMARK SMILES IDX 62 58 81 59 46 60 47 61 61 63 82 64 49 65 33 66 34 67 42 68
REMARK SMILES IDX 35 69 41 70 43 71 40 72 36 73 37 74 38 75 39 76 65 77 66 78
REMARK SMILES IDX 74 79 67 80 73 81 75 82 72 83 68 84 69 85 70 86 71 87 50 88
REMARK SMILES IDX 51 89 59 90 52 91 58 92 60 93 57 94 53 95 54 96 55 97 56 98
REMARK H PARENT 12 13 14 14 21 32 80 51 48 62
REMARK Flexibility Score: inf
ROOT
ATOM      1  C   UNL     1       5.306   8.945  -6.398  1.00  0.00     0.002 C 
ENDROOT
BRANCH   1   2
ATOM      2  C   UNL     1       3.972   8.981  -5.646  1.00  0.00     0.004 C 
BRANCH   2   3
ATOM      3  C   UNL     1       2.725   8.902  -6.533  1.00  0.00     0.046 C 
BRANCH   3   4
ATOM      4  C   UNL     1       2.661   7.659  -7.421  1.00  0.00     0.234 C 
BRANCH   4   5
ATOM      5  N   UNL     1       2.445   6.464  -6.614  1.00  0.00    -0.273 N 
ATOM      6  C   UNL     1       1.770   3.983  -4.852  1.00  0.00     0.033 C 
ATOM      7  C   UNL     1       0.938   4.566  -5.743  1.00  0.00     0.106 C 
ATOM      8  S   UNL     1      -0.702   4.163  -6.115  1.00  0.00    -0.027 SA
ATOM      9  C   UNL     1       1.295   5.715  -6.678  1.00  0.00     0.288 C 
ATOM     10  C   UNL     1      -0.698   5.190  -7.535  1.00  0.00     0.230 C 
ATOM     11  N   UNL     1       0.404   5.998  -7.598  1.00  0.00    -0.225 N 
ATOM     12  S   UNL     1      -1.924   5.119  -8.669  1.00  0.00    -0.026 S 
ATOM     13  H   UNL     1       0.516   6.715  -8.263  1.00  0.00     0.314 HD
ATOM     14  H   UNL     1       3.156   6.182  -5.994  1.00  0.00     0.305 HD
BRANCH   6  15
ATOM     15  C   UNL     1       1.593   2.833  -3.886  1.00  0.00    -0.011 A 
ATOM     16  C   UNL     1       1.092   0.746  -1.984  1.00  0.00     0.161 A 
ATOM     17  C   UNL     1       0.064   1.285  -2.743  1.00  0.00     0.051 A 
ATOM     18  C   UNL     1       2.411   1.156  -2.214  1.00  0.00     0.170 A 
ATOM     19  C   UNL     1       0.313   2.304  -3.657  1.00  0.00     0.013 A 
ATOM     20  C   UNL     1       2.656   2.229  -3.137  1.00  0.00     0.050 A 
BRANCH  16  21
ATOM     21  O   UNL     1       0.750  -0.256  -1.115  1.00  0.00    -0.493 OA
ATOM     22  C   UNL     1       0.062   0.264   0.027  1.00  0.00     0.278 C 
ENDBRANCH  16  21
BRANCH  18  23
ATOM     23  O   UNL     1       3.521   0.544  -1.680  1.00  0.00    -0.492 OA
ATOM     24  C   UNL     1       3.391  -0.331  -0.570  1.00  0.00     0.278 C 
ENDBRANCH  18  23
BRANCH  20  25
ATOM     25  C   UNL     1       4.068   2.674  -3.348  1.00  0.00     0.076 C 
ATOM     26  O   UNL     1       4.567   3.020  -4.400  1.00  0.00    -0.545 OA
ATOM     27  O   UNL     1       4.790   2.718  -2.210  1.00  0.00    -0.545 OA
ENDBRANCH  20  25
ENDBRANCH   6  15
ENDBRANCH   4   5
ENDBRANCH   3   4
ENDBRANCH   2   3
ENDBRANCH   1   2
BRANCH   1  28
ATOM     28  C   UNL     1       5.495  10.049  -7.443  1.00  0.00     0.021 C 
BRANCH  28  29
ATOM     29  C   UNL     1       5.441  11.470  -6.890  1.00  0.00     0.116 C 
BRANCH  29  30
ATOM     30  N   UNL     1       6.506  11.727  -5.933  1.00  0.00    -0.352 N 
ATOM     31  C   UNL     1       7.456  12.719  -5.926  1.00  0.00     0.251 C 
ATOM     32  H   UNL     1       6.553  11.096  -5.178  1.00  0.00     0.163 HD
ATOM     33  O   UNL     1       8.399  12.649  -5.143  1.00  0.00    -0.269 OA
BRANCH  31  34
ATOM     34  C   UNL     1       7.354  13.851  -6.875  1.00  0.00     0.039 A 
ATOM     35  C   UNL     1       8.506  14.285  -7.535  1.00  0.00     0.014 A 
ATOM     36  C   UNL     1       6.132  14.487  -7.110  1.00  0.00     0.014 A 
ATOM     37  C   UNL     1       8.418  15.310  -8.481  1.00  0.00     0.010 A 
ATOM     38  C   UNL     1       6.033  15.456  -8.107  1.00  0.00     0.010 A 
ATOM     39  C   UNL     1       7.175  15.878  -8.806  1.00  0.00    -0.014 A 
BRANCH  39  40
ATOM     40  C   UNL     1       7.053  16.911  -9.871  1.00  0.00     0.031 A 
ATOM     41  C   UNL     1       6.569  18.296  -9.530  1.00  0.00     0.074 A 
ATOM     42  C   UNL     1       7.334  16.590 -11.151  1.00  0.00     0.049 A 
ATOM     43  N   UNL     1       6.318  19.303 -10.326  1.00  0.00    -0.248 NA
ATOM     44  C   UNL     1       6.314  18.577  -8.108  1.00  0.00     0.031 C 
ATOM     45  C   UNL     1       7.786  15.274 -11.612  1.00  0.00     0.029 A 
ATOM     46  N   UNL     1       7.277  17.338 -12.301  1.00  0.00    -0.354 N 
ATOM     47  C   UNL     1       5.882  20.337  -9.506  1.00  0.00     0.074 A 
ATOM     48  C   UNL     1       5.834  19.811  -8.158  1.00  0.00     0.031 C 
ATOM     49  C   UNL     1       7.984  15.316 -12.939  1.00  0.00     0.029 A 
ATOM     50  C   UNL     1       7.621  16.639 -13.437  1.00  0.00     0.049 A 
ATOM     51  H   UNL     1       7.013  18.286 -12.313  1.00  0.00     0.167 HD
ATOM     52  C   UNL     1       5.578  21.616  -9.839  1.00  0.00     0.034 A 
ATOM     53  C   UNL     1       7.623  17.013 -14.733  1.00  0.00     0.034 A 
ATOM     54  C   UNL     1       5.629  22.131 -11.185  1.00  0.00     0.049 A 
ATOM     55  C   UNL     1       7.218  18.426 -15.083  1.00  0.00     0.074 A 
ATOM     56  C   UNL     1       5.357  23.414 -11.627  1.00  0.00     0.029 A 
ATOM     57  N   UNL     1       5.974  21.391 -12.309  1.00  0.00    -0.354 N 
ATOM     58  N   UNL     1       6.840  19.400 -14.285  1.00  0.00    -0.248 NA
ATOM     59  C   UNL     1       7.251  18.796 -16.504  1.00  0.00     0.031 C 
ATOM     60  C   UNL     1       5.469  23.433 -13.020  1.00  0.00     0.029 A 
ATOM     61  C   UNL     1       5.898  22.186 -13.443  1.00  0.00     0.049 A 
ATOM     62  H   UNL     1       6.236  20.442 -12.301  1.00  0.00     0.167 HD
ATOM     63  C   UNL     1       6.634  20.505 -15.109  1.00  0.00     0.074 A 
ATOM     64  C   UNL     1       6.949  20.083 -16.456  1.00  0.00     0.031 C 
ATOM     65  C   UNL     1       6.222  21.756 -14.781  1.00  0.00     0.034 A 
BRANCH  52  66
ATOM     66  C   UNL     1       5.156  22.547  -8.729  1.00  0.00     0.023 A 
ATOM     67  C   UNL     1       6.040  22.900  -7.694  1.00  0.00     0.031 A 
ATOM     68  C   UNL     1       3.865  23.103  -8.710  1.00  0.00     0.131 A 
ATOM     69  C   UNL     1       5.606  23.737  -6.656  1.00  0.00     0.055 A 
ATOM     70  C   UNL     1       3.464  23.998  -7.716  1.00  0.00     0.041 A 
ATOM     71  F   UNL     1       2.970  22.787  -9.659  1.00  0.00    -0.206 F 
ATOM     72  C   UNL     1       4.333  24.312  -6.675  1.00  0.00     0.022 A 
BRANCH  69  73
ATOM     73  S   UNL     1       6.688  23.969  -5.220  1.00  0.00     0.124 S 
ATOM     74  O   UNL     1       6.821  22.600  -4.727  1.00  0.00    -0.237 OA
ATOM     75  O   UNL     1       7.884  24.553  -5.816  1.00  0.00    -0.237 OA
ATOM     76  O   UNL     1       5.922  24.863  -4.354  1.00  0.00    -0.744 OA
ENDBRANCH  69  73
ENDBRANCH  52  66
BRANCH  53  77
ATOM     77  C   UNL     1       7.986  16.045 -15.812  1.00  0.00     0.023 A 
ATOM     78  C   UNL     1       9.056  16.299 -16.685  1.00  0.00     0.031 A 
ATOM     79  C   UNL     1       7.206  14.898 -16.050  1.00  0.00     0.131 A 
ATOM     80  C   UNL     1       9.265  15.471 -17.799  1.00  0.00     0.055 A 
ATOM     81  C   UNL     1       7.467  14.033 -17.114  1.00  0.00     0.041 A 
ATOM     82  F   UNL     1       6.169  14.602 -15.250  1.00  0.00    -0.206 F 
ATOM     83  C   UNL     1       8.488  14.331 -18.011  1.00  0.00     0.022 A 
BRANCH  80  84
ATOM     84  S   UNL     1      10.469  15.995 -19.052  1.00  0.00     0.124 S 
ATOM     85  O   UNL     1       9.989  17.332 -19.379  1.00  0.00    -0.237 OA
ATOM     86  O   UNL     1      11.724  15.926 -18.312  1.00  0.00    -0.237 OA
ATOM     87  O   UNL     1      10.313  14.998 -20.109  1.00  0.00    -0.744 OA
ENDBRANCH  80  84
ENDBRANCH  53  77
BRANCH  65  88
ATOM     88  C   UNL     1       6.153  22.774 -15.895  1.00  0.00     0.023 A 
ATOM     89  C   UNL     1       5.248  22.650 -16.963  1.00  0.00     0.031 A 
ATOM     90  C   UNL     1       7.018  23.884 -15.888  1.00  0.00     0.131 A 
ATOM     91  C   UNL     1       5.271  23.584 -18.010  1.00  0.00     0.055 A 
ATOM     92  C   UNL     1       6.988  24.847 -16.897  1.00  0.00     0.041 A 
ATOM     93  F   UNL     1       7.906  24.053 -14.895  1.00  0.00    -0.206 F 
ATOM     94  C   UNL     1       6.121  24.692 -17.974  1.00  0.00     0.022 A 
BRANCH  91  95
ATOM     95  S   UNL     1       4.244  23.276 -19.473  1.00  0.00     0.124 S 
ATOM     96  O   UNL     1       4.730  21.973 -19.916  1.00  0.00    -0.237 OA
ATOM     97  O   UNL     1       2.895  23.297 -18.918  1.00  0.00    -0.237 OA
ATOM     98  O   UNL     1       4.566  24.393 -20.360  1.00  0.00    -0.744 OA
ENDBRANCH  91  95
ENDBRANCH  65  88
ENDBRANCH  39  40
ENDBRANCH  31  34
ENDBRANCH  29  30
ENDBRANCH  28  29
ENDBRANCH   1  28
TORSDOF 19
