REMARK SMILES COC(=O)c1ccccc1N(C)S(=O)(=O)c1c[nH]c(C(=O)NCCCCCCNC(=O)c2ccc(-c3c4nc(c(-c5cc(S(=O)(=O)[O-])ccc5F)c5ccc([nH]5)c(-c5cc(S(=O)(=O)[O-])ccc5F)c5nc(c(-c6cc(S(=O)(=O)[O-])ccc6F)c6ccc3[nH]6)C=C5)C=C4)cc2)c1
REMARK SMILES IDX 24 1 23 2 22 3 20 4 21 5 19 7 16 8 17 9 95 10 18 11 13 13
REMARK SMILES IDX 14 14 15 15 11 16 12 17 10 18 5 19 6 20 7 21 9 22 8 23 3 24
REMARK SMILES IDX 4 25 2 26 1 27 25 28 26 29 27 30 28 31 29 32 30 33 31 35
REMARK SMILES IDX 32 36 33 37 94 38 34 39 93 40 35 41 36 42 37 43 87 44 38 45
REMARK SMILES IDX 92 46 86 47 88 48 39 49 91 50 85 51 84 52 40 54 72 55 52 56
REMARK SMILES IDX 71 57 53 58 56 59 70 60 89 61 54 62 55 63 69 65 90 66 57 67
REMARK SMILES IDX 41 68 42 69 50 70 43 71 49 72 51 73 48 74 44 75 45 76 46 77
REMARK SMILES IDX 47 78 73 79 74 80 82 81 75 82 81 83 83 84 80 85 76 86 77 87
REMARK SMILES IDX 78 88 79 89 58 90 59 91 67 92 60 93 66 94 68 95 65 96 61 97
REMARK SMILES IDX 62 98 63 99 64 100
REMARK H PARENT 22 6 18 12 29 34 88 53 56 64
REMARK Flexibility Score: inf
ROOT
ATOM      1  C   UNL     1      -1.615  -4.581   0.536  1.00  0.00     0.021 C 
ENDROOT
BRANCH   1   2
ATOM      2  C   UNL     1      -2.508  -4.075  -0.599  1.00  0.00     0.116 C 
BRANCH   2   3
ATOM      3  N   UNL     1      -3.897  -3.992  -0.182  1.00  0.00    -0.351 N 
ATOM      4  C   UNL     1      -4.713  -2.930   0.113  1.00  0.00     0.267 C 
ATOM      5  O   UNL     1      -5.895  -3.185   0.354  1.00  0.00    -0.268 OA
ATOM      6  H   UNL     1      -4.339  -4.867  -0.095  1.00  0.00     0.163 HD
BRANCH   4   7
ATOM      7  C   UNL     1      -4.245  -1.561   0.082  1.00  0.00     0.105 A 
ATOM      8  C   UNL     1      -3.152   0.417  -0.194  1.00  0.00     0.106 A 
ATOM      9  C   UNL     1      -4.490   0.701  -0.061  1.00  0.00     0.105 A 
ATOM     10  C   UNL     1      -2.996  -0.978   0.038  1.00  0.00     0.055 A 
ATOM     11  N   UNL     1      -5.136  -0.499   0.132  1.00  0.00    -0.356 N 
ATOM     12  H   UNL     1      -6.104  -0.592   0.286  1.00  0.00     0.166 HD
BRANCH   8  13
ATOM     13  S   UNL     1      -1.777   1.399  -0.566  1.00  0.00     0.265 S 
ATOM     14  O   UNL     1      -1.135   0.587  -1.573  1.00  0.00    -0.201 OA
ATOM     15  O   UNL     1      -1.212   1.618   0.751  1.00  0.00    -0.201 OA
BRANCH  13  16
ATOM     16  N   UNL     1      -2.128   2.911  -1.296  1.00  0.00    -0.268 N 
ATOM     17  C   UNL     1      -3.224   2.771  -2.307  1.00  0.00     0.164 C 
BRANCH  16  18
ATOM     18  C   UNL     1      -0.964   3.765  -1.705  1.00  0.00     0.066 A 
ATOM     19  C   UNL     1       0.406   3.654  -1.348  1.00  0.00     0.084 A 
ATOM     20  C   UNL     1       1.375   4.558  -1.851  1.00  0.00     0.018 A 
ATOM     21  C   UNL     1       1.019   5.616  -2.674  1.00  0.00     0.001 A 
ATOM     22  C   UNL     1      -1.284   4.931  -2.444  1.00  0.00     0.028 A 
ATOM     23  C   UNL     1      -0.320   5.817  -2.950  1.00  0.00     0.002 A 
BRANCH  19  24
ATOM     24  C   UNL     1       1.028   2.725  -0.392  1.00  0.00     0.340 C 
ATOM     25  O   UNL     1       1.373   3.063   0.729  1.00  0.00    -0.246 OA
BRANCH  24  26
ATOM     26  O   UNL     1       1.304   1.565  -1.026  1.00  0.00    -0.465 OA
ATOM     27  C   UNL     1       1.815   0.527  -0.183  1.00  0.00     0.282 C 
ENDBRANCH  24  26
ENDBRANCH  19  24
ENDBRANCH  16  18
ENDBRANCH  13  16
ENDBRANCH   8  13
ENDBRANCH   4   7
ENDBRANCH   2   3
ENDBRANCH   1   2
BRANCH   1  28
ATOM     28  C   UNL     1      -1.620  -6.110   0.684  1.00  0.00     0.002 C 
BRANCH  28  29
ATOM     29  C   UNL     1      -1.108  -6.887  -0.539  1.00  0.00     0.002 C 
BRANCH  29  30
ATOM     30  C   UNL     1       0.313  -6.524  -0.998  1.00  0.00     0.021 C 
BRANCH  30  31
ATOM     31  C   UNL     1       1.406  -7.024  -0.049  1.00  0.00     0.116 C 
BRANCH  31  32
ATOM     32  N   UNL     1       1.470  -8.476  -0.081  1.00  0.00    -0.352 N 
ATOM     33  C   UNL     1       2.287  -9.358   0.570  1.00  0.00     0.251 C 
ATOM     34  H   UNL     1       0.809  -8.898  -0.677  1.00  0.00     0.163 HD
ATOM     35  O   UNL     1       2.335 -10.517   0.160  1.00  0.00    -0.269 OA
BRANCH  33  36
ATOM     36  C   UNL     1       3.137  -8.956   1.711  1.00  0.00     0.039 A 
ATOM     37  C   UNL     1       4.424  -9.508   1.776  1.00  0.00     0.014 A 
ATOM     38  C   UNL     1       2.677  -8.135   2.746  1.00  0.00     0.014 A 
ATOM     39  C   UNL     1       5.276  -9.181   2.827  1.00  0.00     0.010 A 
ATOM     40  C   UNL     1       3.532  -7.798   3.798  1.00  0.00     0.010 A 
ATOM     41  C   UNL     1       4.843  -8.296   3.821  1.00  0.00    -0.014 A 
BRANCH  41  42
ATOM     42  C   UNL     1       5.846  -7.752   4.772  1.00  0.00     0.031 A 
ATOM     43  C   UNL     1       6.677  -6.580   4.178  1.00  0.00     0.074 A 
ATOM     44  C   UNL     1       5.921  -8.350   5.995  1.00  0.00     0.049 A 
ATOM     45  N   UNL     1       7.822  -6.059   4.526  1.00  0.00    -0.248 NA
ATOM     46  C   UNL     1       6.154  -5.938   2.939  1.00  0.00     0.031 C 
ATOM     47  C   UNL     1       5.109  -9.498   6.460  1.00  0.00     0.029 A 
ATOM     48  N   UNL     1       6.714  -8.118   7.089  1.00  0.00    -0.354 N 
ATOM     49  C   UNL     1       8.042  -4.930   3.697  1.00  0.00     0.074 A 
ATOM     50  C   UNL     1       7.056  -4.998   2.661  1.00  0.00     0.031 C 
ATOM     51  C   UNL     1       5.512  -9.909   7.685  1.00  0.00     0.029 A 
ATOM     52  C   UNL     1       6.597  -9.063   8.141  1.00  0.00     0.049 A 
ATOM     53  H   UNL     1       7.324  -7.348   7.142  1.00  0.00     0.167 HD
ATOM     54  C   UNL     1       8.908  -3.905   3.961  1.00  0.00     0.034 A 
ATOM     55  C   UNL     1       7.372  -9.176   9.263  1.00  0.00     0.034 A 
ATOM     56  C   UNL     1       9.650  -4.099   5.163  1.00  0.00     0.049 A 
ATOM     57  C   UNL     1       8.288  -8.028   9.177  1.00  0.00     0.074 A 
ATOM     58  C   UNL     1      10.920  -4.467   5.542  1.00  0.00     0.029 A 
ATOM     59  N   UNL     1       8.997  -3.699   6.298  1.00  0.00    -0.354 N 
ATOM     60  N   UNL     1       7.977  -6.803   9.456  1.00  0.00    -0.248 NA
ATOM     61  C   UNL     1       9.582  -8.250   8.535  1.00  0.00     0.031 C 
ATOM     62  C   UNL     1      10.917  -4.473   6.967  1.00  0.00     0.029 A 
ATOM     63  C   UNL     1       9.591  -4.324   7.355  1.00  0.00     0.049 A 
ATOM     64  H   UNL     1       8.237  -3.075   6.343  1.00  0.00     0.167 HD
ATOM     65  C   UNL     1       8.946  -6.058   8.829  1.00  0.00     0.074 A 
ATOM     66  C   UNL     1       9.976  -6.991   8.390  1.00  0.00     0.031 C 
ATOM     67  C   UNL     1       8.723  -4.792   8.398  1.00  0.00     0.034 A 
BRANCH  54  68
ATOM     68  C   UNL     1       8.975  -2.483   3.398  1.00  0.00     0.023 A 
ATOM     69  C   UNL     1      10.123  -1.720   3.742  1.00  0.00     0.031 A 
ATOM     70  C   UNL     1       7.884  -1.745   2.910  1.00  0.00     0.131 A 
ATOM     71  C   UNL     1      10.114  -0.318   3.742  1.00  0.00     0.055 A 
ATOM     72  C   UNL     1       7.907  -0.341   2.828  1.00  0.00     0.041 A 
ATOM     73  F   UNL     1       6.722  -2.329   2.585  1.00  0.00    -0.206 F 
ATOM     74  C   UNL     1       9.007   0.382   3.283  1.00  0.00     0.022 A 
BRANCH  71  75
ATOM     75  S   UNL     1      11.503   0.553   4.530  1.00  0.00     0.124 S 
ATOM     76  O   UNL     1      11.543  -0.052   5.857  1.00  0.00    -0.237 OA
ATOM     77  O   UNL     1      12.613   0.216   3.644  1.00  0.00    -0.237 OA
ATOM     78  O   UNL     1      11.089   1.954   4.497  1.00  0.00    -0.744 OA
ENDBRANCH  71  75
ENDBRANCH  54  68
BRANCH  55  79
ATOM     79  C   UNL     1       7.600 -10.144  10.403  1.00  0.00     0.023 A 
ATOM     80  C   UNL     1       6.758 -11.208  10.767  1.00  0.00     0.031 A 
ATOM     81  C   UNL     1       8.792 -10.026  11.184  1.00  0.00     0.131 A 
ATOM     82  C   UNL     1       7.142 -12.107  11.801  1.00  0.00     0.055 A 
ATOM     83  C   UNL     1       9.185 -10.934  12.167  1.00  0.00     0.041 A 
ATOM     84  F   UNL     1       9.659  -9.018  11.011  1.00  0.00    -0.206 F 
ATOM     85  C   UNL     1       8.363 -11.995  12.472  1.00  0.00     0.022 A 
BRANCH  82  86
ATOM     86  S   UNL     1       6.083 -13.502  12.290  1.00  0.00     0.124 S 
ATOM     87  O   UNL     1       5.364 -12.952  13.434  1.00  0.00    -0.237 OA
ATOM     88  O   UNL     1       5.288 -13.751  11.092  1.00  0.00    -0.237 OA
ATOM     89  O   UNL     1       7.053 -14.550  12.611  1.00  0.00    -0.744 OA
ENDBRANCH  82  86
ENDBRANCH  55  79
BRANCH  67  90
ATOM     90  C   UNL     1       7.321  -4.269   8.655  1.00  0.00     0.023 A 
ATOM     91  C   UNL     1       6.941  -3.729   9.888  1.00  0.00     0.031 A 
ATOM     92  C   UNL     1       6.307  -4.393   7.679  1.00  0.00     0.131 A 
ATOM     93  C   UNL     1       5.605  -3.322  10.094  1.00  0.00     0.055 A 
ATOM     94  C   UNL     1       4.994  -3.966   7.869  1.00  0.00     0.041 A 
ATOM     95  F   UNL     1       6.575  -4.921   6.482  1.00  0.00    -0.206 F 
ATOM     96  C   UNL     1       4.636  -3.425   9.090  1.00  0.00     0.022 A 
BRANCH  93  97
ATOM     97  S   UNL     1       5.124  -2.634  11.700  1.00  0.00     0.124 S 
ATOM     98  O   UNL     1       5.200  -3.796  12.578  1.00  0.00    -0.237 OA
ATOM     99  O   UNL     1       6.131  -1.601  11.918  1.00  0.00    -0.237 OA
ATOM    100  O   UNL     1       3.771  -2.128  11.464  1.00  0.00    -0.744 OA
ENDBRANCH  93  97
ENDBRANCH  67  90
ENDBRANCH  41  42
ENDBRANCH  33  36
ENDBRANCH  31  32
ENDBRANCH  30  31
ENDBRANCH  29  30
ENDBRANCH  28  29
ENDBRANCH   1  28
TORSDOF 21
