REMARK SMILES CC1(C)[C@H](C(=O)NCCCCCCNC(=O)c2ccc(-c3c4nc(c(-c5cc(S(=O)(=O)[O-])ccc5F)c5ccc([nH]5)c(-c5cc(S(=O)(=O)[O-])ccc5F)c5nc(c(-c6cc(S(=O)(=O)[O-])ccc6F)c6ccc3[nH]6)C=C5)C=C4)cc2)[C@@H]1C(=O)Nc1ccc(NC(=O)C2CCC2)cc1
REMARK SMILES IDX 10 1 9 2 8 3 7 4 5 5 6 6 4 8 1 9 2 10 3 11 80 12 81 13 82 14
REMARK SMILES IDX 83 15 84 17 85 18 96 19 86 20 95 21 87 22 88 23 89 24 90 26
REMARK SMILES IDX 91 27 92 28 94 29 93 30 11 31 12 32 13 33 14 34 15 35 16 37
REMARK SMILES IDX 17 38 18 39 79 40 19 41 78 42 20 43 21 44 22 45 72 46 23 47
REMARK SMILES IDX 77 48 71 49 73 50 24 51 76 52 70 53 69 54 25 56 57 57 37 58
REMARK SMILES IDX 56 59 38 60 41 61 55 62 74 63 39 64 40 65 54 67 75 68 42 69
REMARK SMILES IDX 26 70 27 71 35 72 28 73 34 74 36 75 33 76 29 77 30 78 31 79
REMARK SMILES IDX 32 80 58 81 59 82 67 83 60 84 66 85 68 86 65 87 61 88 62 89
REMARK SMILES IDX 63 90 64 91 43 92 44 93 52 94 45 95 51 96 53 97 50 98 46 99
REMARK SMILES IDX 47 100 48 101 49 102
REMARK H PARENT 7 7 83 16 88 25 14 36 73 55 41 66
REMARK Flexibility Score: inf
ROOT
ATOM      1  C   UNL     1      -0.567   5.250  -1.818  1.00  0.00     0.002 C 
ENDROOT
BRANCH   1   2
ATOM      2  C   UNL     1       0.234   4.201  -1.031  1.00  0.00     0.021 C 
BRANCH   2   3
ATOM      3  C   UNL     1      -0.612   3.041  -0.519  1.00  0.00     0.116 C 
BRANCH   3   4
ATOM      4  N   UNL     1      -0.927   2.129  -1.597  1.00  0.00    -0.356 N 
ATOM      5  C   UNL     1      -0.972   0.779  -1.755  1.00  0.00     0.224 C 
ATOM      6  O   UNL     1      -1.271   0.396  -2.890  1.00  0.00    -0.275 OA
ATOM      7  H   UNL     1      -1.171   2.606  -2.424  1.00  0.00     0.163 HD
BRANCH   5   8
ATOM      8  C   UNL     1      -0.719  -0.283  -0.752  1.00  0.00     0.098 C 
ATOM      9  C   UNL     1       1.172  -1.763   0.142  1.00  0.00     0.013 C 
ATOM     10  C   UNL     1       0.484  -0.415   0.166  1.00  0.00    -0.011 C 
ATOM     11  C   UNL     1       1.474   0.713   0.319  1.00  0.00     0.013 C 
ATOM     12  C   UNL     1      -0.958  -0.365   0.722  1.00  0.00     0.098 C 
BRANCH  12  13
ATOM     13  C   UNL     1      -1.502   0.684   1.606  1.00  0.00     0.228 C 
ATOM     14  O   UNL     1      -0.820   1.137   2.519  1.00  0.00    -0.274 OA
ATOM     15  N   UNL     1      -2.806   1.112   1.464  1.00  0.00    -0.326 N 
ATOM     16  H   UNL     1      -3.213   1.568   2.236  1.00  0.00     0.169 HD
BRANCH  15  17
ATOM     17  C   UNL     1      -3.603   0.957   0.326  1.00  0.00     0.041 A 
ATOM     18  C   UNL     1      -3.861   2.120  -0.380  1.00  0.00     0.028 A 
ATOM     19  C   UNL     1      -4.020  -0.268  -0.187  1.00  0.00     0.028 A 
ATOM     20  C   UNL     1      -4.314   2.032  -1.685  1.00  0.00     0.028 A 
ATOM     21  C   UNL     1      -4.691  -0.304  -1.423  1.00  0.00     0.028 A 
ATOM     22  C   UNL     1      -4.844   0.863  -2.184  1.00  0.00     0.041 A 
BRANCH  22  23
ATOM     23  N   UNL     1      -5.516   0.804  -3.409  1.00  0.00    -0.326 N 
ATOM     24  C   UNL     1      -5.980   1.763  -4.290  1.00  0.00     0.227 C 
ATOM     25  H   UNL     1      -5.697  -0.117  -3.707  1.00  0.00     0.169 HD
ATOM     26  O   UNL     1      -6.519   1.292  -5.312  1.00  0.00    -0.274 OA
BRANCH  24  27
ATOM     27  C   UNL     1      -5.886   3.303  -4.107  1.00  0.00     0.079 C 
ATOM     28  C   UNL     1      -7.174   4.067  -4.590  1.00  0.00     0.013 C 
ATOM     29  C   UNL     1      -6.102   4.103  -2.782  1.00  0.00     0.013 C 
ATOM     30  C   UNL     1      -6.818   5.180  -3.601  1.00  0.00     0.002 C 
ENDBRANCH  24  27
ENDBRANCH  22  23
ENDBRANCH  15  17
ENDBRANCH  12  13
ENDBRANCH   5   8
ENDBRANCH   3   4
ENDBRANCH   2   3
ENDBRANCH   1   2
BRANCH   1  31
ATOM     31  C   UNL     1      -1.684   5.955  -1.037  1.00  0.00     0.002 C 
BRANCH  31  32
ATOM     32  C   UNL     1      -1.271   6.538   0.316  1.00  0.00     0.021 C 
BRANCH  32  33
ATOM     33  C   UNL     1      -0.069   7.475   0.271  1.00  0.00     0.116 C 
BRANCH  33  34
ATOM     34  N   UNL     1      -0.305   8.635  -0.569  1.00  0.00    -0.352 N 
ATOM     35  C   UNL     1      -0.034   9.955  -0.308  1.00  0.00     0.251 C 
ATOM     36  H   UNL     1      -0.715   8.450  -1.445  1.00  0.00     0.163 HD
ATOM     37  O   UNL     1      -0.460  10.824  -1.064  1.00  0.00    -0.269 OA
BRANCH  35  38
ATOM     38  C   UNL     1       0.742  10.321   0.897  1.00  0.00     0.039 A 
ATOM     39  C   UNL     1       0.292  11.377   1.692  1.00  0.00     0.014 A 
ATOM     40  C   UNL     1       1.905   9.626   1.242  1.00  0.00     0.014 A 
ATOM     41  C   UNL     1       0.982  11.705   2.860  1.00  0.00     0.010 A 
ATOM     42  C   UNL     1       2.550   9.907   2.444  1.00  0.00     0.010 A 
ATOM     43  C   UNL     1       2.100  10.956   3.261  1.00  0.00    -0.014 A 
BRANCH  43  44
ATOM     44  C   UNL     1       2.819  11.270   4.523  1.00  0.00     0.031 A 
ATOM     45  C   UNL     1       4.247  11.745   4.478  1.00  0.00     0.074 A 
ATOM     46  C   UNL     1       2.202  11.085   5.707  1.00  0.00     0.049 A 
ATOM     47  N   UNL     1       5.060  12.021   5.465  1.00  0.00    -0.248 NA
ATOM     48  C   UNL     1       4.848  11.902   3.144  1.00  0.00     0.031 C 
ATOM     49  C   UNL     1       0.834  10.590   5.877  1.00  0.00     0.029 A 
ATOM     50  N   UNL     1       2.643  11.285   6.991  1.00  0.00    -0.354 N 
ATOM     51  C   UNL     1       6.270  12.372   4.874  1.00  0.00     0.074 A 
ATOM     52  C   UNL     1       6.099  12.211   3.446  1.00  0.00     0.031 C 
ATOM     53  C   UNL     1       0.540  10.550   7.187  1.00  0.00     0.029 A 
ATOM     54  C   UNL     1       1.708  10.973   7.952  1.00  0.00     0.049 A 
ATOM     55  H   UNL     1       3.543  11.621   7.205  1.00  0.00     0.167 HD
ATOM     56  C   UNL     1       7.408  12.811   5.467  1.00  0.00     0.034 A 
ATOM     57  C   UNL     1       1.788  11.014   9.297  1.00  0.00     0.034 A 
ATOM     58  C   UNL     1       7.555  12.977   6.893  1.00  0.00     0.049 A 
ATOM     59  C   UNL     1       3.069  11.492   9.934  1.00  0.00     0.074 A 
ATOM     60  C   UNL     1       8.643  13.462   7.597  1.00  0.00     0.029 A 
ATOM     61  N   UNL     1       6.585  12.657   7.836  1.00  0.00    -0.354 N 
ATOM     62  N   UNL     1       4.188  11.870   9.358  1.00  0.00    -0.248 NA
ATOM     63  C   UNL     1       3.092  11.563  11.400  1.00  0.00     0.031 C 
ATOM     64  C   UNL     1       8.358  13.370   8.964  1.00  0.00     0.029 A 
ATOM     65  C   UNL     1       7.061  12.907   9.114  1.00  0.00     0.049 A 
ATOM     66  H   UNL     1       5.690  12.305   7.627  1.00  0.00     0.167 HD
ATOM     67  C   UNL     1       5.034  12.257  10.393  1.00  0.00     0.074 A 
ATOM     68  C   UNL     1       4.290  12.082  11.624  1.00  0.00     0.031 C 
ATOM     69  C   UNL     1       6.310  12.719  10.334  1.00  0.00     0.034 A 
BRANCH  56  70
ATOM     70  C   UNL     1       8.587  13.114   4.572  1.00  0.00     0.023 A 
ATOM     71  C   UNL     1       8.534  14.124   3.594  1.00  0.00     0.031 A 
ATOM     72  C   UNL     1       9.775  12.370   4.681  1.00  0.00     0.131 A 
ATOM     73  C   UNL     1       9.613  14.310   2.717  1.00  0.00     0.055 A 
ATOM     74  C   UNL     1      10.878  12.617   3.861  1.00  0.00     0.041 A 
ATOM     75  F   UNL     1       9.881  11.379   5.580  1.00  0.00    -0.206 F 
ATOM     76  C   UNL     1      10.796  13.581   2.861  1.00  0.00     0.022 A 
BRANCH  73  77
ATOM     77  S   UNL     1       9.395  15.416   1.296  1.00  0.00     0.124 S 
ATOM     78  O   UNL     1       8.268  14.791   0.607  1.00  0.00    -0.237 OA
ATOM     79  O   UNL     1       9.123  16.699   1.934  1.00  0.00    -0.237 OA
ATOM     80  O   UNL     1      10.673  15.327   0.593  1.00  0.00    -0.744 OA
ENDBRANCH  73  77
ENDBRANCH  56  70
BRANCH  57  81
ATOM     81  C   UNL     1       0.632  10.589  10.138  1.00  0.00     0.023 A 
ATOM     82  C   UNL     1      -0.025  11.499  10.982  1.00  0.00     0.031 A 
ATOM     83  C   UNL     1       0.196   9.251  10.148  1.00  0.00     0.131 A 
ATOM     84  C   UNL     1      -1.044  11.052  11.838  1.00  0.00     0.055 A 
ATOM     85  C   UNL     1      -0.856   8.823  10.959  1.00  0.00     0.041 A 
ATOM     86  F   UNL     1       0.785   8.340   9.356  1.00  0.00    -0.206 F 
ATOM     87  C   UNL     1      -1.472   9.723  11.822  1.00  0.00     0.022 A 
BRANCH  84  88
ATOM     88  S   UNL     1      -1.738  12.215  13.044  1.00  0.00     0.124 S 
ATOM     89  O   UNL     1      -0.548  12.625  13.780  1.00  0.00    -0.237 OA
ATOM     90  O   UNL     1      -2.337  13.225  12.178  1.00  0.00    -0.237 OA
ATOM     91  O   UNL     1      -2.689  11.399  13.795  1.00  0.00    -0.744 OA
ENDBRANCH  84  88
ENDBRANCH  57  81
BRANCH  69  92
ATOM     92  C   UNL     1       6.956  13.116  11.640  1.00  0.00     0.023 A 
ATOM     93  C   UNL     1       7.241  12.173  12.643  1.00  0.00     0.031 A 
ATOM     94  C   UNL     1       7.272  14.463  11.890  1.00  0.00     0.131 A 
ATOM     95  C   UNL     1       7.763  12.599  13.874  1.00  0.00     0.055 A 
ATOM     96  C   UNL     1       7.854  14.872  13.091  1.00  0.00     0.041 A 
ATOM     97  F   UNL     1       7.021  15.407  10.969  1.00  0.00    -0.206 F 
ATOM     98  C   UNL     1       8.088  13.940  14.098  1.00  0.00     0.022 A 
BRANCH  95  99
ATOM     99  S   UNL     1       7.912  11.393  15.221  1.00  0.00     0.124 S 
ATOM    100  O   UNL     1       6.541  10.911  15.349  1.00  0.00    -0.237 OA
ATOM    101  O   UNL     1       8.875  10.440  14.680  1.00  0.00    -0.237 OA
ATOM    102  O   UNL     1       8.396  12.192  16.345  1.00  0.00    -0.744 OA
ENDBRANCH  95  99
ENDBRANCH  69  92
ENDBRANCH  43  44
ENDBRANCH  35  38
ENDBRANCH  33  34
ENDBRANCH  32  33
ENDBRANCH  31  32
ENDBRANCH   1  31
TORSDOF 20
