REMARK SMILES O=C(NCCCCCCNC(=O)[C@H]1CC[C@H](CNC(=O)c2ccccc2O)O1)c1ccc(-c2c3nc(c(-c4cc(S(=O)(=O)[O-])ccc4F)c4ccc([nH]4)c(-c4cc(S(=O)(=O)[O-])ccc4F)c4nc(c(-c5cc(S(=O)(=O)[O-])ccc5F)c5ccc2[nH]5)C=C4)C=C3)cc1
REMARK SMILES IDX 7 1 6 2 5 3 4 4 3 5 1 6 2 7 29 9 30 10 91 11 31 12 90 13
REMARK SMILES IDX 32 14 33 15 34 16 84 17 35 18 89 19 83 20 85 21 36 22 88 23
REMARK SMILES IDX 82 24 81 25 37 27 69 28 49 29 68 30 50 31 53 32 67 33 86 34
REMARK SMILES IDX 51 35 52 36 66 38 87 39 54 40 38 41 39 42 47 43 40 44 46 45
REMARK SMILES IDX 48 46 45 47 41 48 42 49 43 50 44 51 70 52 71 53 79 54 72 55
REMARK SMILES IDX 78 56 80 57 77 58 73 59 74 60 75 61 76 62 55 63 56 64 64 65
REMARK SMILES IDX 57 66 63 67 65 68 62 69 58 70 59 71 60 72 61 73 8 74 9 75
REMARK SMILES IDX 10 76 11 77 12 79 13 80 14 81 28 82 15 83 16 84 17 85 18 86
REMARK SMILES IDX 19 87 20 89 21 90 22 91 26 92 23 93 25 94 24 95 27 96
REMARK H PARENT 3 8 85 26 53 37 10 78 18 88 27 97
REMARK Flexibility Score: inf
ROOT
ATOM      1  C   UNL     1       5.876   2.364  -2.923  1.00  0.00     0.002 C 
ENDROOT
BRANCH   1   2
ATOM      2  C   UNL     1       5.808   3.785  -2.354  1.00  0.00     0.002 C 
BRANCH   2   3
ATOM      3  C   UNL     1       4.679   4.657  -2.905  1.00  0.00     0.021 C 
BRANCH   3   4
ATOM      4  C   UNL     1       3.279   4.095  -2.701  1.00  0.00     0.116 C 
BRANCH   4   5
ATOM      5  N   UNL     1       2.889   4.055  -1.300  1.00  0.00    -0.352 N 
ATOM      6  O   UNL     1       1.614   4.530   0.502  1.00  0.00    -0.269 OA
ATOM      7  C   UNL     1       1.724   4.499  -0.721  1.00  0.00     0.251 C 
ATOM      8  H   UNL     1       3.547   3.658  -0.684  1.00  0.00     0.163 HD
BRANCH   7   9
ATOM      9  C   UNL     1       0.611   4.960  -1.582  1.00  0.00     0.039 A 
ATOM     10  C   UNL     1       0.234   4.219  -2.704  1.00  0.00     0.014 A 
ATOM     11  C   UNL     1      -0.055   6.149  -1.270  1.00  0.00     0.014 A 
ATOM     12  C   UNL     1      -0.707   4.735  -3.587  1.00  0.00     0.010 A 
ATOM     13  C   UNL     1      -1.065   6.623  -2.115  1.00  0.00     0.010 A 
ATOM     14  C   UNL     1      -1.380   5.934  -3.296  1.00  0.00    -0.014 A 
BRANCH  14  15
ATOM     15  C   UNL     1      -2.446   6.398  -4.222  1.00  0.00     0.031 A 
ATOM     16  C   UNL     1      -2.303   7.672  -5.008  1.00  0.00     0.074 A 
ATOM     17  C   UNL     1      -3.531   5.615  -4.391  1.00  0.00     0.049 A 
ATOM     18  N   UNL     1      -3.114   8.186  -5.898  1.00  0.00    -0.248 NA
ATOM     19  C   UNL     1      -1.099   8.477  -4.758  1.00  0.00     0.031 C 
ATOM     20  C   UNL     1      -3.782   4.365  -3.666  1.00  0.00     0.029 A 
ATOM     21  N   UNL     1      -4.605   5.729  -5.233  1.00  0.00    -0.354 N 
ATOM     22  C   UNL     1      -2.524   9.375  -6.314  1.00  0.00     0.074 A 
ATOM     23  C   UNL     1      -1.305   9.524  -5.546  1.00  0.00     0.031 C 
ATOM     24  C   UNL     1      -4.905   3.803  -4.134  1.00  0.00     0.029 A 
ATOM     25  C   UNL     1      -5.490   4.680  -5.141  1.00  0.00     0.049 A 
ATOM     26  H   UNL     1      -4.731   6.489  -5.846  1.00  0.00     0.167 HD
ATOM     27  C   UNL     1      -2.955  10.251  -7.257  1.00  0.00     0.034 A 
ATOM     28  C   UNL     1      -6.652   4.452  -5.782  1.00  0.00     0.034 A 
ATOM     29  C   UNL     1      -4.180  10.091  -8.007  1.00  0.00     0.049 A 
ATOM     30  C   UNL     1      -7.113   5.449  -6.810  1.00  0.00     0.074 A 
ATOM     31  C   UNL     1      -4.715  10.921  -8.978  1.00  0.00     0.029 A 
ATOM     32  N   UNL     1      -5.066   9.030  -7.867  1.00  0.00    -0.354 N 
ATOM     33  N   UNL     1      -6.537   6.565  -7.193  1.00  0.00    -0.248 NA
ATOM     34  C   UNL     1      -8.374   5.150  -7.498  1.00  0.00     0.031 C 
ATOM     35  C   UNL     1      -5.945  10.391  -9.386  1.00  0.00     0.029 A 
ATOM     36  C   UNL     1      -6.149   9.193  -8.720  1.00  0.00     0.049 A 
ATOM     37  H   UNL     1      -4.944   8.271  -7.252  1.00  0.00     0.167 HD
ATOM     38  C   UNL     1      -7.366   7.099  -8.174  1.00  0.00     0.074 A 
ATOM     39  C   UNL     1      -8.458   6.162  -8.348  1.00  0.00     0.031 C 
ATOM     40  C   UNL     1      -7.242   8.261  -8.863  1.00  0.00     0.034 A 
BRANCH  27  41
ATOM     41  C   UNL     1      -2.109  11.478  -7.503  1.00  0.00     0.023 A 
ATOM     42  C   UNL     1      -0.812  11.384  -8.040  1.00  0.00     0.031 A 
ATOM     43  C   UNL     1      -2.598  12.759  -7.189  1.00  0.00     0.131 A 
ATOM     44  C   UNL     1      -0.028  12.538  -8.189  1.00  0.00     0.055 A 
ATOM     45  C   UNL     1      -1.840  13.912  -7.407  1.00  0.00     0.041 A 
ATOM     46  F   UNL     1      -3.821  12.912  -6.656  1.00  0.00    -0.206 F 
ATOM     47  C   UNL     1      -0.542  13.805  -7.899  1.00  0.00     0.022 A 
BRANCH  44  48
ATOM     48  S   UNL     1       1.714  12.350  -8.656  1.00  0.00     0.124 S 
ATOM     49  O   UNL     1       2.227  11.528  -7.561  1.00  0.00    -0.237 OA
ATOM     50  O   UNL     1       1.625  11.695  -9.956  1.00  0.00    -0.237 OA
ATOM     51  O   UNL     1       2.214  13.723  -8.681  1.00  0.00    -0.744 OA
ENDBRANCH  44  48
ENDBRANCH  27  41
BRANCH  28  52
ATOM     52  C   UNL     1      -7.470   3.253  -5.448  1.00  0.00     0.023 A 
ATOM     53  C   UNL     1      -7.720   2.251  -6.397  1.00  0.00     0.031 A 
ATOM     54  C   UNL     1      -8.041   3.109  -4.170  1.00  0.00     0.131 A 
ATOM     55  C   UNL     1      -8.554   1.171  -6.069  1.00  0.00     0.055 A 
ATOM     56  C   UNL     1      -8.823   2.005  -3.830  1.00  0.00     0.041 A 
ATOM     57  F   UNL     1      -7.828   4.037  -3.222  1.00  0.00    -0.206 F 
ATOM     58  C   UNL     1      -9.095   1.034  -4.788  1.00  0.00     0.022 A 
BRANCH  55  59
ATOM     59  S   UNL     1      -8.995  -0.011  -7.371  1.00  0.00     0.124 S 
ATOM     60  O   UNL     1      -9.551   0.865  -8.395  1.00  0.00    -0.237 OA
ATOM     61  O   UNL     1      -7.704  -0.618  -7.677  1.00  0.00    -0.237 OA
ATOM     62  O   UNL     1      -9.957  -0.895  -6.715  1.00  0.00    -0.744 OA
ENDBRANCH  55  59
ENDBRANCH  28  52
BRANCH  40  63
ATOM     63  C   UNL     1      -8.316   8.556  -9.881  1.00  0.00     0.023 A 
ATOM     64  C   UNL     1      -9.643   8.813  -9.493  1.00  0.00     0.031 A 
ATOM     65  C   UNL     1      -8.020   8.530 -11.254  1.00  0.00     0.131 A 
ATOM     66  C   UNL     1     -10.639   8.963 -10.468  1.00  0.00     0.055 A 
ATOM     67  C   UNL     1      -9.004   8.741 -12.220  1.00  0.00     0.041 A 
ATOM     68  F   UNL     1      -6.769   8.287 -11.679  1.00  0.00    -0.206 F 
ATOM     69  C   UNL     1     -10.326   8.942 -11.830  1.00  0.00     0.022 A 
BRANCH  66  70
ATOM     70  S   UNL     1     -12.369   9.076  -9.934  1.00  0.00     0.124 S 
ATOM     71  O   UNL     1     -12.534   7.839  -9.177  1.00  0.00    -0.237 OA
ATOM     72  O   UNL     1     -12.373  10.307  -9.152  1.00  0.00    -0.237 OA
ATOM     73  O   UNL     1     -13.112   9.137 -11.191  1.00  0.00    -0.744 OA
ENDBRANCH  66  70
ENDBRANCH  40  63
ENDBRANCH  14  15
ENDBRANCH   7   9
ENDBRANCH   4   5
ENDBRANCH   3   4
ENDBRANCH   2   3
ENDBRANCH   1   2
BRANCH   1  74
ATOM     74  C   UNL     1       5.932   2.264  -4.455  1.00  0.00     0.021 C 
BRANCH  74  75
ATOM     75  C   UNL     1       7.061   3.068  -5.101  1.00  0.00     0.116 C 
BRANCH  75  76
ATOM     76  N   UNL     1       8.359   2.608  -4.642  1.00  0.00    -0.354 N 
ATOM     77  C   UNL     1       9.317   1.903  -5.313  1.00  0.00     0.249 C 
ATOM     78  H   UNL     1       8.581   2.837  -3.711  1.00  0.00     0.163 HD
ATOM     79  O   UNL     1      10.308   1.525  -4.684  1.00  0.00    -0.272 OA
BRANCH  77  80
ATOM     80  C   UNL     1       9.147   1.664  -6.823  1.00  0.00     0.207 C 
ATOM     81  C   UNL     1       9.675   2.871  -7.590  1.00  0.00     0.045 C 
ATOM     82  O   UNL     1       9.888   0.522  -7.274  1.00  0.00    -0.363 OA
ATOM     83  C   UNL     1      11.083   2.445  -7.939  1.00  0.00     0.037 C 
ATOM     84  C   UNL     1      10.928   0.952  -8.171  1.00  0.00     0.138 C 
BRANCH  84  85
ATOM     85  C   UNL     1      10.501   0.591  -9.602  1.00  0.00     0.148 C 
BRANCH  85  86
ATOM     86  N   UNL     1      11.579   0.726 -10.569  1.00  0.00    -0.349 N 
ATOM     87  C   UNL     1      12.047  -0.209 -11.459  1.00  0.00     0.255 C 
ATOM     88  H   UNL     1      12.030   1.601 -10.589  1.00  0.00     0.163 HD
ATOM     89  O   UNL     1      13.036   0.038 -12.146  1.00  0.00    -0.269 OA
BRANCH  87  90
ATOM     90  C   UNL     1      11.424  -1.547 -11.537  1.00  0.00     0.081 A 
ATOM     91  C   UNL     1      12.254  -2.651 -11.303  1.00  0.00     0.018 A 
ATOM     92  C   UNL     1      10.078  -1.746 -11.862  1.00  0.00     0.128 A 
ATOM     93  C   UNL     1      11.729  -3.943 -11.348  1.00  0.00     0.001 A 
ATOM     94  C   UNL     1       9.551  -3.039 -11.900  1.00  0.00     0.047 A 
ATOM     95  C   UNL     1      10.378  -4.134 -11.637  1.00  0.00     0.004 A 
BRANCH  92  96
ATOM     96  O   UNL     1       9.267  -0.681 -12.143  1.00  0.00    -0.507 OA
ATOM     97  H   UNL     1       9.613   0.189 -12.120  1.00  0.00     0.293 HD
ENDBRANCH  92  96
ENDBRANCH  87  90
ENDBRANCH  85  86
ENDBRANCH  84  85
ENDBRANCH  77  80
ENDBRANCH  75  76
ENDBRANCH  74  75
ENDBRANCH   1  74
TORSDOF 20
