REMARK SMILES O=C(NCCCCCCNC(=O)[C@@H](F)Oc1ccc(F)c(Cl)c1)c1ccc(-c2c3nc(c(-c4cc(S(=O)(=O)[O-])ccc4F)c4ccc([nH]4)c(-c4cc(S(=O)(=O)[O-])ccc4F)c4nc(c(-c5cc(S(=O)(=O)[O-])ccc5F)c5ccc2[nH]5)C=C4)C=C3)cc1
REMARK SMILES IDX 6 1 5 2 4 3 3 4 1 5 2 6 24 8 25 9 86 10 26 11 85 12 27 13
REMARK SMILES IDX 28 14 29 15 79 16 30 17 84 18 78 19 80 20 31 21 83 22 77 23
REMARK SMILES IDX 76 24 32 26 64 27 44 28 63 29 45 30 48 31 62 32 81 33 46 34
REMARK SMILES IDX 47 35 61 37 82 38 49 39 33 40 34 41 42 42 35 43 41 44 43 45
REMARK SMILES IDX 40 46 36 47 37 48 38 49 39 50 65 51 66 52 74 53 67 54 73 55
REMARK SMILES IDX 75 56 72 57 68 58 69 59 70 60 71 61 50 62 51 63 59 64 52 65
REMARK SMILES IDX 58 66 60 67 57 68 53 69 54 70 55 71 56 72 7 73 8 74 9 75
REMARK SMILES IDX 10 76 11 77 12 79 13 80 14 81 15 82 16 83 17 84 23 85 18 86
REMARK SMILES IDX 21 87 19 88 22 89 20 90
REMARK H PARENT 3 7 80 25 48 36 10 78
REMARK Flexibility Score: inf
ROOT
ATOM      1  C   UNL     1       4.068  -3.741  -1.256  1.00  0.00     0.002 C 
ENDROOT
BRANCH   1   2
ATOM      2  C   UNL     1       4.570  -2.699  -0.257  1.00  0.00     0.021 C 
BRANCH   2   3
ATOM      3  C   UNL     1       4.284  -1.243  -0.599  1.00  0.00     0.116 C 
BRANCH   3   4
ATOM      4  N   UNL     1       2.867  -0.926  -0.675  1.00  0.00    -0.352 N 
ATOM      5  O   UNL     1       0.957   0.184  -0.228  1.00  0.00    -0.269 OA
ATOM      6  C   UNL     1       2.181   0.132  -0.122  1.00  0.00     0.251 C 
ATOM      7  H   UNL     1       2.321  -1.558  -1.196  1.00  0.00     0.163 HD
BRANCH   6   8
ATOM      8  C   UNL     1       2.906   1.185   0.628  1.00  0.00     0.039 A 
ATOM      9  C   UNL     1       4.103   1.720   0.148  1.00  0.00     0.014 A 
ATOM     10  C   UNL     1       2.380   1.640   1.841  1.00  0.00     0.014 A 
ATOM     11  C   UNL     1       4.851   2.576   0.952  1.00  0.00     0.010 A 
ATOM     12  C   UNL     1       3.091   2.571   2.607  1.00  0.00     0.010 A 
ATOM     13  C   UNL     1       4.356   3.014   2.191  1.00  0.00    -0.014 A 
BRANCH  13  14
ATOM     14  C   UNL     1       5.175   3.944   3.018  1.00  0.00     0.031 A 
ATOM     15  C   UNL     1       5.698   3.527   4.367  1.00  0.00     0.074 A 
ATOM     16  C   UNL     1       5.481   5.161   2.524  1.00  0.00     0.049 A 
ATOM     17  N   UNL     1       6.449   4.195   5.206  1.00  0.00    -0.248 NA
ATOM     18  C   UNL     1       5.315   2.190   4.843  1.00  0.00     0.031 C 
ATOM     19  C   UNL     1       5.028   5.680   1.230  1.00  0.00     0.029 A 
ATOM     20  N   UNL     1       6.259   6.170   3.031  1.00  0.00    -0.354 N 
ATOM     21  C   UNL     1       6.612   3.373   6.318  1.00  0.00     0.074 A 
ATOM     22  C   UNL     1       5.848   2.171   6.057  1.00  0.00     0.031 C 
ATOM     23  C   UNL     1       5.582   6.883   1.022  1.00  0.00     0.029 A 
ATOM     24  C   UNL     1       6.372   7.253   2.190  1.00  0.00     0.049 A 
ATOM     25  H   UNL     1       6.694   6.124   3.912  1.00  0.00     0.167 HD
ATOM     26  C   UNL     1       7.336   3.598   7.445  1.00  0.00     0.034 A 
ATOM     27  C   UNL     1       7.029   8.419   2.343  1.00  0.00     0.034 A 
ATOM     28  C   UNL     1       8.103   4.800   7.681  1.00  0.00     0.049 A 
ATOM     29  C   UNL     1       7.807   8.653   3.610  1.00  0.00     0.074 A 
ATOM     30  C   UNL     1       8.901   5.115   8.769  1.00  0.00     0.029 A 
ATOM     31  N   UNL     1       8.165   5.891   6.822  1.00  0.00    -0.354 N 
ATOM     32  N   UNL     1       7.965   7.856   4.642  1.00  0.00    -0.248 NA
ATOM     33  C   UNL     1       8.501   9.940   3.728  1.00  0.00     0.031 C 
ATOM     34  C   UNL     1       9.386   6.417   8.600  1.00  0.00     0.029 A 
ATOM     35  C   UNL     1       8.960   6.889   7.369  1.00  0.00     0.049 A 
ATOM     36  H   UNL     1       7.710   5.948   5.951  1.00  0.00     0.167 HD
ATOM     37  C   UNL     1       8.805   8.537   5.519  1.00  0.00     0.074 A 
ATOM     38  C   UNL     1       9.130   9.799   4.885  1.00  0.00     0.031 C 
ATOM     39  C   UNL     1       9.269   8.150   6.735  1.00  0.00     0.034 A 
BRANCH  26  40
ATOM     40  C   UNL     1       7.286   2.543   8.529  1.00  0.00     0.023 A 
ATOM     41  C   UNL     1       7.771   1.238   8.328  1.00  0.00     0.031 A 
ATOM     42  C   UNL     1       6.717   2.844   9.781  1.00  0.00     0.131 A 
ATOM     43  C   UNL     1       7.610   0.267   9.330  1.00  0.00     0.055 A 
ATOM     44  C   UNL     1       6.635   1.896  10.803  1.00  0.00     0.041 A 
ATOM     45  F   UNL     1       6.218   4.066  10.029  1.00  0.00    -0.206 F 
ATOM     46  C   UNL     1       7.068   0.594  10.575  1.00  0.00     0.022 A 
BRANCH  43  47
ATOM     47  S   UNL     1       7.980  -1.464   8.932  1.00  0.00     0.124 S 
ATOM     48  O   UNL     1       7.101  -1.700   7.789  1.00  0.00    -0.237 OA
ATOM     49  O   UNL     1       9.409  -1.423   8.644  1.00  0.00    -0.237 OA
ATOM     50  O   UNL     1       7.609  -2.183  10.149  1.00  0.00    -0.744 OA
ENDBRANCH  43  47
ENDBRANCH  26  40
BRANCH  27  51
ATOM     51  C   UNL     1       6.972   9.460   1.277  1.00  0.00     0.023 A 
ATOM     52  C   UNL     1       8.128   9.851   0.584  1.00  0.00     0.031 A 
ATOM     53  C   UNL     1       5.761  10.100   0.957  1.00  0.00     0.131 A 
ATOM     54  C   UNL     1       8.057  10.882  -0.365  1.00  0.00     0.055 A 
ATOM     55  C   UNL     1       5.686  11.086  -0.027  1.00  0.00     0.041 A 
ATOM     56  F   UNL     1       4.625   9.759   1.586  1.00  0.00    -0.206 F 
ATOM     57  C   UNL     1       6.842  11.492  -0.686  1.00  0.00     0.022 A 
BRANCH  54  58
ATOM     58  S   UNL     1       9.596  11.471  -1.123  1.00  0.00     0.124 S 
ATOM     59  O   UNL     1      10.364  11.885   0.045  1.00  0.00    -0.237 OA
ATOM     60  O   UNL     1      10.070  10.276  -1.813  1.00  0.00    -0.237 OA
ATOM     61  O   UNL     1       9.152  12.556  -1.995  1.00  0.00    -0.744 OA
ENDBRANCH  54  58
ENDBRANCH  27  51
BRANCH  39  62
ATOM     62  C   UNL     1      10.226   9.091   7.428  1.00  0.00     0.023 A 
ATOM     63  C   UNL     1       9.825  10.363   7.875  1.00  0.00     0.031 A 
ATOM     64  C   UNL     1      11.571   8.721   7.607  1.00  0.00     0.131 A 
ATOM     65  C   UNL     1      10.774  11.244   8.416  1.00  0.00     0.055 A 
ATOM     66  C   UNL     1      12.496   9.578   8.205  1.00  0.00     0.041 A 
ATOM     67  F   UNL     1      12.010   7.521   7.196  1.00  0.00    -0.206 F 
ATOM     68  C   UNL     1      12.104  10.854   8.598  1.00  0.00     0.022 A 
BRANCH  65  69
ATOM     69  S   UNL     1      10.274  12.951   8.773  1.00  0.00     0.124 S 
ATOM     70  O   UNL     1       9.771  13.398   7.478  1.00  0.00    -0.237 OA
ATOM     71  O   UNL     1       9.272  12.771   9.818  1.00  0.00    -0.237 OA
ATOM     72  O   UNL     1      11.516  13.589   9.209  1.00  0.00    -0.744 OA
ENDBRANCH  65  69
ENDBRANCH  39  62
ENDBRANCH  13  14
ENDBRANCH   6   8
ENDBRANCH   3   4
ENDBRANCH   2   3
ENDBRANCH   1   2
BRANCH   1  73
ATOM     73  C   UNL     1       4.487  -3.549  -2.717  1.00  0.00     0.002 C 
BRANCH  73  74
ATOM     74  C   UNL     1       5.983  -3.359  -2.996  1.00  0.00     0.021 C 
BRANCH  74  75
ATOM     75  C   UNL     1       6.920  -4.403  -2.396  1.00  0.00     0.116 C 
BRANCH  75  76
ATOM     76  N   UNL     1       6.686  -5.745  -2.891  1.00  0.00    -0.350 N 
ATOM     77  C   UNL     1       7.509  -6.837  -2.810  1.00  0.00     0.294 C 
ATOM     78  H   UNL     1       5.824  -5.890  -3.345  1.00  0.00     0.163 HD
ATOM     79  O   UNL     1       7.033  -7.926  -3.153  1.00  0.00    -0.267 OA
BRANCH  77  80
ATOM     80  C   UNL     1       8.964  -6.734  -2.278  1.00  0.00     0.440 C 
ATOM     81  F   UNL     1       9.567  -5.533  -2.522  1.00  0.00    -0.191 F 
BRANCH  80  82
ATOM     82  O   UNL     1       9.165  -7.101  -0.911  1.00  0.00    -0.452 OA
BRANCH  82  83
ATOM     83  C   UNL     1       8.744  -6.136  -0.041  1.00  0.00     0.125 A 
ATOM     84  C   UNL     1       7.512  -6.296   0.595  1.00  0.00     0.050 A 
ATOM     85  C   UNL     1       9.559  -5.038   0.243  1.00  0.00     0.070 A 
ATOM     86  C   UNL     1       7.051  -5.300   1.456  1.00  0.00     0.044 A 
ATOM     87  C   UNL     1       9.094  -4.046   1.105  1.00  0.00     0.080 A 
ATOM     88  C   UNL     1       7.837  -4.174   1.694  1.00  0.00     0.142 A 
ATOM     89  Cl  UNL     1      10.067  -2.658   1.393  1.00  0.00    -0.081 Cl
ATOM     90  F   UNL     1       7.341  -3.201   2.471  1.00  0.00    -0.205 F 
ENDBRANCH  82  83
ENDBRANCH  80  82
ENDBRANCH  77  80
ENDBRANCH  75  76
ENDBRANCH  74  75
ENDBRANCH  73  74
ENDBRANCH   1  73
TORSDOF 18
