REMARK SMILES C[N@H+]1[C@H]2CC[C@@H]1[C@@H](C(=O)NCCCCCCNC(=O)c1ccc(-c3c4nc(c(-c5cc(S(=O)(=O)[O-])ccc5F)c5ccc([nH]5)c(-c5cc(S(=O)(=O)[O-])ccc5F)c5nc(c(-c6cc(S(=O)(=O)[O-])ccc6F)c6ccc3[nH]6)C=C5)C=C4)cc1)[C@@H](OC(=O)c1ccccc1)C2
REMARK SMILES IDX 13 1 12 2 11 3 10 4 8 5 9 6 7 8 1 9 2 10 3 11 6 12 4 14
REMARK SMILES IDX 93 15 5 16 83 17 84 18 85 19 86 20 87 21 88 22 92 23 89 24
REMARK SMILES IDX 91 25 90 26 14 27 15 28 16 29 17 30 18 31 19 33 20 34 21 35
REMARK SMILES IDX 82 36 22 37 81 38 23 39 24 40 25 41 75 42 26 43 80 44 74 45
REMARK SMILES IDX 76 46 27 47 79 48 73 49 72 50 28 52 60 53 40 54 59 55 41 56
REMARK SMILES IDX 44 57 58 58 77 59 42 60 43 61 57 63 78 64 45 65 29 66 30 67
REMARK SMILES IDX 38 68 31 69 37 70 39 71 36 72 32 73 33 74 34 75 35 76 61 77
REMARK SMILES IDX 62 78 70 79 63 80 69 81 71 82 68 83 64 84 65 85 66 86 67 87
REMARK SMILES IDX 46 88 47 89 55 90 48 91 54 92 56 93 53 94 49 95 50 96 51 97
REMARK SMILES IDX 52 98
REMARK H PARENT 10 7 2 13 17 32 76 51 44 62
REMARK Flexibility Score: inf
ROOT
ATOM      1  C   UNL     1      -3.818  -3.721  -1.689  1.00  0.00     0.002 C 
ENDROOT
BRANCH   1   2
ATOM      2  C   UNL     1      -2.450  -3.053  -1.693  1.00  0.00     0.021 C 
BRANCH   2   3
ATOM      3  C   UNL     1      -2.219  -2.025  -0.597  1.00  0.00     0.116 C 
BRANCH   3   4
ATOM      4  N   UNL     1      -1.817  -2.574   0.684  1.00  0.00    -0.356 N 
ATOM      5  C   UNL     1      -0.869  -2.189   1.583  1.00  0.00     0.232 C 
ATOM      6  O   UNL     1      -0.959  -2.712   2.705  1.00  0.00    -0.274 OA
ATOM      7  H   UNL     1      -2.324  -3.374   0.955  1.00  0.00     0.163 HD
BRANCH   5   8
ATOM      8  C   UNL     1       0.291  -1.202   1.332  1.00  0.00     0.177 C 
ATOM      9  C   UNL     1      -1.767   1.492  -0.074  1.00  0.00     0.333 C 
ATOM     10  N   UNL     1      -0.757   0.451  -0.035  1.00  0.00    -0.332 N 
ATOM     11  C   UNL     1       0.359   0.549  -0.983  1.00  0.00     0.188 C 
ATOM     12  C   UNL     1      -0.126   0.277   1.265  1.00  0.00     0.200 C 
ATOM     13  H   UNL     1      -1.349  -0.338  -0.297  1.00  0.00     0.348 HD
ATOM     14  C   UNL     1       1.295   1.524  -0.290  1.00  0.00     0.071 C 
ATOM     15  C   UNL     1       0.998  -0.869  -1.142  1.00  0.00     0.111 C 
ATOM     16  C   UNL     1       1.075   1.248   1.200  1.00  0.00     0.072 C 
ATOM     17  C   UNL     1       1.265  -1.593   0.204  1.00  0.00     0.201 C 
BRANCH  17  18
ATOM     18  O   UNL     1       1.505  -3.030   0.271  1.00  0.00    -0.457 OA
BRANCH  18  19
ATOM     19  C   UNL     1       1.092  -3.899  -0.670  1.00  0.00     0.338 C 
ATOM     20  O   UNL     1       0.746  -3.629  -1.813  1.00  0.00    -0.246 OA
BRANCH  19  21
ATOM     21  C   UNL     1       1.020  -5.291  -0.142  1.00  0.00     0.060 A 
ATOM     22  C   UNL     1       0.158  -6.187  -0.795  1.00  0.00     0.015 A 
ATOM     23  C   UNL     1       1.785  -5.749   0.938  1.00  0.00     0.015 A 
ATOM     24  C   UNL     1       0.077  -7.523  -0.398  1.00  0.00     0.001 A 
ATOM     25  C   UNL     1       1.712  -7.095   1.325  1.00  0.00     0.001 A 
ATOM     26  C   UNL     1       0.865  -7.980   0.654  1.00  0.00     0.000 A 
ENDBRANCH  19  21
ENDBRANCH  18  19
ENDBRANCH  17  18
ENDBRANCH   5   8
ENDBRANCH   3   4
ENDBRANCH   2   3
ENDBRANCH   1   2
BRANCH   1  27
ATOM     27  C   UNL     1      -5.011  -2.779  -1.870  1.00  0.00     0.002 C 
BRANCH  27  28
ATOM     28  C   UNL     1      -4.927  -1.807  -3.051  1.00  0.00     0.021 C 
BRANCH  28  29
ATOM     29  C   UNL     1      -4.590  -2.443  -4.396  1.00  0.00     0.116 C 
BRANCH  29  30
ATOM     30  N   UNL     1      -5.552  -3.467  -4.770  1.00  0.00    -0.352 N 
ATOM     31  C   UNL     1      -6.313  -3.545  -5.909  1.00  0.00     0.251 C 
ATOM     32  H   UNL     1      -5.674  -4.198  -4.122  1.00  0.00     0.163 HD
ATOM     33  O   UNL     1      -7.236  -4.347  -5.990  1.00  0.00    -0.269 OA
BRANCH  31  34
ATOM     34  C   UNL     1      -6.003  -2.633  -7.027  1.00  0.00     0.039 A 
ATOM     35  C   UNL     1      -7.017  -1.845  -7.572  1.00  0.00     0.014 A 
ATOM     36  C   UNL     1      -4.690  -2.537  -7.498  1.00  0.00     0.014 A 
ATOM     37  C   UNL     1      -6.703  -0.913  -8.565  1.00  0.00     0.010 A 
ATOM     38  C   UNL     1      -4.371  -1.566  -8.440  1.00  0.00     0.010 A 
ATOM     39  C   UNL     1      -5.374  -0.748  -8.986  1.00  0.00    -0.014 A 
BRANCH  39  40
ATOM     40  C   UNL     1      -4.995   0.241 -10.027  1.00  0.00     0.031 A 
ATOM     41  C   UNL     1      -4.421  -0.254 -11.326  1.00  0.00     0.074 A 
ATOM     42  C   UNL     1      -5.086   1.562  -9.778  1.00  0.00     0.049 A 
ATOM     43  N   UNL     1      -3.843   0.417 -12.287  1.00  0.00    -0.248 NA
ATOM     44  C   UNL     1      -4.480  -1.707 -11.556  1.00  0.00     0.031 C 
ATOM     45  C   UNL     1      -5.626   2.159  -8.555  1.00  0.00     0.029 A 
ATOM     46  N   UNL     1      -4.703   2.644 -10.532  1.00  0.00    -0.354 N 
ATOM     47  C   UNL     1      -3.462  -0.530 -13.231  1.00  0.00     0.074 A 
ATOM     48  C   UNL     1      -3.817  -1.826 -12.696  1.00  0.00     0.031 C 
ATOM     49  C   UNL     1      -5.542   3.496  -8.644  1.00  0.00     0.029 A 
ATOM     50  C   UNL     1      -4.887   3.854  -9.899  1.00  0.00     0.049 A 
ATOM     51  H   UNL     1      -4.331   2.563 -11.440  1.00  0.00     0.167 HD
ATOM     52  C   UNL     1      -2.890  -0.332 -14.444  1.00  0.00     0.034 A 
ATOM     53  C   UNL     1      -4.535   5.101 -10.275  1.00  0.00     0.034 A 
ATOM     54  C   UNL     1      -2.549   0.968 -14.962  1.00  0.00     0.049 A 
ATOM     55  C   UNL     1      -3.834   5.290 -11.602  1.00  0.00     0.074 A 
ATOM     56  C   UNL     1      -1.967   1.286 -16.177  1.00  0.00     0.029 A 
ATOM     57  N   UNL     1      -2.764   2.167 -14.297  1.00  0.00    -0.354 N 
ATOM     58  N   UNL     1      -3.481   4.383 -12.484  1.00  0.00    -0.248 NA
ATOM     59  C   UNL     1      -3.492   6.665 -11.990  1.00  0.00     0.031 C 
ATOM     60  C   UNL     1      -1.779   2.670 -16.222  1.00  0.00     0.029 A 
ATOM     61  C   UNL     1      -2.316   3.224 -15.072  1.00  0.00     0.049 A 
ATOM     62  H   UNL     1      -3.175   2.254 -13.406  1.00  0.00     0.167 HD
ATOM     63  C   UNL     1      -2.926   5.087 -13.551  1.00  0.00     0.074 A 
ATOM     64  C   UNL     1      -2.989   6.489 -13.203  1.00  0.00     0.031 C 
ATOM     65  C   UNL     1      -2.419   4.618 -14.718  1.00  0.00     0.034 A 
BRANCH  52  66
ATOM     66  C   UNL     1      -2.592  -1.550 -15.280  1.00  0.00     0.023 A 
ATOM     67  C   UNL     1      -3.623  -2.378 -15.758  1.00  0.00     0.031 A 
ATOM     68  C   UNL     1      -1.268  -1.893 -15.604  1.00  0.00     0.131 A 
ATOM     69  C   UNL     1      -3.311  -3.540 -16.478  1.00  0.00     0.055 A 
ATOM     70  C   UNL     1      -0.969  -3.007 -16.390  1.00  0.00     0.041 A 
ATOM     71  F   UNL     1      -0.241  -1.152 -15.158  1.00  0.00    -0.206 F 
ATOM     72  C   UNL     1      -1.992  -3.846 -16.822  1.00  0.00     0.022 A 
BRANCH  69  73
ATOM     73  S   UNL     1      -4.645  -4.709 -16.852  1.00  0.00     0.124 S 
ATOM     74  O   UNL     1      -5.095  -5.080 -15.512  1.00  0.00    -0.237 OA
ATOM     75  O   UNL     1      -5.569  -3.896 -17.633  1.00  0.00    -0.237 OA
ATOM     76  O   UNL     1      -3.970  -5.773 -17.593  1.00  0.00    -0.744 OA
ENDBRANCH  69  73
ENDBRANCH  52  66
BRANCH  53  77
ATOM     77  C   UNL     1      -4.798   6.273  -9.387  1.00  0.00     0.023 A 
ATOM     78  C   UNL     1      -5.605   7.337  -9.820  1.00  0.00     0.031 A 
ATOM     79  C   UNL     1      -4.178   6.391  -8.130  1.00  0.00     0.131 A 
ATOM     80  C   UNL     1      -5.706   8.502  -9.044  1.00  0.00     0.055 A 
ATOM     81  C   UNL     1      -4.341   7.522  -7.328  1.00  0.00     0.041 A 
ATOM     82  F   UNL     1      -3.394   5.406  -7.662  1.00  0.00    -0.206 F 
ATOM     83  C   UNL     1      -5.092   8.596  -7.793  1.00  0.00     0.022 A 
BRANCH  80  84
ATOM     84  S   UNL     1      -6.529   9.951  -9.762  1.00  0.00     0.124 S 
ATOM     85  O   UNL     1      -5.794  10.117 -11.011  1.00  0.00    -0.237 OA
ATOM     86  O   UNL     1      -7.906   9.485  -9.884  1.00  0.00    -0.237 OA
ATOM     87  O   UNL     1      -6.309  10.995  -8.764  1.00  0.00    -0.744 OA
ENDBRANCH  80  84
ENDBRANCH  53  77
BRANCH  65  88
ATOM     88  C   UNL     1      -1.984   5.630 -15.748  1.00  0.00     0.023 A 
ATOM     89  C   UNL     1      -0.843   6.431 -15.575  1.00  0.00     0.031 A 
ATOM     90  C   UNL     1      -2.709   5.752 -16.947  1.00  0.00     0.131 A 
ATOM     91  C   UNL     1      -0.477   7.343 -16.577  1.00  0.00     0.055 A 
ATOM     92  C   UNL     1      -2.310   6.621 -17.961  1.00  0.00     0.041 A 
ATOM     93  F   UNL     1      -3.806   5.008 -17.160  1.00  0.00    -0.206 F 
ATOM     94  C   UNL     1      -1.192   7.428 -17.776  1.00  0.00     0.022 A 
BRANCH  91  95
ATOM     95  S   UNL     1       0.925   8.453 -16.279  1.00  0.00     0.124 S 
ATOM     96  O   UNL     1       0.470   9.214 -15.121  1.00  0.00    -0.237 OA
ATOM     97  O   UNL     1       2.020   7.519 -16.037  1.00  0.00    -0.237 OA
ATOM     98  O   UNL     1       1.029   9.217 -17.522  1.00  0.00    -0.744 OA
ENDBRANCH  91  95
ENDBRANCH  65  88
ENDBRANCH  39  40
ENDBRANCH  31  34
ENDBRANCH  29  30
ENDBRANCH  28  29
ENDBRANCH  27  28
ENDBRANCH   1  27
TORSDOF 19
