REMARK SMILES O=C(CNc1nc(-c2ccccc2)c(-c2ccccc2)s1)NCCCCCCNC(=O)c1ccc(-c2c3nc(c(-c4cc(S(=O)(=O)[O-])ccc4F)c4ccc([nH]4)c(-c4cc(S(=O)(=O)[O-])ccc4F)c4nc(c(-c5cc(S(=O)(=O)[O-])ccc5F)c5ccc2[nH]5)C=C4)C=C3)cc1
REMARK SMILES IDX 25 1 24 2 23 3 22 4 1 5 2 6 3 8 4 9 5 11 6 12 21 13 7 14
REMARK SMILES IDX 14 15 8 16 9 17 13 18 10 19 12 20 11 21 15 22 16 23 20 24
REMARK SMILES IDX 17 25 19 26 18 27 26 28 27 29 28 30 29 31 30 32 31 34 32 35
REMARK SMILES IDX 33 36 94 37 34 38 93 39 35 40 36 41 37 42 87 43 38 44 92 45
REMARK SMILES IDX 86 46 88 47 39 48 91 49 85 50 84 51 40 53 72 54 52 55 71 56
REMARK SMILES IDX 53 57 56 58 70 59 89 60 54 61 55 62 69 64 90 65 57 66 41 67
REMARK SMILES IDX 42 68 50 69 43 70 49 71 51 72 48 73 44 74 45 75 46 76 47 77
REMARK SMILES IDX 73 78 74 79 82 80 75 81 81 82 83 83 80 84 76 85 77 86 78 87
REMARK SMILES IDX 79 88 58 89 59 90 67 91 60 92 66 93 68 94 65 95 61 96 62 97
REMARK SMILES IDX 63 98 64 99
REMARK H PARENT 22 7 4 10 29 33 88 52 56 63
REMARK Flexibility Score: inf
ROOT
ATOM      1  C   UNL     1       4.165   3.170   1.668  1.00  0.00     0.002 C 
ENDROOT
BRANCH   1   2
ATOM      2  C   UNL     1       2.668   2.827   1.657  1.00  0.00     0.021 C 
BRANCH   2   3
ATOM      3  C   UNL     1       2.152   2.252   0.337  1.00  0.00     0.116 C 
BRANCH   3   4
ATOM      4  N   UNL     1       2.808   1.005   0.006  1.00  0.00    -0.355 N 
ATOM      5  O   UNL     1       0.963  -0.369   0.154  1.00  0.00    -0.273 OA
ATOM      6  C   UNL     1       2.161  -0.215  -0.060  1.00  0.00     0.239 C 
ATOM      7  H   UNL     1       3.774   1.027  -0.185  1.00  0.00     0.163 HD
BRANCH   6   8
ATOM      8  C   UNL     1       3.107  -1.382  -0.391  1.00  0.00     0.215 C 
BRANCH   8   9
ATOM      9  N   UNL     1       4.058  -0.958  -1.409  1.00  0.00    -0.352 N 
ATOM     10  H   UNL     1       3.734  -0.432  -2.176  1.00  0.00     0.163 HD
BRANCH   9  11
ATOM     11  C   UNL     1       5.365  -1.262  -1.334  1.00  0.00     0.184 A 
ATOM     12  N   UNL     1       5.897  -2.205  -0.592  1.00  0.00    -0.220 NA
ATOM     13  S   UNL     1       6.484  -0.332  -2.252  1.00  0.00    -0.096 S 
ATOM     14  C   UNL     1       7.278  -2.186  -0.722  1.00  0.00     0.091 A 
ATOM     15  C   UNL     1       7.785  -1.195  -1.550  1.00  0.00     0.064 A 
BRANCH  14  16
ATOM     16  C   UNL     1       8.122  -3.172  -0.061  1.00  0.00     0.002 A 
ATOM     17  C   UNL     1       9.144  -2.776   0.812  1.00  0.00     0.010 A 
ATOM     18  C   UNL     1       7.982  -4.526  -0.385  1.00  0.00     0.010 A 
ATOM     19  C   UNL     1      10.045  -3.717   1.314  1.00  0.00     0.001 A 
ATOM     20  C   UNL     1       8.886  -5.466   0.117  1.00  0.00     0.001 A 
ATOM     21  C   UNL     1       9.923  -5.059   0.957  1.00  0.00     0.000 A 
ENDBRANCH  14  16
BRANCH  15  22
ATOM     22  C   UNL     1       9.163  -0.852  -1.900  1.00  0.00    -0.006 A 
ATOM     23  C   UNL     1       9.695   0.395  -1.541  1.00  0.00     0.009 A 
ATOM     24  C   UNL     1       9.990  -1.789  -2.532  1.00  0.00     0.009 A 
ATOM     25  C   UNL     1      11.032   0.695  -1.806  1.00  0.00     0.001 A 
ATOM     26  C   UNL     1      11.327  -1.488  -2.795  1.00  0.00     0.001 A 
ATOM     27  C   UNL     1      11.847  -0.248  -2.430  1.00  0.00     0.000 A 
ENDBRANCH  15  22
ENDBRANCH   9  11
ENDBRANCH   8   9
ENDBRANCH   6   8
ENDBRANCH   3   4
ENDBRANCH   2   3
ENDBRANCH   1   2
BRANCH   1  28
ATOM     28  C   UNL     1       4.615   4.199   0.626  1.00  0.00     0.002 C 
BRANCH  28  29
ATOM     29  C   UNL     1       3.920   5.560   0.707  1.00  0.00     0.021 C 
BRANCH  29  30
ATOM     30  C   UNL     1       4.073   6.288   2.040  1.00  0.00     0.116 C 
BRANCH  30  31
ATOM     31  N   UNL     1       5.457   6.632   2.330  1.00  0.00    -0.352 N 
ATOM     32  C   UNL     1       6.006   7.848   2.658  1.00  0.00     0.251 C 
ATOM     33  H   UNL     1       6.093   5.882   2.286  1.00  0.00     0.163 HD
ATOM     34  O   UNL     1       7.229   7.972   2.685  1.00  0.00    -0.269 OA
BRANCH  32  35
ATOM     35  C   UNL     1       5.133   9.008   2.946  1.00  0.00     0.039 A 
ATOM     36  C   UNL     1       5.462  10.254   2.405  1.00  0.00     0.014 A 
ATOM     37  C   UNL     1       3.996   8.875   3.748  1.00  0.00     0.014 A 
ATOM     38  C   UNL     1       4.614  11.346   2.609  1.00  0.00     0.010 A 
ATOM     39  C   UNL     1       3.112   9.945   3.886  1.00  0.00     0.010 A 
ATOM     40  C   UNL     1       3.409  11.192   3.315  1.00  0.00    -0.014 A 
BRANCH  40  41
ATOM     41  C   UNL     1       2.448  12.321   3.455  1.00  0.00     0.031 A 
ATOM     42  C   UNL     1       2.114  12.872   4.815  1.00  0.00     0.074 A 
ATOM     43  C   UNL     1       1.835  12.813   2.359  1.00  0.00     0.049 A 
ATOM     44  N   UNL     1       1.256  13.806   5.142  1.00  0.00    -0.248 NA
ATOM     45  C   UNL     1       2.817  12.275   5.960  1.00  0.00     0.031 C 
ATOM     46  C   UNL     1       2.048  12.339   0.989  1.00  0.00     0.029 A 
ATOM     47  N   UNL     1       0.904  13.813   2.220  1.00  0.00    -0.354 N 
ATOM     48  C   UNL     1       1.311  13.903   6.529  1.00  0.00     0.074 A 
ATOM     49  C   UNL     1       2.238  12.888   6.982  1.00  0.00     0.031 C 
ATOM     50  C   UNL     1       1.295  13.067   0.149  1.00  0.00     0.029 A 
ATOM     51  C   UNL     1       0.503  14.021   0.920  1.00  0.00     0.049 A 
ATOM     52  H   UNL     1       0.556  14.333   2.980  1.00  0.00     0.167 HD
ATOM     53  C   UNL     1       0.665  14.774   7.345  1.00  0.00     0.034 A 
ATOM     54  C   UNL     1      -0.409  14.871   0.406  1.00  0.00     0.034 A 
ATOM     55  C   UNL     1      -0.255  15.782   6.876  1.00  0.00     0.049 A 
ATOM     56  C   UNL     1      -1.148  15.798   1.339  1.00  0.00     0.074 A 
ATOM     57  C   UNL     1      -0.924  16.746   7.612  1.00  0.00     0.029 A 
ATOM     58  N   UNL     1      -0.648  15.952   5.554  1.00  0.00    -0.354 N 
ATOM     59  N   UNL     1      -1.046  15.912   2.643  1.00  0.00    -0.248 NA
ATOM     60  C   UNL     1      -2.117  16.717   0.729  1.00  0.00     0.031 C 
ATOM     61  C   UNL     1      -1.780  17.441   6.751  1.00  0.00     0.029 A 
ATOM     62  C   UNL     1      -1.579  16.977   5.461  1.00  0.00     0.049 A 
ATOM     63  H   UNL     1      -0.315  15.422   4.795  1.00  0.00     0.167 HD
ATOM     64  C   UNL     1      -1.914  16.940   3.003  1.00  0.00     0.074 A 
ATOM     65  C   UNL     1      -2.516  17.421   1.777  1.00  0.00     0.031 C 
ATOM     66  C   UNL     1      -2.183  17.444   4.234  1.00  0.00     0.034 A 
BRANCH  53  67
ATOM     67  C   UNL     1       0.912  14.650   8.832  1.00  0.00     0.023 A 
ATOM     68  C   UNL     1       2.190  14.837   9.387  1.00  0.00     0.031 A 
ATOM     69  C   UNL     1      -0.141  14.324   9.705  1.00  0.00     0.131 A 
ATOM     70  C   UNL     1       2.398  14.621  10.758  1.00  0.00     0.055 A 
ATOM     71  C   UNL     1       0.055  14.197  11.082  1.00  0.00     0.041 A 
ATOM     72  F   UNL     1      -1.380  14.111   9.234  1.00  0.00    -0.206 F 
ATOM     73  C   UNL     1       1.334  14.331  11.614  1.00  0.00     0.022 A 
BRANCH  70  74
ATOM     74  S   UNL     1       4.102  14.576  11.379  1.00  0.00     0.124 S 
ATOM     75  O   UNL     1       4.683  13.509  10.568  1.00  0.00    -0.237 OA
ATOM     76  O   UNL     1       4.577  15.926  11.095  1.00  0.00    -0.237 OA
ATOM     77  O   UNL     1       3.942  14.255  12.796  1.00  0.00    -0.744 OA
ENDBRANCH  70  74
ENDBRANCH  53  67
BRANCH  54  78
ATOM     78  C   UNL     1      -0.694  14.881  -1.060  1.00  0.00     0.023 A 
ATOM     79  C   UNL     1      -0.445  16.022  -1.839  1.00  0.00     0.031 A 
ATOM     80  C   UNL     1      -1.267  13.764  -1.694  1.00  0.00     0.131 A 
ATOM     81  C   UNL     1      -0.814  16.040  -3.193  1.00  0.00     0.055 A 
ATOM     82  C   UNL     1      -1.575  13.765  -3.056  1.00  0.00     0.041 A 
ATOM     83  F   UNL     1      -1.526  12.645  -0.998  1.00  0.00    -0.206 F 
ATOM     84  C   UNL     1      -1.363  14.914  -3.810  1.00  0.00     0.022 A 
BRANCH  81  85
ATOM     85  S   UNL     1      -0.660  17.595  -4.115  1.00  0.00     0.124 S 
ATOM     86  O   UNL     1      -1.488  18.494  -3.320  1.00  0.00    -0.237 OA
ATOM     87  O   UNL     1       0.779  17.834  -4.066  1.00  0.00    -0.237 OA
ATOM     88  O   UNL     1      -1.189  17.261  -5.435  1.00  0.00    -0.744 OA
ENDBRANCH  81  85
ENDBRANCH  54  78
BRANCH  66  89
ATOM     89  C   UNL     1      -3.139  18.612   4.308  1.00  0.00     0.023 A 
ATOM     90  C   UNL     1      -4.494  18.490   3.952  1.00  0.00     0.031 A 
ATOM     91  C   UNL     1      -2.681  19.873   4.732  1.00  0.00     0.131 A 
ATOM     92  C   UNL     1      -5.327  19.619   3.969  1.00  0.00     0.055 A 
ATOM     93  C   UNL     1      -3.530  20.977   4.813  1.00  0.00     0.041 A 
ATOM     94  F   UNL     1      -1.396  20.052   5.079  1.00  0.00    -0.206 F 
ATOM     95  C   UNL     1      -4.859  20.857   4.417  1.00  0.00     0.022 A 
BRANCH  92  96
ATOM     96  S   UNL     1      -7.006  19.474   3.298  1.00  0.00     0.124 S 
ATOM     97  O   UNL     1      -6.749  19.025   1.933  1.00  0.00    -0.237 OA
ATOM     98  O   UNL     1      -7.614  18.491   4.189  1.00  0.00    -0.237 OA
ATOM     99  O   UNL     1      -7.540  20.830   3.415  1.00  0.00    -0.744 OA
ENDBRANCH  92  96
ENDBRANCH  66  89
ENDBRANCH  40  41
ENDBRANCH  32  35
ENDBRANCH  30  31
ENDBRANCH  29  30
ENDBRANCH  28  29
ENDBRANCH   1  28
TORSDOF 20
