REMARK SMILES CC(C)CCc1cc2c(cc1Cl)C=C(C(=O)NCCCCCCNC(=O)c1ccc(-c3c4nc(c(-c5cc(S(=O)(=O)[O-])ccc5F)c5ccc([nH]5)c(-c5cc(S(=O)(=O)[O-])ccc5F)c5nc(c(-c6cc(S(=O)(=O)[O-])ccc6F)c6ccc3[nH]6)C=C5)C=C4)cc1)[C@@H](C(F)(F)F)O2
REMARK SMILES IDX 20 1 19 2 18 3 17 4 15 5 16 6 14 8 6 9 7 10 11 11 8 12 10 13
REMARK SMILES IDX 12 14 9 15 95 16 13 17 90 18 5 19 4 20 2 21 1 22 3 23 91 24
REMARK SMILES IDX 92 25 93 26 94 27 21 28 22 29 23 30 24 31 25 32 26 34 27 35
REMARK SMILES IDX 28 36 89 37 29 38 88 39 30 40 31 41 32 42 82 43 33 44 87 45
REMARK SMILES IDX 81 46 83 47 34 48 86 49 80 50 79 51 35 53 67 54 47 55 66 56
REMARK SMILES IDX 48 57 51 58 65 59 84 60 49 61 50 62 64 64 85 65 52 66 36 67
REMARK SMILES IDX 37 68 45 69 38 70 44 71 46 72 43 73 39 74 40 75 41 76 42 77
REMARK SMILES IDX 68 78 69 79 77 80 70 81 76 82 78 83 75 84 71 85 72 86 73 87
REMARK SMILES IDX 74 88 53 89 54 90 62 91 55 92 61 93 63 94 60 95 56 96 57 97
REMARK SMILES IDX 58 98 59 99
REMARK H PARENT 17 7 24 33 83 52 51 63
REMARK Flexibility Score: inf
ROOT
ATOM      1  C   UNL     1       1.274  -1.675  12.241  1.00  0.00     0.002 C 
ENDROOT
BRANCH   1   2
ATOM      2  C   UNL     1       0.880  -1.186  10.843  1.00  0.00     0.021 C 
BRANCH   2   3
ATOM      3  C   UNL     1       1.748  -1.751   9.721  1.00  0.00     0.116 C 
BRANCH   3   4
ATOM      4  N   UNL     1       1.276  -3.052   9.274  1.00  0.00    -0.352 N 
ATOM      5  C   UNL     1       0.738  -3.585   8.153  1.00  0.00     0.251 C 
ATOM      6  O   UNL     1       0.501  -4.797   8.208  1.00  0.00    -0.270 OA
ATOM      7  H   UNL     1       1.374  -3.730   9.981  1.00  0.00     0.163 HD
BRANCH   5   8
ATOM      8  C   UNL     1       0.419  -2.833   6.903  1.00  0.00     0.067 C 
ATOM      9  C   UNL     1      -1.193  -1.455   2.308  1.00  0.00    -0.026 A 
ATOM     10  C   UNL     1      -0.804  -0.777   3.473  1.00  0.00     0.052 A 
ATOM     11  C   UNL     1      -1.308  -2.857   2.383  1.00  0.00     0.045 A 
ATOM     12  C   UNL     1      -0.449  -1.473   4.625  1.00  0.00     0.128 A 
ATOM     13  C   UNL     1      -0.987  -3.552   3.560  1.00  0.00     0.032 A 
ATOM     14  Cl  UNL     1      -1.870  -3.796   1.043  1.00  0.00    -0.084 Cl
ATOM     15  C   UNL     1      -0.539  -2.859   4.685  1.00  0.00     0.019 A 
ATOM     16  O   UNL     1      -0.044  -0.714   5.682  1.00  0.00    -0.475 OA
ATOM     17  C   UNL     1      -0.208  -3.533   5.936  1.00  0.00     0.025 C 
ATOM     18  C   UNL     1       0.780  -1.393   6.667  1.00  0.00     0.314 C 
BRANCH   9  19
ATOM     19  C   UNL     1      -1.520  -0.691   1.040  1.00  0.00     0.037 C 
BRANCH  19  20
ATOM     20  C   UNL     1      -0.930   0.727   0.891  1.00  0.00     0.008 C 
BRANCH  20  21
ATOM     21  C   UNL     1       0.612   0.805   0.891  1.00  0.00    -0.017 C 
ATOM     22  C   UNL     1       1.226   0.124  -0.331  1.00  0.00     0.007 C 
ATOM     23  C   UNL     1       1.059   2.268   0.958  1.00  0.00     0.007 C 
ENDBRANCH  20  21
ENDBRANCH  19  20
ENDBRANCH   9  19
BRANCH  18  24
ATOM     24  C   UNL     1       2.269  -1.214   6.312  1.00  0.00     0.429 C 
ATOM     25  F   UNL     1       2.623   0.092   6.372  1.00  0.00    -0.167 F 
ATOM     26  F   UNL     1       3.084  -1.873   7.171  1.00  0.00    -0.167 F 
ATOM     27  F   UNL     1       2.566  -1.662   5.071  1.00  0.00    -0.167 F 
ENDBRANCH  18  24
ENDBRANCH   5   8
ENDBRANCH   3   4
ENDBRANCH   2   3
ENDBRANCH   1   2
BRANCH   1  28
ATOM     28  C   UNL     1       2.727  -1.400  12.653  1.00  0.00     0.002 C 
BRANCH  28  29
ATOM     29  C   UNL     1       3.218   0.034  12.440  1.00  0.00     0.021 C 
BRANCH  29  30
ATOM     30  C   UNL     1       2.411   1.105  13.166  1.00  0.00     0.116 C 
BRANCH  30  31
ATOM     31  N   UNL     1       2.472   0.960  14.612  1.00  0.00    -0.352 N 
ATOM     32  C   UNL     1       2.830   1.885  15.562  1.00  0.00     0.251 C 
ATOM     33  H   UNL     1       2.221   0.073  14.959  1.00  0.00     0.163 HD
ATOM     34  O   UNL     1       2.981   1.540  16.731  1.00  0.00    -0.269 OA
BRANCH  32  35
ATOM     35  C   UNL     1       3.069   3.287  15.158  1.00  0.00     0.039 A 
ATOM     36  C   UNL     1       2.152   3.958  14.344  1.00  0.00     0.014 A 
ATOM     37  C   UNL     1       4.245   3.920  15.567  1.00  0.00     0.014 A 
ATOM     38  C   UNL     1       2.484   5.201  13.813  1.00  0.00     0.010 A 
ATOM     39  C   UNL     1       4.543   5.197  15.088  1.00  0.00     0.010 A 
ATOM     40  C   UNL     1       3.690   5.827  14.167  1.00  0.00    -0.014 A 
BRANCH  40  41
ATOM     41  C   UNL     1       4.067   7.125  13.551  1.00  0.00     0.031 A 
ATOM     42  C   UNL     1       5.255   7.208  12.631  1.00  0.00     0.074 A 
ATOM     43  C   UNL     1       3.323   8.220  13.797  1.00  0.00     0.049 A 
ATOM     44  N   UNL     1       5.770   8.256  12.043  1.00  0.00    -0.248 NA
ATOM     45  C   UNL     1       5.957   5.949  12.330  1.00  0.00     0.031 C 
ATOM     46  C   UNL     1       2.129   8.245  14.642  1.00  0.00     0.029 A 
ATOM     47  N   UNL     1       3.448   9.514  13.358  1.00  0.00    -0.354 N 
ATOM     48  C   UNL     1       6.863   7.791  11.320  1.00  0.00     0.074 A 
ATOM     49  C   UNL     1       6.956   6.369  11.565  1.00  0.00     0.031 C 
ATOM     50  C   UNL     1       1.611   9.482  14.631  1.00  0.00     0.029 A 
ATOM     51  C   UNL     1       2.474  10.357  13.842  1.00  0.00     0.049 A 
ATOM     52  H   UNL     1       4.167   9.812  12.754  1.00  0.00     0.167 HD
ATOM     53  C   UNL     1       7.702   8.487  10.517  1.00  0.00     0.034 A 
ATOM     54  C   UNL     1       2.306  11.687  13.689  1.00  0.00     0.034 A 
ATOM     55  C   UNL     1       7.582   9.900  10.269  1.00  0.00     0.049 A 
ATOM     56  C   UNL     1       3.290  12.450  12.839  1.00  0.00     0.074 A 
ATOM     57  C   UNL     1       8.380  10.696   9.466  1.00  0.00     0.029 A 
ATOM     58  N   UNL     1       6.605  10.726  10.806  1.00  0.00    -0.354 N 
ATOM     59  N   UNL     1       4.311  11.993  12.153  1.00  0.00    -0.248 NA
ATOM     60  C   UNL     1       3.109  13.905  12.743  1.00  0.00     0.031 C 
ATOM     61  C   UNL     1       7.918  12.009   9.559  1.00  0.00     0.029 A 
ATOM     62  C   UNL     1       6.792  12.025  10.367  1.00  0.00     0.049 A 
ATOM     63  H   UNL     1       5.885  10.431  11.410  1.00  0.00     0.167 HD
ATOM     64  C   UNL     1       4.878  13.098  11.525  1.00  0.00     0.074 A 
ATOM     65  C   UNL     1       4.075  14.244  11.898  1.00  0.00     0.031 C 
ATOM     66  C   UNL     1       5.967  13.156  10.719  1.00  0.00     0.034 A 
BRANCH  53  67
ATOM     67  C   UNL     1       8.823   7.752   9.826  1.00  0.00     0.023 A 
ATOM     68  C   UNL     1      10.162   8.065  10.129  1.00  0.00     0.031 A 
ATOM     69  C   UNL     1       8.571   6.849   8.779  1.00  0.00     0.131 A 
ATOM     70  C   UNL     1      11.197   7.505   9.369  1.00  0.00     0.055 A 
ATOM     71  C   UNL     1       9.607   6.266   8.048  1.00  0.00     0.041 A 
ATOM     72  F   UNL     1       7.311   6.517   8.455  1.00  0.00    -0.206 F 
ATOM     73  C   UNL     1      10.927   6.604   8.334  1.00  0.00     0.022 A 
BRANCH  70  74
ATOM     74  S   UNL     1      12.927   7.970   9.651  1.00  0.00     0.124 S 
ATOM     75  O   UNL     1      13.538   6.678   9.955  1.00  0.00    -0.237 OA
ATOM     76  O   UNL     1      13.302   8.550   8.365  1.00  0.00    -0.237 OA
ATOM     77  O   UNL     1      12.862   8.903  10.771  1.00  0.00    -0.744 OA
ENDBRANCH  70  74
ENDBRANCH  53  67
BRANCH  54  78
ATOM     78  C   UNL     1       1.136  12.353  14.333  1.00  0.00     0.023 A 
ATOM     79  C   UNL     1       0.967  12.332  15.730  1.00  0.00     0.031 A 
ATOM     80  C   UNL     1       0.116  12.924  13.554  1.00  0.00     0.131 A 
ATOM     81  C   UNL     1      -0.226  12.802  16.297  1.00  0.00     0.055 A 
ATOM     82  C   UNL     1      -1.039  13.458  14.129  1.00  0.00     0.041 A 
ATOM     83  F   UNL     1       0.226  12.959  12.217  1.00  0.00    -0.206 F 
ATOM     84  C   UNL     1      -1.223  13.380  15.506  1.00  0.00     0.022 A 
BRANCH  81  85
ATOM     85  S   UNL     1      -0.581  12.547  18.058  1.00  0.00     0.124 S 
ATOM     86  O   UNL     1      -0.691  13.917  18.547  1.00  0.00    -0.237 OA
ATOM     87  O   UNL     1      -1.832  11.793  18.004  1.00  0.00    -0.237 OA
ATOM     88  O   UNL     1       0.574  11.794  18.536  1.00  0.00    -0.744 OA
ENDBRANCH  81  85
ENDBRANCH  54  78
BRANCH  66  89
ATOM     89  C   UNL     1       6.377  14.489  10.145  1.00  0.00     0.023 A 
ATOM     90  C   UNL     1       6.348  14.687   8.751  1.00  0.00     0.031 A 
ATOM     91  C   UNL     1       6.968  15.478  10.948  1.00  0.00     0.131 A 
ATOM     92  C   UNL     1       6.949  15.823   8.197  1.00  0.00     0.055 A 
ATOM     93  C   UNL     1       7.524  16.632  10.394  1.00  0.00     0.041 A 
ATOM     94  F   UNL     1       7.028  15.327  12.281  1.00  0.00    -0.206 F 
ATOM     95  C   UNL     1       7.531  16.800   9.012  1.00  0.00     0.022 A 
BRANCH  92  96
ATOM     96  S   UNL     1       7.080  16.029   6.399  1.00  0.00     0.124 S 
ATOM     97  O   UNL     1       6.402  17.307   6.191  1.00  0.00    -0.237 OA
ATOM     98  O   UNL     1       8.526  16.050   6.198  1.00  0.00    -0.237 OA
ATOM     99  O   UNL     1       6.386  14.865   5.859  1.00  0.00    -0.744 OA
ENDBRANCH  92  96
ENDBRANCH  66  89
ENDBRANCH  40  41
ENDBRANCH  32  35
ENDBRANCH  30  31
ENDBRANCH  29  30
ENDBRANCH  28  29
ENDBRANCH   1  28
TORSDOF 20
