REMARK SMILES CCc1ccc(S(=O)(=O)N2CCC3(CC2)NC(=O)C[C@H]3C(=O)NCCCCCCNC(=O)c2ccc(-c3c4nc(c(-c5cc(S(=O)(=O)[O-])ccc5F)c5ccc([nH]5)c(-c5cc(S(=O)(=O)[O-])ccc5F)c5nc(c(-c6cc(S(=O)(=O)[O-])ccc6F)c6ccc3[nH]6)C=C5)C=C4)cc2)s1
REMARK SMILES IDX 26 1 25 2 24 3 23 4 21 5 22 6 20 8 10 9 11 10 15 11 12 12
REMARK SMILES IDX 14 13 13 14 16 15 17 16 19 18 18 19 7 20 8 21 9 22 6 23 3 24
REMARK SMILES IDX 4 25 96 26 5 27 2 28 1 29 27 30 28 31 29 32 30 33 31 34
REMARK SMILES IDX 32 36 33 37 34 38 95 39 35 40 94 41 36 42 37 43 38 44 88 45
REMARK SMILES IDX 39 46 93 47 87 48 89 49 40 50 92 51 86 52 85 53 41 55 73 56
REMARK SMILES IDX 53 57 72 58 54 59 57 60 71 61 90 62 55 63 56 64 70 66 91 67
REMARK SMILES IDX 58 68 42 69 43 70 51 71 44 72 50 73 52 74 49 75 45 76 46 77
REMARK SMILES IDX 47 78 48 79 74 80 75 81 83 82 76 83 82 84 84 85 81 86 77 87
REMARK SMILES IDX 78 88 79 89 80 90 59 91 60 92 68 93 61 94 67 95 69 96 66 97
REMARK SMILES IDX 62 98 63 99 64 100 65 101
REMARK H PARENT 23 7 16 17 30 35 89 54 57 65
REMARK Flexibility Score: inf
ROOT
ATOM      1  C   UNL     1       7.573  -0.420  -4.708  1.00  0.00     0.002 C 
ENDROOT
BRANCH   1   2
ATOM      2  C   UNL     1       6.078  -0.214  -4.944  1.00  0.00     0.021 C 
BRANCH   2   3
ATOM      3  C   UNL     1       5.725   0.363  -6.319  1.00  0.00     0.116 C 
BRANCH   3   4
ATOM      4  N   UNL     1       5.877  -0.595  -7.407  1.00  0.00    -0.356 N 
ATOM      5  C   UNL     1       5.025  -1.242  -8.245  1.00  0.00     0.226 C 
ATOM      6  O   UNL     1       5.548  -2.013  -9.059  1.00  0.00    -0.275 OA
ATOM      7  H   UNL     1       6.818  -0.829  -7.575  1.00  0.00     0.163 HD
BRANCH   5   8
ATOM      8  C   UNL     1       3.496  -1.098  -8.270  1.00  0.00     0.113 C 
ATOM      9  N   UNL     1       1.530  -3.765  -5.804  1.00  0.00    -0.197 NA
ATOM     10  C   UNL     1       0.862  -3.251  -6.996  1.00  0.00     0.105 C 
ATOM     11  C   UNL     1       2.982  -3.703  -5.894  1.00  0.00     0.105 C 
ATOM     12  C   UNL     1       1.218  -1.789  -7.248  1.00  0.00     0.046 C 
ATOM     13  C   UNL     1       3.435  -2.255  -5.949  1.00  0.00     0.046 C 
ATOM     14  C   UNL     1       2.697  -1.338  -6.965  1.00  0.00     0.055 C 
ATOM     15  N   UNL     1       2.591   0.050  -6.500  1.00  0.00    -0.350 N 
ATOM     16  C   UNL     1       2.672   0.991  -7.501  1.00  0.00     0.221 C 
ATOM     17  H   UNL     1       2.471   0.287  -5.553  1.00  0.00     0.164 HD
ATOM     18  C   UNL     1       3.096   0.303  -8.759  1.00  0.00     0.116 C 
ATOM     19  O   UNL     1       2.452   2.178  -7.351  1.00  0.00    -0.275 OA
BRANCH   9  20
ATOM     20  S   UNL     1       0.738  -4.033  -4.324  1.00  0.00     0.252 S 
ATOM     21  O   UNL     1       1.578  -4.883  -3.525  1.00  0.00    -0.206 OA
ATOM     22  O   UNL     1      -0.645  -4.371  -4.625  1.00  0.00    -0.206 OA
BRANCH  20  23
ATOM     23  C   UNL     1       0.640  -2.495  -3.420  1.00  0.00     0.135 A 
ATOM     24  C   UNL     1       0.212  -0.794  -1.663  1.00  0.00     0.006 A 
ATOM     25  C   UNL     1       0.842  -0.253  -2.759  1.00  0.00     0.017 A 
ATOM     26  S   UNL     1      -0.054  -2.487  -1.852  1.00  0.00    -0.127 S 
ATOM     27  C   UNL     1       1.026  -1.222  -3.759  1.00  0.00     0.034 A 
BRANCH  24  28
ATOM     28  C   UNL     1      -0.223  -0.030  -0.452  1.00  0.00     0.043 C 
ATOM     29  C   UNL     1       0.785  -0.123   0.679  1.00  0.00     0.010 C 
ENDBRANCH  24  28
ENDBRANCH  20  23
ENDBRANCH   9  20
ENDBRANCH   5   8
ENDBRANCH   3   4
ENDBRANCH   2   3
ENDBRANCH   1   2
BRANCH   1  30
ATOM     30  C   UNL     1       8.416   0.849  -4.844  1.00  0.00     0.002 C 
BRANCH  30  31
ATOM     31  C   UNL     1       7.950   2.031  -3.987  1.00  0.00     0.021 C 
BRANCH  31  32
ATOM     32  C   UNL     1       7.885   1.750  -2.487  1.00  0.00     0.116 C 
BRANCH  32  33
ATOM     33  N   UNL     1       9.170   1.318  -1.968  1.00  0.00    -0.352 N 
ATOM     34  C   UNL     1       9.968   1.885  -1.010  1.00  0.00     0.251 C 
ATOM     35  H   UNL     1       9.522   0.489  -2.367  1.00  0.00     0.163 HD
ATOM     36  O   UNL     1      11.137   1.519  -0.913  1.00  0.00    -0.269 OA
BRANCH  34  37
ATOM     37  C   UNL     1       9.436   2.929  -0.107  1.00  0.00     0.039 A 
ATOM     38  C   UNL     1      10.266   3.998   0.238  1.00  0.00     0.014 A 
ATOM     39  C   UNL     1       8.151   2.838   0.439  1.00  0.00     0.014 A 
ATOM     40  C   UNL     1       9.795   4.991   1.097  1.00  0.00     0.010 A 
ATOM     41  C   UNL     1       7.655   3.871   1.235  1.00  0.00     0.010 A 
ATOM     42  C   UNL     1       8.476   4.952   1.581  1.00  0.00    -0.014 A 
BRANCH  42  43
ATOM     43  C   UNL     1       7.966   6.053   2.441  1.00  0.00     0.031 A 
ATOM     44  C   UNL     1       7.576   5.800   3.871  1.00  0.00     0.074 A 
ATOM     45  C   UNL     1       7.849   7.289   1.917  1.00  0.00     0.049 A 
ATOM     46  N   UNL     1       7.172   6.650   4.781  1.00  0.00    -0.248 NA
ATOM     47  C   UNL     1       7.616   4.404   4.329  1.00  0.00     0.031 C 
ATOM     48  C   UNL     1       8.129   7.640   0.523  1.00  0.00     0.029 A 
ATOM     49  N   UNL     1       7.476   8.477   2.491  1.00  0.00    -0.354 N 
ATOM     50  C   UNL     1       6.920   5.896   5.922  1.00  0.00     0.074 A 
ATOM     51  C   UNL     1       7.134   4.511   5.558  1.00  0.00     0.031 C 
ATOM     52  C   UNL     1       7.958   8.961   0.361  1.00  0.00     0.029 A 
ATOM     53  C   UNL     1       7.524   9.545   1.626  1.00  0.00     0.049 A 
ATOM     54  H   UNL     1       7.199   8.558   3.432  1.00  0.00     0.167 HD
ATOM     55  C   UNL     1       6.573   6.321   7.164  1.00  0.00     0.034 A 
ATOM     56  C   UNL     1       7.255  10.849   1.827  1.00  0.00     0.034 A 
ATOM     57  C   UNL     1       6.347   7.708   7.501  1.00  0.00     0.049 A 
ATOM     58  C   UNL     1       6.875  11.303   3.211  1.00  0.00     0.074 A 
ATOM     59  C   UNL     1       6.022   8.259   8.728  1.00  0.00     0.029 A 
ATOM     60  N   UNL     1       6.409   8.767   6.600  1.00  0.00    -0.354 N 
ATOM     61  N   UNL     1       6.705  10.587   4.299  1.00  0.00    -0.248 NA
ATOM     62  C   UNL     1       6.677  12.744   3.398  1.00  0.00     0.031 C 
ATOM     63  C   UNL     1       5.819   9.634   8.556  1.00  0.00     0.029 A 
ATOM     64  C   UNL     1       6.102   9.961   7.239  1.00  0.00     0.049 A 
ATOM     65  H   UNL     1       6.638   8.681   5.646  1.00  0.00     0.167 HD
ATOM     66  C   UNL     1       6.400  11.497   5.308  1.00  0.00     0.074 A 
ATOM     67  C   UNL     1       6.441  12.812   4.699  1.00  0.00     0.031 C 
ATOM     68  C   UNL     1       6.113  11.266   6.616  1.00  0.00     0.034 A 
BRANCH  55  69
ATOM     69  C   UNL     1       6.398   5.261   8.231  1.00  0.00     0.023 A 
ATOM     70  C   UNL     1       7.453   4.403   8.598  1.00  0.00     0.031 A 
ATOM     71  C   UNL     1       5.153   5.064   8.854  1.00  0.00     0.131 A 
ATOM     72  C   UNL     1       7.220   3.334   9.476  1.00  0.00     0.055 A 
ATOM     73  C   UNL     1       4.952   4.056   9.802  1.00  0.00     0.041 A 
ATOM     74  F   UNL     1       4.099   5.832   8.536  1.00  0.00    -0.206 F 
ATOM     75  C   UNL     1       5.983   3.171  10.102  1.00  0.00     0.022 A 
BRANCH  72  76
ATOM     76  S   UNL     1       8.499   2.058   9.643  1.00  0.00     0.124 S 
ATOM     77  O   UNL     1       8.667   1.626   8.258  1.00  0.00    -0.237 OA
ATOM     78  O   UNL     1       9.612   2.802  10.221  1.00  0.00    -0.237 OA
ATOM     79  O   UNL     1       7.883   1.069  10.525  1.00  0.00    -0.744 OA
ENDBRANCH  72  76
ENDBRANCH  55  69
BRANCH  56  80
ATOM     80  C   UNL     1       7.344  11.811   0.692  1.00  0.00     0.023 A 
ATOM     81  C   UNL     1       8.313  12.826   0.666  1.00  0.00     0.031 A 
ATOM     82  C   UNL     1       6.449  11.725  -0.389  1.00  0.00     0.131 A 
ATOM     83  C   UNL     1       8.341  13.737  -0.402  1.00  0.00     0.055 A 
ATOM     84  C   UNL     1       6.514  12.601  -1.473  1.00  0.00     0.041 A 
ATOM     85  F   UNL     1       5.510  10.765  -0.418  1.00  0.00    -0.206 F 
ATOM     86  C   UNL     1       7.458  13.622  -1.478  1.00  0.00     0.022 A 
BRANCH  83  87
ATOM     87  S   UNL     1       9.515  15.119  -0.338  1.00  0.00     0.124 S 
ATOM     88  O   UNL     1       9.111  15.797   0.888  1.00  0.00    -0.237 OA
ATOM     89  O   UNL     1      10.798  14.424  -0.295  1.00  0.00    -0.237 OA
ATOM     90  O   UNL     1       9.247  15.850  -1.575  1.00  0.00    -0.744 OA
ENDBRANCH  83  87
ENDBRANCH  56  80
BRANCH  68  91
ATOM     91  C   UNL     1       5.847  12.482   7.476  1.00  0.00     0.023 A 
ATOM     92  C   UNL     1       4.759  13.339   7.229  1.00  0.00     0.031 A 
ATOM     93  C   UNL     1       6.724  12.819   8.522  1.00  0.00     0.131 A 
ATOM     94  C   UNL     1       4.627  14.532   7.955  1.00  0.00     0.055 A 
ATOM     95  C   UNL     1       6.543  13.968   9.293  1.00  0.00     0.041 A 
ATOM     96  F   UNL     1       7.783  12.042   8.804  1.00  0.00    -0.206 F 
ATOM     97  C   UNL     1       5.503  14.843   8.998  1.00  0.00     0.022 A 
BRANCH  94  98
ATOM     98  S   UNL     1       3.386  15.742   7.420  1.00  0.00     0.124 S 
ATOM     99  O   UNL     1       3.739  15.937   6.017  1.00  0.00    -0.237 OA
ATOM    100  O   UNL     1       2.134  15.034   7.670  1.00  0.00    -0.237 OA
ATOM    101  O   UNL     1       3.632  16.892   8.287  1.00  0.00    -0.744 OA
ENDBRANCH  94  98
ENDBRANCH  68  91
ENDBRANCH  42  43
ENDBRANCH  34  37
ENDBRANCH  32  33
ENDBRANCH  31  32
ENDBRANCH  30  31
ENDBRANCH   1  30
TORSDOF 19
