REMARK SMILES CCN(CC)C(=O)[C@@H]1CC=CC[C@H]1C(=O)Nc1ccc(C(=O)NCCCCCCNC(=O)c2ccc(-c3c4nc(c(-c5cc(S(=O)(=O)[O-])ccc5F)c5ccc([nH]5)c(-c5cc(S(=O)(=O)[O-])ccc5F)c5nc(c(-c6cc(S(=O)(=O)[O-])ccc6F)c6ccc3[nH]6)C=C5)C=C4)cc2)cc1
REMARK SMILES IDX 26 1 25 2 24 3 23 4 21 5 22 6 20 8 17 9 18 10 97 11 19 12
REMARK SMILES IDX 96 13 16 14 14 15 15 16 13 18 8 19 9 20 10 21 12 22 11 23
REMARK SMILES IDX 6 24 3 25 7 26 2 27 1 28 4 29 5 30 27 31 28 32 29 33 30 34
REMARK SMILES IDX 31 35 32 37 33 38 34 39 95 40 35 41 94 42 36 43 37 44 38 45
REMARK SMILES IDX 88 46 39 47 93 48 87 49 89 50 40 51 92 52 86 53 85 54 41 56
REMARK SMILES IDX 73 57 53 58 72 59 54 60 57 61 71 62 90 63 55 64 56 65 70 67
REMARK SMILES IDX 91 68 58 69 42 70 43 71 51 72 44 73 50 74 52 75 49 76 45 77
REMARK SMILES IDX 46 78 47 79 48 80 74 81 75 82 83 83 76 84 82 85 84 86 81 87
REMARK SMILES IDX 77 88 78 89 79 90 80 91 59 92 60 93 68 94 61 95 67 96 69 97
REMARK SMILES IDX 66 98 62 99 63 100 64 101 65 102
REMARK H PARENT 23 7 16 17 30 36 89 55 57 66
REMARK Flexibility Score: inf
ROOT
ATOM      1  C   UNL     1      -3.620  -0.251   1.384  1.00  0.00     0.002 C 
ENDROOT
BRANCH   1   2
ATOM      2  C   UNL     1      -2.114   0.009   1.531  1.00  0.00     0.021 C 
BRANCH   2   3
ATOM      3  C   UNL     1      -1.359  -1.131   2.219  1.00  0.00     0.116 C 
BRANCH   3   4
ATOM      4  N   UNL     1      -1.285  -2.293   1.345  1.00  0.00    -0.352 N 
ATOM      5  C   UNL     1      -0.237  -2.853   0.658  1.00  0.00     0.251 C 
ATOM      6  O   UNL     1      -0.423  -3.886   0.019  1.00  0.00    -0.269 OA
ATOM      7  H   UNL     1      -2.142  -2.762   1.225  1.00  0.00     0.163 HD
BRANCH   5   8
ATOM      8  C   UNL     1       1.135  -2.300   0.756  1.00  0.00     0.039 A 
ATOM      9  C   UNL     1       3.674  -1.389   1.421  1.00  0.00     0.041 A 
ATOM     10  C   UNL     1       3.471  -2.754   1.220  1.00  0.00     0.027 A 
ATOM     11  C   UNL     1       2.683  -0.476   1.072  1.00  0.00     0.027 A 
ATOM     12  C   UNL     1       2.188  -3.211   0.915  1.00  0.00     0.016 A 
ATOM     13  C   UNL     1       1.409  -0.932   0.729  1.00  0.00     0.016 A 
BRANCH   9  14
ATOM     14  N   UNL     1       4.866  -0.963   2.003  1.00  0.00    -0.326 N 
ATOM     15  C   UNL     1       5.086  -0.545   3.289  1.00  0.00     0.228 C 
ATOM     16  O   UNL     1       6.260  -0.298   3.596  1.00  0.00    -0.274 OA
ATOM     17  H   UNL     1       5.654  -0.963   1.413  1.00  0.00     0.169 HD
BRANCH  15  18
ATOM     18  C   UNL     1       3.994  -0.447   4.375  1.00  0.00     0.095 C 
ATOM     19  C   UNL     1       3.026   0.726   4.202  1.00  0.00     0.095 C 
ATOM     20  C   UNL     1       1.853   0.804   5.187  1.00  0.00     0.041 C 
ATOM     21  C   UNL     1       1.468  -0.511   5.797  1.00  0.00    -0.030 C 
ATOM     22  C   UNL     1       3.292  -1.784   4.648  1.00  0.00     0.041 C 
ATOM     23  C   UNL     1       2.104  -1.665   5.555  1.00  0.00    -0.030 C 
BRANCH  19  24
ATOM     24  C   UNL     1       3.667   2.093   3.973  1.00  0.00     0.226 C 
ATOM     25  N   UNL     1       4.676   2.620   4.770  1.00  0.00    -0.343 N 
ATOM     26  O   UNL     1       3.233   2.736   3.005  1.00  0.00    -0.275 OA
BRANCH  25  27
ATOM     27  C   UNL     1       5.360   3.797   4.210  1.00  0.00     0.116 C 
ATOM     28  C   UNL     1       6.248   3.426   3.026  1.00  0.00     0.027 C 
ENDBRANCH  25  27
BRANCH  25  29
ATOM     29  C   UNL     1       5.279   2.078   6.001  1.00  0.00     0.116 C 
ATOM     30  C   UNL     1       4.328   1.881   7.170  1.00  0.00     0.027 C 
ENDBRANCH  25  29
ENDBRANCH  19  24
ENDBRANCH  15  18
ENDBRANCH   9  14
ENDBRANCH   5   8
ENDBRANCH   3   4
ENDBRANCH   2   3
ENDBRANCH   1   2
BRANCH   1  31
ATOM     31  C   UNL     1      -4.392  -0.361   2.703  1.00  0.00     0.002 C 
BRANCH  31  32
ATOM     32  C   UNL     1      -4.275   0.853   3.631  1.00  0.00     0.021 C 
BRANCH  32  33
ATOM     33  C   UNL     1      -4.764   2.168   3.030  1.00  0.00     0.116 C 
BRANCH  33  34
ATOM     34  N   UNL     1      -6.187   2.137   2.744  1.00  0.00    -0.352 N 
ATOM     35  C   UNL     1      -7.170   3.029   3.096  1.00  0.00     0.251 C 
ATOM     36  H   UNL     1      -6.492   1.362   2.219  1.00  0.00     0.163 HD
ATOM     37  O   UNL     1      -8.347   2.713   2.949  1.00  0.00    -0.269 OA
BRANCH  35  38
ATOM     38  C   UNL     1      -6.819   4.352   3.663  1.00  0.00     0.039 A 
ATOM     39  C   UNL     1      -7.602   4.867   4.700  1.00  0.00     0.014 A 
ATOM     40  C   UNL     1      -5.765   5.111   3.144  1.00  0.00     0.014 A 
ATOM     41  C   UNL     1      -7.311   6.125   5.235  1.00  0.00     0.010 A 
ATOM     42  C   UNL     1      -5.434   6.336   3.724  1.00  0.00     0.010 A 
ATOM     43  C   UNL     1      -6.216   6.865   4.762  1.00  0.00    -0.014 A 
BRANCH  43  44
ATOM     44  C   UNL     1      -5.916   8.219   5.301  1.00  0.00     0.031 A 
ATOM     45  C   UNL     1      -6.045   9.425   4.407  1.00  0.00     0.074 A 
ATOM     46  C   UNL     1      -5.505   8.362   6.577  1.00  0.00     0.049 A 
ATOM     47  N   UNL     1      -5.774  10.680   4.662  1.00  0.00    -0.248 NA
ATOM     48  C   UNL     1      -6.515   9.182   3.034  1.00  0.00     0.031 C 
ATOM     49  C   UNL     1      -5.314   7.267   7.531  1.00  0.00     0.029 A 
ATOM     50  N   UNL     1      -5.169   9.485   7.291  1.00  0.00    -0.354 N 
ATOM     51  C   UNL     1      -6.034  11.373   3.483  1.00  0.00     0.074 A 
ATOM     52  C   UNL     1      -6.419  10.388   2.495  1.00  0.00     0.031 C 
ATOM     53  C   UNL     1      -4.916   7.775   8.709  1.00  0.00     0.029 A 
ATOM     54  C   UNL     1      -4.784   9.224   8.587  1.00  0.00     0.049 A 
ATOM     55  H   UNL     1      -5.200  10.393   6.912  1.00  0.00     0.167 HD
ATOM     56  C   UNL     1      -5.983  12.708   3.252  1.00  0.00     0.034 A 
ATOM     57  C   UNL     1      -4.367  10.058   9.560  1.00  0.00     0.034 A 
ATOM     58  C   UNL     1      -5.614  13.682   4.250  1.00  0.00     0.049 A 
ATOM     59  C   UNL     1      -4.309  11.539   9.273  1.00  0.00     0.074 A 
ATOM     60  C   UNL     1      -5.550  15.060   4.130  1.00  0.00     0.029 A 
ATOM     61  N   UNL     1      -5.249  13.382   5.556  1.00  0.00    -0.354 N 
ATOM     62  N   UNL     1      -4.590  12.178   8.160  1.00  0.00    -0.248 NA
ATOM     63  C   UNL     1      -3.898  12.412  10.380  1.00  0.00     0.031 C 
ATOM     64  C   UNL     1      -5.099  15.587   5.345  1.00  0.00     0.029 A 
ATOM     65  C   UNL     1      -4.947  14.545   6.246  1.00  0.00     0.049 A 
ATOM     66  H   UNL     1      -5.211  12.474   5.936  1.00  0.00     0.167 HD
ATOM     67  C   UNL     1      -4.423  13.531   8.449  1.00  0.00     0.074 A 
ATOM     68  C   UNL     1      -4.042  13.613   9.843  1.00  0.00     0.031 C 
ATOM     69  C   UNL     1      -4.570  14.609   7.638  1.00  0.00     0.034 A 
BRANCH  56  70
ATOM     70  C   UNL     1      -6.325  13.186   1.861  1.00  0.00     0.023 A 
ATOM     71  C   UNL     1      -7.612  13.016   1.320  1.00  0.00     0.031 A 
ATOM     72  C   UNL     1      -5.351  13.806   1.058  1.00  0.00     0.131 A 
ATOM     73  C   UNL     1      -7.872  13.397  -0.004  1.00  0.00     0.055 A 
ATOM     74  C   UNL     1      -5.639  14.255  -0.233  1.00  0.00     0.041 A 
ATOM     75  F   UNL     1      -4.100  13.978   1.511  1.00  0.00    -0.206 F 
ATOM     76  C   UNL     1      -6.902  14.040  -0.776  1.00  0.00     0.022 A 
BRANCH  73  77
ATOM     77  S   UNL     1      -9.461  12.931  -0.745  1.00  0.00     0.124 S 
ATOM     78  O   UNL     1      -9.394  11.473  -0.687  1.00  0.00    -0.237 OA
ATOM     79  O   UNL     1     -10.425  13.562   0.149  1.00  0.00    -0.237 OA
ATOM     80  O   UNL     1      -9.392  13.499  -2.089  1.00  0.00    -0.744 OA
ENDBRANCH  73  77
ENDBRANCH  56  70
BRANCH  57  81
ATOM     81  C   UNL     1      -3.960   9.532  10.896  1.00  0.00     0.023 A 
ATOM     82  C   UNL     1      -4.650   9.903  12.062  1.00  0.00     0.031 A 
ATOM     83  C   UNL     1      -2.825   8.714  11.038  1.00  0.00     0.131 A 
ATOM     84  C   UNL     1      -4.161   9.518  13.319  1.00  0.00     0.055 A 
ATOM     85  C   UNL     1      -2.378   8.281  12.288  1.00  0.00     0.041 A 
ATOM     86  F   UNL     1      -2.129   8.323   9.958  1.00  0.00    -0.206 F 
ATOM     87  C   UNL     1      -3.036   8.700  13.440  1.00  0.00     0.022 A 
BRANCH  84  88
ATOM     88  S   UNL     1      -4.947  10.206  14.803  1.00  0.00     0.124 S 
ATOM     89  O   UNL     1      -4.863  11.639  14.547  1.00  0.00    -0.237 OA
ATOM     90  O   UNL     1      -6.281   9.619  14.736  1.00  0.00    -0.237 OA
ATOM     91  O   UNL     1      -4.105   9.715  15.892  1.00  0.00    -0.744 OA
ENDBRANCH  84  88
ENDBRANCH  57  81
BRANCH  69  92
ATOM     92  C   UNL     1      -4.371  15.968   8.265  1.00  0.00     0.023 A 
ATOM     93  C   UNL     1      -3.119  16.381   8.753  1.00  0.00     0.031 A 
ATOM     94  C   UNL     1      -5.458  16.848   8.405  1.00  0.00     0.131 A 
ATOM     95  C   UNL     1      -3.000  17.608   9.422  1.00  0.00     0.055 A 
ATOM     96  C   UNL     1      -5.320  18.096   9.013  1.00  0.00     0.041 A 
ATOM     97  F   UNL     1      -6.677  16.506   7.956  1.00  0.00    -0.206 F 
ATOM     98  C   UNL     1      -4.090  18.475   9.542  1.00  0.00     0.022 A 
BRANCH  95  99
ATOM     99  S   UNL     1      -1.428  18.007  10.234  1.00  0.00     0.124 S 
ATOM    100  O   UNL     1      -1.248  16.866  11.126  1.00  0.00    -0.237 OA
ATOM    101  O   UNL     1      -0.506  18.085   9.106  1.00  0.00    -0.237 OA
ATOM    102  O   UNL     1      -1.699  19.279  10.901  1.00  0.00    -0.744 OA
ENDBRANCH  95  99
ENDBRANCH  69  92
ENDBRANCH  43  44
ENDBRANCH  35  38
ENDBRANCH  33  34
ENDBRANCH  32  33
ENDBRANCH  31  32
ENDBRANCH   1  31
TORSDOF 21
