REMARK SMILES Cc1ccc(S(=O)(=O)N2c3ccc(C(=O)NCCCCCCNC(=O)c4ccc(-c5c6nc(c(-c7cc(S(=O)(=O)[O-])ccc7F)c7ccc([nH]7)c(-c7cc(S(=O)(=O)[O-])ccc7F)c7nc(c(-c8cc(S(=O)(=O)[O-])ccc8F)c8ccc5[nH]8)C=C7)C=C6)cc4)cc3C[C@H]2C)cc1
REMARK SMILES IDX 20 1 19 2 18 3 17 4 16 5 14 6 15 7 13 9 9 10 10 11 92 12
REMARK SMILES IDX 11 13 90 14 91 15 93 16 12 17 89 18 6 19 7 20 8 21 5 22 1 23
REMARK SMILES IDX 2 24 3 25 95 26 4 27 94 28 21 29 22 30 23 31 24 32 25 34
REMARK SMILES IDX 26 35 27 36 88 37 28 38 87 39 29 40 30 41 31 42 81 43 32 44
REMARK SMILES IDX 86 45 80 46 82 47 33 48 85 49 79 50 78 51 34 53 66 54 46 55
REMARK SMILES IDX 65 56 47 57 50 58 64 59 83 60 48 61 49 62 63 64 84 65 51 66
REMARK SMILES IDX 35 67 36 68 44 69 37 70 43 71 45 72 42 73 38 74 39 75 40 76
REMARK SMILES IDX 41 77 67 78 68 79 76 80 69 81 75 82 77 83 74 84 70 85 71 86
REMARK SMILES IDX 72 87 73 88 52 89 53 90 61 91 54 92 60 93 62 94 59 95 55 96
REMARK SMILES IDX 56 97 57 98 58 99
REMARK H PARENT 16 8 23 33 82 52 50 63
REMARK Flexibility Score: inf
ROOT
ATOM      1  C   UNL     1     -13.301   0.155   2.248  1.00  0.00     0.002 C 
ENDROOT
BRANCH   1   2
ATOM      2  C   UNL     1     -12.813   1.493   2.820  1.00  0.00     0.002 C 
BRANCH   2   3
ATOM      3  C   UNL     1     -11.310   1.693   3.030  1.00  0.00     0.021 C 
BRANCH   3   4
ATOM      4  C   UNL     1     -10.370   1.335   1.883  1.00  0.00     0.116 C 
BRANCH   4   5
ATOM      5  N   UNL     1     -10.581   2.063   0.648  1.00  0.00    -0.352 N 
ATOM      6  C   UNL     1      -9.681   2.385  -0.342  1.00  0.00     0.251 C 
ATOM      7  O   UNL     1     -10.068   3.000  -1.335  1.00  0.00    -0.269 OA
ATOM      8  H   UNL     1     -11.503   2.373   0.495  1.00  0.00     0.163 HD
BRANCH   6   9
ATOM      9  C   UNL     1      -8.228   2.065  -0.221  1.00  0.00     0.040 A 
ATOM     10  N   UNL     1      -4.037   1.639   0.191  1.00  0.00    -0.263 N 
ATOM     11  C   UNL     1      -5.484   1.632   0.078  1.00  0.00     0.055 A 
ATOM     12  C   UNL     1      -3.630   3.008  -0.335  1.00  0.00     0.101 C 
ATOM     13  C   UNL     1      -6.367   0.678   0.552  1.00  0.00     0.028 A 
ATOM     14  C   UNL     1      -5.956   2.760  -0.588  1.00  0.00    -0.021 A 
ATOM     15  C   UNL     1      -4.826   3.558  -1.140  1.00  0.00     0.063 C 
ATOM     16  C   UNL     1      -3.332   3.918   0.863  1.00  0.00     0.032 C 
ATOM     17  C   UNL     1      -7.740   0.879   0.357  1.00  0.00     0.016 A 
ATOM     18  C   UNL     1      -7.316   2.996  -0.742  1.00  0.00     0.019 A 
BRANCH  10  19
ATOM     19  S   UNL     1      -3.317   0.271  -0.568  1.00  0.00     0.264 S 
ATOM     20  O   UNL     1      -3.380   0.475  -2.001  1.00  0.00    -0.201 OA
ATOM     21  O   UNL     1      -3.881  -0.925   0.035  1.00  0.00    -0.201 OA
BRANCH  19  22
ATOM     22  C   UNL     1      -1.575   0.202  -0.164  1.00  0.00     0.088 A 
ATOM     23  C   UNL     1       2.706  -0.180   0.168  1.00  0.00     0.044 C 
ATOM     24  C   UNL     1       1.213  -0.053   0.106  1.00  0.00    -0.051 A 
ATOM     25  C   UNL     1       0.424  -1.180  -0.142  1.00  0.00     0.005 A 
ATOM     26  C   UNL     1       0.587   1.183   0.294  1.00  0.00     0.005 A 
ATOM     27  C   UNL     1      -0.960  -1.054  -0.279  1.00  0.00     0.022 A 
ATOM     28  C   UNL     1      -0.801   1.311   0.167  1.00  0.00     0.022 A 
ENDBRANCH  19  22
ENDBRANCH  10  19
ENDBRANCH   6   9
ENDBRANCH   4   5
ENDBRANCH   3   4
ENDBRANCH   2   3
ENDBRANCH   1   2
BRANCH   1  29
ATOM     29  C   UNL     1     -12.723  -1.125   2.848  1.00  0.00     0.021 C 
BRANCH  29  30
ATOM     30  C   UNL     1     -12.957  -1.316   4.341  1.00  0.00     0.116 C 
BRANCH  30  31
ATOM     31  N   UNL     1     -14.012  -2.264   4.665  1.00  0.00    -0.352 N 
ATOM     32  C   UNL     1     -14.384  -2.776   5.900  1.00  0.00     0.251 C 
ATOM     33  H   UNL     1     -14.538  -2.588   3.898  1.00  0.00     0.163 HD
ATOM     34  O   UNL     1     -15.217  -3.656   5.992  1.00  0.00    -0.269 OA
BRANCH  32  35
ATOM     35  C   UNL     1     -13.843  -2.142   7.132  1.00  0.00     0.039 A 
ATOM     36  C   UNL     1     -14.769  -1.752   8.108  1.00  0.00     0.014 A 
ATOM     37  C   UNL     1     -12.510  -1.758   7.243  1.00  0.00     0.014 A 
ATOM     38  C   UNL     1     -14.411  -0.794   9.054  1.00  0.00     0.010 A 
ATOM     39  C   UNL     1     -12.177  -0.740   8.115  1.00  0.00     0.010 A 
ATOM     40  C   UNL     1     -13.144  -0.216   8.978  1.00  0.00    -0.014 A 
BRANCH  40  41
ATOM     41  C   UNL     1     -12.785   1.016   9.668  1.00  0.00     0.031 A 
ATOM     42  C   UNL     1     -11.910   0.995  10.855  1.00  0.00     0.074 A 
ATOM     43  C   UNL     1     -13.213   2.199   9.177  1.00  0.00     0.049 A 
ATOM     44  N   UNL     1     -11.885   1.918  11.755  1.00  0.00    -0.248 NA
ATOM     45  C   UNL     1     -11.008  -0.112  11.143  1.00  0.00     0.031 C 
ATOM     46  C   UNL     1     -12.766   3.536   9.555  1.00  0.00     0.029 A 
ATOM     47  N   UNL     1     -14.348   2.417   8.402  1.00  0.00    -0.354 N 
ATOM     48  C   UNL     1     -10.796   1.690  12.563  1.00  0.00     0.074 A 
ATOM     49  C   UNL     1     -10.326   0.376  12.183  1.00  0.00     0.031 C 
ATOM     50  C   UNL     1     -13.732   4.417   9.249  1.00  0.00     0.029 A 
ATOM     51  C   UNL     1     -14.882   3.656   8.794  1.00  0.00     0.049 A 
ATOM     52  H   UNL     1     -14.708   1.817   7.710  1.00  0.00     0.167 HD
ATOM     53  C   UNL     1     -10.333   2.695  13.362  1.00  0.00     0.034 A 
ATOM     54  C   UNL     1     -16.141   3.742   9.314  1.00  0.00     0.034 A 
ATOM     55  C   UNL     1     -11.185   3.883  13.280  1.00  0.00     0.049 A 
ATOM     56  C   UNL     1     -16.175   4.306  10.717  1.00  0.00     0.074 A 
ATOM     57  C   UNL     1     -11.065   5.086  12.604  1.00  0.00     0.029 A 
ATOM     58  N   UNL     1     -12.495   3.824  13.744  1.00  0.00    -0.354 N 
ATOM     59  N   UNL     1     -15.137   4.384  11.504  1.00  0.00    -0.248 NA
ATOM     60  C   UNL     1     -17.386   4.823  11.342  1.00  0.00     0.031 C 
ATOM     61  C   UNL     1     -12.330   5.731  12.624  1.00  0.00     0.029 A 
ATOM     62  C   UNL     1     -13.210   4.934  13.338  1.00  0.00     0.049 A 
ATOM     63  H   UNL     1     -12.863   3.090  14.287  1.00  0.00     0.167 HD
ATOM     64  C   UNL     1     -15.506   4.934  12.709  1.00  0.00     0.074 A 
ATOM     65  C   UNL     1     -16.924   5.210  12.544  1.00  0.00     0.031 C 
ATOM     66  C   UNL     1     -14.606   5.106  13.727  1.00  0.00     0.034 A 
BRANCH  53  67
ATOM     67  C   UNL     1      -8.949   2.713  13.980  1.00  0.00     0.023 A 
ATOM     68  C   UNL     1      -8.303   3.950  14.192  1.00  0.00     0.031 A 
ATOM     69  C   UNL     1      -8.198   1.577  14.334  1.00  0.00     0.131 A 
ATOM     70  C   UNL     1      -6.961   4.020  14.611  1.00  0.00     0.055 A 
ATOM     71  C   UNL     1      -6.844   1.640  14.693  1.00  0.00     0.041 A 
ATOM     72  F   UNL     1      -8.754   0.361  14.408  1.00  0.00    -0.206 F 
ATOM     73  C   UNL     1      -6.212   2.867  14.818  1.00  0.00     0.022 A 
BRANCH  70  74
ATOM     74  S   UNL     1      -6.203   5.646  14.889  1.00  0.00     0.124 S 
ATOM     75  O   UNL     1      -6.346   6.283  13.584  1.00  0.00    -0.237 OA
ATOM     76  O   UNL     1      -7.022   6.188  15.967  1.00  0.00    -0.237 OA
ATOM     77  O   UNL     1      -4.828   5.319  15.267  1.00  0.00    -0.744 OA
ENDBRANCH  70  74
ENDBRANCH  53  67
BRANCH  54  78
ATOM     78  C   UNL     1     -17.074   2.722   8.749  1.00  0.00     0.023 A 
ATOM     79  C   UNL     1     -17.219   2.702   7.344  1.00  0.00     0.031 A 
ATOM     80  C   UNL     1     -17.450   1.577   9.462  1.00  0.00     0.131 A 
ATOM     81  C   UNL     1     -17.536   1.509   6.681  1.00  0.00     0.055 A 
ATOM     82  C   UNL     1     -17.852   0.409   8.798  1.00  0.00     0.041 A 
ATOM     83  F   UNL     1     -17.310   1.523  10.795  1.00  0.00    -0.206 F 
ATOM     84  C   UNL     1     -17.847   0.356   7.402  1.00  0.00     0.022 A 
BRANCH  81  85
ATOM     85  S   UNL     1     -17.237   1.399   4.888  1.00  0.00     0.124 S 
ATOM     86  O   UNL     1     -18.548   1.728   4.340  1.00  0.00    -0.237 OA
ATOM     87  O   UNL     1     -16.188   2.394   4.668  1.00  0.00    -0.237 OA
ATOM     88  O   UNL     1     -16.799   0.018   4.699  1.00  0.00    -0.744 OA
ENDBRANCH  81  85
ENDBRANCH  54  78
BRANCH  66  89
ATOM     89  C   UNL     1     -14.912   5.530  15.157  1.00  0.00     0.023 A 
ATOM     90  C   UNL     1     -16.205   5.617  15.692  1.00  0.00     0.031 A 
ATOM     91  C   UNL     1     -13.864   5.811  16.074  1.00  0.00     0.131 A 
ATOM     92  C   UNL     1     -16.426   6.029  17.022  1.00  0.00     0.055 A 
ATOM     93  C   UNL     1     -14.082   6.152  17.414  1.00  0.00     0.041 A 
ATOM     94  F   UNL     1     -12.572   5.757  15.717  1.00  0.00    -0.206 F 
ATOM     95  C   UNL     1     -15.372   6.277  17.895  1.00  0.00     0.022 A 
BRANCH  92  96
ATOM     96  S   UNL     1     -18.136   6.281  17.569  1.00  0.00     0.124 S 
ATOM     97  O   UNL     1     -18.572   7.372  16.702  1.00  0.00    -0.237 OA
ATOM     98  O   UNL     1     -18.745   4.981  17.304  1.00  0.00    -0.237 OA
ATOM     99  O   UNL     1     -18.000   6.627  18.983  1.00  0.00    -0.744 OA
ENDBRANCH  92  96
ENDBRANCH  66  89
ENDBRANCH  40  41
ENDBRANCH  32  35
ENDBRANCH  30  31
ENDBRANCH  29  30
ENDBRANCH   1  29
TORSDOF 18
