REMARK SMILES O=C(NCCCCCCNC(=O)[C@@H]1CN(C(=O)CCC(F)(F)F)C[C@H]1c1ccc2c(c1)OCO2)c1ccc(-c2c3nc(c(-c4cc(S(=O)(=O)[O-])ccc4F)c4ccc([nH]4)c(-c4cc(S(=O)(=O)[O-])ccc4F)c4nc(c(-c5cc(S(=O)(=O)[O-])ccc5F)c5ccc2[nH]5)C=C4)C=C3)cc1
REMARK SMILES IDX 7 1 6 2 5 3 4 4 3 5 1 6 2 7 35 9 36 10 97 11 37 12 96 13
REMARK SMILES IDX 38 14 39 15 40 16 90 17 41 18 95 19 89 20 91 21 42 22 94 23
REMARK SMILES IDX 88 24 87 25 43 27 75 28 55 29 74 30 56 31 59 32 73 33 92 34
REMARK SMILES IDX 57 35 58 36 72 38 93 39 60 40 44 41 45 42 53 43 46 44 52 45
REMARK SMILES IDX 54 46 51 47 47 48 48 49 49 50 50 51 76 52 77 53 85 54 78 55
REMARK SMILES IDX 84 56 86 57 83 58 79 59 80 60 81 61 82 62 61 63 62 64 70 65
REMARK SMILES IDX 63 66 69 67 71 68 68 69 64 70 65 71 66 72 67 73 8 74 9 75
REMARK SMILES IDX 10 76 11 77 12 79 13 80 14 81 25 82 15 83 24 84 26 85 27 86
REMARK SMILES IDX 31 87 28 88 30 89 29 90 32 91 34 92 33 93 16 94 17 95 18 96
REMARK SMILES IDX 19 97 20 98 21 99 22 100 23 101
REMARK H PARENT 3 8 91 26 59 37 10 78
REMARK Flexibility Score: inf
ROOT
ATOM      1  C   UNL     1       4.359   3.793  -2.268  1.00  0.00     0.002 C 
ENDROOT
BRANCH   1   2
ATOM      2  C   UNL     1       3.930   2.536  -3.031  1.00  0.00     0.002 C 
BRANCH   2   3
ATOM      3  C   UNL     1       4.421   1.198  -2.484  1.00  0.00     0.021 C 
BRANCH   3   4
ATOM      4  C   UNL     1       4.168   0.956  -1.006  1.00  0.00     0.116 C 
BRANCH   4   5
ATOM      5  N   UNL     1       2.760   0.855  -0.668  1.00  0.00    -0.352 N 
ATOM      6  O   UNL     1       0.915  -0.088   0.226  1.00  0.00    -0.269 OA
ATOM      7  C   UNL     1       2.134  -0.083   0.125  1.00  0.00     0.251 C 
ATOM      8  H   UNL     1       2.176   1.547  -1.055  1.00  0.00     0.163 HD
BRANCH   7   9
ATOM      9  C   UNL     1       2.949  -1.103   0.829  1.00  0.00     0.039 A 
ATOM     10  C   UNL     1       4.125  -0.741   1.488  1.00  0.00     0.014 A 
ATOM     11  C   UNL     1       2.540  -2.440   0.813  1.00  0.00     0.014 A 
ATOM     12  C   UNL     1       4.965  -1.726   1.992  1.00  0.00     0.010 A 
ATOM     13  C   UNL     1       3.337  -3.420   1.416  1.00  0.00     0.010 A 
ATOM     14  C   UNL     1       4.570  -3.075   1.990  1.00  0.00    -0.014 A 
BRANCH  14  15
ATOM     15  C   UNL     1       5.436  -4.070   2.678  1.00  0.00     0.031 A 
ATOM     16  C   UNL     1       6.101  -5.190   1.927  1.00  0.00     0.074 A 
ATOM     17  C   UNL     1       5.660  -3.907   3.998  1.00  0.00     0.049 A 
ATOM     18  N   UNL     1       6.921  -6.106   2.378  1.00  0.00    -0.248 NA
ATOM     19  C   UNL     1       5.806  -5.305   0.492  1.00  0.00     0.031 C 
ATOM     20  C   UNL     1       5.050  -2.862   4.828  1.00  0.00     0.029 A 
ATOM     21  N   UNL     1       6.476  -4.582   4.867  1.00  0.00    -0.354 N 
ATOM     22  C   UNL     1       7.234  -6.913   1.289  1.00  0.00     0.074 A 
ATOM     23  C   UNL     1       6.487  -6.394   0.161  1.00  0.00     0.031 C 
ATOM     24  C   UNL     1       5.561  -2.926   6.064  1.00  0.00     0.029 A 
ATOM     25  C   UNL     1       6.471  -4.061   6.141  1.00  0.00     0.049 A 
ATOM     26  H   UNL     1       7.014  -5.364   4.606  1.00  0.00     0.167 HD
ATOM     27  C   UNL     1       8.072  -7.979   1.238  1.00  0.00     0.034 A 
ATOM     28  C   UNL     1       7.111  -4.461   7.257  1.00  0.00     0.034 A 
ATOM     29  C   UNL     1       8.806  -8.483   2.376  1.00  0.00     0.049 A 
ATOM     30  C   UNL     1       8.020  -5.656   7.170  1.00  0.00     0.074 A 
ATOM     31  C   UNL     1       9.683  -9.554   2.433  1.00  0.00     0.029 A 
ATOM     32  N   UNL     1       8.750  -7.955   3.660  1.00  0.00    -0.354 N 
ATOM     33  N   UNL     1       8.305  -6.401   6.127  1.00  0.00    -0.248 NA
ATOM     34  C   UNL     1       8.697  -6.058   8.407  1.00  0.00     0.031 C 
ATOM     35  C   UNL     1      10.111  -9.706   3.757  1.00  0.00     0.029 A 
ATOM     36  C   UNL     1       9.558  -8.688   4.517  1.00  0.00     0.049 A 
ATOM     37  H   UNL     1       8.214  -7.172   3.924  1.00  0.00     0.167 HD
ATOM     38  C   UNL     1       9.200  -7.362   6.585  1.00  0.00     0.074 A 
ATOM     39  C   UNL     1       9.440  -7.069   7.984  1.00  0.00     0.031 C 
ATOM     40  C   UNL     1       9.763  -8.400   5.917  1.00  0.00     0.034 A 
BRANCH  27  41
ATOM     41  C   UNL     1       8.214  -8.695  -0.085  1.00  0.00     0.023 A 
ATOM     42  C   UNL     1       8.805  -8.077  -1.200  1.00  0.00     0.031 A 
ATOM     43  C   UNL     1       7.760 -10.019  -0.231  1.00  0.00     0.131 A 
ATOM     44  C   UNL     1       8.881  -8.761  -2.424  1.00  0.00     0.055 A 
ATOM     45  C   UNL     1       7.900 -10.719  -1.432  1.00  0.00     0.041 A 
ATOM     46  F   UNL     1       7.171 -10.656   0.793  1.00  0.00    -0.206 F 
ATOM     47  C   UNL     1       8.454 -10.086  -2.541  1.00  0.00     0.022 A 
BRANCH  44  48
ATOM     48  S   UNL     1       9.452  -7.859  -3.890  1.00  0.00     0.124 S 
ATOM     49  O   UNL     1       8.447  -6.804  -3.997  1.00  0.00    -0.237 OA
ATOM     50  O   UNL     1      10.788  -7.428  -3.496  1.00  0.00    -0.237 OA
ATOM     51  O   UNL     1       9.407  -8.864  -4.951  1.00  0.00    -0.744 OA
ENDBRANCH  44  48
ENDBRANCH  27  41
BRANCH  28  52
ATOM     52  C   UNL     1       6.880  -3.758   8.551  1.00  0.00     0.023 A 
ATOM     53  C   UNL     1       7.927  -3.114   9.227  1.00  0.00     0.031 A 
ATOM     54  C   UNL     1       5.607  -3.755   9.151  1.00  0.00     0.131 A 
ATOM     55  C   UNL     1       7.694  -2.535  10.484  1.00  0.00     0.055 A 
ATOM     56  C   UNL     1       5.367  -3.124  10.371  1.00  0.00     0.041 A 
ATOM     57  F   UNL     1       4.569  -4.354   8.545  1.00  0.00    -0.206 F 
ATOM     58  C   UNL     1       6.418  -2.523  11.053  1.00  0.00     0.022 A 
BRANCH  55  59
ATOM     59  S   UNL     1       9.108  -1.886  11.416  1.00  0.00     0.124 S 
ATOM     60  O   UNL     1      10.002  -3.039  11.443  1.00  0.00    -0.237 OA
ATOM     61  O   UNL     1       9.531  -0.767  10.580  1.00  0.00    -0.237 OA
ATOM     62  O   UNL     1       8.526  -1.516  12.704  1.00  0.00    -0.744 OA
ENDBRANCH  55  59
ENDBRANCH  28  52
BRANCH  40  63
ATOM     63  C   UNL     1      10.704  -9.273   6.709  1.00  0.00     0.023 A 
ATOM     64  C   UNL     1      10.245 -10.058   7.781  1.00  0.00     0.031 A 
ATOM     65  C   UNL     1      12.081  -9.273   6.429  1.00  0.00     0.131 A 
ATOM     66  C   UNL     1      11.163 -10.749   8.584  1.00  0.00     0.055 A 
ATOM     67  C   UNL     1      12.983 -10.017   7.191  1.00  0.00     0.041 A 
ATOM     68  F   UNL     1      12.575  -8.539   5.419  1.00  0.00    -0.206 F 
ATOM     69  C   UNL     1      12.528 -10.745   8.287  1.00  0.00     0.022 A 
BRANCH  66  70
ATOM     70  S   UNL     1      10.562 -11.553  10.095  1.00  0.00     0.124 S 
ATOM     71  O   UNL     1       9.941 -10.438  10.805  1.00  0.00    -0.237 OA
ATOM     72  O   UNL     1       9.648 -12.561   9.569  1.00  0.00    -0.237 OA
ATOM     73  O   UNL     1      11.778 -12.080  10.710  1.00  0.00    -0.744 OA
ENDBRANCH  66  70
ENDBRANCH  40  63
ENDBRANCH  14  15
ENDBRANCH   7   9
ENDBRANCH   4   5
ENDBRANCH   3   4
ENDBRANCH   2   3
ENDBRANCH   1   2
BRANCH   1  74
ATOM     74  C   UNL     1       5.852   3.944  -1.949  1.00  0.00     0.021 C 
BRANCH  74  75
ATOM     75  C   UNL     1       6.811   3.697  -3.107  1.00  0.00     0.116 C 
BRANCH  75  76
ATOM     76  N   UNL     1       6.590   4.588  -4.225  1.00  0.00    -0.356 N 
ATOM     77  C   UNL     1       7.482   5.038  -5.148  1.00  0.00     0.225 C 
ATOM     78  H   UNL     1       5.668   4.913  -4.333  1.00  0.00     0.163 HD
ATOM     79  O   UNL     1       7.032   5.619  -6.137  1.00  0.00    -0.275 OA
BRANCH  77  80
ATOM     80  C   UNL     1       8.972   4.822  -4.945  1.00  0.00     0.107 C 
ATOM     81  C   UNL     1       9.723   6.046  -5.449  1.00  0.00     0.133 C 
ATOM     82  C   UNL     1       9.522   3.660  -5.799  1.00  0.00     0.053 C 
ATOM     83  N   UNL     1      10.997   5.553  -5.928  1.00  0.00    -0.341 N 
ATOM     84  C   UNL     1      10.916   4.137  -6.256  1.00  0.00     0.128 C 
BRANCH  82  85
ATOM     85  C   UNL     1       9.486   2.351  -5.027  1.00  0.00    -0.038 A 
ATOM     86  C   UNL     1       8.379   1.484  -5.204  1.00  0.00     0.008 A 
ATOM     87  C   UNL     1      10.459   2.016  -4.066  1.00  0.00     0.054 A 
ATOM     88  C   UNL     1       8.217   0.337  -4.419  1.00  0.00     0.051 A 
ATOM     89  C   UNL     1      10.284   0.865  -3.323  1.00  0.00     0.166 A 
ATOM     90  C   UNL     1       9.185   0.059  -3.483  1.00  0.00     0.165 A 
ATOM     91  O   UNL     1      11.120   0.413  -2.350  1.00  0.00    -0.454 OA
ATOM     92  O   UNL     1       9.175  -0.985  -2.614  1.00  0.00    -0.454 OA
ATOM     93  C   UNL     1      10.447  -0.807  -1.957  1.00  0.00     0.468 C 
ENDBRANCH  82  85
BRANCH  83  94
ATOM     94  C   UNL     1      12.121   6.283  -6.231  1.00  0.00     0.222 C 
ATOM     95  O   UNL     1      13.098   5.784  -6.790  1.00  0.00    -0.275 OA
BRANCH  94  96
ATOM     96  C   UNL     1      12.147   7.754  -5.863  1.00  0.00     0.109 C 
BRANCH  96  97
ATOM     97  C   UNL     1      12.002   8.659  -7.080  1.00  0.00     0.125 C 
BRANCH  97  98
ATOM     98  C   UNL     1      10.614   8.636  -7.675  1.00  0.00     0.389 C 
ATOM     99  F   UNL     1       9.683   8.912  -6.735  1.00  0.00    -0.171 F 
ATOM    100  F   UNL     1      10.501   9.575  -8.641  1.00  0.00    -0.171 F 
ATOM    101  F   UNL     1      10.318   7.446  -8.229  1.00  0.00    -0.171 F 
ENDBRANCH  97  98
ENDBRANCH  96  97
ENDBRANCH  94  96
ENDBRANCH  83  94
ENDBRANCH  77  80
ENDBRANCH  75  76
ENDBRANCH  74  75
ENDBRANCH   1  74
TORSDOF 21
