REMARK SMILES C[C@H](C(=O)NCCCCCCNC(=O)c1ccc(-c2c3nc(c(-c4cc(S(=O)(=O)[O-])ccc4F)c4ccc([nH]4)c(-c4cc(S(=O)(=O)[O-])ccc4F)c4nc(c(-c5cc(S(=O)(=O)[O-])ccc5F)c5ccc2[nH]5)C=C4)C=C3)cc1)c1ccc2c3cc(Cl)ccc3n(C(=O)c3ccc(Cl)cc3)c2c1
REMARK SMILES IDX 8 1 7 2 6 3 5 4 3 5 4 6 2 8 1 9 78 10 79 11 100 12 80 13
REMARK SMILES IDX 99 14 81 15 89 16 82 17 88 18 83 19 87 20 84 21 86 22 85 23
REMARK SMILES IDX 90 24 91 25 92 26 93 27 98 28 94 29 97 30 95 31 96 32 9 33
REMARK SMILES IDX 10 34 11 35 12 36 13 37 14 39 15 40 16 41 77 42 17 43 76 44
REMARK SMILES IDX 18 45 19 46 20 47 70 48 21 49 75 50 69 51 71 52 22 53 74 54
REMARK SMILES IDX 68 55 67 56 23 58 55 59 35 60 54 61 36 62 39 63 53 64 72 65
REMARK SMILES IDX 37 66 38 67 52 69 73 70 40 71 24 72 25 73 33 74 26 75 32 76
REMARK SMILES IDX 34 77 31 78 27 79 28 80 29 81 30 82 56 83 57 84 65 85 58 86
REMARK SMILES IDX 64 87 66 88 63 89 59 90 60 91 61 92 62 93 41 94 42 95 50 96
REMARK SMILES IDX 43 97 49 98 51 99 48 100 44 101 45 102 46 103 47 104
REMARK H PARENT 5 7 12 38 71 57 39 68
REMARK Flexibility Score: inf
ROOT
ATOM      1  C   UNL     1       2.576   2.800   3.038  1.00  0.00     0.002 C 
ENDROOT
BRANCH   1   2
ATOM      2  C   UNL     1       1.734   1.536   3.250  1.00  0.00     0.021 C 
BRANCH   2   3
ATOM      3  C   UNL     1       0.697   1.313   2.154  1.00  0.00     0.116 C 
BRANCH   3   4
ATOM      4  N   UNL     1       1.348   1.093   0.876  1.00  0.00    -0.356 N 
ATOM      5  C   UNL     1       1.406  -0.027   0.105  1.00  0.00     0.227 C 
ATOM      6  O   UNL     1       2.040   0.038  -0.953  1.00  0.00    -0.274 OA
ATOM      7  H   UNL     1       1.821   1.875   0.510  1.00  0.00     0.163 HD
BRANCH   5   8
ATOM      8  C   UNL     1       0.686  -1.312   0.512  1.00  0.00     0.105 C 
ATOM      9  C   UNL     1       1.229  -1.867   1.839  1.00  0.00     0.023 C 
BRANCH   8  10
ATOM     10  C   UNL     1      -0.839  -1.252   0.434  1.00  0.00    -0.034 A 
ATOM     11  C   UNL     1      -1.540  -0.111   0.029  1.00  0.00     0.005 A 
ATOM     12  C   UNL     1      -1.571  -2.406   0.757  1.00  0.00     0.032 A 
ATOM     13  C   UNL     1      -2.936  -0.096  -0.032  1.00  0.00     0.011 A 
ATOM     14  C   UNL     1      -2.981  -2.381   0.739  1.00  0.00     0.057 A 
ATOM     15  C   UNL     1      -3.665  -1.249   0.317  1.00  0.00     0.008 A 
ATOM     16  N   UNL     1      -3.921  -3.371   1.071  1.00  0.00    -0.276 N 
ATOM     17  C   UNL     1      -5.051  -1.543   0.367  1.00  0.00     0.009 A 
ATOM     18  C   UNL     1      -5.203  -2.824   0.916  1.00  0.00     0.057 A 
ATOM     19  C   UNL     1      -6.188  -0.772   0.040  1.00  0.00     0.031 A 
ATOM     20  C   UNL     1      -6.485  -3.286   1.277  1.00  0.00     0.029 A 
ATOM     21  C   UNL     1      -7.453  -1.262   0.339  1.00  0.00     0.041 A 
ATOM     22  C   UNL     1      -7.600  -2.488   0.975  1.00  0.00     0.023 A 
ATOM     23  Cl  UNL     1      -8.838  -0.317  -0.050  1.00  0.00    -0.084 Cl
BRANCH  16  24
ATOM     24  C   UNL     1      -3.540  -4.654   1.548  1.00  0.00     0.262 C 
ATOM     25  O   UNL     1      -2.474  -4.698   2.168  1.00  0.00    -0.268 OA
BRANCH  24  26
ATOM     26  C   UNL     1      -4.202  -5.979   1.349  1.00  0.00     0.040 A 
ATOM     27  C   UNL     1      -3.640  -7.072   2.043  1.00  0.00     0.015 A 
ATOM     28  C   UNL     1      -5.220  -6.232   0.426  1.00  0.00     0.015 A 
ATOM     29  C   UNL     1      -4.083  -8.379   1.833  1.00  0.00     0.021 A 
ATOM     30  C   UNL     1      -5.688  -7.544   0.237  1.00  0.00     0.021 A 
ATOM     31  C   UNL     1      -5.113  -8.610   0.932  1.00  0.00     0.041 A 
ATOM     32  Cl  UNL     1      -5.654 -10.218   0.653  1.00  0.00    -0.084 Cl
ENDBRANCH  24  26
ENDBRANCH  16  24
ENDBRANCH   8  10
ENDBRANCH   5   8
ENDBRANCH   3   4
ENDBRANCH   2   3
ENDBRANCH   1   2
BRANCH   1  33
ATOM     33  C   UNL     1       1.765   4.096   2.921  1.00  0.00     0.002 C 
BRANCH  33  34
ATOM     34  C   UNL     1       0.830   4.371   4.100  1.00  0.00     0.021 C 
BRANCH  34  35
ATOM     35  C   UNL     1       1.525   4.400   5.456  1.00  0.00     0.116 C 
BRANCH  35  36
ATOM     36  N   UNL     1       2.538   5.439   5.521  1.00  0.00    -0.352 N 
ATOM     37  C   UNL     1       2.691   6.442   6.447  1.00  0.00     0.251 C 
ATOM     38  H   UNL     1       3.209   5.423   4.801  1.00  0.00     0.163 HD
ATOM     39  O   UNL     1       3.466   7.364   6.230  1.00  0.00    -0.269 OA
BRANCH  37  40
ATOM     40  C   UNL     1       1.891   6.406   7.691  1.00  0.00     0.039 A 
ATOM     41  C   UNL     1       1.268   7.576   8.128  1.00  0.00     0.014 A 
ATOM     42  C   UNL     1       1.748   5.217   8.413  1.00  0.00     0.014 A 
ATOM     43  C   UNL     1       0.452   7.539   9.260  1.00  0.00     0.010 A 
ATOM     44  C   UNL     1       0.872   5.165   9.492  1.00  0.00     0.010 A 
ATOM     45  C   UNL     1       0.218   6.327   9.931  1.00  0.00    -0.014 A 
BRANCH  45  46
ATOM     46  C   UNL     1      -0.704   6.257  11.094  1.00  0.00     0.031 A 
ATOM     47  C   UNL     1      -0.181   5.855  12.446  1.00  0.00     0.074 A 
ATOM     48  C   UNL     1      -2.019   6.494  10.918  1.00  0.00     0.049 A 
ATOM     49  N   UNL     1      -0.835   5.664  13.563  1.00  0.00    -0.248 NA
ATOM     50  C   UNL     1       1.264   5.604  12.545  1.00  0.00     0.031 C 
ATOM     51  C   UNL     1      -2.648   6.849   9.644  1.00  0.00     0.029 A 
ATOM     52  N   UNL     1      -3.065   6.461  11.806  1.00  0.00    -0.354 N 
ATOM     53  C   UNL     1       0.116   5.259  14.494  1.00  0.00     0.074 A 
ATOM     54  C   UNL     1       1.377   5.168  13.790  1.00  0.00     0.031 C 
ATOM     55  C   UNL     1      -3.965   7.023   9.837  1.00  0.00     0.029 A 
ATOM     56  C   UNL     1      -4.285   6.739  11.233  1.00  0.00     0.049 A 
ATOM     57  H   UNL     1      -2.953   6.258  12.762  1.00  0.00     0.167 HD
ATOM     58  C   UNL     1      -0.045   5.010  15.818  1.00  0.00     0.034 A 
ATOM     59  C   UNL     1      -5.524   6.744  11.764  1.00  0.00     0.034 A 
ATOM     60  C   UNL     1      -1.313   5.111  16.501  1.00  0.00     0.049 A 
ATOM     61  C   UNL     1      -5.686   6.431  13.231  1.00  0.00     0.074 A 
ATOM     62  C   UNL     1      -1.581   4.940  17.848  1.00  0.00     0.029 A 
ATOM     63  N   UNL     1      -2.528   5.393  15.888  1.00  0.00    -0.354 N 
ATOM     64  N   UNL     1      -4.767   6.110  14.113  1.00  0.00    -0.248 NA
ATOM     65  C   UNL     1      -7.048   6.492  13.775  1.00  0.00     0.031 C 
ATOM     66  C   UNL     1      -2.964   5.034  18.035  1.00  0.00     0.029 A 
ATOM     67  C   UNL     1      -3.553   5.359  16.823  1.00  0.00     0.049 A 
ATOM     68  H   UNL     1      -2.645   5.589  14.931  1.00  0.00     0.167 HD
ATOM     69  C   UNL     1      -5.439   5.960  15.324  1.00  0.00     0.074 A 
ATOM     70  C   UNL     1      -6.835   6.241  15.059  1.00  0.00     0.031 C 
ATOM     71  C   UNL     1      -4.946   5.626  16.544  1.00  0.00     0.034 A 
BRANCH  58  72
ATOM     72  C   UNL     1       1.174   4.570  16.597  1.00  0.00     0.023 A 
ATOM     73  C   UNL     1       2.314   5.386  16.713  1.00  0.00     0.031 A 
ATOM     74  C   UNL     1       1.213   3.303  17.205  1.00  0.00     0.131 A 
ATOM     75  C   UNL     1       3.470   4.894  17.338  1.00  0.00     0.055 A 
ATOM     76  C   UNL     1       2.334   2.855  17.907  1.00  0.00     0.041 A 
ATOM     77  F   UNL     1       0.167   2.467  17.112  1.00  0.00    -0.206 F 
ATOM     78  C   UNL     1       3.478   3.644  17.960  1.00  0.00     0.022 A 
BRANCH  75  79
ATOM     79  S   UNL     1       5.010   5.839  17.175  1.00  0.00     0.124 S 
ATOM     80  O   UNL     1       5.150   5.926  15.723  1.00  0.00    -0.237 OA
ATOM     81  O   UNL     1       4.689   7.085  17.862  1.00  0.00    -0.237 OA
ATOM     82  O   UNL     1       6.001   4.995  17.839  1.00  0.00    -0.744 OA
ENDBRANCH  75  79
ENDBRANCH  58  72
BRANCH  59  83
ATOM     83  C   UNL     1      -6.710   7.030  10.905  1.00  0.00     0.023 A 
ATOM     84  C   UNL     1      -7.516   8.157  11.126  1.00  0.00     0.031 A 
ATOM     85  C   UNL     1      -7.073   6.155   9.865  1.00  0.00     0.131 A 
ATOM     86  C   UNL     1      -8.668   8.356  10.349  1.00  0.00     0.055 A 
ATOM     87  C   UNL     1      -8.186   6.389   9.057  1.00  0.00     0.041 A 
ATOM     88  F   UNL     1      -6.336   5.062   9.608  1.00  0.00    -0.206 F 
ATOM     89  C   UNL     1      -8.999   7.489   9.306  1.00  0.00     0.022 A 
BRANCH  86  90
ATOM     90  S   UNL     1      -9.782   9.722  10.780  1.00  0.00     0.124 S 
ATOM     91  O   UNL     1     -10.123   9.402  12.161  1.00  0.00    -0.237 OA
ATOM     92  O   UNL     1      -8.925  10.886  10.582  1.00  0.00    -0.237 OA
ATOM     93  O   UNL     1     -10.875   9.585   9.819  1.00  0.00    -0.744 OA
ENDBRANCH  86  90
ENDBRANCH  59  83
BRANCH  71  94
ATOM     94  C   UNL     1      -5.922   5.592  17.697  1.00  0.00     0.023 A 
ATOM     95  C   UNL     1      -6.967   4.654  17.760  1.00  0.00     0.031 A 
ATOM     96  C   UNL     1      -5.803   6.519  18.748  1.00  0.00     0.131 A 
ATOM     97  C   UNL     1      -7.884   4.699  18.821  1.00  0.00     0.055 A 
ATOM     98  C   UNL     1      -6.677   6.515  19.836  1.00  0.00     0.041 A 
ATOM     99  F   UNL     1      -4.828   7.442  18.739  1.00  0.00    -0.206 F 
ATOM    100  C   UNL     1      -7.734   5.610  19.870  1.00  0.00     0.022 A 
BRANCH  97 101
ATOM    101  S   UNL     1      -9.338   3.616  18.764  1.00  0.00     0.124 S 
ATOM    102  O   UNL     1      -9.966   4.018  17.510  1.00  0.00    -0.237 OA
ATOM    103  O   UNL     1      -8.737   2.286  18.779  1.00  0.00    -0.237 OA
ATOM    104  O   UNL     1     -10.080   3.973  19.972  1.00  0.00    -0.744 OA
ENDBRANCH  97 101
ENDBRANCH  71  94
ENDBRANCH  45  46
ENDBRANCH  37  40
ENDBRANCH  35  36
ENDBRANCH  34  35
ENDBRANCH  33  34
ENDBRANCH   1  33
TORSDOF 19
