REMARK SMILES O=C(CN1C(=O)CN(C(=O)OCC2c3ccccc3-c3ccccc32)c2ccccc21)NCCCCCCNC(=O)c1ccc(-c2c3nc(c(-c4cc(S(=O)(=O)[O-])ccc4F)c4ccc([nH]4)c(-c4cc(S(=O)(=O)[O-])ccc4F)c4nc(c(-c5cc(S(=O)(=O)[O-])ccc5F)c5ccc2[nH]5)C=C4)C=C3)cc1
REMARK SMILES IDX 34 1 33 2 32 3 1 4 2 5 3 7 4 8 5 9 31 10 6 11 7 12 26 13
REMARK SMILES IDX 30 14 8 15 27 16 29 17 28 18 9 19 10 20 11 21 12 22 13 23
REMARK SMILES IDX 14 24 25 25 15 26 19 27 20 28 24 29 16 30 18 31 21 32 23 33
REMARK SMILES IDX 17 34 22 35 35 36 36 37 37 38 38 39 39 40 40 41 41 43 42 44
REMARK SMILES IDX 43 45 104 46 44 47 103 48 45 49 46 50 47 51 97 52 48 53
REMARK SMILES IDX 102 54 96 55 98 56 49 57 101 58 95 59 94 60 50 62 82 63
REMARK SMILES IDX 62 64 81 65 63 66 66 67 80 68 99 69 64 70 65 71 79 73 100 74
REMARK SMILES IDX 67 75 51 76 52 77 60 78 53 79 59 80 61 81 58 82 54 83 55 84
REMARK SMILES IDX 56 85 57 86 83 87 84 88 92 89 85 90 91 91 93 92 90 93 86 94
REMARK SMILES IDX 87 95 88 96 89 97 68 98 69 99 77 100 70 101 76 102 78 103
REMARK SMILES IDX 75 104 71 105 72 106 73 107 74 108
REMARK H PARENT 32 6 39 42 98 61 66 72
REMARK Flexibility Score: inf
ROOT
ATOM      1  C   UNL     1       2.324   3.295  -1.366  1.00  0.00     0.021 C 
ENDROOT
BRANCH   1   2
ATOM      2  C   UNL     1       1.820   1.855  -1.526  1.00  0.00     0.116 C 
BRANCH   2   3
ATOM      3  N   UNL     1       2.612   0.948  -0.723  1.00  0.00    -0.355 N 
ATOM      4  O   UNL     1       0.936  -0.354   0.136  1.00  0.00    -0.273 OA
ATOM      5  C   UNL     1       2.125  -0.053   0.085  1.00  0.00     0.240 C 
ATOM      6  H   UNL     1       3.590   1.058  -0.759  1.00  0.00     0.163 HD
BRANCH   5   7
ATOM      7  C   UNL     1       3.214  -0.756   0.927  1.00  0.00     0.225 C 
BRANCH   7   8
ATOM      8  N   UNL     1       3.927  -1.815   0.203  1.00  0.00    -0.299 N 
ATOM      9  C   UNL     1       3.496  -3.123   0.401  1.00  0.00     0.247 C 
ATOM     10  C   UNL     1       4.906  -1.514  -0.797  1.00  0.00     0.068 A 
ATOM     11  O   UNL     1       2.718  -3.444   1.302  1.00  0.00    -0.272 OA
ATOM     12  C   UNL     1       4.247  -4.185  -0.375  1.00  0.00     0.229 C 
ATOM     13  C   UNL     1       5.169  -2.442  -1.830  1.00  0.00     0.071 A 
ATOM     14  C   UNL     1       5.546  -0.262  -0.823  1.00  0.00     0.028 A 
ATOM     15  N   UNL     1       4.672  -3.782  -1.712  1.00  0.00    -0.266 N 
ATOM     16  C   UNL     1       5.874  -1.988  -2.958  1.00  0.00     0.029 A 
ATOM     17  C   UNL     1       6.271   0.154  -1.938  1.00  0.00     0.002 A 
ATOM     18  C   UNL     1       6.394  -0.694  -3.024  1.00  0.00     0.002 A 
BRANCH  15  19
ATOM     19  C   UNL     1       4.633  -4.700  -2.758  1.00  0.00     0.414 C 
ATOM     20  O   UNL     1       5.156  -4.564  -3.860  1.00  0.00    -0.224 OA
BRANCH  19  21
ATOM     21  O   UNL     1       3.849  -5.786  -2.475  1.00  0.00    -0.448 OA
BRANCH  21  22
ATOM     22  C   UNL     1       3.416  -6.546  -3.621  1.00  0.00     0.248 C 
BRANCH  22  23
ATOM     23  C   UNL     1       2.041  -6.097  -4.176  1.00  0.00     0.088 C 
ATOM     24  C   UNL     1       0.900  -6.956  -3.629  1.00  0.00    -0.029 A 
ATOM     25  C   UNL     1       1.573  -4.696  -3.788  1.00  0.00    -0.029 A 
ATOM     26  C   UNL     1       0.694  -8.319  -3.797  1.00  0.00     0.005 A 
ATOM     27  C   UNL     1      -0.038  -6.152  -2.950  1.00  0.00    -0.014 A 
ATOM     28  C   UNL     1       0.395  -4.773  -3.013  1.00  0.00    -0.014 A 
ATOM     29  C   UNL     1       2.133  -3.468  -4.106  1.00  0.00     0.005 A 
ATOM     30  C   UNL     1      -0.468  -8.880  -3.266  1.00  0.00     0.000 A 
ATOM     31  C   UNL     1      -1.189  -6.711  -2.420  1.00  0.00     0.009 A 
ATOM     32  C   UNL     1      -0.175  -3.629  -2.478  1.00  0.00     0.009 A 
ATOM     33  C   UNL     1       1.566  -2.315  -3.558  1.00  0.00     0.000 A 
ATOM     34  C   UNL     1      -1.401  -8.084  -2.583  1.00  0.00     0.001 A 
ATOM     35  C   UNL     1       0.430  -2.397  -2.739  1.00  0.00     0.001 A 
ENDBRANCH  22  23
ENDBRANCH  21  22
ENDBRANCH  19  21
ENDBRANCH  15  19
ENDBRANCH   7   8
ENDBRANCH   5   7
ENDBRANCH   2   3
ENDBRANCH   1   2
BRANCH   1  36
ATOM     36  C   UNL     1       3.829   3.502  -1.615  1.00  0.00     0.002 C 
BRANCH  36  37
ATOM     37  C   UNL     1       4.326   3.123  -3.012  1.00  0.00     0.002 C 
BRANCH  37  38
ATOM     38  C   UNL     1       3.726   3.937  -4.157  1.00  0.00     0.021 C 
BRANCH  38  39
ATOM     39  C   UNL     1       3.926   5.447  -4.053  1.00  0.00     0.116 C 
BRANCH  39  40
ATOM     40  N   UNL     1       5.327   5.839  -4.105  1.00  0.00    -0.352 N 
ATOM     41  C   UNL     1       5.931   6.797  -4.887  1.00  0.00     0.251 C 
ATOM     42  H   UNL     1       5.926   5.351  -3.494  1.00  0.00     0.163 HD
ATOM     43  O   UNL     1       7.154   6.894  -4.900  1.00  0.00    -0.269 OA
BRANCH  41  44
ATOM     44  C   UNL     1       5.099   7.675  -5.740  1.00  0.00     0.039 A 
ATOM     45  C   UNL     1       5.446   7.844  -7.082  1.00  0.00     0.014 A 
ATOM     46  C   UNL     1       3.955   8.292  -5.226  1.00  0.00     0.014 A 
ATOM     47  C   UNL     1       4.594   8.555  -7.932  1.00  0.00     0.010 A 
ATOM     48  C   UNL     1       3.071   8.935  -6.089  1.00  0.00     0.010 A 
ATOM     49  C   UNL     1       3.374   9.060  -7.454  1.00  0.00    -0.014 A 
BRANCH  49  50
ATOM     50  C   UNL     1       2.384   9.689  -8.369  1.00  0.00     0.031 A 
ATOM     51  C   UNL     1       1.989  11.128  -8.187  1.00  0.00     0.074 A 
ATOM     52  C   UNL     1       1.774   8.936  -9.306  1.00  0.00     0.049 A 
ATOM     53  N   UNL     1       1.071  11.821  -8.810  1.00  0.00    -0.248 NA
ATOM     54  C   UNL     1       2.700  11.873  -7.139  1.00  0.00     0.031 C 
ATOM     55  C   UNL     1       2.032   7.514  -9.546  1.00  0.00     0.029 A 
ATOM     56  N   UNL     1       0.797   9.252 -10.217  1.00  0.00    -0.354 N 
ATOM     57  C   UNL     1       1.089  13.084  -8.228  1.00  0.00     0.074 A 
ATOM     58  C   UNL     1       2.059  13.031  -7.154  1.00  0.00     0.031 C 
ATOM     59  C   UNL     1       1.241   7.085 -10.541  1.00  0.00     0.029 A 
ATOM     60  C   UNL     1       0.386   8.183 -10.980  1.00  0.00     0.049 A 
ATOM     61  H   UNL     1       0.425  10.159 -10.316  1.00  0.00     0.167 HD
ATOM     62  C   UNL     1       0.382  14.190  -8.573  1.00  0.00     0.034 A 
ATOM     63  C   UNL     1      -0.586   8.087 -11.909  1.00  0.00     0.034 A 
ATOM     64  C   UNL     1      -0.587  14.220  -9.643  1.00  0.00     0.049 A 
ATOM     65  C   UNL     1      -1.389   9.314 -12.254  1.00  0.00     0.074 A 
ATOM     66  C   UNL     1      -1.319  15.295 -10.116  1.00  0.00     0.029 A 
ATOM     67  N   UNL     1      -0.974  13.118 -10.398  1.00  0.00    -0.354 N 
ATOM     68  N   UNL     1      -1.317  10.520 -11.737  1.00  0.00    -0.248 NA
ATOM     69  C   UNL     1      -2.397   9.171 -13.312  1.00  0.00     0.031 C 
ATOM     70  C   UNL     1      -2.197  14.832 -11.102  1.00  0.00     0.029 A 
ATOM     71  C   UNL     1      -1.961  13.481 -11.304  1.00  0.00     0.049 A 
ATOM     72  H   UNL     1      -0.602  12.212 -10.304  1.00  0.00     0.167 HD
ATOM     73  C   UNL     1      -2.259  11.283 -12.420  1.00  0.00     0.074 A 
ATOM     74  C   UNL     1      -2.872  10.406 -13.398  1.00  0.00     0.031 C 
ATOM     75  C   UNL     1      -2.585  12.591 -12.256  1.00  0.00     0.034 A 
BRANCH  62  76
ATOM     76  C   UNL     1       0.621  15.441  -7.759  1.00  0.00     0.023 A 
ATOM     77  C   UNL     1       1.891  16.043  -7.692  1.00  0.00     0.031 A 
ATOM     78  C   UNL     1      -0.415  16.013  -7.000  1.00  0.00     0.131 A 
ATOM     79  C   UNL     1       2.116  17.111  -6.811  1.00  0.00     0.055 A 
ATOM     80  C   UNL     1      -0.206  17.136  -6.196  1.00  0.00     0.041 A 
ATOM     81  F   UNL     1      -1.645  15.476  -7.006  1.00  0.00    -0.206 F 
ATOM     82  C   UNL     1       1.071  17.679  -6.081  1.00  0.00     0.022 A 
BRANCH  79  83
ATOM     83  S   UNL     1       3.829  17.624  -6.500  1.00  0.00     0.124 S 
ATOM     84  O   UNL     1       4.434  16.373  -6.046  1.00  0.00    -0.237 OA
ATOM     85  O   UNL     1       4.256  18.104  -7.808  1.00  0.00    -0.237 OA
ATOM     86  O   UNL     1       3.696  18.652  -5.469  1.00  0.00    -0.744 OA
ENDBRANCH  79  83
ENDBRANCH  62  76
BRANCH  63  87
ATOM     87  C   UNL     1      -0.874   6.775 -12.554  1.00  0.00     0.023 A 
ATOM     88  C   UNL     1      -0.633   6.566 -13.921  1.00  0.00     0.031 A 
ATOM     89  C   UNL     1      -1.407   5.709 -11.806  1.00  0.00     0.131 A 
ATOM     90  C   UNL     1      -0.955   5.330 -14.505  1.00  0.00     0.055 A 
ATOM     91  C   UNL     1      -1.680   4.467 -12.382  1.00  0.00     0.041 A 
ATOM     92  F   UNL     1      -1.648   5.855 -10.494  1.00  0.00    -0.206 F 
ATOM     93  C   UNL     1      -1.463   4.276 -13.743  1.00  0.00     0.022 A 
BRANCH  90  94
ATOM     94  S   UNL     1      -0.754   5.138 -16.298  1.00  0.00     0.124 S 
ATOM     95  O   UNL     1      -1.641   6.177 -16.810  1.00  0.00    -0.237 OA
ATOM     96  O   UNL     1       0.675   5.372 -16.470  1.00  0.00    -0.237 OA
ATOM     97  O   UNL     1      -1.192   3.765 -16.544  1.00  0.00    -0.744 OA
ENDBRANCH  90  94
ENDBRANCH  63  87
BRANCH  75  98
ATOM     98  C   UNL     1      -3.640  13.154 -13.178  1.00  0.00     0.023 A 
ATOM     99  C   UNL     1      -4.981  12.738 -13.107  1.00  0.00     0.031 A 
ATOM    100  C   UNL     1      -3.297  14.117 -14.143  1.00  0.00     0.131 A 
ATOM    101  C   UNL     1      -5.920  13.246 -14.018  1.00  0.00     0.055 A 
ATOM    102  C   UNL     1      -4.247  14.663 -15.008  1.00  0.00     0.041 A 
ATOM    103  F   UNL     1      -2.030  14.548 -14.258  1.00  0.00    -0.206 F 
ATOM    104  C   UNL     1      -5.565  14.219 -14.956  1.00  0.00     0.022 A 
BRANCH 101 105
ATOM    105  S   UNL     1      -7.599  12.559 -14.017  1.00  0.00     0.124 S 
ATOM    106  O   UNL     1      -7.349  11.149 -14.302  1.00  0.00    -0.237 OA
ATOM    107  O   UNL     1      -8.062  12.864 -12.667  1.00  0.00    -0.237 OA
ATOM    108  O   UNL     1      -8.273  13.297 -15.084  1.00  0.00    -0.744 OA
ENDBRANCH 101 105
ENDBRANCH  75  98
ENDBRANCH  49  50
ENDBRANCH  41  44
ENDBRANCH  39  40
ENDBRANCH  38  39
ENDBRANCH  37  38
ENDBRANCH  36  37
ENDBRANCH   1  36
TORSDOF 21
