REMARK SMILES [NH3+]CC[C@@H](C(=O)NCCCCCCNC(=O)c1ccc(-c2c3nc(c(-c4cc(S(=O)(=O)[O-])ccc4F)c4ccc([nH]4)c(-c4cc(S(=O)(=O)[O-])ccc4F)c4nc(c(-c5cc(S(=O)(=O)[O-])ccc5F)c5ccc2[nH]5)C=C4)C=C3)cc1)c1ccc(F)cc1
REMARK SMILES IDX 10 1 9 2 8 3 7 4 5 5 6 6 4 8 3 9 2 10 1 11 80 15 81 16 86 17
REMARK SMILES IDX 82 18 85 19 83 20 84 21 11 22 12 23 13 24 14 25 15 26 16 28
REMARK SMILES IDX 17 29 18 30 79 31 19 32 78 33 20 34 21 35 22 36 72 37 23 38
REMARK SMILES IDX 77 39 71 40 73 41 24 42 76 43 70 44 69 45 25 47 57 48 37 49
REMARK SMILES IDX 56 50 38 51 41 52 55 53 74 54 39 55 40 56 54 58 75 59 42 60
REMARK SMILES IDX 26 61 27 62 35 63 28 64 34 65 36 66 33 67 29 68 30 69 31 70
REMARK SMILES IDX 32 71 58 72 59 73 67 74 60 75 66 76 68 77 65 78 61 79 62 80
REMARK SMILES IDX 63 81 64 82 43 83 44 84 52 85 45 86 51 87 53 88 50 89 46 90
REMARK SMILES IDX 47 91 48 92 49 93
REMARK H PARENT 7 7 1 12 1 13 1 14 14 27 73 46 41 57
REMARK Flexibility Score: inf
ROOT
ATOM      1  C   UNL     1      -3.434  -0.861  -0.707  1.00  0.00     0.002 C 
ENDROOT
BRANCH   1   2
ATOM      2  C   UNL     1      -1.947  -0.891  -0.338  1.00  0.00     0.021 C 
BRANCH   2   3
ATOM      3  C   UNL     1      -1.527   0.213   0.638  1.00  0.00     0.116 C 
BRANCH   3   4
ATOM      4  N   UNL     1      -1.844  -0.197   1.990  1.00  0.00    -0.356 N 
ATOM      5  C   UNL     1      -1.049  -0.723   2.962  1.00  0.00     0.227 C 
ATOM      6  O   UNL     1      -1.634  -1.319   3.872  1.00  0.00    -0.274 OA
ATOM      7  H   UNL     1      -2.787  -0.075   2.248  1.00  0.00     0.163 HD
BRANCH   5   8
ATOM      8  C   UNL     1       0.486  -0.519   2.953  1.00  0.00     0.114 C 
BRANCH   8   9
ATOM      9  C   UNL     1       1.269  -1.649   2.239  1.00  0.00     0.079 C 
BRANCH   9  10
ATOM     10  C   UNL     1       1.427  -1.578   0.720  1.00  0.00     0.259 C 
BRANCH  10  11
ATOM     11  N   UNL     1       2.135  -0.407   0.227  1.00  0.00    -0.358 N 
ATOM     12  H   UNL     1       2.190  -0.448  -0.791  1.00  0.00     0.344 HD
ATOM     13  H   UNL     1       3.076  -0.390   0.618  1.00  0.00     0.344 HD
ATOM     14  H   UNL     1       1.634   0.436   0.507  1.00  0.00     0.344 HD
ENDBRANCH  10  11
ENDBRANCH   9  10
ENDBRANCH   8   9
BRANCH   8  15
ATOM     15  C   UNL     1       0.974  -0.424   4.415  1.00  0.00    -0.035 A 
ATOM     16  C   UNL     1       1.090  -1.583   5.212  1.00  0.00     0.007 A 
ATOM     17  C   UNL     1       1.250   0.822   5.000  1.00  0.00     0.007 A 
ATOM     18  C   UNL     1       1.485  -1.502   6.546  1.00  0.00     0.039 A 
ATOM     19  C   UNL     1       1.642   0.900   6.341  1.00  0.00     0.039 A 
ATOM     20  C   UNL     1       1.757  -0.261   7.099  1.00  0.00     0.123 A 
ATOM     21  F   UNL     1       2.124  -0.179   8.385  1.00  0.00    -0.207 F 
ENDBRANCH   8  15
ENDBRANCH   5   8
ENDBRANCH   3   4
ENDBRANCH   2   3
ENDBRANCH   1   2
BRANCH   1  22
ATOM     22  C   UNL     1      -3.855   0.341  -1.558  1.00  0.00     0.002 C 
BRANCH  22  23
ATOM     23  C   UNL     1      -3.055   0.537  -2.850  1.00  0.00     0.021 C 
BRANCH  23  24
ATOM     24  C   UNL     1      -3.034  -0.672  -3.783  1.00  0.00     0.116 C 
BRANCH  24  25
ATOM     25  N   UNL     1      -4.369  -1.025  -4.237  1.00  0.00    -0.352 N 
ATOM     26  C   UNL     1      -4.873  -1.065  -5.514  1.00  0.00     0.251 C 
ATOM     27  H   UNL     1      -5.003  -1.272  -3.527  1.00  0.00     0.163 HD
ATOM     28  O   UNL     1      -6.084  -1.150  -5.686  1.00  0.00    -0.269 OA
BRANCH  26  29
ATOM     29  C   UNL     1      -3.956  -0.992  -6.673  1.00  0.00     0.039 A 
ATOM     30  C   UNL     1      -4.291  -0.167  -7.750  1.00  0.00     0.014 A 
ATOM     31  C   UNL     1      -2.784  -1.752  -6.710  1.00  0.00     0.014 A 
ATOM     32  C   UNL     1      -3.422  -0.063  -8.840  1.00  0.00     0.010 A 
ATOM     33  C   UNL     1      -1.888  -1.597  -7.766  1.00  0.00     0.010 A 
ATOM     34  C   UNL     1      -2.200  -0.755  -8.844  1.00  0.00    -0.014 A 
BRANCH  34  35
ATOM     35  C   UNL     1      -1.239  -0.616  -9.970  1.00  0.00     0.031 A 
ATOM     36  C   UNL     1      -0.915  -1.805 -10.835  1.00  0.00     0.074 A 
ATOM     37  C   UNL     1      -0.612   0.560 -10.171  1.00  0.00     0.049 A 
ATOM     38  N   UNL     1      -0.049  -1.908 -11.810  1.00  0.00    -0.248 NA
ATOM     39  C   UNL     1      -1.642  -3.050 -10.543  1.00  0.00     0.031 C 
ATOM     40  C   UNL     1      -0.816   1.772  -9.373  1.00  0.00     0.029 A 
ATOM     41  N   UNL     1       0.332   0.930 -11.095  1.00  0.00    -0.354 N 
ATOM     42  C   UNL     1      -0.110  -3.232 -12.234  1.00  0.00     0.074 A 
ATOM     43  C   UNL     1      -1.063  -3.903 -11.375  1.00  0.00     0.031 C 
ATOM     44  C   UNL     1      -0.034   2.752  -9.854  1.00  0.00     0.029 A 
ATOM     45  C   UNL     1       0.759   2.232 -10.963  1.00  0.00     0.049 A 
ATOM     46  H   UNL     1       0.673   0.320 -11.789  1.00  0.00     0.167 HD
ATOM     47  C   UNL     1       0.556  -3.827 -13.255  1.00  0.00     0.034 A 
ATOM     48  C   UNL     1       1.694   2.922 -11.646  1.00  0.00     0.034 A 
ATOM     49  C   UNL     1       1.485  -3.135 -14.116  1.00  0.00     0.049 A 
ATOM     50  C   UNL     1       2.428   2.234 -12.771  1.00  0.00     0.074 A 
ATOM     51  C   UNL     1       2.153  -3.619 -15.227  1.00  0.00     0.029 A 
ATOM     52  N   UNL     1       1.886  -1.815 -13.958  1.00  0.00    -0.354 N 
ATOM     53  N   UNL     1       2.309   0.999 -13.202  1.00  0.00    -0.248 NA
ATOM     54  C   UNL     1       3.412   3.036 -13.508  1.00  0.00     0.031 C 
ATOM     55  C   UNL     1       3.009  -2.617 -15.697  1.00  0.00     0.029 A 
ATOM     56  C   UNL     1       2.818  -1.480 -14.928  1.00  0.00     0.049 A 
ATOM     57  H   UNL     1       1.556  -1.205 -13.258  1.00  0.00     0.167 HD
ATOM     58  C   UNL     1       3.179   0.889 -14.283  1.00  0.00     0.074 A 
ATOM     59  C   UNL     1       3.804   2.186 -14.446  1.00  0.00     0.031 C 
ATOM     60  C   UNL     1       3.437  -0.184 -15.073  1.00  0.00     0.034 A 
BRANCH  47  61
ATOM     61  C   UNL     1       0.326  -5.303 -13.476  1.00  0.00     0.023 A 
ATOM     62  C   UNL     1      -0.934  -5.813 -13.838  1.00  0.00     0.031 A 
ATOM     63  C   UNL     1       1.382  -6.217 -13.311  1.00  0.00     0.131 A 
ATOM     64  C   UNL     1      -1.121  -7.199 -13.954  1.00  0.00     0.055 A 
ATOM     65  C   UNL     1       1.207  -7.589 -13.506  1.00  0.00     0.041 A 
ATOM     66  F   UNL     1       2.602  -5.793 -12.947  1.00  0.00    -0.206 F 
ATOM     67  C   UNL     1      -0.054  -8.088 -13.816  1.00  0.00     0.022 A 
BRANCH  64  68
ATOM     68  S   UNL     1      -2.809  -7.831 -14.159  1.00  0.00     0.124 S 
ATOM     69  O   UNL     1      -3.462  -7.322 -12.955  1.00  0.00    -0.237 OA
ATOM     70  O   UNL     1      -3.224  -7.222 -15.417  1.00  0.00    -0.237 OA
ATOM     71  O   UNL     1      -2.630  -9.281 -14.197  1.00  0.00    -0.744 OA
ENDBRANCH  64  68
ENDBRANCH  47  61
BRANCH  48  72
ATOM     72  C   UNL     1       2.007   4.336 -11.290  1.00  0.00     0.023 A 
ATOM     73  C   UNL     1       1.776   5.379 -12.200  1.00  0.00     0.031 A 
ATOM     74  C   UNL     1       2.597   4.659 -10.054  1.00  0.00     0.131 A 
ATOM     75  C   UNL     1       2.183   6.685 -11.887  1.00  0.00     0.055 A 
ATOM     76  C   UNL     1       2.947   5.970  -9.724  1.00  0.00     0.041 A 
ATOM     77  F   UNL     1       2.836   3.702  -9.144  1.00  0.00    -0.206 F 
ATOM     78  C   UNL     1       2.755   6.990 -10.650  1.00  0.00     0.022 A 
BRANCH  75  79
ATOM     79  S   UNL     1       2.046   7.966 -13.165  1.00  0.00     0.124 S 
ATOM     80  O   UNL     1       2.821   7.383 -14.254  1.00  0.00    -0.237 OA
ATOM     81  O   UNL     1       0.603   8.036 -13.368  1.00  0.00    -0.237 OA
ATOM     82  O   UNL     1       2.642   9.141 -12.533  1.00  0.00    -0.744 OA
ENDBRANCH  75  79
ENDBRANCH  48  72
BRANCH  60  83
ATOM     83  C   UNL     1       4.401   0.024 -16.216  1.00  0.00     0.023 A 
ATOM     84  C   UNL     1       5.765   0.283 -15.998  1.00  0.00     0.031 A 
ATOM     85  C   UNL     1       3.941  -0.028 -17.544  1.00  0.00     0.131 A 
ATOM     86  C   UNL     1       6.610   0.538 -17.088  1.00  0.00     0.055 A 
ATOM     87  C   UNL     1       4.799   0.166 -18.627  1.00  0.00     0.041 A 
ATOM     88  F   UNL     1       2.647  -0.270 -17.811  1.00  0.00    -0.206 F 
ATOM     89  C   UNL     1       6.139   0.464 -18.402  1.00  0.00     0.022 A 
BRANCH  86  90
ATOM     90  S   UNL     1       8.317   1.058 -16.764  1.00  0.00     0.124 S 
ATOM     91  O   UNL     1       8.121   2.269 -15.973  1.00  0.00    -0.237 OA
ATOM     92  O   UNL     1       8.863  -0.090 -16.048  1.00  0.00    -0.237 OA
ATOM     93  O   UNL     1       8.870   1.274 -18.100  1.00  0.00    -0.744 OA
ENDBRANCH  86  90
ENDBRANCH  60  83
ENDBRANCH  34  35
ENDBRANCH  26  29
ENDBRANCH  24  25
ENDBRANCH  23  24
ENDBRANCH  22  23
ENDBRANCH   1  22
TORSDOF 20
