REMARK SMILES O=C(NCCCCCCNC(=O)[C@@H](c1ccccc1)N1C(=O)/C(=C\c2ccc(-c3ccc(F)cc3)o2)SC1=S)c1ccc(-c2c3nc(c(-c4cc(S(=O)(=O)[O-])ccc4F)c4ccc([nH]4)c(-c4cc(S(=O)(=O)[O-])ccc4F)c4nc(c(-c5cc(S(=O)(=O)[O-])ccc5F)c5ccc2[nH]5)C=C4)C=C3)cc1
REMARK SMILES IDX 6 1 5 2 4 3 3 4 1 5 2 6 40 8 41 9 102 10 42 11 101 12 43 13
REMARK SMILES IDX 44 14 45 15 95 16 46 17 100 18 94 19 96 20 47 21 99 22 93 23
REMARK SMILES IDX 92 24 48 26 80 27 60 28 79 29 61 30 64 31 78 32 97 33 62 34
REMARK SMILES IDX 63 35 77 37 98 38 65 39 49 40 50 41 58 42 51 43 57 44 59 45
REMARK SMILES IDX 56 46 52 47 53 48 54 49 55 50 81 51 82 52 90 53 83 54 89 55
REMARK SMILES IDX 91 56 88 57 84 58 85 59 86 60 87 61 66 62 67 63 75 64 68 65
REMARK SMILES IDX 74 66 76 67 73 68 69 69 70 70 71 71 72 72 7 73 8 74 9 75
REMARK SMILES IDX 10 76 11 77 12 79 13 80 14 81 15 82 19 83 16 84 18 85 17 86
REMARK SMILES IDX 20 87 21 88 38 89 22 90 23 91 37 92 39 93 24 94 25 95 26 96
REMARK SMILES IDX 36 97 27 98 28 99 29 100 30 101 35 102 31 103 34 104 32 105
REMARK SMILES IDX 33 106
REMARK H PARENT 3 7 96 25 64 36 10 78
REMARK Flexibility Score: inf
ROOT
ATOM      1  C   UNL     1       3.910   3.359   1.618  1.00  0.00     0.002 C 
ENDROOT
BRANCH   1   2
ATOM      2  C   UNL     1       4.483   2.482   0.503  1.00  0.00     0.021 C 
BRANCH   2   3
ATOM      3  C   UNL     1       4.346   0.987   0.762  1.00  0.00     0.116 C 
BRANCH   3   4
ATOM      4  N   UNL     1       2.948   0.589   0.807  1.00  0.00    -0.352 N 
ATOM      5  O   UNL     1       1.044  -0.255  -0.057  1.00  0.00    -0.269 OA
ATOM      6  C   UNL     1       2.270  -0.238  -0.053  1.00  0.00     0.251 C 
ATOM      7  H   UNL     1       2.420   0.960   1.550  1.00  0.00     0.163 HD
BRANCH   6   8
ATOM      8  C   UNL     1       3.039  -1.113  -0.962  1.00  0.00     0.039 A 
ATOM      9  C   UNL     1       4.138  -1.826  -0.475  1.00  0.00     0.014 A 
ATOM     10  C   UNL     1       2.638  -1.250  -2.293  1.00  0.00     0.014 A 
ATOM     11  C   UNL     1       4.893  -2.608  -1.339  1.00  0.00     0.010 A 
ATOM     12  C   UNL     1       3.346  -2.107  -3.139  1.00  0.00     0.010 A 
ATOM     13  C   UNL     1       4.475  -2.795  -2.665  1.00  0.00    -0.014 A 
BRANCH  13  14
ATOM     14  C   UNL     1       5.138  -3.837  -3.486  1.00  0.00     0.031 A 
ATOM     15  C   UNL     1       5.915  -3.485  -4.719  1.00  0.00     0.074 A 
ATOM     16  C   UNL     1       5.006  -5.121  -3.092  1.00  0.00     0.049 A 
ATOM     17  N   UNL     1       6.512  -4.284  -5.564  1.00  0.00    -0.248 NA
ATOM     18  C   UNL     1       6.035  -2.058  -5.054  1.00  0.00     0.031 C 
ATOM     19  C   UNL     1       4.262  -5.562  -1.906  1.00  0.00     0.029 A 
ATOM     20  N   UNL     1       5.482  -6.287  -3.631  1.00  0.00    -0.354 N 
ATOM     21  C   UNL     1       7.062  -3.465  -6.543  1.00  0.00     0.074 A 
ATOM     22  C   UNL     1       6.717  -2.103  -6.192  1.00  0.00     0.031 C 
ATOM     23  C   UNL     1       4.353  -6.894  -1.796  1.00  0.00     0.029 A 
ATOM     24  C   UNL     1       5.082  -7.412  -2.945  1.00  0.00     0.049 A 
ATOM     25  H   UNL     1       6.055  -6.318  -4.431  1.00  0.00     0.167 HD
ATOM     26  C   UNL     1       7.781  -3.830  -7.632  1.00  0.00     0.034 A 
ATOM     27  C   UNL     1       5.236  -8.718  -3.235  1.00  0.00     0.034 A 
ATOM     28  C   UNL     1       8.114  -5.199  -7.951  1.00  0.00     0.049 A 
ATOM     29  C   UNL     1       5.987  -9.085  -4.487  1.00  0.00     0.074 A 
ATOM     30  C   UNL     1       8.903  -5.670  -8.985  1.00  0.00     0.029 A 
ATOM     31  N   UNL     1       7.656  -6.314  -7.261  1.00  0.00    -0.354 N 
ATOM     32  N   UNL     1       6.560  -8.293  -5.364  1.00  0.00    -0.248 NA
ATOM     33  C   UNL     1       6.110 -10.514  -4.792  1.00  0.00     0.031 C 
ATOM     34  C   UNL     1       8.848  -7.067  -8.976  1.00  0.00     0.029 A 
ATOM     35  C   UNL     1       8.096  -7.472  -7.885  1.00  0.00     0.049 A 
ATOM     36  H   UNL     1       7.101  -6.287  -6.449  1.00  0.00     0.167 HD
ATOM     37  C   UNL     1       7.122  -9.133  -6.319  1.00  0.00     0.074 A 
ATOM     38  C   UNL     1       6.851 -10.490  -5.890  1.00  0.00     0.031 C 
ATOM     39  C   UNL     1       7.797  -8.816  -7.452  1.00  0.00     0.034 A 
BRANCH  26  40
ATOM     40  C   UNL     1       8.217  -2.755  -8.597  1.00  0.00     0.023 A 
ATOM     41  C   UNL     1       9.172  -1.783  -8.255  1.00  0.00     0.031 A 
ATOM     42  C   UNL     1       7.701  -2.742  -9.906  1.00  0.00     0.131 A 
ATOM     43  C   UNL     1       9.559  -0.822  -9.203  1.00  0.00     0.055 A 
ATOM     44  C   UNL     1       8.137  -1.824 -10.862  1.00  0.00     0.041 A 
ATOM     45  F   UNL     1       6.770  -3.634 -10.280  1.00  0.00    -0.206 F 
ATOM     46  C   UNL     1       9.068  -0.852 -10.511  1.00  0.00     0.022 A 
BRANCH  43  47
ATOM     47  S   UNL     1      10.655   0.527  -8.681  1.00  0.00     0.124 S 
ATOM     48  O   UNL     1       9.868   1.154  -7.622  1.00  0.00    -0.237 OA
ATOM     49  O   UNL     1      11.851  -0.187  -8.250  1.00  0.00    -0.237 OA
ATOM     50  O   UNL     1      10.811   1.332  -9.891  1.00  0.00    -0.744 OA
ENDBRANCH  43  47
ENDBRANCH  26  40
BRANCH  27  51
ATOM     51  C   UNL     1       4.607  -9.766  -2.380  1.00  0.00     0.023 A 
ATOM     52  C   UNL     1       5.383 -10.757  -1.762  1.00  0.00     0.031 A 
ATOM     53  C   UNL     1       3.209  -9.834  -2.227  1.00  0.00     0.131 A 
ATOM     54  C   UNL     1       4.754 -11.809  -1.078  1.00  0.00     0.055 A 
ATOM     55  C   UNL     1       2.594 -10.839  -1.481  1.00  0.00     0.041 A 
ATOM     56  F   UNL     1       2.416  -8.914  -2.799  1.00  0.00    -0.206 F 
ATOM     57  C   UNL     1       3.367 -11.848  -0.918  1.00  0.00     0.022 A 
BRANCH  54  58
ATOM     58  S   UNL     1       5.771 -13.204  -0.522  1.00  0.00     0.124 S 
ATOM     59  O   UNL     1       6.444 -13.590  -1.757  1.00  0.00    -0.237 OA
ATOM     60  O   UNL     1       6.608 -12.579   0.497  1.00  0.00    -0.237 OA
ATOM     61  O   UNL     1       4.788 -14.161  -0.019  1.00  0.00    -0.744 OA
ENDBRANCH  54  58
ENDBRANCH  27  51
BRANCH  39  62
ATOM     62  C   UNL     1       8.297  -9.965  -8.289  1.00  0.00     0.023 A 
ATOM     63  C   UNL     1       7.409 -10.828  -8.954  1.00  0.00     0.031 A 
ATOM     64  C   UNL     1       9.677 -10.207  -8.414  1.00  0.00     0.131 A 
ATOM     65  C   UNL     1       7.908 -11.923  -9.674  1.00  0.00     0.055 A 
ATOM     66  C   UNL     1      10.169 -11.260  -9.185  1.00  0.00     0.041 A 
ATOM     67  F   UNL     1      10.568  -9.418  -7.793  1.00  0.00    -0.206 F 
ATOM     68  C   UNL     1       9.283 -12.132  -9.810  1.00  0.00     0.022 A 
BRANCH  65  69
ATOM     69  S   UNL     1       6.732 -13.120 -10.361  1.00  0.00     0.124 S 
ATOM     70  O   UNL     1       6.063 -13.609  -9.160  1.00  0.00    -0.237 OA
ATOM     71  O   UNL     1       5.923 -12.291 -11.248  1.00  0.00    -0.237 OA
ATOM     72  O   UNL     1       7.590 -14.094 -11.034  1.00  0.00    -0.744 OA
ENDBRANCH  65  69
ENDBRANCH  39  62
ENDBRANCH  13  14
ENDBRANCH   6   8
ENDBRANCH   3   4
ENDBRANCH   2   3
ENDBRANCH   1   2
BRANCH   1  73
ATOM     73  C   UNL     1       4.527   3.126   3.002  1.00  0.00     0.002 C 
BRANCH  73  74
ATOM     74  C   UNL     1       6.056   3.169   3.032  1.00  0.00     0.021 C 
BRANCH  74  75
ATOM     75  C   UNL     1       6.642   4.522   2.624  1.00  0.00     0.116 C 
BRANCH  75  76
ATOM     76  N   UNL     1       6.741   5.392   3.777  1.00  0.00    -0.354 N 
ATOM     77  C   UNL     1       7.812   5.658   4.586  1.00  0.00     0.247 C 
ATOM     78  H   UNL     1       5.910   5.864   4.016  1.00  0.00     0.163 HD
ATOM     79  O   UNL     1       7.558   6.077   5.722  1.00  0.00    -0.272 OA
BRANCH  77  80
ATOM     80  C   UNL     1       9.292   5.337   4.158  1.00  0.00     0.211 C 
BRANCH  80  81
ATOM     81  C   UNL     1       9.621   3.924   4.637  1.00  0.00    -0.016 A 
ATOM     82  C   UNL     1       9.274   2.752   3.950  1.00  0.00     0.006 A 
ATOM     83  C   UNL     1      10.193   3.778   5.916  1.00  0.00     0.006 A 
ATOM     84  C   UNL     1       9.504   1.488   4.502  1.00  0.00     0.000 A 
ATOM     85  C   UNL     1      10.422   2.516   6.471  1.00  0.00     0.000 A 
ATOM     86  C   UNL     1      10.076   1.371   5.763  1.00  0.00     0.000 A 
ENDBRANCH  80  81
BRANCH  80  87
ATOM     87  N   UNL     1       9.545   5.778   2.762  1.00  0.00    -0.276 N 
ATOM     88  C   UNL     1       9.247   7.120   2.525  1.00  0.00     0.267 C 
ATOM     89  C   UNL     1      10.306   5.222   1.763  1.00  0.00     0.149 C 
ATOM     90  O   UNL     1       8.883   7.915   3.381  1.00  0.00    -0.268 OA
ATOM     91  C   UNL     1       9.480   7.491   1.102  1.00  0.00     0.084 C 
ATOM     92  S   UNL     1       9.985   6.086   0.252  1.00  0.00    -0.054 SA
ATOM     93  S   UNL     1      11.459   4.024   1.809  1.00  0.00    -0.052 S 
ATOM     94  C   UNL     1       9.396   8.702   0.534  1.00  0.00     0.068 C 
BRANCH  94  95
ATOM     95  C   UNL     1       9.236   9.901   1.279  1.00  0.00     0.128 A 
ATOM     96  C   UNL     1      10.076  10.427   2.255  1.00  0.00     0.051 A 
ATOM     97  O   UNL     1       8.210  10.799   1.083  1.00  0.00    -0.457 OA
ATOM     98  C   UNL     1       9.539  11.661   2.674  1.00  0.00     0.051 A 
ATOM     99  C   UNL     1       8.395  11.847   1.936  1.00  0.00     0.134 A 
BRANCH  99 100
ATOM    100  C   UNL     1       7.413  12.915   1.889  1.00  0.00     0.017 A 
ATOM    101  C   UNL     1       6.044  12.639   2.010  1.00  0.00     0.015 A 
ATOM    102  C   UNL     1       7.837  14.248   1.780  1.00  0.00     0.015 A 
ATOM    103  C   UNL     1       5.115  13.683   2.037  1.00  0.00     0.040 A 
ATOM    104  C   UNL     1       6.907  15.290   1.794  1.00  0.00     0.040 A 
ATOM    105  C   UNL     1       5.556  14.997   1.929  1.00  0.00     0.123 A 
ATOM    106  F   UNL     1       4.666  15.998   1.961  1.00  0.00    -0.207 F 
ENDBRANCH  99 100
ENDBRANCH  94  95
ENDBRANCH  80  87
ENDBRANCH  77  80
ENDBRANCH  75  76
ENDBRANCH  74  75
ENDBRANCH  73  74
ENDBRANCH   1  73
TORSDOF 20
