REMARK SMILES COc1ccc(C(=O)C2=C(NCCCCCCNC(=O)c3ccc(-c4c5nc(c(-c6cc(S(=O)(=O)[O-])ccc6F)c6ccc([nH]6)c(-c6cc(S(=O)(=O)[O-])ccc6F)c6nc(c(-c7cc(S(=O)(=O)[O-])ccc7F)c7ccc4[nH]7)C=C6)C=C5)cc3)C(=O)N(CC(=O)[O-])[C@H]2c2ccccc2)cc1
REMARK SMILES IDX 14 1 13 2 12 3 11 4 10 6 9 7 91 8 84 9 86 10 85 11 7 12 8 13
REMARK SMILES IDX 6 14 3 15 4 16 99 17 5 18 98 19 2 20 1 21 92 22 93 23 97 24
REMARK SMILES IDX 94 25 96 26 95 27 87 28 88 29 89 30 90 31 15 32 16 33 17 34
REMARK SMILES IDX 18 35 19 36 20 38 21 39 22 40 83 41 23 42 82 43 24 44 25 45
REMARK SMILES IDX 26 46 76 47 27 48 81 49 75 50 77 51 28 52 80 53 74 54 73 55
REMARK SMILES IDX 29 57 61 58 41 59 60 60 42 61 45 62 59 63 78 64 43 65 44 66
REMARK SMILES IDX 58 68 79 69 46 70 30 71 31 72 39 73 32 74 38 75 40 76 37 77
REMARK SMILES IDX 33 78 34 79 35 80 36 81 62 82 63 83 71 84 64 85 70 86 72 87
REMARK SMILES IDX 69 88 65 89 66 90 67 91 68 92 47 93 48 94 56 95 49 96 55 97
REMARK SMILES IDX 57 98 54 99 50 100 51 101 52 102 53 103
REMARK H PARENT 11 5 18 37 77 56 45 67
REMARK Flexibility Score: inf
ROOT
ATOM      1  C   UNL     1       0.987   0.864  -8.901  1.00  0.00     0.002 C 
ENDROOT
BRANCH   1   2
ATOM      2  C   UNL     1       0.712   0.093  -7.604  1.00  0.00     0.021 C 
BRANCH   2   3
ATOM      3  C   UNL     1       1.037  -1.400  -7.662  1.00  0.00     0.113 C 
BRANCH   3   4
ATOM      4  N   UNL     1       2.461  -1.583  -7.804  1.00  0.00    -0.380 N 
ATOM      5  H   UNL     1       2.865  -1.111  -8.568  1.00  0.00     0.160 HD
BRANCH   4   6
ATOM      6  C   UNL     1       3.338  -2.309  -7.046  1.00  0.00     0.110 C 
ATOM      7  C   UNL     1       3.277  -3.088  -5.958  1.00  0.00     0.056 C 
ATOM      8  C   UNL     1       4.577  -3.732  -5.580  1.00  0.00     0.153 C 
ATOM      9  C   UNL     1       4.777  -2.379  -7.475  1.00  0.00     0.271 C 
ATOM     10  N   UNL     1       5.435  -3.233  -6.628  1.00  0.00    -0.320 N 
ATOM     11  O   UNL     1       5.249  -1.774  -8.424  1.00  0.00    -0.267 OA
BRANCH   7  12
ATOM     12  C   UNL     1       2.023  -3.496  -5.305  1.00  0.00     0.193 C 
ATOM     13  O   UNL     1       1.445  -4.505  -5.700  1.00  0.00    -0.289 OA
BRANCH  12  14
ATOM     14  C   UNL     1       1.493  -2.727  -4.139  1.00  0.00     0.023 A 
ATOM     15  C   UNL     1       0.520  -1.501  -1.790  1.00  0.00     0.118 A 
ATOM     16  C   UNL     1      -0.220  -2.497  -2.429  1.00  0.00     0.047 A 
ATOM     17  C   UNL     1       1.722  -1.084  -2.357  1.00  0.00     0.047 A 
ATOM     18  C   UNL     1       0.263  -3.112  -3.590  1.00  0.00     0.016 A 
ATOM     19  C   UNL     1       2.187  -1.672  -3.541  1.00  0.00     0.016 A 
BRANCH  15  20
ATOM     20  O   UNL     1      -0.026  -1.026  -0.631  1.00  0.00    -0.497 OA
ATOM     21  C   UNL     1       0.652   0.049   0.008  1.00  0.00     0.278 C 
ENDBRANCH  15  20
ENDBRANCH  12  14
ENDBRANCH   7  12
BRANCH   8  22
ATOM     22  C   UNL     1       5.085  -3.325  -4.204  1.00  0.00    -0.021 A 
ATOM     23  C   UNL     1       5.617  -2.041  -3.965  1.00  0.00     0.006 A 
ATOM     24  C   UNL     1       4.997  -4.220  -3.129  1.00  0.00     0.006 A 
ATOM     25  C   UNL     1       6.024  -1.658  -2.688  1.00  0.00     0.000 A 
ATOM     26  C   UNL     1       5.418  -3.838  -1.853  1.00  0.00     0.000 A 
ATOM     27  C   UNL     1       5.924  -2.558  -1.632  1.00  0.00     0.000 A 
ENDBRANCH   8  22
BRANCH  10  28
ATOM     28  C   UNL     1       6.845  -3.565  -6.764  1.00  0.00     0.173 C 
BRANCH  28  29
ATOM     29  C   UNL     1       7.168  -4.537  -7.888  1.00  0.00     0.061 C 
ATOM     30  O   UNL     1       8.296  -4.832  -8.256  1.00  0.00    -0.548 OA
ATOM     31  O   UNL     1       6.100  -5.149  -8.436  1.00  0.00    -0.548 OA
ENDBRANCH  28  29
ENDBRANCH  10  28
ENDBRANCH   4   6
ENDBRANCH   3   4
ENDBRANCH   2   3
ENDBRANCH   1   2
BRANCH   1  32
ATOM     32  C   UNL     1       0.258   0.345 -10.144  1.00  0.00     0.002 C 
BRANCH  32  33
ATOM     33  C   UNL     1      -1.258   0.198 -10.002  1.00  0.00     0.021 C 
BRANCH  33  34
ATOM     34  C   UNL     1      -1.995   1.466  -9.580  1.00  0.00     0.116 C 
BRANCH  34  35
ATOM     35  N   UNL     1      -1.871   2.531 -10.560  1.00  0.00    -0.352 N 
ATOM     36  C   UNL     1      -2.854   3.298 -11.138  1.00  0.00     0.251 C 
ATOM     37  H   UNL     1      -0.953   2.732 -10.852  1.00  0.00     0.163 HD
ATOM     38  O   UNL     1      -2.576   4.034 -12.080  1.00  0.00    -0.269 OA
BRANCH  36  39
ATOM     39  C   UNL     1      -4.247   3.213 -10.643  1.00  0.00     0.039 A 
ATOM     40  C   UNL     1      -5.288   3.127 -11.571  1.00  0.00     0.014 A 
ATOM     41  C   UNL     1      -4.529   3.222  -9.274  1.00  0.00     0.014 A 
ATOM     42  C   UNL     1      -6.605   2.989 -11.126  1.00  0.00     0.010 A 
ATOM     43  C   UNL     1      -5.834   3.014  -8.832  1.00  0.00     0.010 A 
ATOM     44  C   UNL     1      -6.887   2.897  -9.753  1.00  0.00    -0.014 A 
BRANCH  44  45
ATOM     45  C   UNL     1      -8.275   2.684  -9.264  1.00  0.00     0.031 A 
ATOM     46  C   UNL     1      -8.953   3.738  -8.431  1.00  0.00     0.074 A 
ATOM     47  C   UNL     1      -8.903   1.519  -9.521  1.00  0.00     0.049 A 
ATOM     48  N   UNL     1     -10.124   3.708  -7.848  1.00  0.00    -0.248 NA
ATOM     49  C   UNL     1      -8.198   4.978  -8.199  1.00  0.00     0.031 C 
ATOM     50  C   UNL     1      -8.336   0.406 -10.285  1.00  0.00     0.029 A 
ATOM     51  N   UNL     1     -10.149   1.071  -9.160  1.00  0.00    -0.354 N 
ATOM     52  C   UNL     1     -10.244   4.919  -7.173  1.00  0.00     0.074 A 
ATOM     53  C   UNL     1      -8.997   5.630  -7.368  1.00  0.00     0.031 C 
ATOM     54  C   UNL     1      -9.238  -0.587 -10.351  1.00  0.00     0.029 A 
ATOM     55  C   UNL     1     -10.428  -0.204  -9.598  1.00  0.00     0.049 A 
ATOM     56  H   UNL     1     -10.785   1.611  -8.637  1.00  0.00     0.167 HD
ATOM     57  C   UNL     1     -11.303   5.403  -6.476  1.00  0.00     0.034 A 
ATOM     58  C   UNL     1     -11.511  -0.982  -9.403  1.00  0.00     0.034 A 
ATOM     59  C   UNL     1     -12.541   4.683  -6.297  1.00  0.00     0.049 A 
ATOM     60  C   UNL     1     -12.666  -0.435  -8.602  1.00  0.00     0.074 A 
ATOM     61  C   UNL     1     -13.694   5.096  -5.651  1.00  0.00     0.029 A 
ATOM     62  N   UNL     1     -12.788   3.396  -6.759  1.00  0.00    -0.354 N 
ATOM     63  N   UNL     1     -12.781   0.731  -8.009  1.00  0.00    -0.248 NA
ATOM     64  C   UNL     1     -13.841  -1.304  -8.456  1.00  0.00     0.031 C 
ATOM     65  C   UNL     1     -14.609   4.038  -5.662  1.00  0.00     0.029 A 
ATOM     66  C   UNL     1     -14.061   2.990  -6.385  1.00  0.00     0.049 A 
ATOM     67  H   UNL     1     -12.152   2.850  -7.276  1.00  0.00     0.167 HD
ATOM     68  C   UNL     1     -14.055   0.745  -7.445  1.00  0.00     0.074 A 
ATOM     69  C   UNL     1     -14.671  -0.521  -7.783  1.00  0.00     0.031 C 
ATOM     70  C   UNL     1     -14.661   1.718  -6.718  1.00  0.00     0.034 A 
BRANCH  57  71
ATOM     71  C   UNL     1     -11.150   6.764  -5.838  1.00  0.00     0.023 A 
ATOM     72  C   UNL     1     -10.931   7.920  -6.609  1.00  0.00     0.031 A 
ATOM     73  C   UNL     1     -11.194   6.907  -4.440  1.00  0.00     0.131 A 
ATOM     74  C   UNL     1     -10.682   9.148  -5.977  1.00  0.00     0.055 A 
ATOM     75  C   UNL     1     -11.033   8.149  -3.820  1.00  0.00     0.041 A 
ATOM     76  F   UNL     1     -11.380   5.839  -3.648  1.00  0.00    -0.206 F 
ATOM     77  C   UNL     1     -10.758   9.276  -4.589  1.00  0.00     0.022 A 
BRANCH  74  78
ATOM     78  S   UNL     1     -10.110  10.541  -6.988  1.00  0.00     0.124 S 
ATOM     79  O   UNL     1      -8.891   9.994  -7.580  1.00  0.00    -0.237 OA
ATOM     80  O   UNL     1     -11.227  10.748  -7.902  1.00  0.00    -0.237 OA
ATOM     81  O   UNL     1      -9.895  11.608  -6.012  1.00  0.00    -0.744 OA
ENDBRANCH  74  78
ENDBRANCH  57  71
BRANCH  58  82
ATOM     82  C   UNL     1     -11.556  -2.365  -9.959  1.00  0.00     0.023 A 
ATOM     83  C   UNL     1     -12.493  -2.722 -10.941  1.00  0.00     0.031 A 
ATOM     84  C   UNL     1     -10.686  -3.363  -9.484  1.00  0.00     0.131 A 
ATOM     85  C   UNL     1     -12.570  -4.051 -11.385  1.00  0.00     0.055 A 
ATOM     86  C   UNL     1     -10.730  -4.672  -9.968  1.00  0.00     0.041 A 
ATOM     87  F   UNL     1      -9.768  -3.075  -8.548  1.00  0.00    -0.206 F 
ATOM     88  C   UNL     1     -11.686  -5.025 -10.915  1.00  0.00     0.022 A 
BRANCH  85  89
ATOM     89  S   UNL     1     -13.903  -4.510 -12.527  1.00  0.00     0.124 S 
ATOM     90  O   UNL     1     -15.089  -4.135 -11.765  1.00  0.00    -0.237 OA
ATOM     91  O   UNL     1     -13.600  -3.686 -13.692  1.00  0.00    -0.237 OA
ATOM     92  O   UNL     1     -13.710  -5.947 -12.715  1.00  0.00    -0.744 OA
ENDBRANCH  85  89
ENDBRANCH  58  82
BRANCH  70  93
ATOM     93  C   UNL     1     -16.083   1.462  -6.280  1.00  0.00     0.023 A 
ATOM     94  C   UNL     1     -16.404   0.458  -5.351  1.00  0.00     0.031 A 
ATOM     95  C   UNL     1     -17.134   2.230  -6.814  1.00  0.00     0.131 A 
ATOM     96  C   UNL     1     -17.747   0.211  -5.025  1.00  0.00     0.055 A 
ATOM     97  C   UNL     1     -18.462   2.021  -6.439  1.00  0.00     0.041 A 
ATOM     98  F   UNL     1     -16.886   3.201  -7.707  1.00  0.00    -0.206 F 
ATOM     99  C   UNL     1     -18.776   0.997  -5.550  1.00  0.00     0.022 A 
BRANCH  96 100
ATOM    100  S   UNL     1     -18.141  -1.215  -3.974  1.00  0.00     0.124 S 
ATOM    101  O   UNL     1     -17.581  -2.322  -4.743  1.00  0.00    -0.237 OA
ATOM    102  O   UNL     1     -17.450  -0.887  -2.732  1.00  0.00    -0.237 OA
ATOM    103  O   UNL     1     -19.600  -1.190  -3.896  1.00  0.00    -0.744 OA
ENDBRANCH  96 100
ENDBRANCH  70  93
ENDBRANCH  44  45
ENDBRANCH  36  39
ENDBRANCH  34  35
ENDBRANCH  33  34
ENDBRANCH  32  33
ENDBRANCH   1  32
TORSDOF 22
