REMARK SMILES CC(C)(C(=O)N1C[C@@H]2c3ccccc3OC[C@]2(C(=O)NCCCCCCNC(=O)c2ccc(-c3c4nc(c(-c5cc(S(=O)(=O)[O-])ccc5F)c5ccc([nH]5)c(-c5cc(S(=O)(=O)[O-])ccc5F)c5nc(c(-c6cc(S(=O)(=O)[O-])ccc6F)c6ccc3[nH]6)C=C5)C=C4)cc2)C1)[NH+]1CCOCC1
REMARK SMILES IDX 23 1 22 2 21 3 20 4 18 5 19 6 17 8 6 9 7 10 93 11 8 12 9 13
REMARK SMILES IDX 16 14 10 15 14 16 15 17 11 18 13 19 12 20 4 21 5 22 2 23
REMARK SMILES IDX 1 24 3 25 94 26 95 27 99 28 96 30 98 31 97 32 24 33 25 34
REMARK SMILES IDX 26 35 27 36 28 37 29 39 30 40 31 41 92 42 32 43 91 44 33 45
REMARK SMILES IDX 34 46 35 47 85 48 36 49 90 50 84 51 86 52 37 53 89 54 83 55
REMARK SMILES IDX 82 56 38 58 70 59 50 60 69 61 51 62 54 63 68 64 87 65 52 66
REMARK SMILES IDX 53 67 67 69 88 70 55 71 39 72 40 73 48 74 41 75 47 76 49 77
REMARK SMILES IDX 46 78 42 79 43 80 44 81 45 82 71 83 72 84 80 85 73 86 79 87
REMARK SMILES IDX 81 88 78 89 74 90 75 91 76 92 77 93 56 94 57 95 65 96 58 97
REMARK SMILES IDX 64 98 66 99 63 100 59 101 60 102 61 103 62 104
REMARK H PARENT 20 7 94 29 27 38 86 57 54 68
REMARK Flexibility Score: inf
ROOT
ATOM      1  C   UNL     1      -2.183  -1.431   4.717  1.00  0.00     0.002 C 
ENDROOT
BRANCH   1   2
ATOM      2  C   UNL     1      -2.683  -0.776   3.428  1.00  0.00     0.021 C 
BRANCH   2   3
ATOM      3  C   UNL     1      -2.088  -1.262   2.116  1.00  0.00     0.116 C 
BRANCH   3   4
ATOM      4  N   UNL     1      -2.079  -2.706   1.928  1.00  0.00    -0.355 N 
ATOM      5  C   UNL     1      -2.147  -3.355   0.704  1.00  0.00     0.232 C 
ATOM      6  O   UNL     1      -1.668  -4.485   0.597  1.00  0.00    -0.274 OA
ATOM      7  H   UNL     1      -2.020  -3.267   2.735  1.00  0.00     0.163 HD
BRANCH   5   8
ATOM      8  C   UNL     1      -2.892  -2.585  -0.443  1.00  0.00     0.109 C 
ATOM      9  N   UNL     1      -1.396  -1.060  -1.678  1.00  0.00    -0.335 N 
ATOM     10  C   UNL     1      -2.654  -1.115  -2.367  1.00  0.00     0.129 C 
ATOM     11  C   UNL     1      -1.341  -2.216  -0.804  1.00  0.00     0.141 C 
ATOM     12  C   UNL     1      -3.169  -2.516  -2.021  1.00  0.00     0.063 C 
ATOM     13  C   UNL     1      -4.571  -2.676  -2.563  1.00  0.00     0.000 A 
ATOM     14  C   UNL     1      -4.008  -3.693  -0.174  1.00  0.00     0.249 C 
ATOM     15  C   UNL     1      -4.861  -2.571  -3.931  1.00  0.00     0.008 A 
ATOM     16  C   UNL     1      -5.597  -3.009  -1.693  1.00  0.00     0.122 A 
ATOM     17  O   UNL     1      -5.337  -3.158  -0.367  1.00  0.00    -0.492 OA
ATOM     18  C   UNL     1      -6.160  -2.786  -4.399  1.00  0.00     0.001 A 
ATOM     19  C   UNL     1      -6.899  -3.209  -2.143  1.00  0.00     0.047 A 
ATOM     20  C   UNL     1      -7.180  -3.108  -3.505  1.00  0.00     0.004 A 
BRANCH   9  21
ATOM     21  C   UNL     1      -0.775   0.160  -1.425  1.00  0.00     0.283 C 
ATOM     22  O   UNL     1      -1.482   1.171  -1.407  1.00  0.00    -0.268 OA
BRANCH  21  23
ATOM     23  C   UNL     1       0.813   0.213  -1.385  1.00  0.00     0.171 C 
ATOM     24  C   UNL     1       1.441  -0.846  -0.459  1.00  0.00     0.090 C 
ATOM     25  C   UNL     1       1.281  -0.139  -2.818  1.00  0.00     0.090 C 
BRANCH  23  26
ATOM     26  N   UNL     1       1.357   1.564  -1.077  1.00  0.00    -0.319 N 
ATOM     27  C   UNL     1       1.923   1.910   0.229  1.00  0.00     0.291 C 
ATOM     28  C   UNL     1       0.813   2.760  -1.740  1.00  0.00     0.291 C 
ATOM     29  H   UNL     1       2.159   1.238  -1.616  1.00  0.00     0.349 HD
ATOM     30  C   UNL     1       0.972   2.742   1.092  1.00  0.00     0.221 C 
ATOM     31  C   UNL     1      -0.017   3.689  -0.820  1.00  0.00     0.221 C 
ATOM     32  O   UNL     1       0.629   3.960   0.430  1.00  0.00    -0.370 OA
ENDBRANCH  23  26
ENDBRANCH  21  23
ENDBRANCH   9  21
ENDBRANCH   5   8
ENDBRANCH   3   4
ENDBRANCH   2   3
ENDBRANCH   1   2
BRANCH   1  33
ATOM     33  C   UNL     1      -0.676  -1.625   4.899  1.00  0.00     0.002 C 
BRANCH  33  34
ATOM     34  C   UNL     1       0.225  -0.410   4.698  1.00  0.00     0.021 C 
BRANCH  34  35
ATOM     35  C   UNL     1      -0.168   0.860   5.438  1.00  0.00     0.116 C 
BRANCH  35  36
ATOM     36  N   UNL     1      -0.184   0.718   6.883  1.00  0.00    -0.352 N 
ATOM     37  C   UNL     1       0.351   1.551   7.844  1.00  0.00     0.251 C 
ATOM     38  H   UNL     1      -0.640  -0.085   7.225  1.00  0.00     0.163 HD
ATOM     39  O   UNL     1       0.301   1.237   9.025  1.00  0.00    -0.269 OA
BRANCH  37  40
ATOM     40  C   UNL     1       1.039   2.796   7.425  1.00  0.00     0.039 A 
ATOM     41  C   UNL     1       0.460   3.662   6.494  1.00  0.00     0.014 A 
ATOM     42  C   UNL     1       2.318   3.056   7.924  1.00  0.00     0.014 A 
ATOM     43  C   UNL     1       1.228   4.672   5.922  1.00  0.00     0.010 A 
ATOM     44  C   UNL     1       3.059   4.122   7.405  1.00  0.00     0.010 A 
ATOM     45  C   UNL     1       2.544   4.899   6.355  1.00  0.00    -0.014 A 
BRANCH  45  46
ATOM     46  C   UNL     1       3.389   5.918   5.676  1.00  0.00     0.031 A 
ATOM     47  C   UNL     1       4.610   5.497   4.901  1.00  0.00     0.074 A 
ATOM     48  C   UNL     1       3.035   7.217   5.722  1.00  0.00     0.049 A 
ATOM     49  N   UNL     1       5.490   6.239   4.279  1.00  0.00    -0.248 NA
ATOM     50  C   UNL     1       4.882   4.052   4.813  1.00  0.00     0.031 C 
ATOM     51  C   UNL     1       1.853   7.735   6.410  1.00  0.00     0.029 A 
ATOM     52  N   UNL     1       3.616   8.332   5.172  1.00  0.00    -0.354 N 
ATOM     53  C   UNL     1       6.423   5.358   3.741  1.00  0.00     0.074 A 
ATOM     54  C   UNL     1       6.025   4.027   4.140  1.00  0.00     0.031 C 
ATOM     55  C   UNL     1       1.771   9.057   6.203  1.00  0.00     0.029 A 
ATOM     56  C   UNL     1       2.932   9.496   5.433  1.00  0.00     0.049 A 
ATOM     57  H   UNL     1       4.445   8.301   4.641  1.00  0.00     0.167 HD
ATOM     58  C   UNL     1       7.505   5.637   2.975  1.00  0.00     0.034 A 
ATOM     59  C   UNL     1       3.212  10.775   5.106  1.00  0.00     0.034 A 
ATOM     60  C   UNL     1       7.877   6.968   2.568  1.00  0.00     0.049 A 
ATOM     61  C   UNL     1       4.451  11.064   4.297  1.00  0.00     0.074 A 
ATOM     62  C   UNL     1       8.959   7.354   1.797  1.00  0.00     0.029 A 
ATOM     63  N   UNL     1       7.175   8.124   2.880  1.00  0.00    -0.354 N 
ATOM     64  N   UNL     1       5.324  10.220   3.798  1.00  0.00    -0.248 NA
ATOM     65  C   UNL     1       4.751  12.473   4.007  1.00  0.00     0.031 C 
ATOM     66  C   UNL     1       8.942   8.745   1.687  1.00  0.00     0.029 A 
ATOM     67  C   UNL     1       7.812   9.224   2.331  1.00  0.00     0.049 A 
ATOM     68  H   UNL     1       6.348   8.157   3.413  1.00  0.00     0.167 HD
ATOM     69  C   UNL     1       6.257  10.992   3.112  1.00  0.00     0.074 A 
ATOM     70  C   UNL     1       5.834  12.370   3.246  1.00  0.00     0.031 C 
ATOM     71  C   UNL     1       7.365  10.592   2.439  1.00  0.00     0.034 A 
BRANCH  58  72
ATOM     72  C   UNL     1       8.374   4.497   2.502  1.00  0.00     0.023 A 
ATOM     73  C   UNL     1       9.717   4.414   2.918  1.00  0.00     0.031 A 
ATOM     74  C   UNL     1       7.918   3.578   1.541  1.00  0.00     0.131 A 
ATOM     75  C   UNL     1      10.566   3.458   2.347  1.00  0.00     0.055 A 
ATOM     76  C   UNL     1       8.758   2.603   1.002  1.00  0.00     0.041 A 
ATOM     77  F   UNL     1       6.644   3.612   1.116  1.00  0.00    -0.206 F 
ATOM     78  C   UNL     1      10.092   2.548   1.395  1.00  0.00     0.022 A 
BRANCH  75  79
ATOM     79  S   UNL     1      12.329   3.394   2.768  1.00  0.00     0.124 S 
ATOM     80  O   UNL     1      12.463   2.035   3.288  1.00  0.00    -0.237 OA
ATOM     81  O   UNL     1      12.961   3.631   1.473  1.00  0.00    -0.237 OA
ATOM     82  O   UNL     1      12.493   4.455   3.755  1.00  0.00    -0.744 OA
ENDBRANCH  75  79
ENDBRANCH  58  72
BRANCH  59  83
ATOM     83  C   UNL     1       2.268  11.856   5.517  1.00  0.00     0.023 A 
ATOM     84  C   UNL     1       1.986  12.098   6.875  1.00  0.00     0.031 A 
ATOM     85  C   UNL     1       1.554  12.589   4.555  1.00  0.00     0.131 A 
ATOM     86  C   UNL     1       0.966  12.991   7.228  1.00  0.00     0.055 A 
ATOM     87  C   UNL     1       0.589  13.532   4.914  1.00  0.00     0.041 A 
ATOM     88  F   UNL     1       1.780  12.389   3.248  1.00  0.00    -0.206 F 
ATOM     89  C   UNL     1       0.276  13.722   6.256  1.00  0.00     0.022 A 
BRANCH  86  90
ATOM     90  S   UNL     1       0.404  13.126   8.948  1.00  0.00     0.124 S 
ATOM     91  O   UNL     1       0.690  14.524   9.252  1.00  0.00    -0.237 OA
ATOM     92  O   UNL     1      -1.012  12.783   8.829  1.00  0.00    -0.237 OA
ATOM     93  O   UNL     1       1.220  12.145   9.656  1.00  0.00    -0.744 OA
ENDBRANCH  86  90
ENDBRANCH  59  83
BRANCH  71  94
ATOM     94  C   UNL     1       8.218  11.633   1.757  1.00  0.00     0.023 A 
ATOM     95  C   UNL     1       8.366  11.607   0.356  1.00  0.00     0.031 A 
ATOM     96  C   UNL     1       9.019  12.520   2.496  1.00  0.00     0.131 A 
ATOM     97  C   UNL     1       9.331  12.415  -0.257  1.00  0.00     0.055 A 
ATOM     98  C   UNL     1       9.946  13.358   1.874  1.00  0.00     0.041 A 
ATOM     99  F   UNL     1       8.922  12.572   3.834  1.00  0.00    -0.206 F 
ATOM    100  C   UNL     1      10.117  13.295   0.494  1.00  0.00     0.022 A 
BRANCH  97 101
ATOM    101  S   UNL     1       9.668  12.285  -2.035  1.00  0.00     0.124 S 
ATOM    102  O   UNL     1       9.413  13.650  -2.492  1.00  0.00    -0.237 OA
ATOM    103  O   UNL     1      11.069  11.874  -2.053  1.00  0.00    -0.237 OA
ATOM    104  O   UNL     1       8.713  11.286  -2.504  1.00  0.00    -0.744 OA
ENDBRANCH  97 101
ENDBRANCH  71  94
ENDBRANCH  45  46
ENDBRANCH  37  40
ENDBRANCH  35  36
ENDBRANCH  34  35
ENDBRANCH  33  34
ENDBRANCH   1  33
TORSDOF 19
