REMARK SMILES CCOc1ccc(NC(=O)N2CC[C@@H](C(=O)NCCCCCCNC(=O)c3ccc(-c4c5nc(c(-c6cc(S(=O)(=O)[O-])ccc6F)c6ccc([nH]6)c(-c6cc(S(=O)(=O)[O-])ccc6F)c6nc(c(-c7cc(S(=O)(=O)[O-])ccc7F)c7ccc4[nH]7)C=C6)C=C5)cc3)[C@@H]2C)cc1
REMARK SMILES IDX 20 1 19 2 18 3 17 4 15 5 16 6 14 8 11 9 12 10 90 11 13 12
REMARK SMILES IDX 91 13 9 14 8 15 10 17 7 18 4 19 5 20 93 21 6 22 92 23 3 24
REMARK SMILES IDX 2 25 1 26 21 27 22 28 23 29 24 30 25 31 26 33 27 34 28 35
REMARK SMILES IDX 89 36 29 37 88 38 30 39 31 40 32 41 82 42 33 43 87 44 81 45
REMARK SMILES IDX 83 46 34 47 86 48 80 49 79 50 35 52 67 53 47 54 66 55 48 56
REMARK SMILES IDX 51 57 65 58 84 59 49 60 50 61 64 63 85 64 52 65 36 66 37 67
REMARK SMILES IDX 45 68 38 69 44 70 46 71 43 72 39 73 40 74 41 75 42 76 68 77
REMARK SMILES IDX 69 78 77 79 70 80 76 81 78 82 75 83 71 84 72 85 73 86 74 87
REMARK SMILES IDX 53 88 54 89 62 90 55 91 61 92 63 93 60 94 56 95 57 96 58 97
REMARK SMILES IDX 59 98
REMARK H PARENT 17 7 8 16 24 32 83 51 51 62
REMARK Flexibility Score: inf
ROOT
ATOM      1  C   UNL     1       1.440   4.576  -1.766  1.00  0.00     0.002 C 
ENDROOT
BRANCH   1   2
ATOM      2  C   UNL     1       2.893   4.888  -1.396  1.00  0.00     0.021 C 
BRANCH   2   3
ATOM      3  C   UNL     1       3.158   6.212  -0.677  1.00  0.00     0.116 C 
BRANCH   3   4
ATOM      4  N   UNL     1       2.541   6.315   0.641  1.00  0.00    -0.356 N 
ATOM      5  C   UNL     1       2.980   6.700   1.868  1.00  0.00     0.225 C 
ATOM      6  O   UNL     1       2.124   6.689   2.766  1.00  0.00    -0.275 OA
ATOM      7  H   UNL     1       1.594   6.045   0.641  1.00  0.00     0.163 HD
BRANCH   5   8
ATOM      8  C   UNL     1       4.420   7.066   2.253  1.00  0.00     0.102 C 
ATOM      9  N   UNL     1       6.021   5.654   1.320  1.00  0.00    -0.321 N 
ATOM     10  C   UNL     1       6.355   6.967   0.786  1.00  0.00     0.122 C 
ATOM     11  C   UNL     1       5.303   5.847   2.573  1.00  0.00     0.096 C 
ATOM     12  C   UNL     1       5.218   7.885   1.234  1.00  0.00     0.037 C 
ATOM     13  C   UNL     1       6.267   6.107   3.739  1.00  0.00     0.032 C 
BRANCH   9  14
ATOM     14  C   UNL     1       6.677   4.571   0.836  1.00  0.00     0.322 C 
ATOM     15  N   UNL     1       6.163   3.322   0.750  1.00  0.00    -0.308 N 
ATOM     16  H   UNL     1       6.870   2.665   0.555  1.00  0.00     0.171 HD
ATOM     17  O   UNL     1       7.789   4.718   0.310  1.00  0.00    -0.248 OA
BRANCH  15  18
ATOM     18  C   UNL     1       4.907   2.689   0.859  1.00  0.00     0.043 A 
ATOM     19  C   UNL     1       2.368   1.497   0.584  1.00  0.00     0.119 A 
ATOM     20  C   UNL     1       2.510   2.635   1.345  1.00  0.00     0.048 A 
ATOM     21  C   UNL     1       3.486   0.879   0.035  1.00  0.00     0.048 A 
ATOM     22  C   UNL     1       3.764   3.235   1.422  1.00  0.00     0.030 A 
ATOM     23  C   UNL     1       4.758   1.451   0.211  1.00  0.00     0.030 A 
BRANCH  19  24
ATOM     24  O   UNL     1       1.116   1.204   0.136  1.00  0.00    -0.494 OA
BRANCH  24  25
ATOM     25  C   UNL     1       0.446   0.233   0.931  1.00  0.00     0.226 C 
ATOM     26  C   UNL     1       0.340  -1.022   0.093  1.00  0.00     0.049 C 
ENDBRANCH  24  25
ENDBRANCH  19  24
ENDBRANCH  15  18
ENDBRANCH   9  14
ENDBRANCH   5   8
ENDBRANCH   3   4
ENDBRANCH   2   3
ENDBRANCH   1   2
BRANCH   1  27
ATOM     27  C   UNL     1       1.069   4.916  -3.211  1.00  0.00     0.002 C 
BRANCH  27  28
ATOM     28  C   UNL     1       1.986   4.326  -4.291  1.00  0.00     0.021 C 
BRANCH  28  29
ATOM     29  C   UNL     1       2.256   2.826  -4.173  1.00  0.00     0.116 C 
BRANCH  29  30
ATOM     30  N   UNL     1       1.080   2.041  -4.512  1.00  0.00    -0.352 N 
ATOM     31  C   UNL     1       0.853   1.272  -5.629  1.00  0.00     0.251 C 
ATOM     32  H   UNL     1       0.348   2.063  -3.853  1.00  0.00     0.163 HD
ATOM     33  O   UNL     1      -0.281   0.890  -5.895  1.00  0.00    -0.269 OA
BRANCH  31  34
ATOM     34  C   UNL     1       1.987   0.921  -6.514  1.00  0.00     0.039 A 
ATOM     35  C   UNL     1       1.864   1.109  -7.892  1.00  0.00     0.014 A 
ATOM     36  C   UNL     1       3.171   0.406  -5.977  1.00  0.00     0.014 A 
ATOM     37  C   UNL     1       2.953   0.838  -8.726  1.00  0.00     0.010 A 
ATOM     38  C   UNL     1       4.275   0.200  -6.802  1.00  0.00     0.010 A 
ATOM     39  C   UNL     1       4.179   0.412  -8.186  1.00  0.00    -0.014 A 
BRANCH  39  40
ATOM     40  C   UNL     1       5.367   0.182  -9.053  1.00  0.00     0.031 A 
ATOM     41  C   UNL     1       5.958  -1.197  -9.175  1.00  0.00     0.074 A 
ATOM     42  C   UNL     1       5.948   1.222  -9.684  1.00  0.00     0.049 A 
ATOM     43  N   UNL     1       7.030  -1.586  -9.816  1.00  0.00    -0.248 NA
ATOM     44  C   UNL     1       5.265  -2.275  -8.454  1.00  0.00     0.031 C 
ATOM     45  C   UNL     1       5.491   2.612  -9.616  1.00  0.00     0.029 A 
ATOM     46  N   UNL     1       7.052   1.278 -10.498  1.00  0.00    -0.354 N 
ATOM     47  C   UNL     1       7.145  -2.951  -9.573  1.00  0.00     0.074 A 
ATOM     48  C   UNL     1       6.070  -3.304  -8.669  1.00  0.00     0.031 C 
ATOM     49  C   UNL     1       6.295   3.377 -10.371  1.00  0.00     0.029 A 
ATOM     50  C   UNL     1       7.352   2.546 -10.940  1.00  0.00     0.049 A 
ATOM     51  H   UNL     1       7.580   0.484 -10.744  1.00  0.00     0.167 HD
ATOM     52  C   UNL     1       8.046  -3.832 -10.075  1.00  0.00     0.034 A 
ATOM     53  C   UNL     1       8.372   2.994 -11.700  1.00  0.00     0.034 A 
ATOM     54  C   UNL     1       9.111  -3.463 -10.977  1.00  0.00     0.049 A 
ATOM     55  C   UNL     1       9.386   2.004 -12.216  1.00  0.00     0.074 A 
ATOM     56  C   UNL     1      10.051  -4.281 -11.581  1.00  0.00     0.029 A 
ATOM     57  N   UNL     1       9.387  -2.168 -11.398  1.00  0.00    -0.354 N 
ATOM     58  N   UNL     1       9.452   0.707 -12.016  1.00  0.00    -0.248 NA
ATOM     59  C   UNL     1      10.457   2.535 -13.069  1.00  0.00     0.031 C 
ATOM     60  C   UNL     1      10.936  -3.474 -12.305  1.00  0.00     0.029 A 
ATOM     61  C   UNL     1      10.501  -2.161 -12.225  1.00  0.00     0.049 A 
ATOM     62  H   UNL     1       8.867  -1.371 -11.146  1.00  0.00     0.167 HD
ATOM     63  C   UNL     1      10.553   0.266 -12.744  1.00  0.00     0.074 A 
ATOM     64  C   UNL     1      11.111   1.431 -13.399  1.00  0.00     0.031 C 
ATOM     65  C   UNL     1      11.056  -0.990 -12.864  1.00  0.00     0.034 A 
BRANCH  52  66
ATOM     66  C   UNL     1       7.928  -5.273  -9.634  1.00  0.00     0.023 A 
ATOM     67  C   UNL     1       6.782  -6.039  -9.914  1.00  0.00     0.031 A 
ATOM     68  C   UNL     1       8.961  -5.884  -8.901  1.00  0.00     0.131 A 
ATOM     69  C   UNL     1       6.660  -7.336  -9.393  1.00  0.00     0.055 A 
ATOM     70  C   UNL     1       8.871  -7.207  -8.462  1.00  0.00     0.041 A 
ATOM     71  F   UNL     1      10.072  -5.201  -8.585  1.00  0.00    -0.206 F 
ATOM     72  C   UNL     1       7.708  -7.936  -8.692  1.00  0.00     0.022 A 
BRANCH  69  73
ATOM     73  S   UNL     1       5.052  -8.167  -9.512  1.00  0.00     0.124 S 
ATOM     74  O   UNL     1       4.180  -7.223  -8.816  1.00  0.00    -0.237 OA
ATOM     75  O   UNL     1       4.857  -8.274 -10.953  1.00  0.00    -0.237 OA
ATOM     76  O   UNL     1       5.268  -9.433  -8.815  1.00  0.00    -0.744 OA
ENDBRANCH  69  73
ENDBRANCH  52  66
BRANCH  53  77
ATOM     77  C   UNL     1       8.502   4.448 -12.010  1.00  0.00     0.023 A 
ATOM     78  C   UNL     1       8.407   4.922 -13.328  1.00  0.00     0.031 A 
ATOM     79  C   UNL     1       8.765   5.383 -10.992  1.00  0.00     0.131 A 
ATOM     80  C   UNL     1       8.621   6.282 -13.600  1.00  0.00     0.055 A 
ATOM     81  C   UNL     1       8.921   6.744 -11.260  1.00  0.00     0.041 A 
ATOM     82  F   UNL     1       8.863   4.985  -9.713  1.00  0.00    -0.206 F 
ATOM     83  C   UNL     1       8.863   7.199 -12.573  1.00  0.00     0.022 A 
BRANCH  80  84
ATOM     84  S   UNL     1       8.669   6.826 -15.330  1.00  0.00     0.124 S 
ATOM     85  O   UNL     1       9.741   6.000 -15.871  1.00  0.00    -0.237 OA
ATOM     86  O   UNL     1       7.319   6.506 -15.784  1.00  0.00    -0.237 OA
ATOM     87  O   UNL     1       8.968   8.253 -15.230  1.00  0.00    -0.744 OA
ENDBRANCH  80  84
ENDBRANCH  53  77
BRANCH  65  88
ATOM     88  C   UNL     1      12.245  -1.171 -13.777  1.00  0.00     0.023 A 
ATOM     89  C   UNL     1      13.499  -0.607 -13.485  1.00  0.00     0.031 A 
ATOM     90  C   UNL     1      12.116  -1.915 -14.964  1.00  0.00     0.131 A 
ATOM     91  C   UNL     1      14.559  -0.749 -14.395  1.00  0.00     0.055 A 
ATOM     92  C   UNL     1      13.191  -2.107 -15.833  1.00  0.00     0.041 A 
ATOM     93  F   UNL     1      10.941  -2.474 -15.297  1.00  0.00    -0.206 F 
ATOM     94  C   UNL     1      14.418  -1.511 -15.557  1.00  0.00     0.022 A 
BRANCH  91  95
ATOM     95  S   UNL     1      16.101   0.155 -14.085  1.00  0.00     0.124 S 
ATOM     96  O   UNL     1      15.638   1.538 -14.041  1.00  0.00    -0.237 OA
ATOM     97  O   UNL     1      16.544  -0.410 -12.815  1.00  0.00    -0.237 OA
ATOM     98  O   UNL     1      16.935  -0.184 -15.237  1.00  0.00    -0.744 OA
ENDBRANCH  91  95
ENDBRANCH  65  88
ENDBRANCH  39  40
ENDBRANCH  31  34
ENDBRANCH  29  30
ENDBRANCH  28  29
ENDBRANCH  27  28
ENDBRANCH   1  27
TORSDOF 20
