REMARK SMILES C[C@]12CCC[C@](C)(C(=O)NCCCCCCNC(=O)c3ccc(-c4c5nc(c(-c6cc(S(=O)(=O)[O-])ccc6F)c6ccc([nH]6)c(-c6cc(S(=O)(=O)[O-])ccc6F)c6nc(c(-c7cc(S(=O)(=O)[O-])ccc7F)c7ccc4[nH]7)C=C6)C=C5)cc3)[C@@H]1CC[C@]13C=C(CO)[C@H](CC[C@H]12)C3
REMARK SMILES IDX 14 1 13 2 12 3 11 4 10 5 8 6 9 7 6 9 1 10 2 11 3 12 83 13
REMARK SMILES IDX 94 14 4 15 84 16 86 17 93 18 5 19 7 20 85 21 87 22 95 23
REMARK SMILES IDX 92 24 88 25 91 26 89 27 90 28 15 30 16 31 17 32 18 33 19 35
REMARK SMILES IDX 20 36 21 37 82 38 22 39 81 40 23 41 24 42 25 43 75 44 26 45
REMARK SMILES IDX 80 46 74 47 76 48 27 49 79 50 73 51 72 52 28 54 60 55 40 56
REMARK SMILES IDX 59 57 41 58 44 59 58 60 77 61 42 62 43 63 57 65 78 66 45 67
REMARK SMILES IDX 29 68 30 69 38 70 31 71 37 72 39 73 36 74 32 75 33 76 34 77
REMARK SMILES IDX 35 78 61 79 62 80 70 81 63 82 69 83 71 84 68 85 64 86 65 87
REMARK SMILES IDX 66 88 67 89 46 90 47 91 55 92 48 93 54 94 56 95 53 96 49 97
REMARK SMILES IDX 50 98 51 99 52 100
REMARK H PARENT 10 8 90 29 17 34 76 53 44 64
REMARK Flexibility Score: inf
ROOT
ATOM      1  C   UNL     1      -3.013   1.285   2.945  1.00  0.00     0.002 C 
ENDROOT
BRANCH   1   2
ATOM      2  C   UNL     1      -1.780   1.022   3.882  1.00  0.00     0.002 C 
BRANCH   2   3
ATOM      3  C   UNL     1      -0.554   0.056   4.041  1.00  0.00     0.021 C 
BRANCH   3   4
ATOM      4  C   UNL     1       0.717  -0.315   3.179  1.00  0.00     0.116 C 
BRANCH   4   5
ATOM      5  N   UNL     1       1.472   0.696   2.366  1.00  0.00    -0.356 N 
ATOM      6  C   UNL     1       2.652   0.685   1.618  1.00  0.00     0.226 C 
ATOM      7  O   UNL     1       3.493   1.466   2.110  1.00  0.00    -0.274 OA
ATOM      8  H   UNL     1       1.030   1.576   2.358  1.00  0.00     0.163 HD
BRANCH   6   9
ATOM      9  C   UNL     1       3.023   0.037   0.106  1.00  0.00     0.050 C 
ATOM     10  C   UNL     1       1.055  -1.841   0.533  1.00  0.00     0.012 C 
ATOM     11  C   UNL     1       1.159  -1.376  -0.932  1.00  0.00    -0.025 C 
ATOM     12  C   UNL     1       2.092  -2.406  -1.564  1.00  0.00     0.007 C 
ATOM     13  C   UNL     1       1.837   0.016  -0.944  1.00  0.00     0.010 C 
ATOM     14  C   UNL     1      -0.318  -1.389  -1.420  1.00  0.00     0.005 C 
ATOM     15  C   UNL     1       3.311  -2.614  -0.651  1.00  0.00     0.002 C 
ATOM     16  C   UNL     1       0.922   1.267  -0.858  1.00  0.00     0.006 C 
ATOM     17  C   UNL     1      -1.219  -0.149  -0.978  1.00  0.00    -0.008 C 
ATOM     18  C   UNL     1      -0.967  -2.095  -2.599  1.00  0.00     0.006 C 
ATOM     19  C   UNL     1       3.871  -1.335   0.054  1.00  0.00     0.017 C 
ATOM     20  C   UNL     1       4.103   1.047  -0.445  1.00  0.00     0.022 C 
ATOM     21  C   UNL     1      -0.526   1.149  -1.355  1.00  0.00     0.012 C 
ATOM     22  C   UNL     1      -1.581  -0.410   0.461  1.00  0.00    -0.018 C 
ATOM     23  C   UNL     1      -2.675  -0.282  -1.472  1.00  0.00     0.019 C 
ATOM     24  C   UNL     1      -2.333  -2.654  -2.004  1.00  0.00     0.008 C 
ATOM     25  C   UNL     1      -2.326  -1.540   0.476  1.00  0.00    -0.045 C 
ATOM     26  C   UNL     1      -2.977  -1.699  -0.931  1.00  0.00     0.018 C 
BRANCH  25  27
ATOM     27  C   UNL     1      -2.171  -2.624   1.511  1.00  0.00     0.187 C 
BRANCH  27  28
ATOM     28  O   UNL     1      -2.775  -2.341   2.749  1.00  0.00    -0.392 OA
ATOM     29  H   UNL     1      -2.356  -1.560   3.143  1.00  0.00     0.211 HD
ENDBRANCH  27  28
ENDBRANCH  25  27
ENDBRANCH   6   9
ENDBRANCH   4   5
ENDBRANCH   3   4
ENDBRANCH   2   3
ENDBRANCH   1   2
BRANCH   1  30
ATOM     30  C   UNL     1      -4.177   0.527   2.227  1.00  0.00     0.021 C 
BRANCH  30  31
ATOM     31  C   UNL     1      -5.136  -0.597   2.656  1.00  0.00     0.116 C 
BRANCH  31  32
ATOM     32  N   UNL     1      -5.965  -0.377   3.811  1.00  0.00    -0.352 N 
ATOM     33  C   UNL     1      -7.116  -1.071   4.115  1.00  0.00     0.251 C 
ATOM     34  H   UNL     1      -5.686   0.329   4.438  1.00  0.00     0.163 HD
ATOM     35  O   UNL     1      -7.845  -0.656   5.034  1.00  0.00    -0.269 OA
BRANCH  33  36
ATOM     36  C   UNL     1      -7.533  -2.284   3.354  1.00  0.00     0.039 A 
ATOM     37  C   UNL     1      -8.814  -2.330   2.789  1.00  0.00     0.014 A 
ATOM     38  C   UNL     1      -6.720  -3.422   3.281  1.00  0.00     0.014 A 
ATOM     39  C   UNL     1      -9.273  -3.495   2.152  1.00  0.00     0.010 A 
ATOM     40  C   UNL     1      -7.172  -4.579   2.620  1.00  0.00     0.010 A 
ATOM     41  C   UNL     1      -8.460  -4.638   2.060  1.00  0.00    -0.014 A 
BRANCH  41  42
ATOM     42  C   UNL     1      -8.977  -5.892   1.425  1.00  0.00     0.031 A 
ATOM     43  C   UNL     1      -9.253  -7.117   2.265  1.00  0.00     0.074 A 
ATOM     44  C   UNL     1      -9.214  -5.936   0.097  1.00  0.00     0.049 A 
ATOM     45  N   UNL     1      -9.712  -8.290   1.903  1.00  0.00    -0.248 NA
ATOM     46  C   UNL     1      -8.959  -7.011   3.701  1.00  0.00     0.031 C 
ATOM     47  C   UNL     1      -8.984  -4.829  -0.833  1.00  0.00     0.029 A 
ATOM     48  N   UNL     1      -9.706  -6.941  -0.705  1.00  0.00    -0.354 N 
ATOM     49  C   UNL     1      -9.768  -9.058   3.063  1.00  0.00     0.074 A 
ATOM     50  C   UNL     1      -9.235  -8.235   4.129  1.00  0.00     0.031 C 
ATOM     51  C   UNL     1      -9.357  -5.205  -2.068  1.00  0.00     0.029 A 
ATOM     52  C   UNL     1      -9.817  -6.591  -2.034  1.00  0.00     0.049 A 
ATOM     53  H   UNL     1      -9.955  -7.829  -0.361  1.00  0.00     0.167 HD
ATOM     54  C   UNL     1     -10.240 -10.321   3.234  1.00  0.00     0.034 A 
ATOM     55  C   UNL     1     -10.234  -7.303  -3.103  1.00  0.00     0.034 A 
ATOM     56  C   UNL     1     -10.768 -11.136   2.165  1.00  0.00     0.049 A 
ATOM     57  C   UNL     1     -10.699  -8.726  -2.897  1.00  0.00     0.074 A 
ATOM     58  C   UNL     1     -11.292 -12.416   2.233  1.00  0.00     0.029 A 
ATOM     59  N   UNL     1     -10.832 -10.756   0.830  1.00  0.00    -0.354 N 
ATOM     60  N   UNL     1     -10.778  -9.418  -1.783  1.00  0.00    -0.248 NA
ATOM     61  C   UNL     1     -11.144  -9.461  -4.090  1.00  0.00     0.031 C 
ATOM     62  C   UNL     1     -11.604 -12.835   0.936  1.00  0.00     0.029 A 
ATOM     63  C   UNL     1     -11.357 -11.787   0.065  1.00  0.00     0.049 A 
ATOM     64  H   UNL     1     -10.546  -9.881   0.479  1.00  0.00     0.167 HD
ATOM     65  C   UNL     1     -11.319 -10.652  -2.140  1.00  0.00     0.074 A 
ATOM     66  C   UNL     1     -11.561 -10.603  -3.566  1.00  0.00     0.031 C 
ATOM     67  C   UNL     1     -11.592 -11.728  -1.359  1.00  0.00     0.034 A 
BRANCH  54  68
ATOM     68  C   UNL     1     -10.184 -10.908   4.627  1.00  0.00     0.023 A 
ATOM     69  C   UNL     1     -10.913 -10.350   5.693  1.00  0.00     0.031 A 
ATOM     70  C   UNL     1      -9.390 -12.038   4.898  1.00  0.00     0.131 A 
ATOM     71  C   UNL     1     -10.779 -10.876   6.987  1.00  0.00     0.055 A 
ATOM     72  C   UNL     1      -9.325 -12.606   6.172  1.00  0.00     0.041 A 
ATOM     73  F   UNL     1      -8.657 -12.607   3.928  1.00  0.00    -0.206 F 
ATOM     74  C   UNL     1     -10.010 -12.016   7.230  1.00  0.00     0.022 A 
BRANCH  71  75
ATOM     75  S   UNL     1     -11.515  -9.967   8.374  1.00  0.00     0.124 S 
ATOM     76  O   UNL     1     -10.840  -8.676   8.271  1.00  0.00    -0.237 OA
ATOM     77  O   UNL     1     -12.935  -9.975   8.038  1.00  0.00    -0.237 OA
ATOM     78  O   UNL     1     -11.145 -10.764   9.541  1.00  0.00    -0.744 OA
ENDBRANCH  71  75
ENDBRANCH  54  68
BRANCH  55  79
ATOM     79  C   UNL     1     -10.223  -6.706  -4.474  1.00  0.00     0.023 A 
ATOM     80  C   UNL     1     -11.407  -6.572  -5.220  1.00  0.00     0.031 A 
ATOM     81  C   UNL     1      -9.016  -6.329  -5.092  1.00  0.00     0.131 A 
ATOM     82  C   UNL     1     -11.352  -6.137  -6.554  1.00  0.00     0.055 A 
ATOM     83  C   UNL     1      -8.975  -5.834  -6.397  1.00  0.00     0.041 A 
ATOM     84  F   UNL     1      -7.852  -6.438  -4.433  1.00  0.00    -0.206 F 
ATOM     85  C   UNL     1     -10.146  -5.751  -7.143  1.00  0.00     0.022 A 
BRANCH  82  86
ATOM     86  S   UNL     1     -12.867  -6.195  -7.553  1.00  0.00     0.124 S 
ATOM     87  O   UNL     1     -13.248  -7.598  -7.430  1.00  0.00    -0.237 OA
ATOM     88  O   UNL     1     -13.721  -5.235  -6.862  1.00  0.00    -0.237 OA
ATOM     89  O   UNL     1     -12.416  -5.784  -8.880  1.00  0.00    -0.744 OA
ENDBRANCH  82  86
ENDBRANCH  55  79
BRANCH  67  90
ATOM     90  C   UNL     1     -12.237 -12.921  -2.026  1.00  0.00     0.023 A 
ATOM     91  C   UNL     1     -11.565 -13.681  -2.999  1.00  0.00     0.031 A 
ATOM     92  C   UNL     1     -13.549 -13.296  -1.686  1.00  0.00     0.131 A 
ATOM     93  C   UNL     1     -12.227 -14.740  -3.640  1.00  0.00     0.055 A 
ATOM     94  C   UNL     1     -14.179 -14.392  -2.278  1.00  0.00     0.041 A 
ATOM     95  F   UNL     1     -14.242 -12.605  -0.766  1.00  0.00    -0.206 F 
ATOM     96  C   UNL     1     -13.523 -15.112  -3.272  1.00  0.00     0.022 A 
BRANCH  93  97
ATOM     97  S   UNL     1     -11.408 -15.563  -5.033  1.00  0.00     0.124 S 
ATOM     98  O   UNL     1     -11.183 -14.453  -5.952  1.00  0.00    -0.237 OA
ATOM     99  O   UNL     1     -10.216 -16.125  -4.408  1.00  0.00    -0.237 OA
ATOM    100  O   UNL     1     -12.394 -16.547  -5.479  1.00  0.00    -0.744 OA
ENDBRANCH  93  97
ENDBRANCH  67  90
ENDBRANCH  41  42
ENDBRANCH  33  36
ENDBRANCH  31  32
ENDBRANCH  30  31
ENDBRANCH   1  30
TORSDOF 18
