REMARK SMILES C[C@@H](C(=O)NCCCCCCNC(=O)c1ccc(-c2c3nc(c(-c4cc(S(=O)(=O)[O-])ccc4F)c4ccc([nH]4)c(-c4cc(S(=O)(=O)[O-])ccc4F)c4nc(c(-c5cc(S(=O)(=O)[O-])ccc5F)c5ccc2[nH]5)C=C4)C=C3)cc1)c1ccc(C[C@@H]2CCC[C@@H]2O)cc1
REMARK SMILES IDX 8 1 7 2 6 3 5 4 3 5 4 6 2 8 1 9 78 10 79 11 90 12 80 13
REMARK SMILES IDX 89 14 81 15 82 16 83 17 84 18 87 19 85 20 86 21 88 22 9 24
REMARK SMILES IDX 10 25 11 26 12 27 13 28 14 30 15 31 16 32 77 33 17 34 76 35
REMARK SMILES IDX 18 36 19 37 20 38 70 39 21 40 75 41 69 42 71 43 22 44 74 45
REMARK SMILES IDX 68 46 67 47 23 49 55 50 35 51 54 52 36 53 39 54 53 55 72 56
REMARK SMILES IDX 37 57 38 58 52 60 73 61 40 62 24 63 25 64 33 65 26 66 32 67
REMARK SMILES IDX 34 68 31 69 27 70 28 71 29 72 30 73 56 74 57 75 65 76 58 77
REMARK SMILES IDX 64 78 66 79 63 80 59 81 60 82 61 83 62 84 41 85 42 86 50 87
REMARK SMILES IDX 43 88 49 89 51 90 48 91 44 92 45 93 46 94 47 95
REMARK H PARENT 5 7 88 23 12 29 71 48 39 59
REMARK Flexibility Score: inf
ROOT
ATOM      1  C   UNL     1     -13.084   6.377   7.156  1.00  0.00     0.002 C 
ENDROOT
BRANCH   1   2
ATOM      2  C   UNL     1     -11.601   5.983   7.157  1.00  0.00     0.021 C 
BRANCH   2   3
ATOM      3  C   UNL     1     -11.360   4.474   7.073  1.00  0.00     0.116 C 
BRANCH   3   4
ATOM      4  N   UNL     1     -11.871   3.953   5.822  1.00  0.00    -0.356 N 
ATOM      5  C   UNL     1     -11.213   3.605   4.681  1.00  0.00     0.227 C 
ATOM      6  O   UNL     1     -11.911   3.362   3.694  1.00  0.00    -0.274 OA
ATOM      7  H   UNL     1     -12.848   3.832   5.792  1.00  0.00     0.163 HD
BRANCH   5   8
ATOM      8  C   UNL     1      -9.682   3.483   4.693  1.00  0.00     0.105 C 
ATOM      9  C   UNL     1      -8.967   4.837   4.787  1.00  0.00     0.023 C 
BRANCH   8  10
ATOM     10  C   UNL     1      -9.149   2.728   3.481  1.00  0.00    -0.036 A 
ATOM     11  C   UNL     1      -8.503   1.497   3.637  1.00  0.00     0.005 A 
ATOM     12  C   UNL     1      -9.249   3.279   2.195  1.00  0.00     0.005 A 
ATOM     13  C   UNL     1      -7.913   0.865   2.540  1.00  0.00     0.004 A 
ATOM     14  C   UNL     1      -8.643   2.657   1.107  1.00  0.00     0.004 A 
ATOM     15  C   UNL     1      -7.931   1.465   1.276  1.00  0.00    -0.048 A 
BRANCH  15  16
ATOM     16  C   UNL     1      -7.167   0.881   0.116  1.00  0.00     0.041 C 
BRANCH  16  17
ATOM     17  C   UNL     1      -5.643   1.138   0.062  1.00  0.00     0.022 C 
ATOM     18  C   UNL     1      -4.844   0.495   1.202  1.00  0.00     0.007 C 
ATOM     19  C   UNL     1      -5.157   2.592   0.101  1.00  0.00     0.117 C 
ATOM     20  C   UNL     1      -4.557   1.603   2.220  1.00  0.00     0.003 C 
ATOM     21  C   UNL     1      -4.999   2.915   1.580  1.00  0.00     0.032 C 
BRANCH  19  22
ATOM     22  O   UNL     1      -6.006   3.508  -0.558  1.00  0.00    -0.393 OA
ATOM     23  H   UNL     1      -6.880   3.498  -0.138  1.00  0.00     0.210 HD
ENDBRANCH  19  22
ENDBRANCH  16  17
ENDBRANCH  15  16
ENDBRANCH   8  10
ENDBRANCH   5   8
ENDBRANCH   3   4
ENDBRANCH   2   3
ENDBRANCH   1   2
BRANCH   1  24
ATOM     24  C   UNL     1     -13.928   5.717   8.250  1.00  0.00     0.002 C 
BRANCH  24  25
ATOM     25  C   UNL     1     -13.403   5.918   9.673  1.00  0.00     0.021 C 
BRANCH  25  26
ATOM     26  C   UNL     1     -13.290   7.376  10.103  1.00  0.00     0.116 C 
BRANCH  26  27
ATOM     27  N   UNL     1     -14.588   8.027  10.146  1.00  0.00    -0.352 N 
ATOM     28  C   UNL     1     -15.144   8.774  11.151  1.00  0.00     0.251 C 
ATOM     29  H   UNL     1     -15.145   7.917   9.342  1.00  0.00     0.163 HD
ATOM     30  O   UNL     1     -16.343   9.058  11.102  1.00  0.00    -0.269 OA
BRANCH  28  31
ATOM     31  C   UNL     1     -14.318   9.219  12.294  1.00  0.00     0.039 A 
ATOM     32  C   UNL     1     -14.866   9.181  13.579  1.00  0.00     0.014 A 
ATOM     33  C   UNL     1     -13.020   9.703  12.101  1.00  0.00     0.014 A 
ATOM     34  C   UNL     1     -14.103   9.602  14.670  1.00  0.00     0.010 A 
ATOM     35  C   UNL     1     -12.234  10.047  13.197  1.00  0.00     0.010 A 
ATOM     36  C   UNL     1     -12.775  10.025  14.491  1.00  0.00    -0.014 A 
BRANCH  36  37
ATOM     37  C   UNL     1     -11.963  10.500  15.642  1.00  0.00     0.031 A 
ATOM     38  C   UNL     1     -11.507  11.935  15.694  1.00  0.00     0.074 A 
ATOM     39  C   UNL     1     -11.608   9.640  16.615  1.00  0.00     0.049 A 
ATOM     40  N   UNL     1     -10.768  12.539  16.589  1.00  0.00    -0.248 NA
ATOM     41  C   UNL     1     -11.910  12.796  14.571  1.00  0.00     0.031 C 
ATOM     42  C   UNL     1     -11.957   8.218  16.654  1.00  0.00     0.029 A 
ATOM     43  N   UNL     1     -10.878   9.832  17.761  1.00  0.00    -0.354 N 
ATOM     44  C   UNL     1     -10.602  13.842  16.128  1.00  0.00     0.074 A 
ATOM     45  C   UNL     1     -11.262  13.918  14.843  1.00  0.00     0.031 C 
ATOM     46  C   UNL     1     -11.472   7.677  17.784  1.00  0.00     0.029 A 
ATOM     47  C   UNL     1     -10.744   8.699  18.529  1.00  0.00     0.049 A 
ATOM     48  H   UNL     1     -10.486  10.701  18.009  1.00  0.00     0.167 HD
ATOM     49  C   UNL     1      -9.980  14.885  16.733  1.00  0.00     0.034 A 
ATOM     50  C   UNL     1     -10.106   8.508  19.701  1.00  0.00     0.034 A 
ATOM     51  C   UNL     1      -9.347  14.796  18.027  1.00  0.00     0.049 A 
ATOM     52  C   UNL     1      -9.418   9.681  20.354  1.00  0.00     0.074 A 
ATOM     53  C   UNL     1      -8.741  15.799  18.762  1.00  0.00     0.029 A 
ATOM     54  N   UNL     1      -9.235  13.632  18.778  1.00  0.00    -0.354 N 
ATOM     55  N   UNL     1      -9.318  10.922  19.933  1.00  0.00    -0.248 NA
ATOM     56  C   UNL     1      -8.773   9.431  21.648  1.00  0.00     0.031 C 
ATOM     57  C   UNL     1      -8.202  15.230  19.921  1.00  0.00     0.029 A 
ATOM     58  C   UNL     1      -8.544  13.887  19.953  1.00  0.00     0.049 A 
ATOM     59  H   UNL     1      -9.594  12.754  18.515  1.00  0.00     0.167 HD
ATOM     60  C   UNL     1      -8.634  11.607  20.934  1.00  0.00     0.074 A 
ATOM     61  C   UNL     1      -8.359  10.644  21.980  1.00  0.00     0.031 C 
ATOM     62  C   UNL     1      -8.272  12.915  20.987  1.00  0.00     0.034 A 
BRANCH  49  63
ATOM     63  C   UNL     1      -9.932  16.197  15.983  1.00  0.00     0.023 A 
ATOM     64  C   UNL     1     -11.102  16.893  15.628  1.00  0.00     0.031 A 
ATOM     65  C   UNL     1      -8.700  16.744  15.584  1.00  0.00     0.131 A 
ATOM     66  C   UNL     1     -11.021  18.042  14.826  1.00  0.00     0.055 A 
ATOM     67  C   UNL     1      -8.621  17.938  14.863  1.00  0.00     0.041 A 
ATOM     68  F   UNL     1      -7.548  16.118  15.873  1.00  0.00    -0.206 F 
ATOM     69  C   UNL     1      -9.787  18.584  14.464  1.00  0.00     0.022 A 
BRANCH  66  70
ATOM     70  S   UNL     1     -12.552  18.723  14.130  1.00  0.00     0.124 S 
ATOM     71  O   UNL     1     -13.066  17.581  13.378  1.00  0.00    -0.237 OA
ATOM     72  O   UNL     1     -13.303  19.094  15.324  1.00  0.00    -0.237 OA
ATOM     73  O   UNL     1     -12.088  19.841  13.311  1.00  0.00    -0.744 OA
ENDBRANCH  66  70
ENDBRANCH  49  63
BRANCH  50  74
ATOM     74  C   UNL     1     -10.094   7.164  20.347  1.00  0.00     0.023 A 
ATOM     75  C   UNL     1     -10.713   6.955  21.590  1.00  0.00     0.031 A 
ATOM     76  C   UNL     1      -9.423   6.079  19.755  1.00  0.00     0.131 A 
ATOM     77  C   UNL     1     -10.604   5.709  22.227  1.00  0.00     0.055 A 
ATOM     78  C   UNL     1      -9.365   4.825  20.367  1.00  0.00     0.041 A 
ATOM     79  F   UNL     1      -8.820   6.221  18.564  1.00  0.00    -0.206 F 
ATOM     80  C   UNL     1      -9.945   4.639  21.618  1.00  0.00     0.022 A 
BRANCH  77  81
ATOM     81  S   UNL     1     -11.261   5.534  23.909  1.00  0.00     0.124 S 
ATOM     82  O   UNL     1     -10.519   6.563  24.626  1.00  0.00    -0.237 OA
ATOM     83  O   UNL     1     -12.683   5.790  23.706  1.00  0.00    -0.237 OA
ATOM     84  O   UNL     1     -10.922   4.157  24.263  1.00  0.00    -0.744 OA
ENDBRANCH  77  81
ENDBRANCH  50  74
BRANCH  62  85
ATOM     85  C   UNL     1      -7.593  13.387  22.251  1.00  0.00     0.023 A 
ATOM     86  C   UNL     1      -6.325  12.917  22.635  1.00  0.00     0.031 A 
ATOM     87  C   UNL     1      -8.239  14.307  23.096  1.00  0.00     0.131 A 
ATOM     88  C   UNL     1      -5.774  13.314  23.863  1.00  0.00     0.055 A 
ATOM     89  C   UNL     1      -7.656  14.751  24.283  1.00  0.00     0.041 A 
ATOM     90  F   UNL     1      -9.452  14.789  22.782  1.00  0.00    -0.206 F 
ATOM     91  C   UNL     1      -6.424  14.241  24.681  1.00  0.00     0.022 A 
BRANCH  88  92
ATOM     92  S   UNL     1      -4.248  12.514  24.432  1.00  0.00     0.124 S 
ATOM     93  O   UNL     1      -4.621  11.103  24.416  1.00  0.00    -0.237 OA
ATOM     94  O   UNL     1      -3.283  12.930  23.419  1.00  0.00    -0.237 OA
ATOM     95  O   UNL     1      -4.037  13.085  25.761  1.00  0.00    -0.744 OA
ENDBRANCH  88  92
ENDBRANCH  62  85
ENDBRANCH  36  37
ENDBRANCH  28  31
ENDBRANCH  26  27
ENDBRANCH  25  26
ENDBRANCH  24  25
ENDBRANCH   1  24
TORSDOF 20
