REMARK SMILES Cn1c(C(=O)N2CCC[C@@H](C(=O)NCCCCCCNC(=O)c3ccc(-c4c5nc(c(-c6cc(S(=O)(=O)[O-])ccc6F)c6ccc([nH]6)c(-c6cc(S(=O)(=O)[O-])ccc6F)c6nc(c(-c7cc(S(=O)(=O)[O-])ccc7F)c7ccc4[nH]7)C=C6)C=C5)cc3)C2)cc2sccc21
REMARK SMILES IDX 17 1 16 2 15 3 14 4 13 5 11 6 12 7 10 9 6 10 7 11 86 12 8 13
REMARK SMILES IDX 9 14 4 15 5 16 3 17 1 18 2 19 92 20 87 21 88 22 91 23 89 24
REMARK SMILES IDX 90 25 18 26 19 27 20 28 21 29 22 31 23 32 24 33 85 34 25 35
REMARK SMILES IDX 84 36 26 37 27 38 28 39 78 40 29 41 83 42 77 43 79 44 30 45
REMARK SMILES IDX 82 46 76 47 75 48 31 50 63 51 43 52 62 53 44 54 47 55 61 56
REMARK SMILES IDX 80 57 45 58 46 59 60 61 81 62 48 63 32 64 33 65 41 66 34 67
REMARK SMILES IDX 40 68 42 69 39 70 35 71 36 72 37 73 38 74 64 75 65 76 73 77
REMARK SMILES IDX 66 78 72 79 74 80 71 81 67 82 68 83 69 84 70 85 49 86 50 87
REMARK SMILES IDX 58 88 51 89 57 90 59 91 56 92 52 93 53 94 54 95 55 96
REMARK H PARENT 13 8 20 30 79 49 47 60
REMARK Flexibility Score: inf
ROOT
ATOM      1  C   UNL     1      -7.436   4.886  -8.090  1.00  0.00     0.002 C 
ENDROOT
BRANCH   1   2
ATOM      2  C   UNL     1      -6.233   4.013  -8.487  1.00  0.00     0.002 C 
BRANCH   2   3
ATOM      3  C   UNL     1      -4.968   4.216  -7.640  1.00  0.00     0.021 C 
BRANCH   3   4
ATOM      4  C   UNL     1      -5.209   4.013  -6.142  1.00  0.00     0.116 C 
BRANCH   4   5
ATOM      5  N   UNL     1      -5.181   2.607  -5.810  1.00  0.00    -0.356 N 
ATOM      6  C   UNL     1      -4.218   1.818  -5.274  1.00  0.00     0.224 C 
ATOM      7  O   UNL     1      -4.504   0.618  -5.186  1.00  0.00    -0.275 OA
ATOM      8  H   UNL     1      -6.020   2.133  -6.011  1.00  0.00     0.163 HD
BRANCH   6   9
ATOM      9  C   UNL     1      -2.907   2.363  -4.691  1.00  0.00     0.098 C 
ATOM     10  N   UNL     1      -0.673   1.517  -3.937  1.00  0.00    -0.337 N 
ATOM     11  C   UNL     1       0.054   2.472  -4.746  1.00  0.00     0.120 C 
ATOM     12  C   UNL     1      -2.005   1.133  -4.397  1.00  0.00     0.133 C 
ATOM     13  C   UNL     1      -0.769   3.724  -4.939  1.00  0.00     0.022 C 
ATOM     14  C   UNL     1      -2.129   3.379  -5.547  1.00  0.00     0.017 C 
BRANCH  10  15
ATOM     15  C   UNL     1      -0.159   1.173  -2.696  1.00  0.00     0.270 C 
ATOM     16  O   UNL     1       0.298   2.039  -1.954  1.00  0.00    -0.267 OA
BRANCH  15  17
ATOM     17  C   UNL     1      -0.040  -0.259  -2.422  1.00  0.00     0.108 A 
ATOM     18  C   UNL     1       0.901  -0.106  -0.057  1.00  0.00     0.150 C 
ATOM     19  N   UNL     1       0.465  -0.794  -1.248  1.00  0.00    -0.339 N 
ATOM     20  C   UNL     1       0.630  -2.154  -1.409  1.00  0.00     0.059 A 
ATOM     21  C   UNL     1      -0.259  -1.319  -3.298  1.00  0.00     0.053 A 
ATOM     22  C   UNL     1       0.180  -2.498  -2.644  1.00  0.00     0.053 A 
ATOM     23  C   UNL     1       1.149  -3.254  -0.668  1.00  0.00     0.038 A 
ATOM     24  S   UNL     1       0.345  -4.190  -2.966  1.00  0.00    -0.142 S 
ATOM     25  C   UNL     1       1.058  -4.408  -1.417  1.00  0.00     0.068 A 
ENDBRANCH  15  17
ENDBRANCH  10  15
ENDBRANCH   6   9
ENDBRANCH   4   5
ENDBRANCH   3   4
ENDBRANCH   2   3
ENDBRANCH   1   2
BRANCH   1  26
ATOM     26  C   UNL     1      -7.151   6.387  -7.927  1.00  0.00     0.021 C 
BRANCH  26  27
ATOM     27  C   UNL     1      -6.807   7.078  -9.237  1.00  0.00     0.116 C 
BRANCH  27  28
ATOM     28  N   UNL     1      -7.952   7.118 -10.143  1.00  0.00    -0.352 N 
ATOM     29  C   UNL     1      -8.016   7.621 -11.428  1.00  0.00     0.251 C 
ATOM     30  H   UNL     1      -8.788   6.736  -9.791  1.00  0.00     0.163 HD
ATOM     31  O   UNL     1      -9.088   7.957 -11.904  1.00  0.00    -0.269 OA
BRANCH  29  32
ATOM     32  C   UNL     1      -6.767   7.738 -12.206  1.00  0.00     0.039 A 
ATOM     33  C   UNL     1      -6.548   8.817 -13.065  1.00  0.00     0.014 A 
ATOM     34  C   UNL     1      -5.801   6.745 -12.055  1.00  0.00     0.014 A 
ATOM     35  C   UNL     1      -5.315   8.919 -13.706  1.00  0.00     0.010 A 
ATOM     36  C   UNL     1      -4.538   6.929 -12.557  1.00  0.00     0.010 A 
ATOM     37  C   UNL     1      -4.303   7.982 -13.428  1.00  0.00    -0.014 A 
BRANCH  37  38
ATOM     38  C   UNL     1      -2.938   8.183 -13.907  1.00  0.00     0.031 A 
ATOM     39  C   UNL     1      -2.396   9.522 -13.572  1.00  0.00     0.074 A 
ATOM     40  C   UNL     1      -2.157   7.208 -14.427  1.00  0.00     0.049 A 
ATOM     41  N   UNL     1      -2.271  10.521 -14.379  1.00  0.00    -0.248 NA
ATOM     42  C   UNL     1      -2.170   9.873 -12.160  1.00  0.00     0.031 C 
ATOM     43  C   UNL     1      -2.462   5.782 -14.580  1.00  0.00     0.029 A 
ATOM     44  N   UNL     1      -0.865   7.276 -14.853  1.00  0.00    -0.354 N 
ATOM     45  C   UNL     1      -1.661  11.524 -13.641  1.00  0.00     0.074 A 
ATOM     46  C   UNL     1      -1.863  11.170 -12.262  1.00  0.00     0.031 C 
ATOM     47  C   UNL     1      -1.325   5.097 -14.841  1.00  0.00     0.029 A 
ATOM     48  C   UNL     1      -0.237   6.042 -15.030  1.00  0.00     0.049 A 
ATOM     49  H   UNL     1      -0.408   8.132 -15.024  1.00  0.00     0.167 HD
ATOM     50  C   UNL     1      -0.792  12.383 -14.242  1.00  0.00     0.034 A 
ATOM     51  C   UNL     1       1.079   5.810 -15.306  1.00  0.00     0.034 A 
ATOM     52  C   UNL     1      -0.912  12.308 -15.686  1.00  0.00     0.049 A 
ATOM     53  C   UNL     1       1.586   7.043 -15.960  1.00  0.00     0.074 A 
ATOM     54  C   UNL     1      -1.963  12.440 -16.576  1.00  0.00     0.029 A 
ATOM     55  N   UNL     1       0.071  11.635 -16.382  1.00  0.00    -0.354 N 
ATOM     56  N   UNL     1       1.155   7.457 -17.121  1.00  0.00    -0.248 NA
ATOM     57  C   UNL     1       2.162   8.075 -15.111  1.00  0.00     0.031 C 
ATOM     58  C   UNL     1      -1.764  11.398 -17.532  1.00  0.00     0.029 A 
ATOM     59  C   UNL     1      -0.551  10.768 -17.248  1.00  0.00     0.049 A 
ATOM     60  H   UNL     1       1.043  11.755 -16.278  1.00  0.00     0.167 HD
ATOM     61  C   UNL     1       0.970   8.822 -16.964  1.00  0.00     0.074 A 
ATOM     62  C   UNL     1       1.694   9.160 -15.737  1.00  0.00     0.031 C 
ATOM     63  C   UNL     1       0.011   9.496 -17.668  1.00  0.00     0.034 A 
BRANCH  50  64
ATOM     64  C   UNL     1       0.435  12.970 -13.578  1.00  0.00     0.023 A 
ATOM     65  C   UNL     1       1.219  13.842 -14.356  1.00  0.00     0.031 A 
ATOM     66  C   UNL     1       1.034  12.505 -12.385  1.00  0.00     0.131 A 
ATOM     67  C   UNL     1       2.555  14.108 -14.016  1.00  0.00     0.055 A 
ATOM     68  C   UNL     1       2.340  12.833 -12.013  1.00  0.00     0.041 A 
ATOM     69  F   UNL     1       0.439  11.638 -11.559  1.00  0.00    -0.206 F 
ATOM     70  C   UNL     1       3.123  13.608 -12.849  1.00  0.00     0.022 A 
BRANCH  67  71
ATOM     71  S   UNL     1       3.588  14.958 -15.234  1.00  0.00     0.124 S 
ATOM     72  O   UNL     1       3.444  14.084 -16.394  1.00  0.00    -0.237 OA
ATOM     73  O   UNL     1       2.936  16.260 -15.323  1.00  0.00    -0.237 OA
ATOM     74  O   UNL     1       4.909  14.962 -14.612  1.00  0.00    -0.744 OA
ENDBRANCH  67  71
ENDBRANCH  50  64
BRANCH  51  75
ATOM     75  C   UNL     1       1.970   4.752 -14.730  1.00  0.00     0.023 A 
ATOM     76  C   UNL     1       3.268   4.475 -15.229  1.00  0.00     0.031 A 
ATOM     77  C   UNL     1       1.645   4.166 -13.486  1.00  0.00     0.131 A 
ATOM     78  C   UNL     1       4.167   3.663 -14.489  1.00  0.00     0.055 A 
ATOM     79  C   UNL     1       2.537   3.372 -12.759  1.00  0.00     0.041 A 
ATOM     80  F   UNL     1       0.472   4.415 -12.882  1.00  0.00    -0.206 F 
ATOM     81  C   UNL     1       3.808   3.128 -13.251  1.00  0.00     0.022 A 
BRANCH  78  82
ATOM     82  S   UNL     1       5.872   3.358 -15.073  1.00  0.00     0.124 S 
ATOM     83  O   UNL     1       5.658   2.440 -16.186  1.00  0.00    -0.237 OA
ATOM     84  O   UNL     1       6.335   4.698 -15.415  1.00  0.00    -0.237 OA
ATOM     85  O   UNL     1       6.531   2.765 -13.908  1.00  0.00    -0.744 OA
ENDBRANCH  78  82
ENDBRANCH  51  75
BRANCH  63  86
ATOM     86  C   UNL     1      -0.642   8.814 -18.857  1.00  0.00     0.023 A 
ATOM     87  C   UNL     1      -1.319   7.572 -18.828  1.00  0.00     0.031 A 
ATOM     88  C   UNL     1      -0.665   9.536 -20.065  1.00  0.00     0.131 A 
ATOM     89  C   UNL     1      -1.971   7.096 -19.986  1.00  0.00     0.055 A 
ATOM     90  C   UNL     1      -1.332   9.075 -21.198  1.00  0.00     0.041 A 
ATOM     91  F   UNL     1      -0.059  10.731 -20.155  1.00  0.00    -0.206 F 
ATOM     92  C   UNL     1      -1.983   7.849 -21.165  1.00  0.00     0.022 A 
BRANCH  89  93
ATOM     93  S   UNL     1      -2.797   5.470 -19.999  1.00  0.00     0.124 S 
ATOM     94  O   UNL     1      -1.821   4.585 -19.375  1.00  0.00    -0.237 OA
ATOM     95  O   UNL     1      -4.013   5.725 -19.230  1.00  0.00    -0.237 OA
ATOM     96  O   UNL     1      -3.024   5.215 -21.424  1.00  0.00    -0.744 OA
ENDBRANCH  89  93
ENDBRANCH  63  86
ENDBRANCH  37  38
ENDBRANCH  29  32
ENDBRANCH  27  28
ENDBRANCH  26  27
ENDBRANCH   1  26
TORSDOF 18
