REMARK SMILES Cc1c(C(=O)NCCCCCCNC(=O)c2ccc(-c3c4nc(c(-c5cc(S(=O)(=O)[O-])ccc5F)c5ccc([nH]5)c(-c5cc(S(=O)(=O)[O-])ccc5F)c5nc(c(-c6cc(S(=O)(=O)[O-])ccc6F)c6ccc3[nH]6)C=C5)C=C4)cc2)cccc1-n1c(C)cc(/C=C2/C(=O)NC(=S)N=C2O)c1C
REMARK SMILES IDX 9 1 8 2 7 3 6 4 4 5 5 6 3 8 1 9 2 10 82 11 79 12 81 13 80 14
REMARK SMILES IDX 83 15 84 16 98 17 85 18 86 19 87 20 99 21 88 22 89 23 90 24
REMARK SMILES IDX 96 25 91 26 92 27 95 28 93 29 94 31 97 32 10 34 11 35 12 36
REMARK SMILES IDX 13 37 14 38 15 40 16 41 17 42 78 43 18 44 77 45 19 46 20 47
REMARK SMILES IDX 21 48 71 49 22 50 76 51 70 52 72 53 23 54 75 55 69 56 68 57
REMARK SMILES IDX 24 59 56 60 36 61 55 62 37 63 40 64 54 65 73 66 38 67 39 68
REMARK SMILES IDX 53 70 74 71 41 72 25 73 26 74 34 75 27 76 33 77 35 78 32 79
REMARK SMILES IDX 28 80 29 81 30 82 31 83 57 84 58 85 66 86 59 87 65 88 67 89
REMARK SMILES IDX 64 90 60 91 61 92 62 93 63 94 42 95 43 96 51 97 44 98 50 99
REMARK SMILES IDX 52 100 49 101 45 102 46 103 47 104 48 105
REMARK H PARENT 6 7 92 30 97 33 13 39 72 58 40 69
REMARK Flexibility Score: inf
ROOT
ATOM      1  C   UNL     1       5.484  -3.278   0.918  1.00  0.00     0.002 C 
ENDROOT
BRANCH   1   2
ATOM      2  C   UNL     1       4.268  -2.344   0.912  1.00  0.00     0.021 C 
BRANCH   2   3
ATOM      3  C   UNL     1       3.262  -2.578  -0.229  1.00  0.00     0.116 C 
BRANCH   3   4
ATOM      4  N   UNL     1       1.980  -3.006   0.302  1.00  0.00    -0.352 N 
ATOM      5  C   UNL     1       0.721  -2.489   0.400  1.00  0.00     0.251 C 
ATOM      6  O   UNL     1      -0.128  -3.258   0.868  1.00  0.00    -0.269 OA
ATOM      7  H   UNL     1       2.034  -3.906   0.696  1.00  0.00     0.163 HD
BRANCH   5   8
ATOM      8  C   UNL     1       0.246  -1.135  -0.042  1.00  0.00     0.044 A 
ATOM      9  C   UNL     1       2.283   0.271   0.627  1.00  0.00     0.047 C 
ATOM     10  C   UNL     1       0.893   0.113   0.087  1.00  0.00    -0.014 A 
ATOM     11  C   UNL     1       0.162   1.276  -0.284  1.00  0.00     0.049 A 
ATOM     12  C   UNL     1      -1.108  -1.148  -0.472  1.00  0.00     0.014 A 
ATOM     13  C   UNL     1      -1.174   1.237  -0.699  1.00  0.00     0.027 A 
ATOM     14  C   UNL     1      -1.814   0.015  -0.784  1.00  0.00     0.003 A 
BRANCH  11  15
ATOM     15  N   UNL     1       0.726   2.566  -0.141  1.00  0.00    -0.318 N 
ATOM     16  C   UNL     1       1.392   3.257  -1.135  1.00  0.00     0.020 A 
ATOM     17  C   UNL     1       0.721   3.318   1.030  1.00  0.00     0.027 A 
ATOM     18  C   UNL     1       1.705   2.675  -2.468  1.00  0.00     0.065 C 
ATOM     19  C   UNL     1       1.715   4.497  -0.624  1.00  0.00     0.031 A 
ATOM     20  C   UNL     1       1.286   4.548   0.729  1.00  0.00    -0.003 A 
ATOM     21  C   UNL     1       0.213   2.739   2.312  1.00  0.00     0.065 C 
BRANCH  20  22
ATOM     22  C   UNL     1       1.594   5.636   1.604  1.00  0.00     0.029 C 
ATOM     23  C   UNL     1       0.924   6.189   2.631  1.00  0.00     0.102 C 
ATOM     24  C   UNL     1       1.666   7.211   3.415  1.00  0.00     0.262 C 
ATOM     25  C   UNL     1      -0.406   5.899   3.163  1.00  0.00     0.226 C 
ATOM     26  O   UNL     1       2.659   7.803   3.010  1.00  0.00    -0.269 OA
ATOM     27  N   UNL     1       1.138   7.444   4.657  1.00  0.00    -0.297 N 
ATOM     28  N   UNL     1      -0.868   6.240   4.309  1.00  0.00    -0.184 NA
ATOM     29  C   UNL     1      -0.054   6.964   5.141  1.00  0.00     0.203 C 
ATOM     30  H   UNL     1       1.666   8.013   5.263  1.00  0.00     0.172 HD
ATOM     31  S   UNL     1      -0.482   7.373   6.708  1.00  0.00    -0.038 S 
BRANCH  25  32
ATOM     32  O   UNL     1      -1.258   5.282   2.341  1.00  0.00    -0.493 OA
ATOM     33  H   UNL     1      -0.975   5.009   1.491  1.00  0.00     0.295 HD
ENDBRANCH  25  32
ENDBRANCH  20  22
ENDBRANCH  11  15
ENDBRANCH   5   8
ENDBRANCH   3   4
ENDBRANCH   2   3
ENDBRANCH   1   2
BRANCH   1  34
ATOM     34  C   UNL     1       6.322  -3.301  -0.367  1.00  0.00     0.002 C 
BRANCH  34  35
ATOM     35  C   UNL     1       6.778  -1.935  -0.878  1.00  0.00     0.021 C 
BRANCH  35  36
ATOM     36  C   UNL     1       7.886  -1.308  -0.039  1.00  0.00     0.116 C 
BRANCH  36  37
ATOM     37  N   UNL     1       9.217  -1.508  -0.603  1.00  0.00    -0.352 N 
ATOM     38  C   UNL     1      10.431  -0.994  -0.177  1.00  0.00     0.251 C 
ATOM     39  H   UNL     1       9.258  -2.089  -1.397  1.00  0.00     0.163 HD
ATOM     40  O   UNL     1      11.464  -1.173  -0.797  1.00  0.00    -0.269 OA
BRANCH  38  41
ATOM     41  C   UNL     1      10.470  -0.331   1.146  1.00  0.00     0.039 A 
ATOM     42  C   UNL     1      11.273  -0.930   2.124  1.00  0.00     0.014 A 
ATOM     43  C   UNL     1       9.544   0.652   1.482  1.00  0.00     0.014 A 
ATOM     44  C   UNL     1      10.977  -0.720   3.465  1.00  0.00     0.010 A 
ATOM     45  C   UNL     1       9.194   0.796   2.811  1.00  0.00     0.010 A 
ATOM     46  C   UNL     1       9.862   0.051   3.792  1.00  0.00    -0.014 A 
BRANCH  46  47
ATOM     47  C   UNL     1       9.228  -0.009   5.104  1.00  0.00     0.031 A 
ATOM     48  C   UNL     1       9.348   1.109   6.057  1.00  0.00     0.074 A 
ATOM     49  C   UNL     1       8.492  -1.093   5.434  1.00  0.00     0.049 A 
ATOM     50  N   UNL     1       9.206   1.001   7.335  1.00  0.00    -0.248 NA
ATOM     51  C   UNL     1       9.711   2.453   5.632  1.00  0.00     0.031 C 
ATOM     52  C   UNL     1       7.585  -1.242   6.566  1.00  0.00     0.029 A 
ATOM     53  N   UNL     1       8.630  -2.382   4.926  1.00  0.00    -0.354 N 
ATOM     54  C   UNL     1       9.152   2.272   7.861  1.00  0.00     0.074 A 
ATOM     55  C   UNL     1       9.568   3.129   6.775  1.00  0.00     0.031 C 
ATOM     56  C   UNL     1       7.438  -2.549   6.833  1.00  0.00     0.029 A 
ATOM     57  C   UNL     1       8.357  -3.275   5.974  1.00  0.00     0.049 A 
ATOM     58  H   UNL     1       8.873  -2.623   4.002  1.00  0.00     0.167 HD
ATOM     59  C   UNL     1       8.616   2.455   9.104  1.00  0.00     0.034 A 
ATOM     60  C   UNL     1       9.304  -4.157   6.407  1.00  0.00     0.034 A 
ATOM     61  C   UNL     1       8.339   1.173   9.761  1.00  0.00     0.049 A 
ATOM     62  C   UNL     1       9.696  -3.963   7.856  1.00  0.00     0.074 A 
ATOM     63  C   UNL     1       7.176   0.450   9.977  1.00  0.00     0.029 A 
ATOM     64  N   UNL     1       9.392   0.314  10.069  1.00  0.00    -0.354 N 
ATOM     65  N   UNL     1       9.427  -2.893   8.554  1.00  0.00    -0.248 NA
ATOM     66  C   UNL     1      10.434  -4.958   8.627  1.00  0.00     0.031 C 
ATOM     67  C   UNL     1       7.540  -0.872  10.348  1.00  0.00     0.029 A 
ATOM     68  C   UNL     1       8.922  -0.945  10.393  1.00  0.00     0.049 A 
ATOM     69  H   UNL     1      10.342   0.569  10.057  1.00  0.00     0.167 HD
ATOM     70  C   UNL     1       9.946  -3.022   9.819  1.00  0.00     0.074 A 
ATOM     71  C   UNL     1      10.542  -4.347   9.820  1.00  0.00     0.031 C 
ATOM     72  C   UNL     1       9.845  -2.019  10.746  1.00  0.00     0.034 A 
BRANCH  59  73
ATOM     73  C   UNL     1       8.041   3.777   9.590  1.00  0.00     0.023 A 
ATOM     74  C   UNL     1       6.995   3.765  10.540  1.00  0.00     0.031 A 
ATOM     75  C   UNL     1       8.399   5.057   9.123  1.00  0.00     0.131 A 
ATOM     76  C   UNL     1       6.292   4.938  10.882  1.00  0.00     0.055 A 
ATOM     77  C   UNL     1       7.665   6.215   9.416  1.00  0.00     0.041 A 
ATOM     78  F   UNL     1       9.511   5.266   8.411  1.00  0.00    -0.206 F 
ATOM     79  C   UNL     1       6.592   6.158  10.289  1.00  0.00     0.022 A 
BRANCH  76  80
ATOM     80  S   UNL     1       4.965   4.849  12.117  1.00  0.00     0.124 S 
ATOM     81  O   UNL     1       4.043   3.894  11.512  1.00  0.00    -0.237 OA
ATOM     82  O   UNL     1       5.680   4.396  13.305  1.00  0.00    -0.237 OA
ATOM     83  O   UNL     1       4.473   6.224  12.184  1.00  0.00    -0.744 OA
ENDBRANCH  76  80
ENDBRANCH  59  73
BRANCH  60  84
ATOM     84  C   UNL     1      10.200  -4.641   5.317  1.00  0.00     0.023 A 
ATOM     85  C   UNL     1       9.589  -5.302   4.228  1.00  0.00     0.031 A 
ATOM     86  C   UNL     1      11.496  -4.142   5.138  1.00  0.00     0.131 A 
ATOM     87  C   UNL     1      10.203  -5.306   2.968  1.00  0.00     0.055 A 
ATOM     88  C   UNL     1      12.133  -4.205   3.891  1.00  0.00     0.041 A 
ATOM     89  F   UNL     1      12.115  -3.476   6.124  1.00  0.00    -0.206 F 
ATOM     90  C   UNL     1      11.469  -4.747   2.790  1.00  0.00     0.022 A 
BRANCH  87  91
ATOM     91  S   UNL     1       9.232  -5.799   1.511  1.00  0.00     0.124 S 
ATOM     92  O   UNL     1       9.660  -7.179   1.311  1.00  0.00    -0.237 OA
ATOM     93  O   UNL     1       7.851  -5.621   1.955  1.00  0.00    -0.237 OA
ATOM     94  O   UNL     1       9.662  -4.848   0.488  1.00  0.00    -0.744 OA
ENDBRANCH  87  91
ENDBRANCH  60  84
BRANCH  72  95
ATOM     95  C   UNL     1      10.529  -1.982  12.102  1.00  0.00     0.023 A 
ATOM     96  C   UNL     1      11.602  -2.812  12.460  1.00  0.00     0.031 A 
ATOM     97  C   UNL     1      10.151  -1.026  13.080  1.00  0.00     0.131 A 
ATOM     98  C   UNL     1      12.188  -2.743  13.739  1.00  0.00     0.055 A 
ATOM     99  C   UNL     1      10.787  -0.905  14.320  1.00  0.00     0.041 A 
ATOM    100  F   UNL     1       9.151  -0.158  12.872  1.00  0.00    -0.206 F 
ATOM    101  C   UNL     1      11.803  -1.779  14.665  1.00  0.00     0.022 A 
BRANCH  98 102
ATOM    102  S   UNL     1      13.429  -3.988  14.186  1.00  0.00     0.124 S 
ATOM    103  O   UNL     1      12.651  -5.222  14.122  1.00  0.00    -0.237 OA
ATOM    104  O   UNL     1      14.434  -3.818  13.142  1.00  0.00    -0.237 OA
ATOM    105  O   UNL     1      13.851  -3.590  15.527  1.00  0.00    -0.744 OA
ENDBRANCH  98 102
ENDBRANCH  72  95
ENDBRANCH  46  47
ENDBRANCH  38  41
ENDBRANCH  36  37
ENDBRANCH  35  36
ENDBRANCH  34  35
ENDBRANCH   1  34
TORSDOF 19
