REMARK SMILES C[C@H]1CN(C(=O)N2CC[NH+]([C@@H](C)C(=O)NCCCCCCNC(=O)c3ccc(-c4c5nc(c(-c6cc(S(=O)(=O)[O-])ccc6F)c6ccc([nH]6)c(-c6cc(S(=O)(=O)[O-])ccc6F)c6nc(c(-c7cc(S(=O)(=O)[O-])ccc7F)c7ccc4[nH]7)C=C6)C=C5)cc3)CC2)C[C@@H]1C
REMARK SMILES IDX 19 1 18 2 17 3 16 4 15 5 13 6 14 7 11 9 12 10 10 11 1 12
REMARK SMILES IDX 2 13 3 14 91 15 4 16 90 17 92 18 5 19 6 20 7 21 8 22 89 23
REMARK SMILES IDX 9 24 88 25 20 27 21 28 22 29 23 30 24 32 25 33 26 34 87 35
REMARK SMILES IDX 27 36 86 37 28 38 29 39 30 40 80 41 31 42 85 43 79 44 81 45
REMARK SMILES IDX 32 46 84 47 78 48 77 49 33 51 65 52 45 53 64 54 46 55 49 56
REMARK SMILES IDX 63 57 82 58 47 59 48 60 62 62 83 63 50 64 34 65 35 66 43 67
REMARK SMILES IDX 36 68 42 69 44 70 41 71 37 72 38 73 39 74 40 75 66 76 67 77
REMARK SMILES IDX 75 78 68 79 74 80 76 81 73 82 69 83 70 84 71 85 72 86 51 87
REMARK SMILES IDX 52 88 60 89 53 90 59 91 61 92 58 93 54 94 55 95 56 96 57 97
REMARK H PARENT 15 8 10 26 22 31 81 50 49 61
REMARK Flexibility Score: inf
ROOT
ATOM      1  C   UNL     1       6.482   8.178   4.547  1.00  0.00     0.002 C 
ENDROOT
BRANCH   1   2
ATOM      2  C   UNL     1       7.159   7.074   3.730  1.00  0.00     0.002 C 
BRANCH   2   3
ATOM      3  C   UNL     1       6.321   6.535   2.572  1.00  0.00     0.021 C 
BRANCH   3   4
ATOM      4  C   UNL     1       6.101   7.541   1.433  1.00  0.00     0.116 C 
BRANCH   4   5
ATOM      5  N   UNL     1       7.023   7.290   0.342  1.00  0.00    -0.351 N 
ATOM      6  C   UNL     1       6.848   6.821  -0.925  1.00  0.00     0.278 C 
ATOM      7  O   UNL     1       7.886   6.578  -1.556  1.00  0.00    -0.268 OA
ATOM      8  H   UNL     1       7.960   7.500   0.559  1.00  0.00     0.163 HD
BRANCH   6   9
ATOM      9  C   UNL     1       5.463   6.634  -1.607  1.00  0.00     0.271 C 
ATOM     10  C   UNL     1       4.598   7.892  -1.585  1.00  0.00     0.086 C 
BRANCH   9  11
ATOM     11  N   UNL     1       4.853   5.306  -1.359  1.00  0.00    -0.322 N 
ATOM     12  C   UNL     1      -0.484   1.050  -1.503  1.00  0.00     0.010 C 
ATOM     13  C   UNL     1       0.341   1.265  -0.232  1.00  0.00     0.010 C 
ATOM     14  C   UNL     1       1.240   2.487  -0.372  1.00  0.00     0.125 C 
ATOM     15  C   UNL     1      -0.538   1.632   0.981  1.00  0.00     0.010 C 
ATOM     16  N   UNL     1       0.440   3.598   0.117  1.00  0.00    -0.324 N 
ATOM     17  C   UNL     1      -0.757   3.142   0.804  1.00  0.00     0.125 C 
ATOM     18  C   UNL     1       0.180   1.344   2.305  1.00  0.00     0.010 C 
ATOM     19  C   UNL     1       0.875   4.900   0.189  1.00  0.00     0.320 C 
ATOM     20  O   UNL     1       0.277   5.795   0.777  1.00  0.00    -0.248 OA
ATOM     21  N   UNL     1       2.129   5.081  -0.341  1.00  0.00    -0.313 N 
ATOM     22  C   UNL     1       3.191   5.500   0.544  1.00  0.00     0.183 C 
ATOM     23  C   UNL     1       2.312   5.391  -1.751  1.00  0.00     0.183 C 
ATOM     24  C   UNL     1       4.521   4.940   0.022  1.00  0.00     0.284 C 
ATOM     25  C   UNL     1       3.716   4.975  -2.249  1.00  0.00     0.284 C 
ATOM     26  H   UNL     1       5.655   4.722  -1.598  1.00  0.00     0.348 HD
ENDBRANCH   9  11
ENDBRANCH   6   9
ENDBRANCH   4   5
ENDBRANCH   3   4
ENDBRANCH   2   3
ENDBRANCH   1   2
BRANCH   1  27
ATOM     27  C   UNL     1       5.120   7.813   5.148  1.00  0.00     0.021 C 
BRANCH  27  28
ATOM     28  C   UNL     1       5.111   6.557   6.016  1.00  0.00     0.116 C 
BRANCH  28  29
ATOM     29  N   UNL     1       6.046   6.659   7.125  1.00  0.00    -0.352 N 
ATOM     30  C   UNL     1       5.805   6.660   8.476  1.00  0.00     0.251 C 
ATOM     31  H   UNL     1       6.993   6.739   6.868  1.00  0.00     0.163 HD
ATOM     32  O   UNL     1       6.690   7.013   9.249  1.00  0.00    -0.269 OA
BRANCH  30  33
ATOM     33  C   UNL     1       4.482   6.247   8.992  1.00  0.00     0.039 A 
ATOM     34  C   UNL     1       3.890   6.989  10.017  1.00  0.00     0.014 A 
ATOM     35  C   UNL     1       3.840   5.113   8.484  1.00  0.00     0.014 A 
ATOM     36  C   UNL     1       2.631   6.623  10.498  1.00  0.00     0.010 A 
ATOM     37  C   UNL     1       2.555   4.793   8.914  1.00  0.00     0.010 A 
ATOM     38  C   UNL     1       1.940   5.539   9.931  1.00  0.00    -0.014 A 
BRANCH  38  39
ATOM     39  C   UNL     1       0.585   5.156  10.404  1.00  0.00     0.031 A 
ATOM     40  C   UNL     1       0.369   3.823  11.069  1.00  0.00     0.074 A 
ATOM     41  C   UNL     1      -0.457   5.981  10.188  1.00  0.00     0.049 A 
ATOM     42  N   UNL     1      -0.742   3.275  11.489  1.00  0.00    -0.248 NA
ATOM     43  C   UNL     1       1.562   2.985  11.255  1.00  0.00     0.031 C 
ATOM     44  C   UNL     1      -0.377   7.286   9.527  1.00  0.00     0.029 A 
ATOM     45  N   UNL     1      -1.787   5.846  10.495  1.00  0.00    -0.354 N 
ATOM     46  C   UNL     1      -0.384   2.024  11.982  1.00  0.00     0.074 A 
ATOM     47  C   UNL     1       1.034   1.870  11.736  1.00  0.00     0.031 C 
ATOM     48  C   UNL     1      -1.597   7.845   9.511  1.00  0.00     0.029 A 
ATOM     49  C   UNL     1      -2.554   6.922  10.113  1.00  0.00     0.049 A 
ATOM     50  H   UNL     1      -2.157   5.054  10.946  1.00  0.00     0.167 HD
ATOM     51  C   UNL     1      -1.160   1.102  12.607  1.00  0.00     0.034 A 
ATOM     52  C   UNL     1      -3.879   7.136  10.231  1.00  0.00     0.034 A 
ATOM     53  C   UNL     1      -2.574   1.274  12.842  1.00  0.00     0.049 A 
ATOM     54  C   UNL     1      -4.733   6.076  10.880  1.00  0.00     0.074 A 
ATOM     55  C   UNL     1      -3.452   0.427  13.496  1.00  0.00     0.029 A 
ATOM     56  N   UNL     1      -3.322   2.368  12.422  1.00  0.00    -0.354 N 
ATOM     57  N   UNL     1      -4.375   4.915  11.378  1.00  0.00    -0.248 NA
ATOM     58  C   UNL     1      -6.168   6.362  10.989  1.00  0.00     0.031 C 
ATOM     59  C   UNL     1      -4.737   0.974  13.411  1.00  0.00     0.029 A 
ATOM     60  C   UNL     1      -4.653   2.202  12.774  1.00  0.00     0.049 A 
ATOM     61  H   UNL     1      -2.959   3.148  11.944  1.00  0.00     0.167 HD
ATOM     62  C   UNL     1      -5.538   4.349  11.894  1.00  0.00     0.074 A 
ATOM     63  C   UNL     1      -6.603   5.302  11.653  1.00  0.00     0.031 C 
ATOM     64  C   UNL     1      -5.709   3.155  12.517  1.00  0.00     0.034 A 
BRANCH  51  65
ATOM     65  C   UNL     1      -0.487  -0.179  13.048  1.00  0.00     0.023 A 
ATOM     66  C   UNL     1       0.579  -0.172  13.966  1.00  0.00     0.031 A 
ATOM     67  C   UNL     1      -0.871  -1.417  12.503  1.00  0.00     0.131 A 
ATOM     68  C   UNL     1       1.287  -1.353  14.231  1.00  0.00     0.055 A 
ATOM     69  C   UNL     1      -0.224  -2.606  12.846  1.00  0.00     0.041 A 
ATOM     70  F   UNL     1      -1.868  -1.490  11.607  1.00  0.00    -0.206 F 
ATOM     71  C   UNL     1       0.876  -2.576  13.698  1.00  0.00     0.022 A 
BRANCH  68  72
ATOM     72  S   UNL     1       2.858  -1.235  15.131  1.00  0.00     0.124 S 
ATOM     73  O   UNL     1       3.611  -0.309  14.288  1.00  0.00    -0.237 OA
ATOM     74  O   UNL     1       2.439  -0.722  16.430  1.00  0.00    -0.237 OA
ATOM     75  O   UNL     1       3.357  -2.609  15.132  1.00  0.00    -0.744 OA
ENDBRANCH  68  72
ENDBRANCH  51  65
BRANCH  52  76
ATOM     76  C   UNL     1      -4.487   8.404   9.735  1.00  0.00     0.023 A 
ATOM     77  C   UNL     1      -5.076   9.313  10.627  1.00  0.00     0.031 A 
ATOM     78  C   UNL     1      -4.519   8.710   8.363  1.00  0.00     0.131 A 
ATOM     79  C   UNL     1      -5.713  10.463  10.135  1.00  0.00     0.055 A 
ATOM     80  C   UNL     1      -5.107   9.881   7.883  1.00  0.00     0.041 A 
ATOM     81  F   UNL     1      -3.965   7.876   7.468  1.00  0.00    -0.206 F 
ATOM     82  C   UNL     1      -5.720  10.760   8.771  1.00  0.00     0.022 A 
BRANCH  79  83
ATOM     83  S   UNL     1      -6.600  11.529  11.304  1.00  0.00     0.124 S 
ATOM     84  O   UNL     1      -7.577  10.604  11.867  1.00  0.00    -0.237 OA
ATOM     85  O   UNL     1      -5.529  11.956  12.198  1.00  0.00    -0.237 OA
ATOM     86  O   UNL     1      -7.153  12.580  10.452  1.00  0.00    -0.744 OA
ENDBRANCH  79  83
ENDBRANCH  52  76
BRANCH  64  87
ATOM     87  C   UNL     1      -7.095   2.842  13.025  1.00  0.00     0.023 A 
ATOM     88  C   UNL     1      -8.178   2.634  12.152  1.00  0.00     0.031 A 
ATOM     89  C   UNL     1      -7.339   2.769  14.409  1.00  0.00     0.131 A 
ATOM     90  C   UNL     1      -9.464   2.423  12.671  1.00  0.00     0.055 A 
ATOM     91  C   UNL     1      -8.609   2.496  14.919  1.00  0.00     0.041 A 
ATOM     92  F   UNL     1      -6.343   2.962  15.289  1.00  0.00    -0.206 F 
ATOM     93  C   UNL     1      -9.683   2.335  14.049  1.00  0.00     0.022 A 
BRANCH  90  94
ATOM     94  S   UNL     1     -10.868   2.358  11.524  1.00  0.00     0.124 S 
ATOM     95  O   UNL     1     -10.781   3.657  10.865  1.00  0.00    -0.237 OA
ATOM     96  O   UNL     1     -10.542   1.200  10.697  1.00  0.00    -0.237 OA
ATOM     97  O   UNL     1     -12.023   2.184  12.404  1.00  0.00    -0.744 OA
ENDBRANCH  90  94
ENDBRANCH  64  87
ENDBRANCH  38  39
ENDBRANCH  30  33
ENDBRANCH  28  29
ENDBRANCH  27  28
ENDBRANCH   1  27
TORSDOF 17
