REMARK SMILES CCc1c(C)nn(CC(=O)N[C@H](C(=O)NCCCCCCNC(=O)c2ccc(-c3c4nc(c(-c5cc(S(=O)(=O)[O-])ccc5F)c5ccc([nH]5)c(-c5cc(S(=O)(=O)[O-])ccc5F)c5nc(c(-c6cc(S(=O)(=O)[O-])ccc6F)c6ccc3[nH]6)C=C5)C=C4)cc2)c2c(C)n[nH]c2C)c1C
REMARK SMILES IDX 18 1 17 2 16 3 15 4 13 5 14 6 12 8 11 9 9 10 10 11 8 13 7 14
REMARK SMILES IDX 3 15 4 16 95 17 5 18 6 19 96 20 2 21 1 22 88 23 89 24 93 25
REMARK SMILES IDX 90 26 91 27 92 28 94 29 19 31 20 32 21 33 22 34 23 35 24 37
REMARK SMILES IDX 25 38 26 39 87 40 27 41 86 42 28 43 29 44 30 45 80 46 31 47
REMARK SMILES IDX 85 48 79 49 81 50 32 51 84 52 78 53 77 54 33 56 65 57 45 58
REMARK SMILES IDX 64 59 46 60 49 61 63 62 82 63 47 64 48 65 62 67 83 68 50 69
REMARK SMILES IDX 34 70 35 71 43 72 36 73 42 74 44 75 41 76 37 77 38 78 39 79
REMARK SMILES IDX 40 80 66 81 67 82 75 83 68 84 74 85 76 86 73 87 69 88 70 89
REMARK SMILES IDX 71 90 72 91 51 92 52 93 60 94 53 95 59 96 61 97 58 98 54 99
REMARK SMILES IDX 55 100 56 101 57 102
REMARK H PARENT 15 7 11 12 92 30 22 36 81 55 49 66
REMARK Flexibility Score: inf
ROOT
ATOM      1  C   UNL     1      -3.505  -6.636  -7.399  1.00  0.00     0.002 C 
ENDROOT
BRANCH   1   2
ATOM      2  C   UNL     1      -3.675  -5.267  -6.742  1.00  0.00     0.021 C 
BRANCH   2   3
ATOM      3  C   UNL     1      -3.213  -5.175  -5.295  1.00  0.00     0.116 C 
BRANCH   3   4
ATOM      4  N   UNL     1      -1.776  -5.118  -5.087  1.00  0.00    -0.354 N 
ATOM      5  C   UNL     1      -1.071  -4.421  -4.131  1.00  0.00     0.247 C 
ATOM      6  O   UNL     1       0.071  -4.830  -3.881  1.00  0.00    -0.272 OA
ATOM      7  H   UNL     1      -1.234  -5.649  -5.713  1.00  0.00     0.163 HD
BRANCH   5   8
ATOM      8  C   UNL     1      -1.624  -3.156  -3.383  1.00  0.00     0.206 C 
BRANCH   8   9
ATOM      9  N   UNL     1      -1.980  -2.192  -4.398  1.00  0.00    -0.339 N 
ATOM     10  C   UNL     1      -3.218  -1.923  -4.885  1.00  0.00     0.242 C 
ATOM     11  O   UNL     1      -3.293  -1.550  -6.057  1.00  0.00    -0.273 OA
ATOM     12  H   UNL     1      -1.238  -1.669  -4.781  1.00  0.00     0.164 HD
BRANCH  10  13
ATOM     13  C   UNL     1      -4.378  -1.857  -3.938  1.00  0.00     0.244 C 
BRANCH  13  14
ATOM     14  N   UNL     1      -4.921  -3.099  -3.342  1.00  0.00    -0.260 N 
ATOM     15  C   UNL     1      -5.722  -5.059  -2.419  1.00  0.00    -0.004 A 
ATOM     16  C   UNL     1      -6.469  -4.587  -3.529  1.00  0.00     0.063 A 
ATOM     17  C   UNL     1      -4.566  -4.056  -2.110  1.00  0.00     0.039 A 
ATOM     18  C   UNL     1      -7.661  -5.157  -4.222  1.00  0.00     0.069 C 
ATOM     19  N   UNL     1      -6.022  -3.459  -4.008  1.00  0.00    -0.177 NA
ATOM     20  C   UNL     1      -2.994  -3.909  -0.527  1.00  0.00     0.066 C 
BRANCH  15  21
ATOM     21  C   UNL     1      -6.130  -6.406  -1.783  1.00  0.00     0.036 C 
ATOM     22  C   UNL     1      -6.961  -6.303  -0.506  1.00  0.00     0.009 C 
ENDBRANCH  15  21
ENDBRANCH  13  14
ENDBRANCH  10  13
ENDBRANCH   8   9
BRANCH   8  23
ATOM     23  C   UNL     1      -2.698  -3.436  -2.371  1.00  0.00     0.027 A 
ATOM     24  C   UNL     1      -3.060  -5.293  -1.831  1.00  0.00     0.065 A 
ATOM     25  C   UNL     1      -3.791  -2.380  -1.338  1.00  0.00     0.038 A 
ATOM     26  C   UNL     1      -2.284  -6.534  -2.098  1.00  0.00     0.069 C 
ATOM     27  N   UNL     1      -4.255  -5.303  -0.580  1.00  0.00    -0.180 NA
ATOM     28  N   UNL     1      -4.809  -3.545  -0.298  1.00  0.00    -0.282 N 
ATOM     29  C   UNL     1      -3.986  -0.931  -1.006  1.00  0.00     0.066 C 
ATOM     30  H   UNL     1      -5.534  -3.271   0.311  1.00  0.00     0.190 HD
ENDBRANCH   8  23
ENDBRANCH   5   8
ENDBRANCH   3   4
ENDBRANCH   2   3
ENDBRANCH   1   2
BRANCH   1  31
ATOM     31  C   UNL     1      -4.194  -7.817  -6.704  1.00  0.00     0.002 C 
BRANCH  31  32
ATOM     32  C   UNL     1      -5.694  -7.672  -6.427  1.00  0.00     0.021 C 
BRANCH  32  33
ATOM     33  C   UNL     1      -6.573  -7.329  -7.629  1.00  0.00     0.116 C 
BRANCH  33  34
ATOM     34  N   UNL     1      -6.511  -8.341  -8.670  1.00  0.00    -0.352 N 
ATOM     35  C   UNL     1      -7.524  -8.995  -9.329  1.00  0.00     0.251 C 
ATOM     36  H   UNL     1      -5.602  -8.599  -8.946  1.00  0.00     0.163 HD
ATOM     37  O   UNL     1      -7.250  -9.947 -10.055  1.00  0.00    -0.269 OA
BRANCH  35  38
ATOM     38  C   UNL     1      -8.937  -8.582  -9.152  1.00  0.00     0.039 A 
ATOM     39  C   UNL     1      -9.914  -9.575  -9.025  1.00  0.00     0.014 A 
ATOM     40  C   UNL     1      -9.314  -7.236  -9.147  1.00  0.00     0.014 A 
ATOM     41  C   UNL     1     -11.252  -9.219  -8.834  1.00  0.00     0.010 A 
ATOM     42  C   UNL     1     -10.640  -6.882  -8.892  1.00  0.00     0.010 A 
ATOM     43  C   UNL     1     -11.625  -7.869  -8.730  1.00  0.00    -0.014 A 
BRANCH  43  44
ATOM     44  C   UNL     1     -13.034  -7.483  -8.438  1.00  0.00     0.031 A 
ATOM     45  C   UNL     1     -13.840  -6.705  -9.445  1.00  0.00     0.074 A 
ATOM     46  C   UNL     1     -13.576  -7.800  -7.244  1.00  0.00     0.049 A 
ATOM     47  N   UNL     1     -15.063  -6.247  -9.351  1.00  0.00    -0.248 NA
ATOM     48  C   UNL     1     -13.176  -6.383 -10.717  1.00  0.00     0.031 C 
ATOM     49  C   UNL     1     -12.890  -8.528  -6.175  1.00  0.00     0.029 A 
ATOM     50  N   UNL     1     -14.823  -7.551  -6.725  1.00  0.00    -0.354 N 
ATOM     51  C   UNL     1     -15.312  -5.574 -10.543  1.00  0.00     0.074 A 
ATOM     52  C   UNL     1     -14.092  -5.640 -11.320  1.00  0.00     0.031 C 
ATOM     53  C   UNL     1     -13.733  -8.695  -5.144  1.00  0.00     0.029 A 
ATOM     54  C   UNL     1     -15.001  -8.039  -5.450  1.00  0.00     0.049 A 
ATOM     55  H   UNL     1     -15.524  -7.067  -7.218  1.00  0.00     0.167 HD
ATOM     56  C   UNL     1     -16.457  -4.974 -10.957  1.00  0.00     0.034 A 
ATOM     57  C   UNL     1     -16.057  -7.958  -4.616  1.00  0.00     0.034 A 
ATOM     58  C   UNL     1     -17.667  -4.921 -10.171  1.00  0.00     0.049 A 
ATOM     59  C   UNL     1     -17.301  -7.241  -5.082  1.00  0.00     0.074 A 
ATOM     60  C   UNL     1     -18.897  -4.389 -10.520  1.00  0.00     0.029 A 
ATOM     61  N   UNL     1     -17.801  -5.402  -8.874  1.00  0.00    -0.354 N 
ATOM     62  N   UNL     1     -17.537  -6.659  -6.236  1.00  0.00    -0.248 NA
ATOM     63  C   UNL     1     -18.423  -7.179  -4.136  1.00  0.00     0.031 C 
ATOM     64  C   UNL     1     -19.743  -4.470  -9.410  1.00  0.00     0.029 A 
ATOM     65  C   UNL     1     -19.076  -5.139  -8.396  1.00  0.00     0.049 A 
ATOM     66  H   UNL     1     -17.093  -5.863  -8.368  1.00  0.00     0.167 HD
ATOM     67  C   UNL     1     -18.849  -6.195  -6.164  1.00  0.00     0.074 A 
ATOM     68  C   UNL     1     -19.355  -6.581  -4.863  1.00  0.00     0.031 C 
ATOM     69  C   UNL     1     -19.571  -5.516  -7.092  1.00  0.00     0.034 A 
BRANCH  56  70
ATOM     70  C   UNL     1     -16.444  -4.294 -12.307  1.00  0.00     0.023 A 
ATOM     71  C   UNL     1     -16.230  -5.010 -13.498  1.00  0.00     0.031 A 
ATOM     72  C   UNL     1     -16.646  -2.905 -12.404  1.00  0.00     0.131 A 
ATOM     73  C   UNL     1     -16.155  -4.328 -14.723  1.00  0.00     0.055 A 
ATOM     74  C   UNL     1     -16.653  -2.244 -13.634  1.00  0.00     0.041 A 
ATOM     75  F   UNL     1     -16.834  -2.162 -11.301  1.00  0.00    -0.206 F 
ATOM     76  C   UNL     1     -16.393  -2.954 -14.802  1.00  0.00     0.022 A 
BRANCH  73  77
ATOM     77  S   UNL     1     -15.603  -5.239 -16.190  1.00  0.00     0.124 S 
ATOM     78  O   UNL     1     -14.294  -5.725 -15.761  1.00  0.00    -0.237 OA
ATOM     79  O   UNL     1     -16.642  -6.251 -16.343  1.00  0.00    -0.237 OA
ATOM     80  O   UNL     1     -15.568  -4.218 -17.235  1.00  0.00    -0.744 OA
ENDBRANCH  73  77
ENDBRANCH  56  70
BRANCH  57  81
ATOM     81  C   UNL     1     -15.995  -8.553  -3.248  1.00  0.00     0.023 A 
ATOM     82  C   UNL     1     -16.875  -9.578  -2.865  1.00  0.00     0.031 A 
ATOM     83  C   UNL     1     -15.098  -8.063  -2.281  1.00  0.00     0.131 A 
ATOM     84  C   UNL     1     -16.881 -10.039  -1.539  1.00  0.00     0.055 A 
ATOM     85  C   UNL     1     -15.062  -8.571  -0.982  1.00  0.00     0.041 A 
ATOM     86  F   UNL     1     -14.234  -7.083  -2.590  1.00  0.00    -0.206 F 
ATOM     87  C   UNL     1     -15.969  -9.554  -0.599  1.00  0.00     0.022 A 
BRANCH  84  88
ATOM     88  S   UNL     1     -18.175 -11.204  -1.031  1.00  0.00     0.124 S 
ATOM     89  O   UNL     1     -19.387 -10.461  -1.357  1.00  0.00    -0.237 OA
ATOM     90  O   UNL     1     -17.886 -12.362  -1.871  1.00  0.00    -0.237 OA
ATOM     91  O   UNL     1     -17.922 -11.392   0.396  1.00  0.00    -0.744 OA
ENDBRANCH  84  88
ENDBRANCH  57  81
BRANCH  69  92
ATOM     92  C   UNL     1     -21.006  -5.192  -6.747  1.00  0.00     0.023 A 
ATOM     93  C   UNL     1     -21.340  -4.322  -5.694  1.00  0.00     0.031 A 
ATOM     94  C   UNL     1     -22.058  -5.778  -7.475  1.00  0.00     0.131 A 
ATOM     95  C   UNL     1     -22.686  -4.113  -5.358  1.00  0.00     0.055 A 
ATOM     96  C   UNL     1     -23.395  -5.510  -7.182  1.00  0.00     0.041 A 
ATOM     97  F   UNL     1     -21.801  -6.622  -8.488  1.00  0.00    -0.206 F 
ATOM     98  C   UNL     1     -23.716  -4.685  -6.109  1.00  0.00     0.022 A 
BRANCH  95  99
ATOM     99  S   UNL     1     -23.074  -3.169  -3.858  1.00  0.00     0.124 S 
ATOM    100  O   UNL     1     -22.382  -3.937  -2.829  1.00  0.00    -0.237 OA
ATOM    101  O   UNL     1     -22.511  -1.857  -4.161  1.00  0.00    -0.237 OA
ATOM    102  O   UNL     1     -24.534  -3.215  -3.791  1.00  0.00    -0.744 OA
ENDBRANCH  95  99
ENDBRANCH  69  92
ENDBRANCH  43  44
ENDBRANCH  35  38
ENDBRANCH  33  34
ENDBRANCH  32  33
ENDBRANCH  31  32
ENDBRANCH   1  31
TORSDOF 21
