REMARK SMILES Cc1cc(NC(=O)CC2(CC(=O)NCCCCCCNC(=O)c3ccc(-c4c5nc(c(-c6cc(S(=O)(=O)[O-])ccc6F)c6ccc([nH]6)c(-c6cc(S(=O)(=O)[O-])ccc6F)c6nc(c(-c7cc(S(=O)(=O)[O-])ccc7F)c7ccc4[nH]7)C=C6)C=C5)cc3)CCCC2)ccn1
REMARK SMILES IDX 16 1 15 2 14 3 13 4 11 5 12 6 10 8 9 9 86 10 89 11 87 12
REMARK SMILES IDX 88 13 8 14 6 15 5 16 7 18 4 19 1 20 2 21 3 22 92 23 91 24
REMARK SMILES IDX 90 25 17 26 18 27 19 28 20 29 21 30 22 32 23 33 24 34 85 35
REMARK SMILES IDX 25 36 84 37 26 38 27 39 28 40 78 41 29 42 83 43 77 44 79 45
REMARK SMILES IDX 30 46 82 47 76 48 75 49 31 51 63 52 43 53 62 54 44 55 47 56
REMARK SMILES IDX 61 57 80 58 45 59 46 60 60 62 81 63 48 64 32 65 33 66 41 67
REMARK SMILES IDX 34 68 40 69 42 70 39 71 35 72 36 73 37 74 38 75 64 76 65 77
REMARK SMILES IDX 73 78 66 79 72 80 74 81 71 82 67 83 68 84 69 85 70 86 49 87
REMARK SMILES IDX 50 88 58 89 51 90 57 91 59 92 56 93 52 94 53 95 54 96 55 97
REMARK H PARENT 13 7 5 17 20 31 79 50 47 61
REMARK Flexibility Score: inf
ROOT
ATOM      1  C   UNL     1      -8.489   2.608   1.133  1.00  0.00     0.002 C 
ENDROOT
BRANCH   1   2
ATOM      2  C   UNL     1      -7.022   2.210   1.290  1.00  0.00     0.021 C 
BRANCH   2   3
ATOM      3  C   UNL     1      -6.744   1.376   2.539  1.00  0.00     0.116 C 
BRANCH   3   4
ATOM      4  N   UNL     1      -6.947  -0.026   2.254  1.00  0.00    -0.356 N 
ATOM      5  C   UNL     1      -6.046  -1.040   2.199  1.00  0.00     0.220 C 
ATOM      6  O   UNL     1      -6.456  -2.157   1.879  1.00  0.00    -0.275 OA
ATOM      7  H   UNL     1      -7.879  -0.285   2.072  1.00  0.00     0.163 HD
BRANCH   5   8
ATOM      8  C   UNL     1      -4.590  -0.814   2.577  1.00  0.00     0.107 C 
BRANCH   8   9
ATOM      9  C   UNL     1      -3.569  -0.371   1.479  1.00  0.00    -0.012 C 
ATOM     10  C   UNL     1      -2.167  -0.435   2.137  1.00  0.00     0.008 C 
ATOM     11  C   UNL     1      -3.604   1.138   1.150  1.00  0.00     0.008 C 
ATOM     12  C   UNL     1      -2.052   0.827   2.993  1.00  0.00     0.001 C 
ATOM     13  C   UNL     1      -2.916   1.870   2.297  1.00  0.00     0.001 C 
BRANCH   9  14
ATOM     14  C   UNL     1      -3.756  -1.176   0.157  1.00  0.00     0.108 C 
BRANCH  14  15
ATOM     15  C   UNL     1      -2.866  -2.379  -0.085  1.00  0.00     0.224 C 
ATOM     16  N   UNL     1      -1.578  -2.278  -0.524  1.00  0.00    -0.326 N 
ATOM     17  H   UNL     1      -1.135  -3.149  -0.650  1.00  0.00     0.169 HD
ATOM     18  O   UNL     1      -3.281  -3.515   0.166  1.00  0.00    -0.275 OA
BRANCH  16  19
ATOM     19  C   UNL     1      -0.757  -1.181  -0.833  1.00  0.00     0.044 A 
ATOM     20  C   UNL     1       2.816  -0.245  -0.024  1.00  0.00     0.067 C 
ATOM     21  C   UNL     1       1.417  -0.194  -0.558  1.00  0.00     0.039 A 
ATOM     22  C   UNL     1       0.590  -1.309  -0.485  1.00  0.00     0.049 A 
ATOM     23  N   UNL     1       0.980   1.004  -1.004  1.00  0.00    -0.261 NA
ATOM     24  C   UNL     1      -0.303   1.083  -1.411  1.00  0.00     0.113 A 
ATOM     25  C   UNL     1      -1.195   0.025  -1.360  1.00  0.00     0.046 A 
ENDBRANCH  16  19
ENDBRANCH  14  15
ENDBRANCH   9  14
ENDBRANCH   8   9
ENDBRANCH   5   8
ENDBRANCH   3   4
ENDBRANCH   2   3
ENDBRANCH   1   2
BRANCH   1  26
ATOM     26  C   UNL     1      -9.019   3.517   2.246  1.00  0.00     0.002 C 
BRANCH  26  27
ATOM     27  C   UNL     1      -8.181   4.771   2.513  1.00  0.00     0.021 C 
BRANCH  27  28
ATOM     28  C   UNL     1      -7.949   5.650   1.286  1.00  0.00     0.116 C 
BRANCH  28  29
ATOM     29  N   UNL     1      -9.204   6.091   0.703  1.00  0.00    -0.352 N 
ATOM     30  C   UNL     1      -9.712   7.361   0.594  1.00  0.00     0.251 C 
ATOM     31  H   UNL     1      -9.771   5.376   0.333  1.00  0.00     0.163 HD
ATOM     32  O   UNL     1     -10.899   7.522   0.333  1.00  0.00    -0.269 OA
BRANCH  30  33
ATOM     33  C   UNL     1      -8.823   8.523   0.800  1.00  0.00     0.039 A 
ATOM     34  C   UNL     1      -9.277   9.598   1.566  1.00  0.00     0.014 A 
ATOM     35  C   UNL     1      -7.553   8.559   0.216  1.00  0.00     0.014 A 
ATOM     36  C   UNL     1      -8.438  10.691   1.786  1.00  0.00     0.010 A 
ATOM     37  C   UNL     1      -6.693   9.617   0.494  1.00  0.00     0.010 A 
ATOM     38  C   UNL     1      -7.130  10.699   1.274  1.00  0.00    -0.014 A 
BRANCH  38  39
ATOM     39  C   UNL     1      -6.213  11.840   1.522  1.00  0.00     0.031 A 
ATOM     40  C   UNL     1      -5.738  12.684   0.370  1.00  0.00     0.074 A 
ATOM     41  C   UNL     1      -5.766  12.078   2.770  1.00  0.00     0.049 A 
ATOM     42  N   UNL     1      -4.876  13.668   0.364  1.00  0.00    -0.248 NA
ATOM     43  C   UNL     1      -6.284  12.355  -0.955  1.00  0.00     0.031 C 
ATOM     44  C   UNL     1      -6.130  11.304   3.959  1.00  0.00     0.029 A 
ATOM     45  N   UNL     1      -4.902  13.031   3.248  1.00  0.00    -0.354 N 
ATOM     46  C   UNL     1      -4.768  14.069  -0.964  1.00  0.00     0.074 A 
ATOM     47  C   UNL     1      -5.603  13.177  -1.739  1.00  0.00     0.031 C 
ATOM     48  C   UNL     1      -5.510  11.825   5.030  1.00  0.00     0.029 A 
ATOM     49  C   UNL     1      -4.670  12.939   4.601  1.00  0.00     0.049 A 
ATOM     50  H   UNL     1      -4.487  13.716   2.676  1.00  0.00     0.167 HD
ATOM     51  C   UNL     1      -4.058  15.101  -1.483  1.00  0.00     0.034 A 
ATOM     52  C   UNL     1      -3.862  13.662   5.402  1.00  0.00     0.034 A 
ATOM     53  C   UNL     1      -3.238  15.986  -0.691  1.00  0.00     0.049 A 
ATOM     54  C   UNL     1      -3.063  14.790   4.798  1.00  0.00     0.074 A 
ATOM     55  C   UNL     1      -2.511  17.089  -1.104  1.00  0.00     0.029 A 
ATOM     56  N   UNL     1      -3.032  15.867   0.678  1.00  0.00    -0.354 N 
ATOM     57  N   UNL     1      -3.004  15.183   3.546  1.00  0.00    -0.248 NA
ATOM     58  C   UNL     1      -2.232  15.577   5.717  1.00  0.00     0.031 C 
ATOM     59  C   UNL     1      -1.815  17.595  -0.000  1.00  0.00     0.029 A 
ATOM     60  C   UNL     1      -2.168  16.858   1.119  1.00  0.00     0.049 A 
ATOM     61  H   UNL     1      -3.440  15.179   1.252  1.00  0.00     0.167 HD
ATOM     62  C   UNL     1      -2.154  16.286   3.536  1.00  0.00     0.074 A 
ATOM     63  C   UNL     1      -1.738  16.501   4.906  1.00  0.00     0.031 C 
ATOM     64  C   UNL     1      -1.756  17.054   2.489  1.00  0.00     0.034 A 
BRANCH  51  65
ATOM     65  C   UNL     1      -4.123  15.306  -2.978  1.00  0.00     0.023 A 
ATOM     66  C   UNL     1      -5.331  15.612  -3.629  1.00  0.00     0.031 A 
ATOM     67  C   UNL     1      -2.969  15.167  -3.770  1.00  0.00     0.131 A 
ATOM     68  C   UNL     1      -5.375  15.690  -5.029  1.00  0.00     0.055 A 
ATOM     69  C   UNL     1      -3.002  15.330  -5.157  1.00  0.00     0.041 A 
ATOM     70  F   UNL     1      -1.789  14.855  -3.210  1.00  0.00    -0.206 F 
ATOM     71  C   UNL     1      -4.213  15.577  -5.796  1.00  0.00     0.022 A 
BRANCH  68  72
ATOM     72  S   UNL     1      -6.993  15.791  -5.841  1.00  0.00     0.124 S 
ATOM     73  O   UNL     1      -7.636  14.567  -5.369  1.00  0.00    -0.237 OA
ATOM     74  O   UNL     1      -7.532  17.040  -5.315  1.00  0.00    -0.237 OA
ATOM     75  O   UNL     1      -6.663  15.804  -7.264  1.00  0.00    -0.744 OA
ENDBRANCH  68  72
ENDBRANCH  51  65
BRANCH  52  76
ATOM     76  C   UNL     1      -3.755  13.342   6.854  1.00  0.00     0.023 A 
ATOM     77  C   UNL     1      -4.174  14.258   7.831  1.00  0.00     0.031 A 
ATOM     78  C   UNL     1      -3.191  12.128   7.287  1.00  0.00     0.131 A 
ATOM     79  C   UNL     1      -3.979  13.970   9.190  1.00  0.00     0.055 A 
ATOM     80  C   UNL     1      -3.050  11.822   8.642  1.00  0.00     0.041 A 
ATOM     81  F   UNL     1      -2.779  11.213   6.396  1.00  0.00    -0.206 F 
ATOM     82  C   UNL     1      -3.432  12.753   9.603  1.00  0.00     0.022 A 
BRANCH  79  83
ATOM     83  S   UNL     1      -4.371  15.251  10.414  1.00  0.00     0.124 S 
ATOM     84  O   UNL     1      -3.527  16.354   9.970  1.00  0.00    -0.237 OA
ATOM     85  O   UNL     1      -5.807  15.423  10.221  1.00  0.00    -0.237 OA
ATOM     86  O   UNL     1      -3.984  14.638  11.683  1.00  0.00    -0.744 OA
ENDBRANCH  79  83
ENDBRANCH  52  76
BRANCH  64  87
ATOM     87  C   UNL     1      -0.860  18.227   2.802  1.00  0.00     0.023 A 
ATOM     88  C   UNL     1       0.453  18.053   3.273  1.00  0.00     0.031 A 
ATOM     89  C   UNL     1      -1.334  19.541   2.635  1.00  0.00     0.131 A 
ATOM     90  C   UNL     1       1.227  19.173   3.615  1.00  0.00     0.055 A 
ATOM     91  C   UNL     1      -0.538  20.651   2.917  1.00  0.00     0.041 A 
ATOM     92  F   UNL     1      -2.581  19.765   2.190  1.00  0.00    -0.206 F 
ATOM     93  C   UNL     1       0.746  20.471   3.423  1.00  0.00     0.022 A 
BRANCH  90  94
ATOM     94  S   UNL     1       2.840  18.910   4.401  1.00  0.00     0.124 S 
ATOM     95  O   UNL     1       2.477  18.148   5.591  1.00  0.00    -0.237 OA
ATOM     96  O   UNL     1       3.572  18.176   3.373  1.00  0.00    -0.237 OA
ATOM     97  O   UNL     1       3.323  20.266   4.656  1.00  0.00    -0.744 OA
ENDBRANCH  90  94
ENDBRANCH  64  87
ENDBRANCH  38  39
ENDBRANCH  30  33
ENDBRANCH  28  29
ENDBRANCH  27  28
ENDBRANCH  26  27
ENDBRANCH   1  26
TORSDOF 20
