REMARK SMILES O=C(NCCCCCCNC(=O)[C@@]1(Cl)C[C@@H]2CC[C@H]1C2)c1ccc(-c2c3nc(c(-c4cc(S(=O)(=O)[O-])ccc4F)c4ccc([nH]4)c(-c4cc(S(=O)(=O)[O-])ccc4F)c4nc(c(-c5cc(S(=O)(=O)[O-])ccc5F)c5ccc2[nH]5)C=C4)C=C3)cc1
REMARK SMILES IDX 5 1 4 2 3 3 1 4 2 5 21 7 22 8 83 9 23 10 82 11 24 12 25 13
REMARK SMILES IDX 26 14 76 15 27 16 81 17 75 18 77 19 28 20 80 21 74 22 73 23
REMARK SMILES IDX 29 25 61 26 41 27 60 28 42 29 45 30 59 31 78 32 43 33 44 34
REMARK SMILES IDX 58 36 79 37 46 38 30 39 31 40 39 41 32 42 38 43 40 44 37 45
REMARK SMILES IDX 33 46 34 47 35 48 36 49 62 50 63 51 71 52 64 53 70 54 72 55
REMARK SMILES IDX 69 56 65 57 66 58 67 59 68 60 47 61 48 62 56 63 49 64 55 65
REMARK SMILES IDX 57 66 54 67 50 68 51 69 52 70 53 71 6 72 7 73 8 74 9 75
REMARK SMILES IDX 10 76 11 77 12 79 13 80 15 81 19 82 14 83 16 84 18 85 20 86
REMARK SMILES IDX 17 87
REMARK H PARENT 3 6 77 24 45 35 10 78
REMARK Flexibility Score: inf
ROOT
ATOM      1  C   UNL     1      12.453   6.735  -7.971  1.00  0.00     0.021 C 
ENDROOT
BRANCH   1   2
ATOM      2  C   UNL     1      13.966   6.909  -7.975  1.00  0.00     0.116 C 
BRANCH   2   3
ATOM      3  N   UNL     1      14.628   5.955  -8.849  1.00  0.00    -0.352 N 
ATOM      4  O   UNL     1      15.837   5.285 -10.630  1.00  0.00    -0.269 OA
ATOM      5  C   UNL     1      15.507   6.197  -9.876  1.00  0.00     0.251 C 
ATOM      6  H   UNL     1      14.418   5.008  -8.682  1.00  0.00     0.163 HD
BRANCH   5   7
ATOM      7  C   UNL     1      16.043   7.561 -10.075  1.00  0.00     0.039 A 
ATOM      8  C   UNL     1      16.515   8.305  -8.990  1.00  0.00     0.014 A 
ATOM      9  C   UNL     1      16.089   8.095 -11.366  1.00  0.00     0.014 A 
ATOM     10  C   UNL     1      16.922   9.621  -9.178  1.00  0.00     0.010 A 
ATOM     11  C   UNL     1      16.575   9.392 -11.564  1.00  0.00     0.010 A 
ATOM     12  C   UNL     1      16.979  10.171 -10.469  1.00  0.00    -0.014 A 
BRANCH  12  13
ATOM     13  C   UNL     1      17.545  11.532 -10.653  1.00  0.00     0.031 A 
ATOM     14  C   UNL     1      16.697  12.669 -11.146  1.00  0.00     0.074 A 
ATOM     15  C   UNL     1      18.843  11.732 -10.348  1.00  0.00     0.049 A 
ATOM     16  N   UNL     1      17.033  13.917 -11.357  1.00  0.00    -0.248 NA
ATOM     17  C   UNL     1      15.291  12.367 -11.450  1.00  0.00     0.031 C 
ATOM     18  C   UNL     1      19.761  10.693  -9.869  1.00  0.00     0.029 A 
ATOM     19  N   UNL     1      19.612  12.865 -10.376  1.00  0.00    -0.354 N 
ATOM     20  C   UNL     1      15.888  14.549 -11.829  1.00  0.00     0.074 A 
ATOM     21  C   UNL     1      14.855  13.535 -11.904  1.00  0.00     0.031 C 
ATOM     22  C   UNL     1      20.954  11.246  -9.609  1.00  0.00     0.029 A 
ATOM     23  C   UNL     1      20.909  12.659  -9.966  1.00  0.00     0.049 A 
ATOM     24  H   UNL     1      19.270  13.743 -10.661  1.00  0.00     0.167 HD
ATOM     25  C   UNL     1      15.717  15.854 -12.161  1.00  0.00     0.034 A 
ATOM     26  C   UNL     1      21.955  13.504  -9.907  1.00  0.00     0.034 A 
ATOM     27  C   UNL     1      16.764  16.847 -12.082  1.00  0.00     0.049 A 
ATOM     28  C   UNL     1      21.748  14.935 -10.320  1.00  0.00     0.074 A 
ATOM     29  C   UNL     1      16.692  18.201 -12.365  1.00  0.00     0.029 A 
ATOM     30  N   UNL     1      18.077  16.594 -11.703  1.00  0.00    -0.354 N 
ATOM     31  N   UNL     1      20.652  15.520 -10.746  1.00  0.00    -0.248 NA
ATOM     32  C   UNL     1      22.916  15.819 -10.243  1.00  0.00     0.031 C 
ATOM     33  C   UNL     1      17.972  18.750 -12.221  1.00  0.00     0.029 A 
ATOM     34  C   UNL     1      18.830  17.758 -11.776  1.00  0.00     0.049 A 
ATOM     35  H   UNL     1      18.423  15.716 -11.423  1.00  0.00     0.167 HD
ATOM     36  C   UNL     1      20.997  16.848 -10.972  1.00  0.00     0.074 A 
ATOM     37  C   UNL     1      22.395  16.980 -10.611  1.00  0.00     0.031 C 
ATOM     38  C   UNL     1      20.229  17.867 -11.436  1.00  0.00     0.034 A 
BRANCH  25  39
ATOM     39  C   UNL     1      14.361  16.269 -12.681  1.00  0.00     0.023 A 
ATOM     40  C   UNL     1      13.209  16.215 -11.878  1.00  0.00     0.031 A 
ATOM     41  C   UNL     1      14.216  16.716 -14.007  1.00  0.00     0.131 A 
ATOM     42  C   UNL     1      11.957  16.539 -12.423  1.00  0.00     0.055 A 
ATOM     43  C   UNL     1      12.979  17.108 -14.523  1.00  0.00     0.041 A 
ATOM     44  F   UNL     1      15.276  16.772 -14.829  1.00  0.00    -0.206 F 
ATOM     45  C   UNL     1      11.837  17.008 -13.733  1.00  0.00     0.022 A 
BRANCH  42  46
ATOM     46  S   UNL     1      10.470  16.216 -11.436  1.00  0.00     0.124 S 
ATOM     47  O   UNL     1      10.588  14.782 -11.181  1.00  0.00    -0.237 OA
ATOM     48  O   UNL     1      10.662  17.086 -10.281  1.00  0.00    -0.237 OA
ATOM     49  O   UNL     1       9.376  16.594 -12.328  1.00  0.00    -0.744 OA
ENDBRANCH  42  46
ENDBRANCH  25  39
BRANCH  26  50
ATOM     50  C   UNL     1      23.293  13.012  -9.475  1.00  0.00     0.023 A 
ATOM     51  C   UNL     1      23.901  13.493  -8.306  1.00  0.00     0.031 A 
ATOM     52  C   UNL     1      23.994  12.063 -10.242  1.00  0.00     0.131 A 
ATOM     53  C   UNL     1      25.187  13.053  -7.956  1.00  0.00     0.055 A 
ATOM     54  C   UNL     1      25.249  11.589  -9.861  1.00  0.00     0.041 A 
ATOM     55  F   UNL     1      23.455  11.567 -11.367  1.00  0.00    -0.206 F 
ATOM     56  C   UNL     1      25.858  12.094  -8.718  1.00  0.00     0.022 A 
BRANCH  53  57
ATOM     57  S   UNL     1      26.005  13.814  -6.528  1.00  0.00     0.124 S 
ATOM     58  O   UNL     1      25.989  15.226  -6.893  1.00  0.00    -0.237 OA
ATOM     59  O   UNL     1      25.123  13.425  -5.432  1.00  0.00    -0.237 OA
ATOM     60  O   UNL     1      27.324  13.186  -6.517  1.00  0.00    -0.744 OA
ENDBRANCH  53  57
ENDBRANCH  26  50
BRANCH  38  61
ATOM     61  C   UNL     1      20.894  19.217 -11.545  1.00  0.00     0.023 A 
ATOM     62  C   UNL     1      21.922  19.458 -12.473  1.00  0.00     0.031 A 
ATOM     63  C   UNL     1      20.517  20.263 -10.685  1.00  0.00     0.131 A 
ATOM     64  C   UNL     1      22.581  20.697 -12.477  1.00  0.00     0.055 A 
ATOM     65  C   UNL     1      21.136  21.512 -10.735  1.00  0.00     0.041 A 
ATOM     66  F   UNL     1      19.544  20.085  -9.777  1.00  0.00    -0.206 F 
ATOM     67  C   UNL     1      22.184  21.730 -11.625  1.00  0.00     0.022 A 
BRANCH  64  68
ATOM     68  S   UNL     1      24.033  20.906 -13.545  1.00  0.00     0.124 S 
ATOM     69  O   UNL     1      24.920  19.853 -13.061  1.00  0.00    -0.237 OA
ATOM     70  O   UNL     1      23.472  20.705 -14.877  1.00  0.00    -0.237 OA
ATOM     71  O   UNL     1      24.475  22.270 -13.258  1.00  0.00    -0.744 OA
ENDBRANCH  64  68
ENDBRANCH  38  61
ENDBRANCH  12  13
ENDBRANCH   5   7
ENDBRANCH   2   3
ENDBRANCH   1   2
BRANCH   1  72
ATOM     72  C   UNL     1      11.958   5.409  -7.391  1.00  0.00     0.002 C 
BRANCH  72  73
ATOM     73  C   UNL     1      12.425   5.098  -5.965  1.00  0.00     0.002 C 
BRANCH  73  74
ATOM     74  C   UNL     1      12.220   6.222  -4.945  1.00  0.00     0.021 C 
BRANCH  74  75
ATOM     75  C   UNL     1      10.777   6.712  -4.814  1.00  0.00     0.116 C 
BRANCH  75  76
ATOM     76  N   UNL     1       9.956   5.728  -4.136  1.00  0.00    -0.355 N 
ATOM     77  C   UNL     1       9.241   5.698  -2.987  1.00  0.00     0.241 C 
ATOM     78  H   UNL     1       9.908   4.877  -4.629  1.00  0.00     0.163 HD
ATOM     79  O   UNL     1       8.840   4.564  -2.676  1.00  0.00    -0.273 OA
BRANCH  77  80
ATOM     80  C   UNL     1       8.880   6.912  -2.083  1.00  0.00     0.126 C 
ATOM     81  C   UNL     1       9.430   6.636  -0.654  1.00  0.00     0.037 C 
ATOM     82  C   UNL     1       9.438   8.324  -2.367  1.00  0.00     0.020 C 
ATOM     83  Cl  UNL     1       7.069   6.931  -2.081  1.00  0.00    -0.108 Cl
ATOM     84  C   UNL     1      10.288   7.882  -0.354  1.00  0.00    -0.009 C 
ATOM     85  C   UNL     1       8.818   9.414  -1.458  1.00  0.00     0.006 C 
ATOM     86  C   UNL     1      10.836   8.230  -1.735  1.00  0.00     0.009 C 
ATOM     87  C   UNL     1       9.362   9.071  -0.069  1.00  0.00     0.004 C 
ENDBRANCH  77  80
ENDBRANCH  75  76
ENDBRANCH  74  75
ENDBRANCH  73  74
ENDBRANCH  72  73
ENDBRANCH   1  72
TORSDOF 16
