REMARK SMILES O=C(NCCCCCCNC(=O)c1cc(N2CCCCCC2)nc2ccc(NC(=O)c3ccc(F)cc3)cc12)c1ccc(-c2c3nc(c(-c4cc(S(=O)(=O)[O-])ccc4F)c4ccc([nH]4)c(-c4cc(S(=O)(=O)[O-])ccc4F)c4nc(c(-c5cc(S(=O)(=O)[O-])ccc5F)c5ccc2[nH]5)C=C4)C=C3)cc1
REMARK SMILES IDX 7 1 6 2 5 3 4 4 3 5 1 6 2 7 40 9 41 10 102 11 42 12 101 13
REMARK SMILES IDX 43 14 44 15 45 16 95 17 46 18 100 19 94 20 96 21 47 22 99 23
REMARK SMILES IDX 93 24 92 25 48 27 80 28 60 29 79 30 61 31 64 32 78 33 97 34
REMARK SMILES IDX 62 35 63 36 77 38 98 39 65 40 49 41 50 42 58 43 51 44 57 45
REMARK SMILES IDX 59 46 56 47 52 48 53 49 54 50 55 51 81 52 82 53 90 54 83 55
REMARK SMILES IDX 89 56 91 57 88 58 84 59 85 60 86 61 87 62 66 63 67 64 75 65
REMARK SMILES IDX 68 66 74 67 76 68 73 69 69 70 70 71 71 72 72 73 8 74 9 75
REMARK SMILES IDX 10 76 11 77 12 79 13 80 14 81 39 82 15 83 24 84 38 85 23 86
REMARK SMILES IDX 25 87 27 88 26 89 16 90 17 91 18 92 19 93 22 95 21 96 20 97
REMARK SMILES IDX 28 99 29 100 30 102 31 103 32 104 37 105 33 106 36 107
REMARK SMILES IDX 34 108 35 109
REMARK H PARENT 3 8 96 26 64 37 10 78 28 101
REMARK Flexibility Score: 90.00
ROOT
ATOM      1  C   UNL     1       4.763  -3.599   1.962  1.00  0.00     0.002 C 
ENDROOT
BRANCH   1   2
ATOM      2  C   UNL     1       4.352  -2.317   2.686  1.00  0.00     0.002 C 
BRANCH   2   3
ATOM      3  C   UNL     1       4.814  -1.006   2.056  1.00  0.00     0.021 C 
BRANCH   3   4
ATOM      4  C   UNL     1       4.437  -0.835   0.592  1.00  0.00     0.116 C 
BRANCH   4   5
ATOM      5  N   UNL     1       3.000  -0.865   0.380  1.00  0.00    -0.352 N 
ATOM      6  O   UNL     1       0.983  -0.061  -0.218  1.00  0.00    -0.269 OA
ATOM      7  C   UNL     1       2.199   0.046  -0.269  1.00  0.00     0.251 C 
ATOM      8  H   UNL     1       2.533  -1.647   0.754  1.00  0.00     0.163 HD
BRANCH   7   9
ATOM      9  C   UNL     1       2.826   1.165  -1.008  1.00  0.00     0.039 A 
ATOM     10  C   UNL     1       3.918   0.940  -1.851  1.00  0.00     0.014 A 
ATOM     11  C   UNL     1       2.310   2.454  -0.853  1.00  0.00     0.014 A 
ATOM     12  C   UNL     1       4.572   2.017  -2.437  1.00  0.00     0.010 A 
ATOM     13  C   UNL     1       2.920   3.526  -1.509  1.00  0.00     0.010 A 
ATOM     14  C   UNL     1       4.067   3.318  -2.292  1.00  0.00    -0.014 A 
BRANCH  14  15
ATOM     15  C   UNL     1       4.701   4.446  -3.018  1.00  0.00     0.031 A 
ATOM     16  C   UNL     1       5.351   5.576  -2.270  1.00  0.00     0.074 A 
ATOM     17  C   UNL     1       4.686   4.439  -4.366  1.00  0.00     0.049 A 
ATOM     18  N   UNL     1       5.833   6.699  -2.735  1.00  0.00    -0.248 NA
ATOM     19  C   UNL     1       5.476   5.428  -0.810  1.00  0.00     0.031 C 
ATOM     20  C   UNL     1       4.118   3.374  -5.199  1.00  0.00     0.029 A 
ATOM     21  N   UNL     1       5.162   5.348  -5.275  1.00  0.00    -0.354 N 
ATOM     22  C   UNL     1       6.308   7.398  -1.632  1.00  0.00     0.074 A 
ATOM     23  C   UNL     1       6.040   6.580  -0.468  1.00  0.00     0.031 C 
ATOM     24  C   UNL     1       4.307   3.676  -6.492  1.00  0.00     0.029 A 
ATOM     25  C   UNL     1       4.929   4.990  -6.583  1.00  0.00     0.049 A 
ATOM     26  H   UNL     1       5.626   6.177  -5.017  1.00  0.00     0.167 HD
ATOM     27  C   UNL     1       6.914   8.610  -1.601  1.00  0.00     0.034 A 
ATOM     28  C   UNL     1       5.149   5.663  -7.728  1.00  0.00     0.034 A 
ATOM     29  C   UNL     1       7.178   9.410  -2.771  1.00  0.00     0.049 A 
ATOM     30  C   UNL     1       5.742   7.043  -7.652  1.00  0.00     0.074 A 
ATOM     31  C   UNL     1       7.775  10.657  -2.844  1.00  0.00     0.029 A 
ATOM     32  N   UNL     1       6.869   9.042  -4.073  1.00  0.00    -0.354 N 
ATOM     33  N   UNL     1       6.128   7.716  -6.593  1.00  0.00    -0.248 NA
ATOM     34  C   UNL     1       5.917   7.757  -8.922  1.00  0.00     0.031 C 
ATOM     35  C   UNL     1       7.780  11.064  -4.181  1.00  0.00     0.029 A 
ATOM     36  C   UNL     1       7.245  10.045  -4.952  1.00  0.00     0.049 A 
ATOM     37  H   UNL     1       6.445   8.193  -4.334  1.00  0.00     0.167 HD
ATOM     38  C   UNL     1       6.603   8.931  -7.074  1.00  0.00     0.074 A 
ATOM     39  C   UNL     1       6.478   8.886  -8.517  1.00  0.00     0.031 C 
ATOM     40  C   UNL     1       7.096   9.991  -6.385  1.00  0.00     0.034 A 
BRANCH  27  41
ATOM     41  C   UNL     1       7.311   9.170  -0.261  1.00  0.00     0.023 A 
ATOM     42  C   UNL     1       8.402   8.653   0.457  1.00  0.00     0.031 A 
ATOM     43  C   UNL     1       6.632  10.281   0.270  1.00  0.00     0.131 A 
ATOM     44  C   UNL     1       8.774   9.240   1.677  1.00  0.00     0.055 A 
ATOM     45  C   UNL     1       7.037  10.891   1.458  1.00  0.00     0.041 A 
ATOM     46  F   UNL     1       5.574  10.803  -0.371  1.00  0.00    -0.206 F 
ATOM     47  C   UNL     1       8.114  10.369   2.169  1.00  0.00     0.022 A 
BRANCH  44  48
ATOM     48  S   UNL     1      10.119   8.489   2.634  1.00  0.00     0.124 S 
ATOM     49  O   UNL     1       9.525   7.214   3.028  1.00  0.00    -0.237 OA
ATOM     50  O   UNL     1      11.201   8.411   1.659  1.00  0.00    -0.237 OA
ATOM     51  O   UNL     1      10.333   9.436   3.726  1.00  0.00    -0.744 OA
ENDBRANCH  44  48
ENDBRANCH  27  41
BRANCH  28  52
ATOM     52  C   UNL     1       4.757   5.072  -9.037  1.00  0.00     0.023 A 
ATOM     53  C   UNL     1       5.725   4.758 -10.002  1.00  0.00     0.031 A 
ATOM     54  C   UNL     1       3.406   4.845  -9.356  1.00  0.00     0.131 A 
ATOM     55  C   UNL     1       5.327   4.270 -11.256  1.00  0.00     0.055 A 
ATOM     56  C   UNL     1       3.019   4.310 -10.585  1.00  0.00     0.041 A 
ATOM     57  F   UNL     1       2.441   5.125  -8.465  1.00  0.00    -0.206 F 
ATOM     58  C   UNL     1       3.982   4.031 -11.549  1.00  0.00     0.022 A 
BRANCH  55  59
ATOM     59  S   UNL     1       6.595   4.012 -12.526  1.00  0.00     0.124 S 
ATOM     60  O   UNL     1       7.122   5.361 -12.696  1.00  0.00    -0.237 OA
ATOM     61  O   UNL     1       7.483   3.052 -11.878  1.00  0.00    -0.237 OA
ATOM     62  O   UNL     1       5.837   3.488 -13.660  1.00  0.00    -0.744 OA
ENDBRANCH  55  59
ENDBRANCH  28  52
BRANCH  40  63
ATOM     63  C   UNL     1       7.556  11.172  -7.196  1.00  0.00     0.023 A 
ATOM     64  C   UNL     1       6.643  11.981  -7.892  1.00  0.00     0.031 A 
ATOM     65  C   UNL     1       8.924  11.486  -7.281  1.00  0.00     0.131 A 
ATOM     66  C   UNL     1       7.112  13.035  -8.689  1.00  0.00     0.055 A 
ATOM     67  C   UNL     1       9.380  12.571  -8.029  1.00  0.00     0.041 A 
ATOM     68  F   UNL     1       9.837  10.742  -6.635  1.00  0.00    -0.206 F 
ATOM     69  C   UNL     1       8.474  13.345  -8.748  1.00  0.00     0.022 A 
BRANCH  66  70
ATOM     70  S   UNL     1       5.924  13.950  -9.707  1.00  0.00     0.124 S 
ATOM     71  O   UNL     1       5.419  12.905 -10.593  1.00  0.00    -0.237 OA
ATOM     72  O   UNL     1       4.981  14.454  -8.714  1.00  0.00    -0.237 OA
ATOM     73  O   UNL     1       6.743  14.971 -10.356  1.00  0.00    -0.744 OA
ENDBRANCH  66  70
ENDBRANCH  40  63
ENDBRANCH  14  15
ENDBRANCH   7   9
ENDBRANCH   4   5
ENDBRANCH   3   4
ENDBRANCH   2   3
ENDBRANCH   1   2
BRANCH   1  74
ATOM     74  C   UNL     1       6.269  -3.781   1.739  1.00  0.00     0.021 C 
BRANCH  74  75
ATOM     75  C   UNL     1       7.130  -3.665   2.991  1.00  0.00     0.116 C 
BRANCH  75  76
ATOM     76  N   UNL     1       6.774  -4.633   4.016  1.00  0.00    -0.352 N 
ATOM     77  C   UNL     1       7.587  -5.239   4.940  1.00  0.00     0.252 C 
ATOM     78  H   UNL     1       5.824  -4.888   4.052  1.00  0.00     0.163 HD
ATOM     79  O   UNL     1       7.135  -6.056   5.736  1.00  0.00    -0.269 OA
BRANCH  77  80
ATOM     80  C   UNL     1       9.031  -4.943   4.955  1.00  0.00     0.052 A 
ATOM     81  C   UNL     1       9.864  -6.013   4.689  1.00  0.00     0.061 A 
ATOM     82  C   UNL     1       9.562  -3.684   5.261  1.00  0.00     0.015 A 
ATOM     83  C   UNL     1      11.231  -5.817   4.687  1.00  0.00     0.130 A 
ATOM     84  C   UNL     1      10.957  -3.560   5.244  1.00  0.00     0.074 A 
ATOM     85  C   UNL     1       8.756  -2.574   5.591  1.00  0.00     0.037 A 
ATOM     86  N   UNL     1      11.771  -4.610   4.975  1.00  0.00    -0.231 NA
ATOM     87  C   UNL     1      11.477  -2.291   5.503  1.00  0.00     0.031 A 
ATOM     88  C   UNL     1       9.279  -1.337   5.925  1.00  0.00     0.042 A 
ATOM     89  C   UNL     1      10.660  -1.188   5.830  1.00  0.00     0.028 A 
BRANCH  83  90
ATOM     90  N   UNL     1      12.039  -6.891   4.340  1.00  0.00    -0.357 N 
BRANCH  90  91
ATOM     91  C   UNL     1      12.005  -7.312   2.948  1.00  0.00     0.118 C 
BRANCH  91  92
ATOM     92  C   UNL     1      11.284  -8.653   2.825  1.00  0.00     0.021 C 
BRANCH  92  93
ATOM     93  C   UNL     1      12.074  -9.843   3.367  1.00  0.00     0.002 CG0
ATOM     94  G   UNL     1      12.576  -9.701   4.807  1.00  0.00     0.000 G0
ENDBRANCH  92  93
ENDBRANCH  91  92
ENDBRANCH  90  91
BRANCH  90  95
ATOM     95  C   UNL     1      13.159  -7.214   5.199  1.00  0.00     0.118 C 
BRANCH  95  96
ATOM     96  C   UNL     1      13.674  -8.642   4.969  1.00  0.00     0.021 C 
BRANCH  96  97
ATOM     97  C   UNL     1      12.576  -9.701   4.807  1.00  0.00     0.002 CG0
ATOM     98  G   UNL     1      12.074  -9.843   3.367  1.00  0.00     0.000 G0
ENDBRANCH  96  97
ENDBRANCH  95  96
ENDBRANCH  90  95
ENDBRANCH  83  90
BRANCH  88  99
ATOM     99  N   UNL     1       8.491  -0.236   6.318  1.00  0.00    -0.322 N 
ATOM    100  C   UNL     1       7.156  -0.103   6.660  1.00  0.00     0.255 C 
ATOM    101  H   UNL     1       8.992   0.611   6.356  1.00  0.00     0.170 HD
ATOM    102  O   UNL     1       6.668   1.020   6.779  1.00  0.00    -0.269 OA
BRANCH 100 103
ATOM    103  C   UNL     1       6.262  -1.259   6.910  1.00  0.00     0.040 A 
ATOM    104  C   UNL     1       6.627  -2.311   7.761  1.00  0.00     0.017 A 
ATOM    105  C   UNL     1       5.025  -1.294   6.250  1.00  0.00     0.017 A 
ATOM    106  C   UNL     1       5.825  -3.455   7.831  1.00  0.00     0.040 A 
ATOM    107  C   UNL     1       4.210  -2.424   6.355  1.00  0.00     0.040 A 
ATOM    108  C   UNL     1       4.633  -3.507   7.116  1.00  0.00     0.123 A 
ATOM    109  F   UNL     1       3.887  -4.619   7.148  1.00  0.00    -0.207 F 
ENDBRANCH 100 103
ENDBRANCH  88  99
ENDBRANCH  77  80
ENDBRANCH  75  76
ENDBRANCH  74  75
ENDBRANCH   1  74
TORSDOF 19
