REMARK SMILES CC[C@H](C(=O)NCCCCCCNC(=O)c1ccc(-c2c3nc(c(-c4cc(S(=O)(=O)[O-])ccc4F)c4ccc([nH]4)c(-c4cc(S(=O)(=O)[O-])ccc4F)c4nc(c(-c5cc(S(=O)(=O)[O-])ccc5F)c5ccc2[nH]5)C=C4)C=C3)cc1)[N@@H+](C)Cc1cncn1C(C)C
REMARK SMILES IDX 9 1 8 2 7 3 6 4 4 5 5 6 3 8 2 9 1 10 79 11 80 12 81 14 82 15
REMARK SMILES IDX 83 16 86 17 84 18 85 19 87 20 88 21 89 22 10 23 11 24 12 25
REMARK SMILES IDX 13 26 14 27 15 29 16 30 17 31 78 32 18 33 77 34 19 35 20 36
REMARK SMILES IDX 21 37 71 38 22 39 76 40 70 41 72 42 23 43 75 44 69 45 68 46
REMARK SMILES IDX 24 48 56 49 36 50 55 51 37 52 40 53 54 54 73 55 38 56 39 57
REMARK SMILES IDX 53 59 74 60 41 61 25 62 26 63 34 64 27 65 33 66 35 67 32 68
REMARK SMILES IDX 28 69 29 70 30 71 31 72 57 73 58 74 66 75 59 76 65 77 67 78
REMARK SMILES IDX 64 79 60 80 61 81 62 82 63 83 42 84 43 85 51 86 44 87 50 88
REMARK SMILES IDX 52 89 49 90 45 91 46 92 47 93 48 94
REMARK H PARENT 6 7 79 13 13 28 72 47 40 58
REMARK Flexibility Score: inf
ROOT
ATOM      1  C   UNL     1       0.121  -3.211   0.349  1.00  0.00     0.002 C 
ENDROOT
BRANCH   1   2
ATOM      2  C   UNL     1       1.234  -2.459  -0.384  1.00  0.00     0.021 C 
BRANCH   2   3
ATOM      3  C   UNL     1       0.884  -1.079  -0.913  1.00  0.00     0.116 C 
BRANCH   3   4
ATOM      4  N   UNL     1       0.569  -0.092   0.070  1.00  0.00    -0.351 N 
ATOM      5  C   UNL     1       0.480   1.254  -0.063  1.00  0.00     0.278 C 
ATOM      6  O   UNL     1       0.116   1.820   0.982  1.00  0.00    -0.268 OA
ATOM      7  H   UNL     1       0.392  -0.439   0.974  1.00  0.00     0.163 HD
BRANCH   5   8
ATOM      8  C   UNL     1       0.952   2.097  -1.325  1.00  0.00     0.273 C 
BRANCH   8   9
ATOM      9  C   UNL     1       1.056   1.689  -2.834  1.00  0.00     0.072 C 
ATOM     10  C   UNL     1       0.522   0.418  -3.467  1.00  0.00     0.011 C 
ENDBRANCH   8   9
BRANCH   8  11
ATOM     11  N   UNL     1       0.399   3.494  -1.177  1.00  0.00    -0.322 N 
ATOM     12  C   UNL     1       1.069   4.518  -1.958  1.00  0.00     0.333 C 
ATOM     13  H   UNL     1       0.670   3.700  -0.216  1.00  0.00     0.348 HD
BRANCH  11  14
ATOM     14  C   UNL     1      -1.062   3.632  -1.106  1.00  0.00     0.319 C 
BRANCH  14  15
ATOM     15  C   UNL     1      -1.812   3.017  -2.234  1.00  0.00     0.093 A 
ATOM     16  C   UNL     1      -2.324   1.737  -2.341  1.00  0.00     0.140 A 
ATOM     17  N   UNL     1      -2.207   3.628  -3.404  1.00  0.00    -0.327 N 
ATOM     18  N   UNL     1      -2.813   1.501  -3.594  1.00  0.00    -0.245 NA
ATOM     19  C   UNL     1      -2.690   2.642  -4.228  1.00  0.00     0.200 A 
BRANCH  17  20
ATOM     20  C   UNL     1      -2.316   5.056  -3.679  1.00  0.00     0.082 C 
ATOM     21  C   UNL     1      -1.454   5.508  -4.855  1.00  0.00     0.031 C 
ATOM     22  C   UNL     1      -3.783   5.445  -3.894  1.00  0.00     0.031 C 
ENDBRANCH  17  20
ENDBRANCH  14  15
ENDBRANCH  11  14
ENDBRANCH   8  11
ENDBRANCH   5   8
ENDBRANCH   3   4
ENDBRANCH   2   3
ENDBRANCH   1   2
BRANCH   1  23
ATOM     23  C   UNL     1      -1.249  -3.287  -0.332  1.00  0.00     0.002 C 
BRANCH  23  24
ATOM     24  C   UNL     1      -1.293  -3.789  -1.778  1.00  0.00     0.021 C 
BRANCH  24  25
ATOM     25  C   UNL     1      -0.555  -5.090  -2.074  1.00  0.00     0.116 C 
BRANCH  25  26
ATOM     26  N   UNL     1      -0.948  -6.181  -1.202  1.00  0.00    -0.352 N 
ATOM     27  C   UNL     1      -1.271  -7.482  -1.497  1.00  0.00     0.251 C 
ATOM     28  H   UNL     1      -0.989  -5.951  -0.246  1.00  0.00     0.163 HD
ATOM     29  O   UNL     1      -1.694  -8.207  -0.602  1.00  0.00    -0.269 OA
BRANCH  27  30
ATOM     30  C   UNL     1      -1.149  -8.005  -2.879  1.00  0.00     0.039 A 
ATOM     31  C   UNL     1      -2.153  -8.853  -3.354  1.00  0.00     0.014 A 
ATOM     32  C   UNL     1      -0.056  -7.700  -3.696  1.00  0.00     0.014 A 
ATOM     33  C   UNL     1      -2.088  -9.350  -4.658  1.00  0.00     0.010 A 
ATOM     34  C   UNL     1      -0.031  -8.136  -5.023  1.00  0.00     0.010 A 
ATOM     35  C   UNL     1      -1.045  -8.969  -5.518  1.00  0.00    -0.014 A 
BRANCH  35  36
ATOM     36  C   UNL     1      -1.027  -9.430  -6.932  1.00  0.00     0.031 A 
ATOM     37  C   UNL     1       0.076 -10.321  -7.437  1.00  0.00     0.074 A 
ATOM     38  C   UNL     1      -2.000  -9.020  -7.771  1.00  0.00     0.049 A 
ATOM     39  N   UNL     1       0.250 -10.827  -8.632  1.00  0.00    -0.248 NA
ATOM     40  C   UNL     1       1.137 -10.666  -6.481  1.00  0.00     0.031 C 
ATOM     41  C   UNL     1      -3.093  -8.114  -7.412  1.00  0.00     0.029 A 
ATOM     42  N   UNL     1      -2.232  -9.310  -9.092  1.00  0.00    -0.354 N 
ATOM     43  C   UNL     1       1.440 -11.544  -8.574  1.00  0.00     0.074 A 
ATOM     44  C   UNL     1       1.977 -11.351  -7.243  1.00  0.00     0.031 C 
ATOM     45  C   UNL     1      -3.898  -7.953  -8.474  1.00  0.00     0.029 A 
ATOM     46  C   UNL     1      -3.358  -8.704  -9.602  1.00  0.00     0.049 A 
ATOM     47  H   UNL     1      -1.649  -9.897  -9.626  1.00  0.00     0.167 HD
ATOM     48  C   UNL     1       2.019 -12.310  -9.534  1.00  0.00     0.034 A 
ATOM     49  C   UNL     1      -3.893  -8.742 -10.838  1.00  0.00     0.034 A 
ATOM     50  C   UNL     1       1.467 -12.492 -10.856  1.00  0.00     0.049 A 
ATOM     51  C   UNL     1      -3.225  -9.588 -11.891  1.00  0.00     0.074 A 
ATOM     52  C   UNL     1       1.936 -13.291 -11.884  1.00  0.00     0.029 A 
ATOM     53  N   UNL     1       0.331 -11.854 -11.342  1.00  0.00    -0.354 N 
ATOM     54  N   UNL     1      -2.136 -10.317 -11.799  1.00  0.00    -0.248 NA
ATOM     55  C   UNL     1      -3.869  -9.629 -13.209  1.00  0.00     0.031 C 
ATOM     56  C   UNL     1       1.135 -13.075 -13.012  1.00  0.00     0.029 A 
ATOM     57  C   UNL     1       0.109 -12.211 -12.665  1.00  0.00     0.049 A 
ATOM     58  H   UNL     1      -0.235 -11.239 -10.822  1.00  0.00     0.167 HD
ATOM     59  C   UNL     1      -1.980 -10.923 -13.043  1.00  0.00     0.074 A 
ATOM     60  C   UNL     1      -3.102 -10.495 -13.854  1.00  0.00     0.031 C 
ATOM     61  C   UNL     1      -0.998 -11.757 -13.476  1.00  0.00     0.034 A 
BRANCH  48  62
ATOM     62  C   UNL     1       3.333 -12.980  -9.194  1.00  0.00     0.023 A 
ATOM     63  C   UNL     1       3.441 -13.918  -8.151  1.00  0.00     0.031 A 
ATOM     64  C   UNL     1       4.502 -12.658  -9.906  1.00  0.00     0.131 A 
ATOM     65  C   UNL     1       4.696 -14.436  -7.798  1.00  0.00     0.055 A 
ATOM     66  C   UNL     1       5.734 -13.244  -9.607  1.00  0.00     0.041 A 
ATOM     67  F   UNL     1       4.472 -11.754 -10.898  1.00  0.00    -0.206 F 
ATOM     68  C   UNL     1       5.840 -14.127  -8.537  1.00  0.00     0.022 A 
BRANCH  65  69
ATOM     69  S   UNL     1       4.839 -15.395  -6.265  1.00  0.00     0.124 S 
ATOM     70  O   UNL     1       4.338 -14.445  -5.275  1.00  0.00    -0.237 OA
ATOM     71  O   UNL     1       3.987 -16.548  -6.533  1.00  0.00    -0.237 OA
ATOM     72  O   UNL     1       6.269 -15.683  -6.171  1.00  0.00    -0.744 OA
ENDBRANCH  65  69
ENDBRANCH  48  62
BRANCH  49  73
ATOM     73  C   UNL     1      -5.118  -7.951 -11.154  1.00  0.00     0.023 A 
ATOM     74  C   UNL     1      -6.319  -8.581 -11.520  1.00  0.00     0.031 A 
ATOM     75  C   UNL     1      -5.095  -6.545 -11.128  1.00  0.00     0.131 A 
ATOM     76  C   UNL     1      -7.431  -7.808 -11.888  1.00  0.00     0.055 A 
ATOM     77  C   UNL     1      -6.221  -5.781 -11.438  1.00  0.00     0.041 A 
ATOM     78  F   UNL     1      -3.974  -5.891 -10.783  1.00  0.00    -0.206 F 
ATOM     79  C   UNL     1      -7.395  -6.412 -11.834  1.00  0.00     0.022 A 
BRANCH  76  80
ATOM     80  S   UNL     1      -8.906  -8.651 -12.523  1.00  0.00     0.124 S 
ATOM     81  O   UNL     1      -8.365  -9.373 -13.669  1.00  0.00    -0.237 OA
ATOM     82  O   UNL     1      -9.305  -9.467 -11.381  1.00  0.00    -0.237 OA
ATOM     83  O   UNL     1      -9.813  -7.553 -12.848  1.00  0.00    -0.744 OA
ENDBRANCH  76  80
ENDBRANCH  49  73
BRANCH  61  84
ATOM     84  C   UNL     1      -1.123 -12.278 -14.889  1.00  0.00     0.023 A 
ATOM     85  C   UNL     1      -1.080 -11.418 -16.002  1.00  0.00     0.031 A 
ATOM     86  C   UNL     1      -1.330 -13.649 -15.126  1.00  0.00     0.131 A 
ATOM     87  C   UNL     1      -1.323 -11.924 -17.288  1.00  0.00     0.055 A 
ATOM     88  C   UNL     1      -1.494 -14.158 -16.416  1.00  0.00     0.041 A 
ATOM     89  F   UNL     1      -1.385 -14.520 -14.105  1.00  0.00    -0.206 F 
ATOM     90  C   UNL     1      -1.510 -13.291 -17.504  1.00  0.00     0.022 A 
BRANCH  87  91
ATOM     91  S   UNL     1      -1.526 -10.751 -18.658  1.00  0.00     0.124 S 
ATOM     92  O   UNL     1      -2.608  -9.901 -18.170  1.00  0.00    -0.237 OA
ATOM     93  O   UNL     1      -0.209 -10.127 -18.732  1.00  0.00    -0.237 OA
ATOM     94  O   UNL     1      -1.873 -11.606 -19.792  1.00  0.00    -0.744 OA
ENDBRANCH  87  91
ENDBRANCH  61  84
ENDBRANCH  35  36
ENDBRANCH  27  30
ENDBRANCH  25  26
ENDBRANCH  24  25
ENDBRANCH  23  24
ENDBRANCH   1  23
TORSDOF 21
