REMARK SMILES COc1ncccc1Cn1ccc(C(=O)NCCCCCCNC(=O)c2ccc(-c3c4nc(c(-c5cc(S(=O)(=O)[O-])ccc5F)c5ccc([nH]5)c(-c5cc(S(=O)(=O)[O-])ccc5F)c5nc(c(-c6cc(S(=O)(=O)[O-])ccc6F)c6ccc3[nH]6)C=C5)C=C4)cc2)n1
REMARK SMILES IDX 19 1 18 2 17 3 16 4 14 5 15 6 13 8 10 9 11 10 89 11 12 12
REMARK SMILES IDX 9 13 8 14 3 15 4 16 5 17 7 18 6 19 2 20 1 21 20 22 21 23
REMARK SMILES IDX 22 24 23 25 24 26 25 28 26 29 27 30 88 31 28 32 87 33 29 34
REMARK SMILES IDX 30 35 31 36 81 37 32 38 86 39 80 40 82 41 33 42 85 43 79 44
REMARK SMILES IDX 78 45 34 47 66 48 46 49 65 50 47 51 50 52 64 53 83 54 48 55
REMARK SMILES IDX 49 56 63 58 84 59 51 60 35 61 36 62 44 63 37 64 43 65 45 66
REMARK SMILES IDX 42 67 38 68 39 69 40 70 41 71 67 72 68 73 76 74 69 75 75 76
REMARK SMILES IDX 77 77 74 78 70 79 71 80 72 81 73 82 52 83 53 84 61 85 54 86
REMARK SMILES IDX 60 87 62 88 59 89 55 90 56 91 57 92 58 93
REMARK H PARENT 16 7 23 27 82 46 50 57
REMARK Flexibility Score: inf
ROOT
ATOM      1  C   UNL     1       6.726   3.322   5.298  1.00  0.00     0.002 C 
ENDROOT
BRANCH   1   2
ATOM      2  C   UNL     1       5.891   3.270   4.018  1.00  0.00     0.021 C 
BRANCH   2   3
ATOM      3  C   UNL     1       5.756   1.887   3.387  1.00  0.00     0.116 C 
BRANCH   3   4
ATOM      4  N   UNL     1       5.070   0.938   4.248  1.00  0.00    -0.351 N 
ATOM      5  C   UNL     1       3.864   0.302   4.047  1.00  0.00     0.271 C 
ATOM      6  O   UNL     1       3.405  -0.401   4.947  1.00  0.00    -0.267 OA
ATOM      7  H   UNL     1       5.530   0.720   5.090  1.00  0.00     0.163 HD
BRANCH   5   8
ATOM      8  C   UNL     1       3.132   0.555   2.802  1.00  0.00     0.150 A 
ATOM      9  N   UNL     1       2.767   1.093   0.772  1.00  0.00    -0.267 N 
ATOM     10  C   UNL     1       1.560   1.228   1.401  1.00  0.00     0.110 A 
ATOM     11  N   UNL     1       3.718   0.604   1.590  1.00  0.00    -0.167 NA
ATOM     12  C   UNL     1       1.744   0.800   2.693  1.00  0.00     0.056 A 
BRANCH   9  13
ATOM     13  C   UNL     1       3.146   1.380  -0.615  1.00  0.00     0.185 C 
BRANCH  13  14
ATOM     14  C   UNL     1       2.122   2.171  -1.368  1.00  0.00     0.036 A 
ATOM     15  C   UNL     1       1.025   1.569  -1.982  1.00  0.00     0.218 A 
ATOM     16  N   UNL     1       0.036   2.259  -2.587  1.00  0.00    -0.222 NA
ATOM     17  C   UNL     1       0.156   3.607  -2.613  1.00  0.00     0.115 A 
ATOM     18  C   UNL     1       2.225   3.568  -1.445  1.00  0.00     0.013 A 
ATOM     19  C   UNL     1       1.234   4.298  -2.089  1.00  0.00     0.021 A 
BRANCH  15  20
ATOM     20  O   UNL     1       1.017   0.217  -2.218  1.00  0.00    -0.481 OA
ATOM     21  C   UNL     1       0.484  -0.538  -1.137  1.00  0.00     0.280 C 
ENDBRANCH  15  20
ENDBRANCH  13  14
ENDBRANCH   9  13
ENDBRANCH   5   8
ENDBRANCH   3   4
ENDBRANCH   2   3
ENDBRANCH   1   2
BRANCH   1  22
ATOM     22  C   UNL     1       8.090   2.623   5.236  1.00  0.00     0.002 C 
BRANCH  22  23
ATOM     23  C   UNL     1       9.009   3.014   4.070  1.00  0.00     0.021 C 
BRANCH  23  24
ATOM     24  C   UNL     1       9.426   4.477   4.064  1.00  0.00     0.116 C 
BRANCH  24  25
ATOM     25  N   UNL     1      10.279   4.809   5.197  1.00  0.00    -0.352 N 
ATOM     26  C   UNL     1      10.801   6.043   5.530  1.00  0.00     0.251 C 
ATOM     27  H   UNL     1      10.511   4.064   5.797  1.00  0.00     0.163 HD
ATOM     28  O   UNL     1      11.797   6.121   6.231  1.00  0.00    -0.269 OA
BRANCH  26  29
ATOM     29  C   UNL     1      10.136   7.259   5.017  1.00  0.00     0.039 A 
ATOM     30  C   UNL     1      10.894   8.330   4.539  1.00  0.00     0.014 A 
ATOM     31  C   UNL     1       8.741   7.315   5.009  1.00  0.00     0.014 A 
ATOM     32  C   UNL     1      10.235   9.419   3.974  1.00  0.00     0.010 A 
ATOM     33  C   UNL     1       8.094   8.345   4.361  1.00  0.00     0.010 A 
ATOM     34  C   UNL     1       8.832   9.412   3.860  1.00  0.00    -0.014 A 
BRANCH  34  35
ATOM     35  C   UNL     1       8.159  10.433   3.057  1.00  0.00     0.031 A 
ATOM     36  C   UNL     1       8.693  10.555   1.674  1.00  0.00     0.074 A 
ATOM     37  C   UNL     1       7.032  11.087   3.414  1.00  0.00     0.049 A 
ATOM     38  N   UNL     1       9.431  11.504   1.205  1.00  0.00    -0.248 NA
ATOM     39  C   UNL     1       8.545   9.415   0.756  1.00  0.00     0.031 C 
ATOM     40  C   UNL     1       6.209  10.881   4.607  1.00  0.00     0.029 A 
ATOM     41  N   UNL     1       6.323  12.025   2.720  1.00  0.00    -0.354 N 
ATOM     42  C   UNL     1       9.609  11.220  -0.144  1.00  0.00     0.074 A 
ATOM     43  C   UNL     1       9.250   9.836  -0.297  1.00  0.00     0.031 C 
ATOM     44  C   UNL     1       5.017  11.499   4.449  1.00  0.00     0.029 A 
ATOM     45  C   UNL     1       5.045  12.274   3.220  1.00  0.00     0.049 A 
ATOM     46  H   UNL     1       6.685  12.489   1.931  1.00  0.00     0.167 HD
ATOM     47  C   UNL     1       9.777  12.225  -1.049  1.00  0.00     0.034 A 
ATOM     48  C   UNL     1       4.070  13.045   2.663  1.00  0.00     0.034 A 
ATOM     49  C   UNL     1      10.096  13.471  -0.377  1.00  0.00     0.049 A 
ATOM     50  C   UNL     1       4.746  14.007   1.759  1.00  0.00     0.074 A 
ATOM     51  C   UNL     1      11.072  13.864   0.521  1.00  0.00     0.029 A 
ATOM     52  N   UNL     1       9.108  14.428  -0.280  1.00  0.00    -0.354 N 
ATOM     53  N   UNL     1       5.543  14.946   2.187  1.00  0.00    -0.248 NA
ATOM     54  C   UNL     1       4.930  13.631   0.366  1.00  0.00     0.031 C 
ATOM     55  C   UNL     1      10.390  14.697   1.459  1.00  0.00     0.029 A 
ATOM     56  C   UNL     1       9.073  14.855   1.025  1.00  0.00     0.049 A 
ATOM     57  H   UNL     1       8.533  14.747  -1.012  1.00  0.00     0.167 HD
ATOM     58  C   UNL     1       6.607  14.941   1.300  1.00  0.00     0.074 A 
ATOM     59  C   UNL     1       6.123  14.192   0.141  1.00  0.00     0.031 C 
ATOM     60  C   UNL     1       7.865  15.293   1.702  1.00  0.00     0.034 A 
BRANCH  47  61
ATOM     61  C   UNL     1       9.271  12.202  -2.479  1.00  0.00     0.023 A 
ATOM     62  C   UNL     1       9.487  13.364  -3.246  1.00  0.00     0.031 A 
ATOM     63  C   UNL     1       8.354  11.276  -3.025  1.00  0.00     0.131 A 
ATOM     64  C   UNL     1       8.717  13.632  -4.390  1.00  0.00     0.055 A 
ATOM     65  C   UNL     1       7.643  11.514  -4.206  1.00  0.00     0.041 A 
ATOM     66  F   UNL     1       8.020  10.133  -2.416  1.00  0.00    -0.206 F 
ATOM     67  C   UNL     1       7.791  12.715  -4.875  1.00  0.00     0.022 A 
BRANCH  64  68
ATOM     68  S   UNL     1       8.808  15.292  -5.106  1.00  0.00     0.124 S 
ATOM     69  O   UNL     1       8.469  16.119  -3.953  1.00  0.00    -0.237 OA
ATOM     70  O   UNL     1      10.194  15.347  -5.557  1.00  0.00    -0.237 OA
ATOM     71  O   UNL     1       7.806  15.256  -6.169  1.00  0.00    -0.744 OA
ENDBRANCH  64  68
ENDBRANCH  47  61
BRANCH  48  72
ATOM     72  C   UNL     1       2.597  12.811   2.654  1.00  0.00     0.023 A 
ATOM     73  C   UNL     1       1.658  13.817   2.328  1.00  0.00     0.031 A 
ATOM     74  C   UNL     1       2.106  11.488   2.715  1.00  0.00     0.131 A 
ATOM     75  C   UNL     1       0.306  13.479   2.071  1.00  0.00     0.055 A 
ATOM     76  C   UNL     1       0.771  11.160   2.462  1.00  0.00     0.041 A 
ATOM     77  F   UNL     1       2.929  10.450   2.932  1.00  0.00    -0.206 F 
ATOM     78  C   UNL     1      -0.133  12.154   2.126  1.00  0.00     0.022 A 
BRANCH  75  79
ATOM     79  S   UNL     1      -0.897  14.750   1.551  1.00  0.00     0.124 S 
ATOM     80  O   UNL     1      -1.093  15.514   2.777  1.00  0.00    -0.237 OA
ATOM     81  O   UNL     1      -0.194  15.426   0.467  1.00  0.00    -0.237 OA
ATOM     82  O   UNL     1      -2.058  13.965   1.126  1.00  0.00    -0.744 OA
ENDBRANCH  75  79
ENDBRANCH  48  72
BRANCH  60  83
ATOM     83  C   UNL     1       8.030  16.012   3.030  1.00  0.00     0.023 A 
ATOM     84  C   UNL     1       7.522  15.567   4.273  1.00  0.00     0.031 A 
ATOM     85  C   UNL     1       8.815  17.180   3.035  1.00  0.00     0.131 A 
ATOM     86  C   UNL     1       7.785  16.299   5.449  1.00  0.00     0.055 A 
ATOM     87  C   UNL     1       9.096  17.886   4.203  1.00  0.00     0.041 A 
ATOM     88  F   UNL     1       9.348  17.649   1.894  1.00  0.00    -0.206 F 
ATOM     89  C   UNL     1       8.572  17.454   5.414  1.00  0.00     0.022 A 
BRANCH  86  90
ATOM     90  S   UNL     1       7.067  15.795   7.046  1.00  0.00     0.124 S 
ATOM     91  O   UNL     1       5.698  15.424   6.710  1.00  0.00    -0.237 OA
ATOM     92  O   UNL     1       7.943  14.699   7.452  1.00  0.00    -0.237 OA
ATOM     93  O   UNL     1       7.187  17.003   7.866  1.00  0.00    -0.744 OA
ENDBRANCH  86  90
ENDBRANCH  60  83
ENDBRANCH  34  35
ENDBRANCH  26  29
ENDBRANCH  24  25
ENDBRANCH  23  24
ENDBRANCH  22  23
ENDBRANCH   1  22
TORSDOF 19
