REMARK SMILES Cc1ccn2c([C@H]3C[C@@H]3C(=O)NCCCCCCNC(=O)c3ccc(-c4c5nc(c(-c6cc(S(=O)(=O)[O-])ccc6F)c6ccc([nH]6)c(-c6cc(S(=O)(=O)[O-])ccc6F)c6nc(c(-c7cc(S(=O)(=O)[O-])ccc7F)c7ccc4[nH]7)C=C6)C=C5)cc3)nnc2c1
REMARK SMILES IDX 16 1 15 2 14 3 13 4 12 5 10 6 11 7 9 9 7 10 8 11 6 12 1 13
REMARK SMILES IDX 2 14 3 15 88 16 4 17 87 18 5 19 86 20 85 21 17 22 18 23
REMARK SMILES IDX 19 24 20 25 21 27 22 28 23 29 84 30 24 31 83 32 25 33 26 34
REMARK SMILES IDX 27 35 77 36 28 37 82 38 76 39 78 40 29 41 81 42 75 43 74 44
REMARK SMILES IDX 30 46 62 47 42 48 61 49 43 50 46 51 60 52 79 53 44 54 45 55
REMARK SMILES IDX 59 57 80 58 47 59 31 60 32 61 40 62 33 63 39 64 41 65 38 66
REMARK SMILES IDX 34 67 35 68 36 69 37 70 63 71 64 72 72 73 65 74 71 75 73 76
REMARK SMILES IDX 70 77 66 78 67 79 68 80 69 81 48 82 49 83 57 84 50 85 56 86
REMARK SMILES IDX 58 87 55 88 51 89 52 90 53 91 54 92
REMARK H PARENT 12 8 19 26 78 45 46 56
REMARK Flexibility Score: inf
ROOT
ATOM      1  C   UNL     1      -7.964   1.796   1.167  1.00  0.00     0.002 C 
ENDROOT
BRANCH   1   2
ATOM      2  C   UNL     1      -7.326   2.527  -0.020  1.00  0.00     0.002 C 
BRANCH   2   3
ATOM      3  C   UNL     1      -6.833   3.950   0.271  1.00  0.00     0.021 C 
BRANCH   3   4
ATOM      4  C   UNL     1      -5.728   4.034   1.324  1.00  0.00     0.116 C 
BRANCH   4   5
ATOM      5  N   UNL     1      -4.511   3.362   0.894  1.00  0.00    -0.356 N 
ATOM      6  C   UNL     1      -3.303   3.917   0.587  1.00  0.00     0.223 C 
ATOM      7  O   UNL     1      -2.338   3.219   0.267  1.00  0.00    -0.275 OA
ATOM      8  H   UNL     1      -4.566   2.383   0.815  1.00  0.00     0.163 HD
BRANCH   6   9
ATOM      9  C   UNL     1      -3.178   5.383   0.667  1.00  0.00     0.090 C 
ATOM     10  C   UNL     1      -1.823   6.056   0.755  1.00  0.00     0.071 C 
ATOM     11  C   UNL     1      -2.729   6.037   1.953  1.00  0.00     0.026 C 
BRANCH  10  12
ATOM     12  C   UNL     1      -1.635   7.336  -0.038  1.00  0.00     0.141 A 
ATOM     13  C   UNL     1       1.999  11.573  -0.109  1.00  0.00     0.044 C 
ATOM     14  C   UNL     1       1.039  10.423  -0.079  1.00  0.00    -0.046 A 
ATOM     15  C   UNL     1       1.176   9.469   1.025  1.00  0.00     0.022 A 
ATOM     16  C   UNL     1       0.075  10.261  -1.012  1.00  0.00     0.053 A 
ATOM     17  C   UNL     1       0.358   8.403   1.082  1.00  0.00     0.095 A 
ATOM     18  C   UNL     1      -0.832   9.172  -0.911  1.00  0.00     0.161 A 
ATOM     19  N   UNL     1      -0.626   8.257   0.108  1.00  0.00    -0.286 N 
ATOM     20  N   UNL     1      -1.918   8.855  -1.580  1.00  0.00    -0.130 NA
ATOM     21  N   UNL     1      -2.452   7.729  -0.995  1.00  0.00    -0.134 NA
ENDBRANCH  10  12
ENDBRANCH   6   9
ENDBRANCH   4   5
ENDBRANCH   3   4
ENDBRANCH   2   3
ENDBRANCH   1   2
BRANCH   1  22
ATOM     22  C   UNL     1      -9.167   2.500   1.808  1.00  0.00     0.021 C 
BRANCH  22  23
ATOM     23  C   UNL     1     -10.283   2.868   0.831  1.00  0.00     0.116 C 
BRANCH  23  24
ATOM     24  N   UNL     1     -10.887   1.733   0.164  1.00  0.00    -0.352 N 
ATOM     25  C   UNL     1     -11.878   0.847   0.487  1.00  0.00     0.251 C 
ATOM     26  H   UNL     1     -10.496   1.560  -0.722  1.00  0.00     0.163 HD
ATOM     27  O   UNL     1     -12.230   0.079  -0.412  1.00  0.00    -0.269 OA
BRANCH  25  28
ATOM     28  C   UNL     1     -12.480   0.700   1.841  1.00  0.00     0.039 A 
ATOM     29  C   UNL     1     -12.345   1.607   2.893  1.00  0.00     0.014 A 
ATOM     30  C   UNL     1     -13.205  -0.486   2.065  1.00  0.00     0.014 A 
ATOM     31  C   UNL     1     -12.809   1.286   4.163  1.00  0.00     0.010 A 
ATOM     32  C   UNL     1     -13.694  -0.802   3.327  1.00  0.00     0.010 A 
ATOM     33  C   UNL     1     -13.448   0.066   4.386  1.00  0.00    -0.014 A 
BRANCH  33  34
ATOM     34  C   UNL     1     -13.956  -0.200   5.729  1.00  0.00     0.031 A 
ATOM     35  C   UNL     1     -15.051   0.717   6.162  1.00  0.00     0.074 A 
ATOM     36  C   UNL     1     -13.558  -1.257   6.465  1.00  0.00     0.049 A 
ATOM     37  N   UNL     1     -15.065   1.548   7.153  1.00  0.00    -0.248 NA
ATOM     38  C   UNL     1     -16.227   0.822   5.283  1.00  0.00     0.031 C 
ATOM     39  C   UNL     1     -12.739  -2.390   6.024  1.00  0.00     0.029 A 
ATOM     40  N   UNL     1     -13.903  -1.608   7.736  1.00  0.00    -0.354 N 
ATOM     41  C   UNL     1     -16.332   2.139   7.145  1.00  0.00     0.074 A 
ATOM     42  C   UNL     1     -16.928   1.782   5.885  1.00  0.00     0.031 C 
ATOM     43  C   UNL     1     -12.865  -3.402   6.912  1.00  0.00     0.029 A 
ATOM     44  C   UNL     1     -13.648  -2.938   8.046  1.00  0.00     0.049 A 
ATOM     45  H   UNL     1     -14.298  -0.975   8.378  1.00  0.00     0.167 HD
ATOM     46  C   UNL     1     -16.871   2.703   8.265  1.00  0.00     0.034 A 
ATOM     47  C   UNL     1     -14.124  -3.635   9.109  1.00  0.00     0.034 A 
ATOM     48  C   UNL     1     -15.861   2.925   9.263  1.00  0.00     0.049 A 
ATOM     49  C   UNL     1     -14.618  -2.669  10.115  1.00  0.00     0.074 A 
ATOM     50  C   UNL     1     -14.749   3.731   9.375  1.00  0.00     0.029 A 
ATOM     51  N   UNL     1     -15.755   1.982  10.254  1.00  0.00    -0.354 N 
ATOM     52  N   UNL     1     -13.855  -1.888  10.824  1.00  0.00    -0.248 NA
ATOM     53  C   UNL     1     -16.016  -2.275  10.035  1.00  0.00     0.031 C 
ATOM     54  C   UNL     1     -13.820   2.975  10.145  1.00  0.00     0.029 A 
ATOM     55  C   UNL     1     -14.429   1.771  10.508  1.00  0.00     0.049 A 
ATOM     56  H   UNL     1     -16.507   1.534  10.705  1.00  0.00     0.167 HD
ATOM     57  C   UNL     1     -14.547  -0.688  10.875  1.00  0.00     0.074 A 
ATOM     58  C   UNL     1     -15.915  -1.022  10.485  1.00  0.00     0.031 C 
ATOM     59  C   UNL     1     -13.883   0.502  10.946  1.00  0.00     0.034 A 
BRANCH  46  60
ATOM     60  C   UNL     1     -18.350   2.690   8.609  1.00  0.00     0.023 A 
ATOM     61  C   UNL     1     -19.325   2.032   7.838  1.00  0.00     0.031 A 
ATOM     62  C   UNL     1     -18.783   3.135   9.880  1.00  0.00     0.131 A 
ATOM     63  C   UNL     1     -20.618   1.796   8.326  1.00  0.00     0.055 A 
ATOM     64  C   UNL     1     -20.054   2.848  10.393  1.00  0.00     0.041 A 
ATOM     65  F   UNL     1     -17.958   3.805  10.700  1.00  0.00    -0.206 F 
ATOM     66  C   UNL     1     -20.978   2.162   9.618  1.00  0.00     0.022 A 
BRANCH  63  67
ATOM     67  S   UNL     1     -21.854   0.967   7.288  1.00  0.00     0.124 S 
ATOM     68  O   UNL     1     -22.183  -0.206   8.089  1.00  0.00    -0.237 OA
ATOM     69  O   UNL     1     -22.895   1.987   7.199  1.00  0.00    -0.237 OA
ATOM     70  O   UNL     1     -21.136   0.707   6.043  1.00  0.00    -0.744 OA
ENDBRANCH  63  67
ENDBRANCH  46  60
BRANCH  47  71
ATOM     71  C   UNL     1     -14.593  -5.042   9.112  1.00  0.00     0.023 A 
ATOM     72  C   UNL     1     -15.122  -5.601   7.935  1.00  0.00     0.031 A 
ATOM     73  C   UNL     1     -14.837  -5.724  10.318  1.00  0.00     0.131 A 
ATOM     74  C   UNL     1     -15.912  -6.757   7.988  1.00  0.00     0.055 A 
ATOM     75  C   UNL     1     -15.612  -6.890  10.366  1.00  0.00     0.041 A 
ATOM     76  F   UNL     1     -14.393  -5.228  11.483  1.00  0.00    -0.206 F 
ATOM     77  C   UNL     1     -16.168  -7.403   9.198  1.00  0.00     0.022 A 
BRANCH  74  78
ATOM     78  S   UNL     1     -16.707  -7.386   6.484  1.00  0.00     0.124 S 
ATOM     79  O   UNL     1     -16.429  -8.818   6.562  1.00  0.00    -0.237 OA
ATOM     80  O   UNL     1     -18.098  -7.003   6.702  1.00  0.00    -0.237 OA
ATOM     81  O   UNL     1     -16.013  -6.681   5.411  1.00  0.00    -0.744 OA
ENDBRANCH  74  78
ENDBRANCH  47  71
BRANCH  59  82
ATOM     82  C   UNL     1     -12.406   0.497  11.266  1.00  0.00     0.023 A 
ATOM     83  C   UNL     1     -11.973   1.389  12.263  1.00  0.00     0.031 A 
ATOM     84  C   UNL     1     -11.419  -0.152  10.500  1.00  0.00     0.131 A 
ATOM     85  C   UNL     1     -10.611   1.653  12.434  1.00  0.00     0.055 A 
ATOM     86  C   UNL     1     -10.055   0.053  10.729  1.00  0.00     0.041 A 
ATOM     87  F   UNL     1     -11.737  -0.928   9.456  1.00  0.00    -0.206 F 
ATOM     88  C   UNL     1      -9.645   0.975  11.687  1.00  0.00     0.022 A 
BRANCH  85  89
ATOM     89  S   UNL     1     -10.078   3.013  13.503  1.00  0.00     0.124 S 
ATOM     90  O   UNL     1      -9.359   2.310  14.562  1.00  0.00    -0.237 OA
ATOM     91  O   UNL     1      -9.245   3.808  12.602  1.00  0.00    -0.237 OA
ATOM     92  O   UNL     1     -11.325   3.653  13.912  1.00  0.00    -0.744 OA
ENDBRANCH  85  89
ENDBRANCH  59  82
ENDBRANCH  33  34
ENDBRANCH  25  28
ENDBRANCH  23  24
ENDBRANCH  22  23
ENDBRANCH   1  22
TORSDOF 17
