REMARK SMILES Cc1cnc(NC(=O)[C@H]2[C@H]3CC[C@H](CC3)[C@H]2C(=O)NCCCCCCNC(=O)c2ccc(-c3c4nc(c(-c5cc(S(=O)(=O)[O-])ccc5F)c5ccc([nH]5)c(-c5cc(S(=O)(=O)[O-])ccc5F)c5nc(c(-c6cc(S(=O)(=O)[O-])ccc6F)c6ccc3[nH]6)C=C5)C=C4)cc2)s1
REMARK SMILES IDX 23 1 22 2 21 3 20 4 19 5 17 6 18 7 16 9 9 10 10 11 15 12
REMARK SMILES IDX 11 13 13 14 14 15 12 16 7 17 6 18 8 20 5 21 1 22 2 23 3 24
REMARK SMILES IDX 92 25 4 26 24 27 25 28 26 29 27 30 28 32 29 33 30 34 91 35
REMARK SMILES IDX 31 36 90 37 32 38 33 39 34 40 84 41 35 42 89 43 83 44 85 45
REMARK SMILES IDX 36 46 88 47 82 48 81 49 37 51 69 52 49 53 68 54 50 55 53 56
REMARK SMILES IDX 67 57 86 58 51 59 52 60 66 62 87 63 54 64 38 65 39 66 47 67
REMARK SMILES IDX 40 68 46 69 48 70 45 71 41 72 42 73 43 74 44 75 70 76 71 77
REMARK SMILES IDX 79 78 72 79 78 80 80 81 77 82 73 83 74 84 75 85 76 86 55 87
REMARK SMILES IDX 56 88 64 89 57 90 63 91 65 92 62 93 58 94 59 95 60 96 61 97
REMARK H PARENT 19 8 6 19 26 31 85 50 53 61
REMARK Flexibility Score: inf
ROOT
ATOM      1  C   UNL     1      -5.659   2.490   4.582  1.00  0.00     0.002 C 
ENDROOT
BRANCH   1   2
ATOM      2  C   UNL     1      -5.770   1.881   3.180  1.00  0.00     0.002 C 
BRANCH   2   3
ATOM      3  C   UNL     1      -4.914   2.532   2.100  1.00  0.00     0.021 C 
BRANCH   3   4
ATOM      4  C   UNL     1      -3.470   2.798   2.486  1.00  0.00     0.116 C 
BRANCH   4   5
ATOM      5  N   UNL     1      -2.588   1.663   2.499  1.00  0.00    -0.356 N 
ATOM      6  C   UNL     1      -1.259   1.624   2.214  1.00  0.00     0.224 C 
ATOM      7  O   UNL     1      -0.631   0.642   2.630  1.00  0.00    -0.275 OA
ATOM      8  H   UNL     1      -2.999   0.803   2.746  1.00  0.00     0.163 HD
BRANCH   6   9
ATOM      9  C   UNL     1      -0.503   2.712   1.419  1.00  0.00     0.094 C 
ATOM     10  C   UNL     1      -1.103   3.342   0.137  1.00  0.00     0.094 C 
ATOM     11  C   UNL     1      -1.125   4.905   0.300  1.00  0.00     0.002 C 
ATOM     12  C   UNL     1      -1.620   5.443   1.665  1.00  0.00     0.005 C 
ATOM     13  C   UNL     1       0.359   5.342   0.243  1.00  0.00     0.005 C 
ATOM     14  C   UNL     1       0.181   3.808   2.274  1.00  0.00     0.002 C 
ATOM     15  C   UNL     1      -0.846   4.798   2.823  1.00  0.00     0.005 C 
ATOM     16  C   UNL     1       1.145   4.608   1.352  1.00  0.00     0.005 C 
BRANCH  10  17
ATOM     17  C   UNL     1      -2.343   2.675  -0.480  1.00  0.00     0.230 C 
ATOM     18  N   UNL     1      -2.371   1.338  -0.782  1.00  0.00    -0.302 N 
ATOM     19  H   UNL     1      -3.253   0.990  -1.046  1.00  0.00     0.172 HD
ATOM     20  O   UNL     1      -3.370   3.330  -0.679  1.00  0.00    -0.274 OA
BRANCH  18  21
ATOM     21  C   UNL     1      -1.363   0.413  -0.774  1.00  0.00     0.189 A 
ATOM     22  C   UNL     1       2.236  -0.814  -0.305  1.00  0.00     0.058 C 
ATOM     23  C   UNL     1       0.786  -0.625  -0.554  1.00  0.00     0.023 A 
ATOM     24  C   UNL     1      -0.296  -1.413  -0.214  1.00  0.00     0.128 A 
ATOM     25  S   UNL     1       0.206   0.781  -1.340  1.00  0.00    -0.102 S 
ATOM     26  N   UNL     1      -1.540  -0.842  -0.436  1.00  0.00    -0.228 NA
ENDBRANCH  18  21
ENDBRANCH  10  17
ENDBRANCH   6   9
ENDBRANCH   4   5
ENDBRANCH   3   4
ENDBRANCH   2   3
ENDBRANCH   1   2
BRANCH   1  27
ATOM     27  C   UNL     1      -5.858   4.006   4.686  1.00  0.00     0.021 C 
BRANCH  27  28
ATOM     28  C   UNL     1      -7.142   4.545   4.069  1.00  0.00     0.116 C 
BRANCH  28  29
ATOM     29  N   UNL     1      -8.324   3.894   4.605  1.00  0.00    -0.352 N 
ATOM     30  C   UNL     1      -9.420   4.442   5.223  1.00  0.00     0.251 C 
ATOM     31  H   UNL     1      -8.342   2.914   4.512  1.00  0.00     0.163 HD
ATOM     32  O   UNL     1     -10.225   3.715   5.793  1.00  0.00    -0.269 OA
BRANCH  30  33
ATOM     33  C   UNL     1      -9.606   5.909   5.218  1.00  0.00     0.039 A 
ATOM     34  C   UNL     1      -9.980   6.546   6.403  1.00  0.00     0.014 A 
ATOM     35  C   UNL     1      -9.412   6.653   4.050  1.00  0.00     0.014 A 
ATOM     36  C   UNL     1     -10.099   7.937   6.431  1.00  0.00     0.010 A 
ATOM     37  C   UNL     1      -9.454   8.044   4.100  1.00  0.00     0.010 A 
ATOM     38  C   UNL     1      -9.801   8.701   5.290  1.00  0.00    -0.014 A 
BRANCH  38  39
ATOM     39  C   UNL     1      -9.850  10.186   5.325  1.00  0.00     0.031 A 
ATOM     40  C   UNL     1     -10.829  10.928   4.456  1.00  0.00     0.074 A 
ATOM     41  C   UNL     1      -8.977  10.865   6.096  1.00  0.00     0.049 A 
ATOM     42  N   UNL     1     -10.979  12.217   4.293  1.00  0.00    -0.248 NA
ATOM     43  C   UNL     1     -11.741  10.110   3.642  1.00  0.00     0.031 C 
ATOM     44  C   UNL     1      -7.960  10.255   6.955  1.00  0.00     0.029 A 
ATOM     45  N   UNL     1      -8.798  12.213   6.280  1.00  0.00    -0.354 N 
ATOM     46  C   UNL     1     -11.993  12.366   3.353  1.00  0.00     0.074 A 
ATOM     47  C   UNL     1     -12.373  11.034   2.934  1.00  0.00     0.031 C 
ATOM     48  C   UNL     1      -7.285  11.223   7.595  1.00  0.00     0.029 A 
ATOM     49  C   UNL     1      -7.780  12.524   7.153  1.00  0.00     0.049 A 
ATOM     50  H   UNL     1      -9.346  12.895   5.829  1.00  0.00     0.167 HD
ATOM     51  C   UNL     1     -12.568  13.507   2.900  1.00  0.00     0.034 A 
ATOM     52  C   UNL     1      -7.289  13.718   7.541  1.00  0.00     0.034 A 
ATOM     53  C   UNL     1     -12.178  14.826   3.334  1.00  0.00     0.049 A 
ATOM     54  C   UNL     1      -7.914  14.975   6.988  1.00  0.00     0.074 A 
ATOM     55  C   UNL     1     -12.726  16.046   2.979  1.00  0.00     0.029 A 
ATOM     56  N   UNL     1     -11.134  15.101   4.209  1.00  0.00    -0.354 N 
ATOM     57  N   UNL     1      -8.906  15.097   6.136  1.00  0.00    -0.248 NA
ATOM     58  C   UNL     1      -7.361  16.254   7.452  1.00  0.00     0.031 C 
ATOM     59  C   UNL     1     -11.965  17.058   3.572  1.00  0.00     0.029 A 
ATOM     60  C   UNL     1     -10.999  16.471   4.374  1.00  0.00     0.049 A 
ATOM     61  H   UNL     1     -10.572  14.422   4.648  1.00  0.00     0.167 HD
ATOM     62  C   UNL     1      -9.119  16.466   5.995  1.00  0.00     0.074 A 
ATOM     63  C   UNL     1      -8.158  17.126   6.853  1.00  0.00     0.031 C 
ATOM     64  C   UNL     1     -10.034  17.117   5.232  1.00  0.00     0.034 A 
BRANCH  51  65
ATOM     65  C   UNL     1     -13.659  13.375   1.862  1.00  0.00     0.023 A 
ATOM     66  C   UNL     1     -14.859  12.694   2.133  1.00  0.00     0.031 A 
ATOM     67  C   UNL     1     -13.491  13.922   0.578  1.00  0.00     0.131 A 
ATOM     68  C   UNL     1     -15.806  12.510   1.115  1.00  0.00     0.055 A 
ATOM     69  C   UNL     1     -14.477  13.813  -0.405  1.00  0.00     0.041 A 
ATOM     70  F   UNL     1     -12.358  14.565   0.251  1.00  0.00    -0.206 F 
ATOM     71  C   UNL     1     -15.636  13.089  -0.144  1.00  0.00     0.022 A 
BRANCH  68  72
ATOM     72  S   UNL     1     -17.189  11.376   1.415  1.00  0.00     0.124 S 
ATOM     73  O   UNL     1     -16.488  10.134   1.731  1.00  0.00    -0.237 OA
ATOM     74  O   UNL     1     -17.888  12.016   2.523  1.00  0.00    -0.237 OA
ATOM     75  O   UNL     1     -17.909  11.369   0.142  1.00  0.00    -0.744 OA
ENDBRANCH  68  72
ENDBRANCH  51  65
BRANCH  52  76
ATOM     76  C   UNL     1      -6.138  13.791   8.489  1.00  0.00     0.023 A 
ATOM     77  C   UNL     1      -6.276  14.393   9.750  1.00  0.00     0.031 A 
ATOM     78  C   UNL     1      -4.870  13.300   8.130  1.00  0.00     0.131 A 
ATOM     79  C   UNL     1      -5.156  14.534  10.584  1.00  0.00     0.055 A 
ATOM     80  C   UNL     1      -3.773  13.387   8.989  1.00  0.00     0.041 A 
ATOM     81  F   UNL     1      -4.681  12.714   6.937  1.00  0.00    -0.206 F 
ATOM     82  C   UNL     1      -3.909  14.021  10.220  1.00  0.00     0.022 A 
BRANCH  79  83
ATOM     83  S   UNL     1      -5.329  15.493  12.115  1.00  0.00     0.124 S 
ATOM     84  O   UNL     1      -5.794  16.778  11.607  1.00  0.00    -0.237 OA
ATOM     85  O   UNL     1      -6.305  14.703  12.858  1.00  0.00    -0.237 OA
ATOM     86  O   UNL     1      -3.977  15.492  12.670  1.00  0.00    -0.744 OA
ENDBRANCH  79  83
ENDBRANCH  52  76
BRANCH  64  87
ATOM     87  C   UNL     1     -10.081  18.623   5.337  1.00  0.00     0.023 A 
ATOM     88  C   UNL     1      -9.033  19.437   4.876  1.00  0.00     0.031 A 
ATOM     89  C   UNL     1     -11.212  19.250   5.891  1.00  0.00     0.131 A 
ATOM     90  C   UNL     1      -9.119  20.831   5.015  1.00  0.00     0.055 A 
ATOM     91  C   UNL     1     -11.319  20.639   5.969  1.00  0.00     0.041 A 
ATOM     92  F   UNL     1     -12.241  18.521   6.352  1.00  0.00    -0.206 F 
ATOM     93  C   UNL     1     -10.264  21.437   5.539  1.00  0.00     0.022 A 
BRANCH  90  94
ATOM     94  S   UNL     1      -7.681  21.844   4.571  1.00  0.00     0.124 S 
ATOM     95  O   UNL     1      -6.653  21.319   5.464  1.00  0.00    -0.237 OA
ATOM     96  O   UNL     1      -7.510  21.540   3.154  1.00  0.00    -0.237 OA
ATOM     97  O   UNL     1      -8.119  23.208   4.863  1.00  0.00    -0.744 OA
ENDBRANCH  90  94
ENDBRANCH  64  87
ENDBRANCH  38  39
ENDBRANCH  30  33
ENDBRANCH  28  29
ENDBRANCH  27  28
ENDBRANCH   1  27
TORSDOF 18
