REMARK SMILES CC(C)(C)OC(=O)N1CCN(C(=O)c2ccc3c(c2)OCO3)[C@H](C(=O)NCCCCCCNC(=O)c2ccc(-c3c4nc(c(-c5cc(S(=O)(=O)[O-])ccc5F)c5ccc([nH]5)c(-c5cc(S(=O)(=O)[O-])ccc5F)c5nc(c(-c6cc(S(=O)(=O)[O-])ccc6F)c6ccc3[nH]6)C=C5)C=C4)cc2)C1
REMARK SMILES IDX 29 1 28 2 27 3 26 4 24 5 25 6 23 8 8 9 9 10 99 11 10 12
REMARK SMILES IDX 11 13 6 14 7 15 5 16 2 17 1 18 3 19 4 20 12 21 13 22 14 23
REMARK SMILES IDX 15 24 19 25 16 26 18 27 17 28 20 29 22 30 21 31 30 32 31 33
REMARK SMILES IDX 32 34 33 35 34 36 35 38 36 39 37 40 98 41 38 42 97 43 39 44
REMARK SMILES IDX 40 45 41 46 91 47 42 48 96 49 90 50 92 51 43 52 95 53 89 54
REMARK SMILES IDX 88 55 44 57 76 58 56 59 75 60 57 61 60 62 74 63 93 64 58 65
REMARK SMILES IDX 59 66 73 68 94 69 61 70 45 71 46 72 54 73 47 74 53 75 55 76
REMARK SMILES IDX 52 77 48 78 49 79 50 80 51 81 77 82 78 83 86 84 79 85 85 86
REMARK SMILES IDX 87 87 84 88 80 89 81 90 82 91 83 92 62 93 63 94 71 95 64 96
REMARK SMILES IDX 70 97 72 98 69 99 65 100 66 101 67 102 68 103
REMARK H PARENT 26 7 33 37 92 56 60 67
REMARK Flexibility Score: inf
ROOT
ATOM      1  C   UNL     1       5.909  -2.555   4.543  1.00  0.00     0.002 C 
ENDROOT
BRANCH   1   2
ATOM      2  C   UNL     1       4.500  -2.052   4.203  1.00  0.00     0.021 C 
BRANCH   2   3
ATOM      3  C   UNL     1       3.717  -1.582   5.429  1.00  0.00     0.116 C 
BRANCH   3   4
ATOM      4  N   UNL     1       4.355  -0.397   5.971  1.00  0.00    -0.354 N 
ATOM      5  C   UNL     1       4.005   0.898   5.709  1.00  0.00     0.244 C 
ATOM      6  O   UNL     1       4.892   1.747   5.617  1.00  0.00    -0.273 OA
ATOM      7  H   UNL     1       5.112  -0.539   6.585  1.00  0.00     0.163 HD
BRANCH   5   8
ATOM      8  C   UNL     1       2.512   1.242   5.677  1.00  0.00     0.194 C 
ATOM      9  N   UNL     1       0.978   2.587   4.250  1.00  0.00    -0.304 N 
ATOM     10  C   UNL     1       0.302   3.153   5.411  1.00  0.00     0.144 C 
ATOM     11  C   UNL     1       2.366   2.189   4.467  1.00  0.00     0.158 C 
ATOM     12  C   UNL     1       0.460   2.240   6.633  1.00  0.00     0.142 C 
ATOM     13  N   UNL     1       1.861   1.852   6.883  1.00  0.00    -0.323 N 
BRANCH   9  14
ATOM     14  C   UNL     1       0.365   2.568   3.019  1.00  0.00     0.410 C 
ATOM     15  O   UNL     1      -0.637   3.226   2.762  1.00  0.00    -0.224 OA
BRANCH  14  16
ATOM     16  O   UNL     1       0.971   1.708   2.164  1.00  0.00    -0.444 OA
BRANCH  16  17
ATOM     17  C   UNL     1       0.494   1.516   0.806  1.00  0.00     0.106 C 
ATOM     18  C   UNL     1       1.173   0.226   0.320  1.00  0.00     0.056 C 
ATOM     19  C   UNL     1       0.968   2.689  -0.055  1.00  0.00     0.056 C 
ATOM     20  C   UNL     1      -1.024   1.311   0.708  1.00  0.00     0.056 C 
ENDBRANCH  16  17
ENDBRANCH  14  16
ENDBRANCH   9  14
BRANCH  13  21
ATOM     21  C   UNL     1       2.167   1.562   8.219  1.00  0.00     0.254 C 
ATOM     22  O   UNL     1       1.326   1.571   9.117  1.00  0.00    -0.269 OA
BRANCH  21  23
ATOM     23  C   UNL     1       3.561   1.311   8.637  1.00  0.00     0.044 A 
ATOM     24  C   UNL     1       4.568   2.262   8.372  1.00  0.00     0.018 A 
ATOM     25  C   UNL     1       3.852   0.145   9.357  1.00  0.00     0.064 A 
ATOM     26  C   UNL     1       5.898   1.999   8.719  1.00  0.00     0.051 A 
ATOM     27  C   UNL     1       5.170  -0.075   9.698  1.00  0.00     0.166 A 
ATOM     28  C   UNL     1       6.166   0.816   9.372  1.00  0.00     0.165 A 
ATOM     29  O   UNL     1       5.649  -1.167  10.354  1.00  0.00    -0.454 OA
ATOM     30  O   UNL     1       7.396   0.387   9.762  1.00  0.00    -0.454 OA
ATOM     31  C   UNL     1       7.061  -0.874  10.379  1.00  0.00     0.468 C 
ENDBRANCH  21  23
ENDBRANCH  13  21
ENDBRANCH   5   8
ENDBRANCH   3   4
ENDBRANCH   2   3
ENDBRANCH   1   2
BRANCH   1  32
ATOM     32  C   UNL     1       5.939  -3.707   5.552  1.00  0.00     0.002 C 
BRANCH  32  33
ATOM     33  C   UNL     1       5.092  -4.917   5.151  1.00  0.00     0.021 C 
BRANCH  33  34
ATOM     34  C   UNL     1       5.469  -5.517   3.801  1.00  0.00     0.116 C 
BRANCH  34  35
ATOM     35  N   UNL     1       6.832  -6.022   3.802  1.00  0.00    -0.352 N 
ATOM     36  C   UNL     1       7.288  -7.276   3.481  1.00  0.00     0.251 C 
ATOM     37  H   UNL     1       7.524  -5.375   4.070  1.00  0.00     0.163 HD
ATOM     38  O   UNL     1       8.436  -7.599   3.768  1.00  0.00    -0.269 OA
BRANCH  36  39
ATOM     39  C   UNL     1       6.379  -8.232   2.814  1.00  0.00     0.039 A 
ATOM     40  C   UNL     1       6.345  -9.554   3.261  1.00  0.00     0.014 A 
ATOM     41  C   UNL     1       5.559  -7.824   1.758  1.00  0.00     0.014 A 
ATOM     42  C   UNL     1       5.444 -10.451   2.686  1.00  0.00     0.010 A 
ATOM     43  C   UNL     1       4.606  -8.698   1.242  1.00  0.00     0.010 A 
ATOM     44  C   UNL     1       4.539 -10.023   1.699  1.00  0.00    -0.014 A 
BRANCH  44  45
ATOM     45  C   UNL     1       3.514 -10.948   1.148  1.00  0.00     0.031 A 
ATOM     46  C   UNL     1       3.529 -11.314  -0.312  1.00  0.00     0.074 A 
ATOM     47  C   UNL     1       2.545 -11.422   1.958  1.00  0.00     0.049 A 
ATOM     48  N   UNL     1       2.696 -12.069  -0.982  1.00  0.00    -0.248 NA
ATOM     49  C   UNL     1       4.606 -10.739  -1.132  1.00  0.00     0.031 C 
ATOM     50  C   UNL     1       2.408 -11.107   3.383  1.00  0.00     0.029 A 
ATOM     51  N   UNL     1       1.492 -12.266   1.705  1.00  0.00    -0.354 N 
ATOM     52  C   UNL     1       3.142 -12.054  -2.299  1.00  0.00     0.074 A 
ATOM     53  C   UNL     1       4.285 -11.167  -2.344  1.00  0.00     0.031 C 
ATOM     54  C   UNL     1       1.356 -11.776   3.882  1.00  0.00     0.029 A 
ATOM     55  C   UNL     1       0.708 -12.521   2.808  1.00  0.00     0.049 A 
ATOM     56  H   UNL     1       1.314 -12.653   0.818  1.00  0.00     0.167 HD
ATOM     57  C   UNL     1       2.654 -12.733  -3.366  1.00  0.00     0.034 A 
ATOM     58  C   UNL     1      -0.414 -13.258   2.937  1.00  0.00     0.034 A 
ATOM     59  C   UNL     1       1.520 -13.622  -3.301  1.00  0.00     0.049 A 
ATOM     60  C   UNL     1      -0.956 -13.970   1.721  1.00  0.00     0.074 A 
ATOM     61  C   UNL     1       0.983 -14.403  -4.310  1.00  0.00     0.029 A 
ATOM     62  N   UNL     1       0.741 -13.842  -2.172  1.00  0.00    -0.354 N 
ATOM     63  N   UNL     1      -0.483 -13.991   0.496  1.00  0.00    -0.248 NA
ATOM     64  C   UNL     1      -2.176 -14.766   1.908  1.00  0.00     0.031 C 
ATOM     65  C   UNL     1      -0.168 -15.026  -3.817  1.00  0.00     0.029 A 
ATOM     66  C   UNL     1      -0.296 -14.713  -2.473  1.00  0.00     0.049 A 
ATOM     67  H   UNL     1       0.902 -13.440  -1.289  1.00  0.00     0.167 HD
ATOM     68  C   UNL     1      -1.329 -14.834  -0.222  1.00  0.00     0.074 A 
ATOM     69  C   UNL     1      -2.324 -15.316   0.713  1.00  0.00     0.031 C 
ATOM     70  C   UNL     1      -1.287 -15.181  -1.533  1.00  0.00     0.034 A 
BRANCH  57  71
ATOM     71  C   UNL     1       3.326 -12.522  -4.702  1.00  0.00     0.023 A 
ATOM     72  C   UNL     1       4.661 -12.897  -4.930  1.00  0.00     0.031 A 
ATOM     73  C   UNL     1       2.611 -11.951  -5.771  1.00  0.00     0.131 A 
ATOM     74  C   UNL     1       5.256 -12.647  -6.177  1.00  0.00     0.055 A 
ATOM     75  C   UNL     1       3.185 -11.778  -7.032  1.00  0.00     0.041 A 
ATOM     76  F   UNL     1       1.341 -11.550  -5.607  1.00  0.00    -0.206 F 
ATOM     77  C   UNL     1       4.518 -12.117  -7.238  1.00  0.00     0.022 A 
BRANCH  74  78
ATOM     78  S   UNL     1       7.041 -12.911  -6.355  1.00  0.00     0.124 S 
ATOM     79  O   UNL     1       7.575 -12.008  -5.338  1.00  0.00    -0.237 OA
ATOM     80  O   UNL     1       7.179 -14.337  -6.080  1.00  0.00    -0.237 OA
ATOM     81  O   UNL     1       7.310 -12.513  -7.735  1.00  0.00    -0.744 OA
ENDBRANCH  74  78
ENDBRANCH  57  71
BRANCH  58  82
ATOM     82  C   UNL     1      -1.122 -13.352   4.248  1.00  0.00     0.023 A 
ATOM     83  C   UNL     1      -1.307 -14.591   4.883  1.00  0.00     0.031 A 
ATOM     84  C   UNL     1      -1.697 -12.217   4.847  1.00  0.00     0.131 A 
ATOM     85  C   UNL     1      -2.105 -14.677   6.034  1.00  0.00     0.055 A 
ATOM     86  C   UNL     1      -2.429 -12.297   6.033  1.00  0.00     0.041 A 
ATOM     87  F   UNL     1      -1.555 -11.005   4.286  1.00  0.00    -0.206 F 
ATOM     88  C   UNL     1      -2.654 -13.537   6.623  1.00  0.00     0.022 A 
BRANCH  85  89
ATOM     89  S   UNL     1      -2.527 -16.322   6.674  1.00  0.00     0.124 S 
ATOM     90  O   UNL     1      -3.133 -16.946   5.504  1.00  0.00    -0.237 OA
ATOM     91  O   UNL     1      -1.220 -16.835   7.072  1.00  0.00    -0.237 OA
ATOM     92  O   UNL     1      -3.444 -16.032   7.774  1.00  0.00    -0.744 OA
ENDBRANCH  85  89
ENDBRANCH  58  82
BRANCH  70  93
ATOM     93  C   UNL     1      -2.321 -16.170  -2.018  1.00  0.00     0.023 A 
ATOM     94  C   UNL     1      -3.694 -15.865  -2.025  1.00  0.00     0.031 A 
ATOM     95  C   UNL     1      -1.927 -17.445  -2.462  1.00  0.00     0.131 A 
ATOM     96  C   UNL     1      -4.625 -16.843  -2.404  1.00  0.00     0.055 A 
ATOM     97  C   UNL     1      -2.853 -18.388  -2.909  1.00  0.00     0.041 A 
ATOM     98  F   UNL     1      -0.630 -17.795  -2.474  1.00  0.00    -0.206 F 
ATOM     99  C   UNL     1      -4.213 -18.095  -2.866  1.00  0.00     0.022 A 
BRANCH  96 100
ATOM    100  S   UNL     1      -6.391 -16.495  -2.179  1.00  0.00     0.124 S 
ATOM    101  O   UNL     1      -6.464 -16.210  -0.750  1.00  0.00    -0.237 OA
ATOM    102  O   UNL     1      -6.601 -15.356  -3.067  1.00  0.00    -0.237 OA
ATOM    103  O   UNL     1      -7.041 -17.736  -2.599  1.00  0.00    -0.744 OA
ENDBRANCH  96 100
ENDBRANCH  70  93
ENDBRANCH  44  45
ENDBRANCH  36  39
ENDBRANCH  34  35
ENDBRANCH  33  34
ENDBRANCH  32  33
ENDBRANCH   1  32
TORSDOF 21
