REMARK SMILES COC(=O)c1c(NC(=O)c2ccncc2C(=O)NCCCCCCNC(=O)c2ccc(-c3c4nc(c(-c5cc(S(=O)(=O)[O-])ccc5F)c5ccc([nH]5)c(-c5cc(S(=O)(=O)[O-])ccc5F)c5nc(c(-c6cc(S(=O)(=O)[O-])ccc6F)c6ccc3[nH]6)C=C5)C=C4)cc2)sc2c1CCCCCC2
REMARK SMILES IDX 20 1 19 2 18 3 16 4 17 5 15 7 10 8 11 9 12 10 14 11 13 12
REMARK SMILES IDX 8 13 7 14 9 16 6 17 5 18 93 19 91 20 92 21 3 22 4 23 2 24
REMARK SMILES IDX 1 25 94 26 95 27 96 28 99 30 98 31 97 32 21 34 22 35 23 36
REMARK SMILES IDX 24 37 25 38 26 39 27 41 28 42 29 43 90 44 30 45 89 46 31 47
REMARK SMILES IDX 32 48 33 49 83 50 34 51 88 52 82 53 84 54 35 55 87 56 81 57
REMARK SMILES IDX 80 58 36 60 68 61 48 62 67 63 49 64 52 65 66 66 85 67 50 68
REMARK SMILES IDX 51 69 65 71 86 72 53 73 37 74 38 75 46 76 39 77 45 78 47 79
REMARK SMILES IDX 44 80 40 81 41 82 42 83 43 84 69 85 70 86 78 87 71 88 77 89
REMARK SMILES IDX 79 90 76 91 72 92 73 93 74 94 75 95 54 96 55 97 63 98 56 99
REMARK SMILES IDX 62 100 64 101 61 102 57 103 58 104 59 105 60 106
REMARK H PARENT 18 6 7 15 25 40 84 59 52 70
REMARK Flexibility Score: 90.00
ROOT
ATOM      1  C   UNL     1      -3.434   3.208   0.987  1.00  0.00     0.021 C 
ENDROOT
BRANCH   1   2
ATOM      2  C   UNL     1      -2.893   1.796   0.830  1.00  0.00     0.116 C 
BRANCH   2   3
ATOM      3  N   UNL     1      -2.446   1.381  -0.469  1.00  0.00    -0.352 N 
ATOM      4  C   UNL     1      -1.745   0.266  -0.863  1.00  0.00     0.253 C 
ATOM      5  O   UNL     1      -1.614   0.143  -2.088  1.00  0.00    -0.269 OA
ATOM      6  H   UNL     1      -2.679   1.998  -1.199  1.00  0.00     0.163 HD
BRANCH   4   7
ATOM      7  C   UNL     1      -1.063  -0.752   0.011  1.00  0.00     0.070 A 
ATOM      8  C   UNL     1      -1.190  -1.084   1.368  1.00  0.00     0.056 A 
ATOM      9  C   UNL     1      -0.395  -2.088   1.955  1.00  0.00     0.035 A 
ATOM     10  C   UNL     1       0.554  -2.718   1.183  1.00  0.00     0.112 A 
ATOM     11  C   UNL     1      -0.094  -1.505  -0.667  1.00  0.00     0.125 A 
ATOM     12  N   UNL     1       0.715  -2.457  -0.123  1.00  0.00    -0.264 NA
BRANCH   8  13
ATOM     13  C   UNL     1      -2.273  -0.643   2.230  1.00  0.00     0.257 C 
ATOM     14  N   UNL     1      -2.091   0.106   3.365  1.00  0.00    -0.313 N 
ATOM     15  H   UNL     1      -2.942   0.337   3.804  1.00  0.00     0.171 HD
ATOM     16  O   UNL     1      -3.404  -1.033   1.932  1.00  0.00    -0.269 OA
BRANCH  14  17
ATOM     17  C   UNL     1      -0.997   0.611   4.036  1.00  0.00     0.110 A 
ATOM     18  C   UNL     1       0.374   0.723   3.913  1.00  0.00     0.098 A 
ATOM     19  C   UNL     1       0.981   1.091   5.203  1.00  0.00    -0.017 A 
ATOM     20  S   UNL     1      -1.554   1.315   5.488  1.00  0.00    -0.122 S 
ATOM     21  C   UNL     1       0.025   1.523   6.117  1.00  0.00     0.011 A 
BRANCH  18  22
ATOM     22  C   UNL     1       1.178   0.477   2.720  1.00  0.00     0.341 C 
ATOM     23  O   UNL     1       2.110  -0.305   2.690  1.00  0.00    -0.246 OA
BRANCH  22  24
ATOM     24  O   UNL     1       0.819   1.291   1.681  1.00  0.00    -0.465 OA
ATOM     25  C   UNL     1       1.730   1.245   0.578  1.00  0.00     0.282 C 
ENDBRANCH  22  24
ENDBRANCH  18  22
BRANCH  19  26
ATOM     26  C   UNL     1       2.467   1.047   5.464  1.00  0.00     0.037 C 
BRANCH  26  27
ATOM     27  C   UNL     1       3.166   2.395   5.390  1.00  0.00     0.005 C 
BRANCH  27  28
ATOM     28  C   UNL     1       2.606   3.491   6.291  1.00  0.00     0.000 CG0
ATOM     29  G   UNL     1       2.498   3.150   7.776  1.00  0.00     0.000 G0
ENDBRANCH  27  28
ENDBRANCH  26  27
ENDBRANCH  19  26
BRANCH  21  30
ATOM     30  C   UNL     1       0.117   2.144   7.497  1.00  0.00     0.047 C 
BRANCH  30  31
ATOM     31  C   UNL     1       1.467   2.099   8.207  1.00  0.00     0.006 C 
BRANCH  31  32
ATOM     32  C   UNL     1       2.498   3.150   7.776  1.00  0.00     0.000 CG0
ATOM     33  G   UNL     1       2.606   3.491   6.291  1.00  0.00     0.000 G0
ENDBRANCH  31  32
ENDBRANCH  30  31
ENDBRANCH  21  30
ENDBRANCH  14  17
ENDBRANCH   8  13
ENDBRANCH   4   7
ENDBRANCH   2   3
ENDBRANCH   1   2
BRANCH   1  34
ATOM     34  C   UNL     1      -4.673   3.584   0.173  1.00  0.00     0.002 C 
BRANCH  34  35
ATOM     35  C   UNL     1      -5.849   2.596   0.117  1.00  0.00     0.002 C 
BRANCH  35  36
ATOM     36  C   UNL     1      -6.455   2.082   1.431  1.00  0.00     0.021 C 
BRANCH  36  37
ATOM     37  C   UNL     1      -6.918   3.153   2.402  1.00  0.00     0.116 C 
BRANCH  37  38
ATOM     38  N   UNL     1      -7.997   4.006   1.891  1.00  0.00    -0.352 N 
ATOM     39  C   UNL     1      -8.630   5.071   2.525  1.00  0.00     0.251 C 
ATOM     40  H   UNL     1      -8.315   3.798   0.983  1.00  0.00     0.163 HD
ATOM     41  O   UNL     1      -9.743   5.439   2.166  1.00  0.00    -0.269 OA
BRANCH  39  42
ATOM     42  C   UNL     1      -7.928   5.753   3.631  1.00  0.00     0.039 A 
ATOM     43  C   UNL     1      -8.569   6.309   4.744  1.00  0.00     0.014 A 
ATOM     44  C   UNL     1      -6.545   5.793   3.538  1.00  0.00     0.014 A 
ATOM     45  C   UNL     1      -7.780   6.858   5.760  1.00  0.00     0.010 A 
ATOM     46  C   UNL     1      -5.799   6.016   4.651  1.00  0.00     0.010 A 
ATOM     47  C   UNL     1      -6.386   6.703   5.694  1.00  0.00    -0.014 A 
BRANCH  47  48
ATOM     48  C   UNL     1      -5.461   7.153   6.723  1.00  0.00     0.031 A 
ATOM     49  C   UNL     1      -5.684   6.501   8.031  1.00  0.00     0.074 A 
ATOM     50  C   UNL     1      -4.335   7.847   6.429  1.00  0.00     0.049 A 
ATOM     51  N   UNL     1      -6.221   7.023   9.080  1.00  0.00    -0.248 NA
ATOM     52  C   UNL     1      -5.497   5.043   8.125  1.00  0.00     0.031 C 
ATOM     53  C   UNL     1      -3.828   8.267   5.114  1.00  0.00     0.029 A 
ATOM     54  N   UNL     1      -3.329   8.237   7.256  1.00  0.00    -0.354 N 
ATOM     55  C   UNL     1      -6.166   6.036  10.055  1.00  0.00     0.074 A 
ATOM     56  C   UNL     1      -5.985   4.802   9.343  1.00  0.00     0.031 C 
ATOM     57  C   UNL     1      -2.533   8.645   5.217  1.00  0.00     0.029 A 
ATOM     58  C   UNL     1      -2.156   8.647   6.620  1.00  0.00     0.049 A 
ATOM     59  H   UNL     1      -3.422   8.231   8.236  1.00  0.00     0.167 HD
ATOM     60  C   UNL     1      -5.975   6.364  11.364  1.00  0.00     0.034 A 
ATOM     61  C   UNL     1      -0.962   8.950   7.207  1.00  0.00     0.034 A 
ATOM     62  C   UNL     1      -6.161   7.790  11.558  1.00  0.00     0.049 A 
ATOM     63  C   UNL     1      -1.272   9.269   8.626  1.00  0.00     0.074 A 
ATOM     64  C   UNL     1      -7.204   8.669  11.330  1.00  0.00     0.029 A 
ATOM     65  N   UNL     1      -5.033   8.580  11.649  1.00  0.00    -0.354 N 
ATOM     66  N   UNL     1      -2.002  10.294   8.976  1.00  0.00    -0.248 NA
ATOM     67  C   UNL     1      -1.243   8.176   9.588  1.00  0.00     0.031 C 
ATOM     68  C   UNL     1      -6.587   9.834  10.783  1.00  0.00     0.029 A 
ATOM     69  C   UNL     1      -5.201   9.653  10.807  1.00  0.00     0.049 A 
ATOM     70  H   UNL     1      -4.247   8.405  12.216  1.00  0.00     0.167 HD
ATOM     71  C   UNL     1      -2.863   9.807   9.950  1.00  0.00     0.074 A 
ATOM     72  C   UNL     1      -2.288   8.520  10.350  1.00  0.00     0.031 C 
ATOM     73  C   UNL     1      -4.114  10.334  10.122  1.00  0.00     0.034 A 
BRANCH  60  74
ATOM     74  C   UNL     1      -5.237   5.514  12.379  1.00  0.00     0.023 A 
ATOM     75  C   UNL     1      -5.087   6.067  13.665  1.00  0.00     0.031 A 
ATOM     76  C   UNL     1      -4.453   4.368  12.115  1.00  0.00     0.131 A 
ATOM     77  C   UNL     1      -4.112   5.586  14.552  1.00  0.00     0.055 A 
ATOM     78  C   UNL     1      -3.530   3.850  13.030  1.00  0.00     0.041 A 
ATOM     79  F   UNL     1      -4.459   3.727  10.943  1.00  0.00    -0.206 F 
ATOM     80  C   UNL     1      -3.326   4.482  14.242  1.00  0.00     0.022 A 
BRANCH  77  81
ATOM     81  S   UNL     1      -3.760   6.559  16.036  1.00  0.00     0.124 S 
ATOM     82  O   UNL     1      -3.500   7.876  15.464  1.00  0.00    -0.237 OA
ATOM     83  O   UNL     1      -5.003   6.415  16.788  1.00  0.00    -0.237 OA
ATOM     84  O   UNL     1      -2.599   5.886  16.613  1.00  0.00    -0.744 OA
ENDBRANCH  77  81
ENDBRANCH  60  74
BRANCH  61  85
ATOM     85  C   UNL     1       0.414   8.636   6.706  1.00  0.00     0.023 A 
ATOM     86  C   UNL     1       1.596   9.248   7.194  1.00  0.00     0.031 A 
ATOM     87  C   UNL     1       0.598   7.509   5.872  1.00  0.00     0.131 A 
ATOM     88  C   UNL     1       2.873   8.732   6.844  1.00  0.00     0.055 A 
ATOM     89  C   UNL     1       1.856   7.011   5.527  1.00  0.00     0.041 A 
ATOM     90  F   UNL     1      -0.448   6.793   5.430  1.00  0.00    -0.206 F 
ATOM     91  C   UNL     1       3.000   7.610   6.024  1.00  0.00     0.022 A 
BRANCH  88  92
ATOM     92  S   UNL     1       4.411   9.461   7.511  1.00  0.00     0.124 S 
ATOM     93  O   UNL     1       4.467  10.748   6.827  1.00  0.00    -0.237 OA
ATOM     94  O   UNL     1       4.149   9.496   8.945  1.00  0.00    -0.237 OA
ATOM     95  O   UNL     1       5.446   8.507   7.106  1.00  0.00    -0.744 OA
ENDBRANCH  88  92
ENDBRANCH  61  85
BRANCH  73  96
ATOM     96  C   UNL     1      -4.461  11.624   9.396  1.00  0.00     0.023 A 
ATOM     97  C   UNL     1      -4.431  11.808   7.991  1.00  0.00     0.031 A 
ATOM     98  C   UNL     1      -4.966  12.680  10.174  1.00  0.00     0.131 A 
ATOM     99  C   UNL     1      -4.887  13.018   7.425  1.00  0.00     0.055 A 
ATOM    100  C   UNL     1      -5.439  13.864   9.610  1.00  0.00     0.041 A 
ATOM    101  F   UNL     1      -5.045  12.561  11.510  1.00  0.00    -0.206 F 
ATOM    102  C   UNL     1      -5.396  14.040   8.232  1.00  0.00     0.022 A 
BRANCH  99 103
ATOM    103  S   UNL     1      -4.809  13.300   5.623  1.00  0.00     0.124 S 
ATOM    104  O   UNL     1      -3.446  12.913   5.277  1.00  0.00    -0.237 OA
ATOM    105  O   UNL     1      -5.868  12.431   5.119  1.00  0.00    -0.237 OA
ATOM    106  O   UNL     1      -5.085  14.732   5.491  1.00  0.00    -0.744 OA
ENDBRANCH  99 103
ENDBRANCH  73  96
ENDBRANCH  47  48
ENDBRANCH  39  42
ENDBRANCH  37  38
ENDBRANCH  36  37
ENDBRANCH  35  36
ENDBRANCH  34  35
ENDBRANCH   1  34
TORSDOF 20
