REMARK SMILES O=C(NCCCCCCNC(=O)[C@H]1Cc2[nH]cnc2CN1C(=O)N1CCC[C@H](O)C1)c1ccc(-c2c3nc(c(-c4cc(S(=O)(=O)[O-])ccc4F)c4ccc([nH]4)c(-c4cc(S(=O)(=O)[O-])ccc4F)c4nc(c(-c5cc(S(=O)(=O)[O-])ccc5F)c5ccc2[nH]5)C=C4)C=C3)cc1
REMARK SMILES IDX 6 1 5 2 4 3 3 4 1 5 2 6 31 8 32 9 93 10 33 11 92 12 34 13
REMARK SMILES IDX 35 14 36 15 86 16 37 17 91 18 85 19 87 20 38 21 90 22 84 23
REMARK SMILES IDX 83 24 39 26 71 27 51 28 70 29 52 30 55 31 69 32 88 33 53 34
REMARK SMILES IDX 54 35 68 37 89 38 56 39 40 40 41 41 49 42 42 43 48 44 50 45
REMARK SMILES IDX 47 46 43 47 44 48 45 49 46 50 72 51 73 52 81 53 74 54 80 55
REMARK SMILES IDX 82 56 79 57 75 58 76 59 77 60 78 61 57 62 58 63 66 64 59 65
REMARK SMILES IDX 65 66 67 67 64 68 60 69 61 70 62 71 63 72 7 73 8 74 9 75
REMARK SMILES IDX 10 76 11 77 12 79 13 80 14 81 21 82 15 83 20 84 16 85 19 86
REMARK SMILES IDX 17 87 18 89 22 90 23 91 24 92 25 93 30 94 26 95 28 96 27 97
REMARK SMILES IDX 29 98
REMARK H PARENT 3 7 87 25 55 36 10 78 16 88 29 99
REMARK Flexibility Score: inf
ROOT
ATOM      1  C   UNL     1       4.326   2.537  -2.312  1.00  0.00     0.002 C 
ENDROOT
BRANCH   1   2
ATOM      2  C   UNL     1       4.777   1.125  -1.917  1.00  0.00     0.021 C 
BRANCH   2   3
ATOM      3  C   UNL     1       4.574   0.787  -0.441  1.00  0.00     0.116 C 
BRANCH   3   4
ATOM      4  N   UNL     1       3.195   0.845  -0.018  1.00  0.00    -0.352 N 
ATOM      5  O   UNL     1       1.147   0.323   0.597  1.00  0.00    -0.269 OA
ATOM      6  C   UNL     1       2.166  -0.052   0.008  1.00  0.00     0.251 C 
ATOM      7  H   UNL     1       2.939   1.730   0.331  1.00  0.00     0.163 HD
BRANCH   6   8
ATOM      8  C   UNL     1       2.169  -1.384  -0.659  1.00  0.00     0.039 A 
ATOM      9  C   UNL     1       3.272  -2.024  -1.229  1.00  0.00     0.014 A 
ATOM     10  C   UNL     1       0.914  -2.018  -0.739  1.00  0.00     0.014 A 
ATOM     11  C   UNL     1       3.112  -3.220  -1.926  1.00  0.00     0.010 A 
ATOM     12  C   UNL     1       0.750  -3.214  -1.427  1.00  0.00     0.010 A 
ATOM     13  C   UNL     1       1.845  -3.799  -2.052  1.00  0.00    -0.014 A 
BRANCH  13  14
ATOM     14  C   UNL     1       1.735  -5.116  -2.680  1.00  0.00     0.031 A 
ATOM     15  C   UNL     1       2.456  -6.195  -1.940  1.00  0.00     0.074 A 
ATOM     16  C   UNL     1       0.937  -5.386  -3.736  1.00  0.00     0.049 A 
ATOM     17  N   UNL     1       3.439  -6.927  -2.349  1.00  0.00    -0.248 NA
ATOM     18  C   UNL     1       2.138  -6.383  -0.513  1.00  0.00     0.031 C 
ATOM     19  C   UNL     1      -0.018  -4.493  -4.396  1.00  0.00     0.029 A 
ATOM     20  N   UNL     1       0.740  -6.567  -4.391  1.00  0.00    -0.354 N 
ATOM     21  C   UNL     1       3.721  -7.818  -1.314  1.00  0.00     0.074 A 
ATOM     22  C   UNL     1       3.013  -7.326  -0.164  1.00  0.00     0.031 C 
ATOM     23  C   UNL     1      -0.845  -5.220  -5.186  1.00  0.00     0.029 A 
ATOM     24  C   UNL     1      -0.398  -6.605  -5.197  1.00  0.00     0.049 A 
ATOM     25  H   UNL     1       1.353  -7.333  -4.301  1.00  0.00     0.167 HD
ATOM     26  C   UNL     1       4.348  -9.005  -1.549  1.00  0.00     0.034 A 
ATOM     27  C   UNL     1      -0.962  -7.696  -5.792  1.00  0.00     0.034 A 
ATOM     28  C   UNL     1       5.040  -8.981  -2.816  1.00  0.00     0.049 A 
ATOM     29  C   UNL     1       0.103  -8.726  -5.880  1.00  0.00     0.074 A 
ATOM     30  C   UNL     1       6.059  -8.213  -3.346  1.00  0.00     0.029 A 
ATOM     31  N   UNL     1       4.447  -9.597  -3.894  1.00  0.00    -0.354 N 
ATOM     32  N   UNL     1       1.173  -8.585  -6.614  1.00  0.00    -0.248 NA
ATOM     33  C   UNL     1       0.224  -9.671  -4.779  1.00  0.00     0.031 C 
ATOM     34  C   UNL     1       5.678  -7.994  -4.702  1.00  0.00     0.029 A 
ATOM     35  C   UNL     1       4.505  -8.712  -4.943  1.00  0.00     0.049 A 
ATOM     36  H   UNL     1       4.054 -10.499  -3.911  1.00  0.00     0.167 HD
ATOM     37  C   UNL     1       2.210  -9.066  -5.829  1.00  0.00     0.074 A 
ATOM     38  C   UNL     1       1.555  -9.795  -4.742  1.00  0.00     0.031 C 
ATOM     39  C   UNL     1       3.486  -8.601  -5.968  1.00  0.00     0.034 A 
BRANCH  26  40
ATOM     40  C   UNL     1       4.043 -10.304  -0.830  1.00  0.00     0.023 A 
ATOM     41  C   UNL     1       4.733 -11.456  -1.262  1.00  0.00     0.031 A 
ATOM     42  C   UNL     1       2.929 -10.539   0.006  1.00  0.00     0.131 A 
ATOM     43  C   UNL     1       4.244 -12.743  -0.979  1.00  0.00     0.055 A 
ATOM     44  C   UNL     1       2.484 -11.822   0.339  1.00  0.00     0.041 A 
ATOM     45  F   UNL     1       2.153  -9.556   0.475  1.00  0.00    -0.206 F 
ATOM     46  C   UNL     1       3.118 -12.935  -0.185  1.00  0.00     0.022 A 
BRANCH  43  47
ATOM     47  S   UNL     1       4.992 -14.154  -1.836  1.00  0.00     0.124 S 
ATOM     48  O   UNL     1       4.909 -13.728  -3.229  1.00  0.00    -0.237 OA
ATOM     49  O   UNL     1       6.327 -14.185  -1.250  1.00  0.00    -0.237 OA
ATOM     50  O   UNL     1       4.123 -15.270  -1.472  1.00  0.00    -0.744 OA
ENDBRANCH  43  47
ENDBRANCH  26  40
BRANCH  27  51
ATOM     51  C   UNL     1      -2.421  -8.013  -5.913  1.00  0.00     0.023 A 
ATOM     52  C   UNL     1      -2.954  -8.959  -6.823  1.00  0.00     0.031 A 
ATOM     53  C   UNL     1      -3.308  -7.535  -4.920  1.00  0.00     0.131 A 
ATOM     54  C   UNL     1      -4.309  -9.374  -6.718  1.00  0.00     0.055 A 
ATOM     55  C   UNL     1      -4.638  -7.950  -4.820  1.00  0.00     0.041 A 
ATOM     56  F   UNL     1      -2.884  -6.706  -3.954  1.00  0.00    -0.206 F 
ATOM     57  C   UNL     1      -5.143  -8.878  -5.714  1.00  0.00     0.022 A 
BRANCH  54  58
ATOM     58  S   UNL     1      -5.008 -10.626  -7.852  1.00  0.00     0.124 S 
ATOM     59  O   UNL     1      -4.968  -9.945  -9.135  1.00  0.00    -0.237 OA
ATOM     60  O   UNL     1      -4.090 -11.752  -7.682  1.00  0.00    -0.237 OA
ATOM     61  O   UNL     1      -6.353 -10.857  -7.322  1.00  0.00    -0.744 OA
ENDBRANCH  54  58
ENDBRANCH  27  51
BRANCH  39  62
ATOM     62  C   UNL     1       3.830  -7.748  -7.172  1.00  0.00     0.023 A 
ATOM     63  C   UNL     1       3.246  -6.496  -7.479  1.00  0.00     0.031 A 
ATOM     64  C   UNL     1       4.920  -8.170  -7.953  1.00  0.00     0.131 A 
ATOM     65  C   UNL     1       3.767  -5.721  -8.538  1.00  0.00     0.055 A 
ATOM     66  C   UNL     1       5.444  -7.392  -8.982  1.00  0.00     0.041 A 
ATOM     67  F   UNL     1       5.532  -9.337  -7.690  1.00  0.00    -0.206 F 
ATOM     68  C   UNL     1       4.867  -6.165  -9.280  1.00  0.00     0.022 A 
BRANCH  65  69
ATOM     69  S   UNL     1       3.027  -4.111  -8.972  1.00  0.00     0.124 S 
ATOM     70  O   UNL     1       1.609  -4.416  -9.114  1.00  0.00    -0.237 OA
ATOM     71  O   UNL     1       3.394  -3.275  -7.832  1.00  0.00    -0.237 OA
ATOM     72  O   UNL     1       3.701  -3.754 -10.223  1.00  0.00    -0.744 OA
ENDBRANCH  65  69
ENDBRANCH  39  62
ENDBRANCH  13  14
ENDBRANCH   6   8
ENDBRANCH   3   4
ENDBRANCH   2   3
ENDBRANCH   1   2
BRANCH   1  73
ATOM     73  C   UNL     1       4.853   3.663  -1.417  1.00  0.00     0.002 C 
BRANCH  73  74
ATOM     74  C   UNL     1       6.377   3.684  -1.215  1.00  0.00     0.021 C 
BRANCH  74  75
ATOM     75  C   UNL     1       7.192   3.785  -2.505  1.00  0.00     0.116 C 
BRANCH  75  76
ATOM     76  N   UNL     1       6.924   5.044  -3.171  1.00  0.00    -0.354 N 
ATOM     77  C   UNL     1       7.787   6.101  -3.141  1.00  0.00     0.243 C 
ATOM     78  H   UNL     1       6.079   5.141  -3.668  1.00  0.00     0.163 HD
ATOM     79  O   UNL     1       7.438   7.106  -2.520  1.00  0.00    -0.273 OA
BRANCH  77  80
ATOM     80  C   UNL     1       9.161   5.964  -3.799  1.00  0.00     0.182 C 
ATOM     81  C   UNL     1       9.466   4.700  -4.652  1.00  0.00     0.091 C 
ATOM     82  N   UNL     1       9.713   7.166  -4.517  1.00  0.00    -0.306 N 
ATOM     83  C   UNL     1      10.947   4.696  -4.805  1.00  0.00     0.042 A 
ATOM     84  C   UNL     1      11.202   7.223  -4.501  1.00  0.00     0.180 C 
ATOM     85  N   UNL     1      11.795   3.634  -4.875  1.00  0.00    -0.348 N 
ATOM     86  C   UNL     1      11.739   5.826  -4.728  1.00  0.00     0.081 A 
ATOM     87  C   UNL     1      13.064   4.150  -4.796  1.00  0.00     0.197 A 
ATOM     88  H   UNL     1      11.548   2.686  -4.965  1.00  0.00     0.167 HD
ATOM     89  N   UNL     1      13.063   5.466  -4.708  1.00  0.00    -0.240 NA
BRANCH  82  90
ATOM     90  C   UNL     1       9.088   7.868  -5.543  1.00  0.00     0.321 C 
ATOM     91  O   UNL     1       9.686   8.662  -6.270  1.00  0.00    -0.248 OA
BRANCH  90  92
ATOM     92  N   UNL     1       7.754   7.583  -5.785  1.00  0.00    -0.322 N 
ATOM     93  C   UNL     1       6.732   8.367  -5.092  1.00  0.00     0.121 C 
ATOM     94  C   UNL     1       7.387   7.357  -7.187  1.00  0.00     0.153 C 
ATOM     95  C   UNL     1       5.399   7.617  -5.065  1.00  0.00     0.024 C 
ATOM     96  C   UNL     1       6.125   6.493  -7.250  1.00  0.00     0.134 C 
ATOM     97  C   UNL     1       4.971   7.107  -6.447  1.00  0.00     0.035 C 
BRANCH  96  98
ATOM     98  O   UNL     1       6.426   5.203  -6.714  1.00  0.00    -0.391 OA
ATOM     99  H   UNL     1       6.702   5.293  -5.788  1.00  0.00     0.211 HD
ENDBRANCH  96  98
ENDBRANCH  90  92
ENDBRANCH  82  90
ENDBRANCH  77  80
ENDBRANCH  75  76
ENDBRANCH  74  75
ENDBRANCH  73  74
ENDBRANCH   1  73
TORSDOF 19
