REMARK SMILES CN(CC(=O)NCCCCCCNC(=O)c1ccc(-c2c3nc(c(-c4cc(S(=O)(=O)[O-])ccc4F)c4ccc([nH]4)c(-c4cc(S(=O)(=O)[O-])ccc4F)c4nc(c(-c5cc(S(=O)(=O)[O-])ccc5F)c5ccc2[nH]5)C=C4)C=C3)cc1)c1ncc(-c2nnnn2-c2ccccc2)c(-c2ccc(Cl)cc2)n1
REMARK SMILES IDX 9 1 8 2 7 3 6 4 4 5 5 6 3 8 2 9 1 10 79 11 80 12 102 13
REMARK SMILES IDX 81 14 94 15 82 16 95 17 96 18 101 19 97 20 100 21 98 22
REMARK SMILES IDX 99 23 83 24 84 25 87 26 85 27 86 28 88 29 89 30 93 31 90 32
REMARK SMILES IDX 92 33 91 34 10 35 11 36 12 37 13 38 14 39 15 41 16 42 17 43
REMARK SMILES IDX 78 44 18 45 77 46 19 47 20 48 21 49 71 50 22 51 76 52 70 53
REMARK SMILES IDX 72 54 23 55 75 56 69 57 68 58 24 60 56 61 36 62 55 63 37 64
REMARK SMILES IDX 40 65 54 66 73 67 38 68 39 69 53 71 74 72 41 73 25 74 26 75
REMARK SMILES IDX 34 76 27 77 33 78 35 79 32 80 28 81 29 82 30 83 31 84 57 85
REMARK SMILES IDX 58 86 66 87 59 88 65 89 67 90 64 91 60 92 61 93 62 94 63 95
REMARK SMILES IDX 42 96 43 97 51 98 44 99 50 100 52 101 49 102 45 103 46 104
REMARK SMILES IDX 47 105 48 106
REMARK H PARENT 6 7 13 40 72 59 40 70
REMARK Flexibility Score: inf
ROOT
ATOM      1  C   UNL     1      -3.480   1.146  -2.000  1.00  0.00     0.002 C 
ENDROOT
BRANCH   1   2
ATOM      2  C   UNL     1      -2.119   0.951  -1.319  1.00  0.00     0.021 C 
BRANCH   2   3
ATOM      3  C   UNL     1      -2.155   0.007  -0.118  1.00  0.00     0.116 C 
BRANCH   3   4
ATOM      4  N   UNL     1      -2.449  -1.352  -0.518  1.00  0.00    -0.355 N 
ATOM      5  C   UNL     1      -1.599  -2.421  -0.588  1.00  0.00     0.239 C 
ATOM      6  O   UNL     1      -2.064  -3.507  -0.948  1.00  0.00    -0.273 OA
ATOM      7  H   UNL     1      -3.383  -1.530  -0.774  1.00  0.00     0.163 HD
BRANCH   5   8
ATOM      8  C   UNL     1      -0.154  -2.290  -0.088  1.00  0.00     0.219 C 
BRANCH   8   9
ATOM      9  N   UNL     1       0.653  -1.270  -0.762  1.00  0.00    -0.335 N 
ATOM     10  C   UNL     1       1.502  -0.391   0.013  1.00  0.00     0.147 C 
BRANCH   9  11
ATOM     11  C   UNL     1       1.005  -1.503  -2.073  1.00  0.00     0.226 A 
ATOM     12  N   UNL     1       0.090  -2.029  -2.890  1.00  0.00    -0.221 NA
ATOM     13  N   UNL     1       2.241  -1.184  -2.492  1.00  0.00    -0.212 NA
ATOM     14  C   UNL     1       0.421  -2.186  -4.183  1.00  0.00     0.129 A 
ATOM     15  C   UNL     1       2.572  -1.400  -3.790  1.00  0.00     0.087 A 
ATOM     16  C   UNL     1       1.653  -1.866  -4.713  1.00  0.00     0.066 A 
BRANCH  15  17
ATOM     17  C   UNL     1       3.988  -1.136  -4.100  1.00  0.00     0.001 A 
ATOM     18  C   UNL     1       4.994  -1.870  -3.443  1.00  0.00     0.012 A 
ATOM     19  C   UNL     1       4.385  -0.179  -5.049  1.00  0.00     0.012 A 
ATOM     20  C   UNL     1       6.345  -1.680  -3.745  1.00  0.00     0.021 A 
ATOM     21  C   UNL     1       5.737   0.014  -5.354  1.00  0.00     0.021 A 
ATOM     22  C   UNL     1       6.710  -0.742  -4.706  1.00  0.00     0.041 A 
ATOM     23  Cl  UNL     1       8.371  -0.517  -5.095  1.00  0.00    -0.084 Cl
ENDBRANCH  15  17
BRANCH  16  24
ATOM     24  C   UNL     1       1.912  -2.060  -6.128  1.00  0.00     0.190 A 
ATOM     25  N   UNL     1       2.754  -2.932  -6.650  1.00  0.00    -0.108 NA
ATOM     26  N   UNL     1       1.183  -1.494  -7.169  1.00  0.00    -0.193 N 
ATOM     27  N   UNL     1       2.474  -2.987  -7.989  1.00  0.00    -0.023 NA
ATOM     28  N   UNL     1       1.474  -2.177  -8.300  1.00  0.00    -0.040 NA
BRANCH  26  29
ATOM     29  C   UNL     1       0.260  -0.421  -7.163  1.00  0.00     0.069 A 
ATOM     30  C   UNL     1      -0.776  -0.404  -8.105  1.00  0.00     0.028 A 
ATOM     31  C   UNL     1       0.375   0.626  -6.237  1.00  0.00     0.028 A 
ATOM     32  C   UNL     1      -1.717   0.627  -8.085  1.00  0.00     0.002 A 
ATOM     33  C   UNL     1      -0.551   1.671  -6.247  1.00  0.00     0.002 A 
ATOM     34  C   UNL     1      -1.602   1.664  -7.160  1.00  0.00     0.000 A 
ENDBRANCH  26  29
ENDBRANCH  16  24
ENDBRANCH   9  11
ENDBRANCH   8   9
ENDBRANCH   5   8
ENDBRANCH   3   4
ENDBRANCH   2   3
ENDBRANCH   1   2
BRANCH   1  35
ATOM     35  C   UNL     1      -4.606   1.631  -1.080  1.00  0.00     0.002 C 
BRANCH  35  36
ATOM     36  C   UNL     1      -4.304   2.918  -0.307  1.00  0.00     0.021 C 
BRANCH  36  37
ATOM     37  C   UNL     1      -4.018   4.133  -1.184  1.00  0.00     0.116 C 
BRANCH  37  38
ATOM     38  N   UNL     1      -5.172   4.508  -1.984  1.00  0.00    -0.352 N 
ATOM     39  C   UNL     1      -5.770   5.734  -2.120  1.00  0.00     0.251 C 
ATOM     40  H   UNL     1      -5.582   3.778  -2.501  1.00  0.00     0.163 HD
ATOM     41  O   UNL     1      -6.870   5.811  -2.672  1.00  0.00    -0.269 OA
BRANCH  39  42
ATOM     42  C   UNL     1      -5.112   6.951  -1.598  1.00  0.00     0.039 A 
ATOM     43  C   UNL     1      -5.891   7.923  -0.964  1.00  0.00     0.014 A 
ATOM     44  C   UNL     1      -3.739   7.156  -1.763  1.00  0.00     0.014 A 
ATOM     45  C   UNL     1      -5.288   9.081  -0.466  1.00  0.00     0.010 A 
ATOM     46  C   UNL     1      -3.129   8.275  -1.201  1.00  0.00     0.010 A 
ATOM     47  C   UNL     1      -3.899   9.260  -0.564  1.00  0.00    -0.014 A 
BRANCH  47  48
ATOM     48  C   UNL     1      -3.242  10.494  -0.057  1.00  0.00     0.031 A 
ATOM     49  C   UNL     1      -2.551  11.422  -1.023  1.00  0.00     0.074 A 
ATOM     50  C   UNL     1      -3.226  10.757   1.265  1.00  0.00     0.049 A 
ATOM     51  N   UNL     1      -1.853  12.502  -0.781  1.00  0.00    -0.248 NA
ATOM     52  C   UNL     1      -2.633  11.069  -2.450  1.00  0.00     0.031 C 
ATOM     53  C   UNL     1      -3.834   9.919   2.301  1.00  0.00     0.029 A 
ATOM     54  N   UNL     1      -2.672  11.799   1.967  1.00  0.00    -0.354 N 
ATOM     55  C   UNL     1      -1.398  12.945  -2.019  1.00  0.00     0.074 A 
ATOM     56  C   UNL     1      -1.849  11.983  -3.001  1.00  0.00     0.031 C 
ATOM     57  C   UNL     1      -3.639  10.492   3.500  1.00  0.00     0.029 A 
ATOM     58  C   UNL     1      -2.854  11.710   3.328  1.00  0.00     0.049 A 
ATOM     59  H   UNL     1      -2.189  12.541   1.536  1.00  0.00     0.167 HD
ATOM     60  C   UNL     1      -0.690  14.064  -2.313  1.00  0.00     0.034 A 
ATOM     61  C   UNL     1      -2.427  12.513   4.324  1.00  0.00     0.034 A 
ATOM     62  C   UNL     1      -0.271  15.028  -1.325  1.00  0.00     0.049 A 
ATOM     63  C   UNL     1      -1.631  13.748   3.971  1.00  0.00     0.074 A 
ATOM     64  C   UNL     1       0.407  16.219  -1.517  1.00  0.00     0.029 A 
ATOM     65  N   UNL     1      -0.488  14.912   0.042  1.00  0.00    -0.354 N 
ATOM     66  N   UNL     1      -1.246  14.174   2.790  1.00  0.00    -0.248 NA
ATOM     67  C   UNL     1      -1.229  14.617   5.084  1.00  0.00     0.031 C 
ATOM     68  C   UNL     1       0.658  16.788  -0.264  1.00  0.00     0.029 A 
ATOM     69  C   UNL     1       0.063  15.997   0.705  1.00  0.00     0.049 A 
ATOM     70  H   UNL     1      -0.965  14.168   0.477  1.00  0.00     0.167 HD
ATOM     71  C   UNL     1      -0.595  15.384   3.018  1.00  0.00     0.074 A 
ATOM     72  C   UNL     1      -0.652  15.623   4.444  1.00  0.00     0.031 C 
ATOM     73  C   UNL     1      -0.008  16.226   2.129  1.00  0.00     0.034 A 
BRANCH  60  74
ATOM     74  C   UNL     1      -0.307  14.292  -3.756  1.00  0.00     0.023 A 
ATOM     75  C   UNL     1      -1.274  14.484  -4.759  1.00  0.00     0.031 A 
ATOM     76  C   UNL     1       1.046  14.309  -4.138  1.00  0.00     0.131 A 
ATOM     77  C   UNL     1      -0.879  14.614  -6.099  1.00  0.00     0.055 A 
ATOM     78  C   UNL     1       1.436  14.524  -5.462  1.00  0.00     0.041 A 
ATOM     79  F   UNL     1       2.015  14.110  -3.231  1.00  0.00    -0.206 F 
ATOM     80  C   UNL     1       0.470  14.664  -6.454  1.00  0.00     0.022 A 
BRANCH  77  81
ATOM     81  S   UNL     1      -2.156  14.584  -7.386  1.00  0.00     0.124 S 
ATOM     82  O   UNL     1      -2.759  13.270  -7.170  1.00  0.00    -0.237 OA
ATOM     83  O   UNL     1      -2.985  15.732  -7.037  1.00  0.00    -0.237 OA
ATOM     84  O   UNL     1      -1.396  14.715  -8.627  1.00  0.00    -0.744 OA
ENDBRANCH  77  81
ENDBRANCH  60  74
BRANCH  61  85
ATOM     85  C   UNL     1      -2.726  12.187   5.750  1.00  0.00     0.023 A 
ATOM     86  C   UNL     1      -3.498  13.050   6.543  1.00  0.00     0.031 A 
ATOM     87  C   UNL     1      -2.187  11.040   6.360  1.00  0.00     0.131 A 
ATOM     88  C   UNL     1      -3.654  12.791   7.914  1.00  0.00     0.055 A 
ATOM     89  C   UNL     1      -2.398  10.753   7.710  1.00  0.00     0.041 A 
ATOM     90  F   UNL     1      -1.444  10.177   5.649  1.00  0.00    -0.206 F 
ATOM     91  C   UNL     1      -3.121  11.642   8.500  1.00  0.00     0.022 A 
BRANCH  88  92
ATOM     92  S   UNL     1      -4.468  14.042   8.946  1.00  0.00     0.124 S 
ATOM     93  O   UNL     1      -3.652  15.222   8.679  1.00  0.00    -0.237 OA
ATOM     94  O   UNL     1      -5.818  14.057   8.394  1.00  0.00    -0.237 OA
ATOM     95  O   UNL     1      -4.353  13.495  10.296  1.00  0.00    -0.744 OA
ENDBRANCH  88  92
ENDBRANCH  61  85
BRANCH  73  96
ATOM     96  C   UNL     1       0.554  17.518   2.671  1.00  0.00     0.023 A 
ATOM     97  C   UNL     1       1.649  17.544   3.552  1.00  0.00     0.031 A 
ATOM     98  C   UNL     1      -0.028  18.745   2.304  1.00  0.00     0.131 A 
ATOM     99  C   UNL     1       2.088  18.765   4.085  1.00  0.00     0.055 A 
ATOM    100  C   UNL     1       0.456  19.962   2.785  1.00  0.00     0.041 A 
ATOM    101  F   UNL     1      -1.077  18.781   1.466  1.00  0.00    -0.206 F 
ATOM    102  C   UNL     1       1.510  19.976   3.694  1.00  0.00     0.022 A 
BRANCH  99 103
ATOM    103  S   UNL     1       3.358  18.744   5.379  1.00  0.00     0.124 S 
ATOM    104  O   UNL     1       2.744  17.894   6.394  1.00  0.00    -0.237 OA
ATOM    105  O   UNL     1       4.505  18.174   4.680  1.00  0.00    -0.237 OA
ATOM    106  O   UNL     1       3.496  20.152   5.749  1.00  0.00    -0.744 OA
ENDBRANCH  99 103
ENDBRANCH  73  96
ENDBRANCH  47  48
ENDBRANCH  39  42
ENDBRANCH  37  38
ENDBRANCH  36  37
ENDBRANCH  35  36
ENDBRANCH   1  35
TORSDOF 21
