REMARK SMILES C[C@@H](CC(=O)NCCCCCCNC(=O)c1ccc(-c2c3nc(c(-c4cc(S(=O)(=O)[O-])ccc4F)c4ccc([nH]4)c(-c4cc(S(=O)(=O)[O-])ccc4F)c4nc(c(-c5cc(S(=O)(=O)[O-])ccc5F)c5ccc2[nH]5)C=C4)C=C3)cc1)NC(=O)CN(C)c1ncccn1
REMARK SMILES IDX 8 1 7 2 6 3 4 4 5 5 3 7 2 8 1 9 79 10 80 11 81 13 82 14
REMARK SMILES IDX 83 15 84 16 85 17 86 18 90 19 87 20 89 21 88 22 9 23 10 24
REMARK SMILES IDX 11 25 12 26 13 27 14 28 15 30 16 31 17 32 78 33 18 34 77 35
REMARK SMILES IDX 19 36 20 37 21 38 71 39 22 40 76 41 70 42 72 43 23 44 75 45
REMARK SMILES IDX 69 46 68 47 24 49 56 50 36 51 55 52 37 53 40 54 54 55 73 56
REMARK SMILES IDX 38 57 39 58 53 60 74 61 41 62 25 63 26 64 34 65 27 66 33 67
REMARK SMILES IDX 35 68 32 69 28 70 29 71 30 72 31 73 57 74 58 75 66 76 59 77
REMARK SMILES IDX 65 78 67 79 64 80 60 81 61 82 62 83 63 84 42 85 43 86 51 87
REMARK SMILES IDX 44 88 50 89 52 90 49 91 45 92 46 93 47 94 48 95
REMARK H PARENT 6 6 79 12 13 29 72 48 40 59
REMARK Flexibility Score: inf
ROOT
ATOM      1  C   UNL     1       0.929  -1.925   1.872  1.00  0.00     0.021 C 
ENDROOT
BRANCH   1   2
ATOM      2  C   UNL     1       1.702  -2.337   0.616  1.00  0.00     0.116 C 
BRANCH   2   3
ATOM      3  N   UNL     1       0.789  -2.867  -0.376  1.00  0.00    -0.356 N 
ATOM      4  C   UNL     1       0.368  -2.329  -1.550  1.00  0.00     0.222 C 
ATOM      5  O   UNL     1      -0.566  -2.880  -2.137  1.00  0.00    -0.275 OA
ATOM      6  H   UNL     1       0.417  -3.755  -0.167  1.00  0.00     0.163 HD
BRANCH   4   7
ATOM      7  C   UNL     1       1.046  -1.111  -2.147  1.00  0.00     0.124 C 
BRANCH   7   8
ATOM      8  C   UNL     1       0.446   0.257  -1.780  1.00  0.00     0.088 C 
ATOM      9  C   UNL     1       0.819   0.701  -0.372  1.00  0.00     0.031 C 
BRANCH   8  10
ATOM     10  N   UNL     1      -0.997   0.304  -1.976  1.00  0.00    -0.352 N 
ATOM     11  C   UNL     1      -1.787   1.360  -2.342  1.00  0.00     0.239 C 
ATOM     12  H   UNL     1      -1.472  -0.545  -1.822  1.00  0.00     0.163 HD
ATOM     13  O   UNL     1      -3.004   1.165  -2.428  1.00  0.00    -0.273 OA
BRANCH  11  14
ATOM     14  C   UNL     1      -1.159   2.687  -2.795  1.00  0.00     0.219 C 
BRANCH  14  15
ATOM     15  N   UNL     1      -0.336   3.375  -1.804  1.00  0.00    -0.335 N 
ATOM     16  C   UNL     1       0.973   3.880  -2.153  1.00  0.00     0.147 C 
BRANCH  15  17
ATOM     17  C   UNL     1      -0.940   3.887  -0.673  1.00  0.00     0.225 A 
ATOM     18  N   UNL     1      -0.382   4.948  -0.065  1.00  0.00    -0.221 NA
ATOM     19  N   UNL     1      -2.026   3.271  -0.186  1.00  0.00    -0.221 NA
ATOM     20  C   UNL     1      -0.955   5.396   1.069  1.00  0.00     0.117 A 
ATOM     21  C   UNL     1      -2.544   3.725   0.970  1.00  0.00     0.117 A 
ATOM     22  C   UNL     1      -2.047   4.807   1.648  1.00  0.00     0.040 A 
ENDBRANCH  15  17
ENDBRANCH  14  15
ENDBRANCH  11  14
ENDBRANCH   8  10
ENDBRANCH   7   8
ENDBRANCH   4   7
ENDBRANCH   2   3
ENDBRANCH   1   2
BRANCH   1  23
ATOM     23  C   UNL     1       0.661  -3.076   2.842  1.00  0.00     0.002 C 
BRANCH  23  24
ATOM     24  C   UNL     1       1.917  -3.690   3.464  1.00  0.00     0.002 C 
BRANCH  24  25
ATOM     25  C   UNL     1       2.857  -2.690   4.144  1.00  0.00     0.021 C 
BRANCH  25  26
ATOM     26  C   UNL     1       2.200  -1.829   5.218  1.00  0.00     0.116 C 
BRANCH  26  27
ATOM     27  N   UNL     1       1.643  -2.641   6.288  1.00  0.00    -0.352 N 
ATOM     28  C   UNL     1       1.955  -2.644   7.620  1.00  0.00     0.251 C 
ATOM     29  H   UNL     1       0.943  -3.278   6.016  1.00  0.00     0.163 HD
ATOM     30  O   UNL     1       1.576  -3.578   8.334  1.00  0.00    -0.269 OA
BRANCH  28  31
ATOM     31  C   UNL     1       2.749  -1.541   8.196  1.00  0.00     0.039 A 
ATOM     32  C   UNL     1       3.768  -1.835   9.105  1.00  0.00     0.014 A 
ATOM     33  C   UNL     1       2.470  -0.212   7.858  1.00  0.00     0.014 A 
ATOM     34  C   UNL     1       4.529  -0.799   9.649  1.00  0.00     0.010 A 
ATOM     35  C   UNL     1       3.278   0.811   8.342  1.00  0.00     0.010 A 
ATOM     36  C   UNL     1       4.303   0.531   9.259  1.00  0.00    -0.014 A 
BRANCH  36  37
ATOM     37  C   UNL     1       5.090   1.649   9.841  1.00  0.00     0.031 A 
ATOM     38  C   UNL     1       4.399   2.684  10.688  1.00  0.00     0.074 A 
ATOM     39  C   UNL     1       6.404   1.758   9.570  1.00  0.00     0.049 A 
ATOM     40  N   UNL     1       4.882   3.774  11.226  1.00  0.00    -0.248 NA
ATOM     41  C   UNL     1       2.963   2.481  10.930  1.00  0.00     0.031 C 
ATOM     42  C   UNL     1       7.175   0.834   8.736  1.00  0.00     0.029 A 
ATOM     43  N   UNL     1       7.325   2.696   9.964  1.00  0.00    -0.354 N 
ATOM     44  C   UNL     1       3.808   4.393  11.859  1.00  0.00     0.074 A 
ATOM     45  C   UNL     1       2.637   3.592  11.572  1.00  0.00     0.031 C 
ATOM     46  C   UNL     1       8.456   1.236   8.704  1.00  0.00     0.029 A 
ATOM     47  C   UNL     1       8.591   2.467   9.476  1.00  0.00     0.049 A 
ATOM     48  H   UNL     1       7.101   3.460  10.542  1.00  0.00     0.167 HD
ATOM     49  C   UNL     1       3.804   5.509  12.630  1.00  0.00     0.034 A 
ATOM     50  C   UNL     1       9.728   3.174   9.631  1.00  0.00     0.034 A 
ATOM     51  C   UNL     1       4.986   6.287  12.914  1.00  0.00     0.049 A 
ATOM     52  C   UNL     1       9.698   4.420  10.480  1.00  0.00     0.074 A 
ATOM     53  C   UNL     1       5.108   7.415  13.706  1.00  0.00     0.029 A 
ATOM     54  N   UNL     1       6.254   6.017  12.413  1.00  0.00    -0.354 N 
ATOM     55  N   UNL     1       8.682   4.976  11.100  1.00  0.00    -0.248 NA
ATOM     56  C   UNL     1      10.974   5.123  10.666  1.00  0.00     0.031 C 
ATOM     57  C   UNL     1       6.432   7.862  13.633  1.00  0.00     0.029 A 
ATOM     58  C   UNL     1       7.158   6.968  12.863  1.00  0.00     0.049 A 
ATOM     59  H   UNL     1       6.478   5.260  11.825  1.00  0.00     0.167 HD
ATOM     60  C   UNL     1       9.207   6.069  11.784  1.00  0.00     0.074 A 
ATOM     61  C   UNL     1      10.629   6.086  11.507  1.00  0.00     0.031 C 
ATOM     62  C   UNL     1       8.574   6.972  12.577  1.00  0.00     0.034 A 
BRANCH  49  63
ATOM     63  C   UNL     1       2.473   5.958  13.189  1.00  0.00     0.023 A 
ATOM     64  C   UNL     1       1.725   5.144  14.059  1.00  0.00     0.031 A 
ATOM     65  C   UNL     1       1.920   7.196  12.815  1.00  0.00     0.131 A 
ATOM     66  C   UNL     1       0.434   5.532  14.448  1.00  0.00     0.055 A 
ATOM     67  C   UNL     1       0.673   7.618  13.281  1.00  0.00     0.041 A 
ATOM     68  F   UNL     1       2.573   8.009  11.970  1.00  0.00    -0.206 F 
ATOM     69  C   UNL     1      -0.087   6.776  14.088  1.00  0.00     0.022 A 
BRANCH  66  70
ATOM     70  S   UNL     1      -0.617   4.315  15.289  1.00  0.00     0.124 S 
ATOM     71  O   UNL     1      -0.658   3.235  14.306  1.00  0.00    -0.237 OA
ATOM     72  O   UNL     1       0.131   4.042  16.510  1.00  0.00    -0.237 OA
ATOM     73  O   UNL     1      -1.881   5.026  15.475  1.00  0.00    -0.744 OA
ENDBRANCH  66  70
ENDBRANCH  49  63
BRANCH  50  74
ATOM     74  C   UNL     1      10.992   2.724   8.980  1.00  0.00     0.023 A 
ATOM     75  C   UNL     1      12.097   2.323   9.747  1.00  0.00     0.031 A 
ATOM     76  C   UNL     1      11.128   2.728   7.580  1.00  0.00     0.131 A 
ATOM     77  C   UNL     1      13.305   1.991   9.115  1.00  0.00     0.055 A 
ATOM     78  C   UNL     1      12.315   2.344   6.954  1.00  0.00     0.041 A 
ATOM     79  F   UNL     1      10.100   3.095   6.799  1.00  0.00    -0.206 F 
ATOM     80  C   UNL     1      13.417   1.986   7.723  1.00  0.00     0.022 A 
BRANCH  77  81
ATOM     81  S   UNL     1      14.757   1.646  10.145  1.00  0.00     0.124 S 
ATOM     82  O   UNL     1      14.883   2.885  10.904  1.00  0.00    -0.237 OA
ATOM     83  O   UNL     1      14.323   0.473  10.897  1.00  0.00    -0.237 OA
ATOM     84  O   UNL     1      15.816   1.401   9.168  1.00  0.00    -0.744 OA
ENDBRANCH  77  81
ENDBRANCH  50  74
BRANCH  62  85
ATOM     85  C   UNL     1       9.434   8.013  13.253  1.00  0.00     0.023 A 
ATOM     86  C   UNL     1      10.125   8.997  12.525  1.00  0.00     0.031 A 
ATOM     87  C   UNL     1       9.579   8.003  14.652  1.00  0.00     0.131 A 
ATOM     88  C   UNL     1      10.980   9.888  13.193  1.00  0.00     0.055 A 
ATOM     89  C   UNL     1      10.379   8.933  15.317  1.00  0.00     0.041 A 
ATOM     90  F   UNL     1       8.944   7.084  15.398  1.00  0.00    -0.206 F 
ATOM     91  C   UNL     1      11.098   9.873  14.585  1.00  0.00     0.022 A 
BRANCH  88  92
ATOM     92  S   UNL     1      12.024  10.996  12.206  1.00  0.00     0.124 S 
ATOM     93  O   UNL     1      12.747  10.056  11.355  1.00  0.00    -0.237 OA
ATOM     94  O   UNL     1      11.038  11.836  11.534  1.00  0.00    -0.237 OA
ATOM     95  O   UNL     1      12.840  11.680  13.207  1.00  0.00    -0.744 OA
ENDBRANCH  88  92
ENDBRANCH  62  85
ENDBRANCH  36  37
ENDBRANCH  28  31
ENDBRANCH  26  27
ENDBRANCH  25  26
ENDBRANCH  24  25
ENDBRANCH  23  24
ENDBRANCH   1  23
TORSDOF 21
