REMARK SMILES Cn1ccnc(N[C@H]2C=C[C@H](C(=O)NCCCCCCNC(=O)c3ccc(-c4c5nc(c(-c6cc(S(=O)(=O)[O-])ccc6F)c6ccc([nH]6)c(-c6cc(S(=O)(=O)[O-])ccc6F)c6nc(c(-c7cc(S(=O)(=O)[O-])ccc7F)c7ccc4[nH]7)C=C6)C=C5)cc3)C2)c1=O
REMARK SMILES IDX 18 1 17 2 16 3 15 4 14 5 12 6 13 7 11 9 8 10 9 11 87 12
REMARK SMILES IDX 10 13 7 14 6 16 1 17 2 18 3 19 88 20 4 21 89 22 5 23 19 24
REMARK SMILES IDX 20 25 21 26 22 27 23 29 24 30 25 31 86 32 26 33 85 34 27 35
REMARK SMILES IDX 28 36 29 37 79 38 30 39 84 40 78 41 80 42 31 43 83 44 77 45
REMARK SMILES IDX 76 46 32 48 64 49 44 50 63 51 45 52 48 53 62 54 81 55 46 56
REMARK SMILES IDX 47 57 61 59 82 60 49 61 33 62 34 63 42 64 35 65 41 66 43 67
REMARK SMILES IDX 40 68 36 69 37 70 38 71 39 72 65 73 66 74 74 75 67 76 73 77
REMARK SMILES IDX 75 78 72 79 68 80 69 81 70 82 71 83 50 84 51 85 59 86 52 87
REMARK SMILES IDX 58 88 60 89 57 90 53 91 54 92 55 93 56 94
REMARK H PARENT 14 8 7 15 21 28 80 47 48 58
REMARK Flexibility Score: inf
ROOT
ATOM      1  C   UNL     1      -8.105  -5.311   0.027  1.00  0.00     0.002 C 
ENDROOT
BRANCH   1   2
ATOM      2  C   UNL     1      -7.757  -4.532  -1.244  1.00  0.00     0.002 C 
BRANCH   2   3
ATOM      3  C   UNL     1      -6.824  -3.335  -1.037  1.00  0.00     0.021 C 
BRANCH   3   4
ATOM      4  C   UNL     1      -5.513  -3.671  -0.336  1.00  0.00     0.116 C 
BRANCH   4   5
ATOM      5  N   UNL     1      -4.728  -4.643  -1.079  1.00  0.00    -0.356 N 
ATOM      6  C   UNL     1      -3.376  -4.660  -1.288  1.00  0.00     0.227 C 
ATOM      7  O   UNL     1      -2.881  -5.617  -1.883  1.00  0.00    -0.274 OA
ATOM      8  H   UNL     1      -5.234  -5.384  -1.483  1.00  0.00     0.163 HD
BRANCH   6   9
ATOM      9  C   UNL     1      -2.561  -3.482  -0.765  1.00  0.00     0.103 C 
ATOM     10  C   UNL     1      -0.209  -3.568  -0.075  1.00  0.00     0.104 C 
ATOM     11  C   UNL     1      -1.114  -3.624   1.099  1.00  0.00    -0.006 C 
ATOM     12  C   UNL     1      -1.117  -3.429  -1.297  1.00  0.00     0.046 C 
ATOM     13  C   UNL     1      -2.397  -3.604   0.727  1.00  0.00    -0.016 C 
BRANCH  10  14
ATOM     14  N   UNL     1       0.774  -2.529   0.062  1.00  0.00    -0.359 N 
ATOM     15  H   UNL     1       1.690  -2.871   0.173  1.00  0.00     0.162 HD
BRANCH  14  16
ATOM     16  C   UNL     1       0.699  -1.153   0.071  1.00  0.00     0.193 A 
ATOM     17  C   UNL     1      -1.638   1.897   0.027  1.00  0.00     0.153 C 
ATOM     18  N   UNL     1      -0.455   1.060   0.041  1.00  0.00    -0.314 N 
ATOM     19  C   UNL     1       0.803   1.604   0.026  1.00  0.00     0.109 A 
ATOM     20  C   UNL     1      -0.628  -0.321   0.074  1.00  0.00     0.293 A 
ATOM     21  C   UNL     1       1.884   0.819   0.044  1.00  0.00     0.131 A 
ATOM     22  O   UNL     1      -1.732  -0.845   0.092  1.00  0.00    -0.265 OA
ATOM     23  N   UNL     1       1.868  -0.548   0.066  1.00  0.00    -0.233 NA
ENDBRANCH  14  16
ENDBRANCH  10  14
ENDBRANCH   6   9
ENDBRANCH   4   5
ENDBRANCH   3   4
ENDBRANCH   2   3
ENDBRANCH   1   2
BRANCH   1  24
ATOM     24  C   UNL     1      -8.734  -4.478   1.146  1.00  0.00     0.021 C 
BRANCH  24  25
ATOM     25  C   UNL     1      -9.984  -3.705   0.740  1.00  0.00     0.116 C 
BRANCH  25  26
ATOM     26  N   UNL     1     -11.047  -4.583   0.280  1.00  0.00    -0.352 N 
ATOM     27  C   UNL     1     -12.357  -4.645   0.685  1.00  0.00     0.251 C 
ATOM     28  H   UNL     1     -10.791  -5.224  -0.422  1.00  0.00     0.163 HD
ATOM     29  O   UNL     1     -13.063  -5.582   0.325  1.00  0.00    -0.269 OA
BRANCH  27  30
ATOM     30  C   UNL     1     -12.900  -3.596   1.576  1.00  0.00     0.039 A 
ATOM     31  C   UNL     1     -13.684  -3.976   2.667  1.00  0.00     0.014 A 
ATOM     32  C   UNL     1     -12.630  -2.245   1.341  1.00  0.00     0.014 A 
ATOM     33  C   UNL     1     -14.146  -3.004   3.558  1.00  0.00     0.010 A 
ATOM     34  C   UNL     1     -13.023  -1.287   2.273  1.00  0.00     0.010 A 
ATOM     35  C   UNL     1     -13.788  -1.656   3.390  1.00  0.00    -0.014 A 
BRANCH  35  36
ATOM     36  C   UNL     1     -14.206  -0.622   4.374  1.00  0.00     0.031 A 
ATOM     37  C   UNL     1     -15.106   0.506   3.948  1.00  0.00     0.074 A 
ATOM     38  C   UNL     1     -13.732  -0.672   5.636  1.00  0.00     0.049 A 
ATOM     39  N   UNL     1     -15.526   1.536   4.639  1.00  0.00    -0.248 NA
ATOM     40  C   UNL     1     -15.574   0.489   2.554  1.00  0.00     0.031 C 
ATOM     41  C   UNL     1     -12.826  -1.698   6.157  1.00  0.00     0.029 A 
ATOM     42  N   UNL     1     -13.941   0.159   6.709  1.00  0.00    -0.354 N 
ATOM     43  C   UNL     1     -16.298   2.291   3.763  1.00  0.00     0.074 A 
ATOM     44  C   UNL     1     -16.234   1.634   2.475  1.00  0.00     0.031 C 
ATOM     45  C   UNL     1     -12.582  -1.452   7.454  1.00  0.00     0.029 A 
ATOM     46  C   UNL     1     -13.265  -0.223   7.846  1.00  0.00     0.049 A 
ATOM     47  H   UNL     1     -14.519   0.955   6.669  1.00  0.00     0.167 HD
ATOM     48  C   UNL     1     -17.013   3.416   4.017  1.00  0.00     0.034 A 
ATOM     49  C   UNL     1     -13.189   0.359   9.060  1.00  0.00     0.034 A 
ATOM     50  C   UNL     1     -17.071   4.054   5.310  1.00  0.00     0.049 A 
ATOM     51  C   UNL     1     -13.959   1.633   9.304  1.00  0.00     0.074 A 
ATOM     52  C   UNL     1     -17.803   5.166   5.688  1.00  0.00     0.029 A 
ATOM     53  N   UNL     1     -16.363   3.646   6.434  1.00  0.00    -0.354 N 
ATOM     54  N   UNL     1     -14.725   2.308   8.477  1.00  0.00    -0.248 NA
ATOM     55  C   UNL     1     -13.862   2.219  10.647  1.00  0.00     0.031 C 
ATOM     56  C   UNL     1     -17.475   5.479   7.011  1.00  0.00     0.029 A 
ATOM     57  C   UNL     1     -16.611   4.508   7.492  1.00  0.00     0.049 A 
ATOM     58  H   UNL     1     -15.771   2.860   6.473  1.00  0.00     0.167 HD
ATOM     59  C   UNL     1     -15.229   3.377   9.215  1.00  0.00     0.074 A 
ATOM     60  C   UNL     1     -14.693   3.246  10.553  1.00  0.00     0.031 C 
ATOM     61  C   UNL     1     -16.064   4.373   8.822  1.00  0.00     0.034 A 
BRANCH  48  62
ATOM     62  C   UNL     1     -17.764   4.042   2.865  1.00  0.00     0.023 A 
ATOM     63  C   UNL     1     -18.799   3.362   2.199  1.00  0.00     0.031 A 
ATOM     64  C   UNL     1     -17.435   5.335   2.419  1.00  0.00     0.131 A 
ATOM     65  C   UNL     1     -19.418   3.947   1.083  1.00  0.00     0.055 A 
ATOM     66  C   UNL     1     -18.114   5.946   1.363  1.00  0.00     0.041 A 
ATOM     67  F   UNL     1     -16.441   6.025   2.999  1.00  0.00    -0.206 F 
ATOM     68  C   UNL     1     -19.102   5.245   0.678  1.00  0.00     0.022 A 
BRANCH  65  69
ATOM     69  S   UNL     1     -20.538   2.930   0.082  1.00  0.00     0.124 S 
ATOM     70  O   UNL     1     -19.663   1.828  -0.311  1.00  0.00    -0.237 OA
ATOM     71  O   UNL     1     -21.596   2.600   1.030  1.00  0.00    -0.237 OA
ATOM     72  O   UNL     1     -20.930   3.823  -1.006  1.00  0.00    -0.744 OA
ENDBRANCH  65  69
ENDBRANCH  48  62
BRANCH  49  73
ATOM     73  C   UNL     1     -12.343  -0.237  10.136  1.00  0.00     0.023 A 
ATOM     74  C   UNL     1     -12.910  -0.683  11.341  1.00  0.00     0.031 A 
ATOM     75  C   UNL     1     -10.945  -0.316   9.999  1.00  0.00     0.131 A 
ATOM     76  C   UNL     1     -12.082  -1.132  12.381  1.00  0.00     0.055 A 
ATOM     77  C   UNL     1     -10.131  -0.825  11.012  1.00  0.00     0.041 A 
ATOM     78  F   UNL     1     -10.348   0.096   8.869  1.00  0.00    -0.206 F 
ATOM     79  C   UNL     1     -10.697  -1.222  12.219  1.00  0.00     0.022 A 
BRANCH  76  80
ATOM     80  S   UNL     1     -12.831  -1.494  13.993  1.00  0.00     0.124 S 
ATOM     81  O   UNL     1     -13.474  -0.224  14.311  1.00  0.00    -0.237 OA
ATOM     82  O   UNL     1     -13.723  -2.603  13.670  1.00  0.00    -0.237 OA
ATOM     83  O   UNL     1     -11.685  -1.842  14.830  1.00  0.00    -0.744 OA
ENDBRANCH  76  80
ENDBRANCH  49  73
BRANCH  61  84
ATOM     84  C   UNL     1     -16.489   5.372   9.873  1.00  0.00     0.023 A 
ATOM     85  C   UNL     1     -15.573   6.245  10.483  1.00  0.00     0.031 A 
ATOM     86  C   UNL     1     -17.836   5.442  10.274  1.00  0.00     0.131 A 
ATOM     87  C   UNL     1     -16.002   7.108  11.503  1.00  0.00     0.055 A 
ATOM     88  C   UNL     1     -18.270   6.352  11.239  1.00  0.00     0.041 A 
ATOM     89  F   UNL     1     -18.755   4.629   9.730  1.00  0.00    -0.206 F 
ATOM     90  C   UNL     1     -17.348   7.182  11.870  1.00  0.00     0.022 A 
BRANCH  87  91
ATOM     91  S   UNL     1     -14.760   8.061  12.419  1.00  0.00     0.124 S 
ATOM     92  O   UNL     1     -13.896   7.008  12.943  1.00  0.00    -0.237 OA
ATOM     93  O   UNL     1     -14.179   8.901  11.376  1.00  0.00    -0.237 OA
ATOM     94  O   UNL     1     -15.546   8.776  13.422  1.00  0.00    -0.744 OA
ENDBRANCH  87  91
ENDBRANCH  61  84
ENDBRANCH  35  36
ENDBRANCH  27  30
ENDBRANCH  25  26
ENDBRANCH  24  25
ENDBRANCH   1  24
TORSDOF 18
