REMARK SMILES C[C@H](C(=O)NCCCCCCNC(=O)c1ccc(-c2c3nc(c(-c4cc(S(=O)(=O)[O-])ccc4F)c4ccc([nH]4)c(-c4cc(S(=O)(=O)[O-])ccc4F)c4nc(c(-c5cc(S(=O)(=O)[O-])ccc5F)c5ccc2[nH]5)C=C4)C=C3)cc1)[C@H](C)n1cnc2cc(F)c(F)cc21
REMARK SMILES IDX 9 1 8 2 7 3 6 4 5 5 3 6 4 7 2 9 1 10 78 11 79 12 80 13 81 14
REMARK SMILES IDX 90 15 82 16 83 17 89 18 84 19 87 20 85 21 88 22 86 23 10 24
REMARK SMILES IDX 11 25 12 26 13 27 14 29 15 30 16 31 77 32 17 33 76 34 18 35
REMARK SMILES IDX 19 36 20 37 70 38 21 39 75 40 69 41 71 42 22 43 74 44 68 45
REMARK SMILES IDX 67 46 23 48 55 49 35 50 54 51 36 52 39 53 53 54 72 55 37 56
REMARK SMILES IDX 38 57 52 59 73 60 40 61 24 62 25 63 33 64 26 65 32 66 34 67
REMARK SMILES IDX 31 68 27 69 28 70 29 71 30 72 56 73 57 74 65 75 58 76 64 77
REMARK SMILES IDX 66 78 63 79 59 80 60 81 61 82 62 83 41 84 42 85 50 86 43 87
REMARK SMILES IDX 49 88 51 89 48 90 44 91 45 92 46 93 47 94
REMARK H PARENT 5 8 12 28 71 47 39 58
REMARK Flexibility Score: inf
ROOT
ATOM      1  C   UNL     1      -2.550   7.119   0.609  1.00  0.00     0.002 C 
ENDROOT
BRANCH   1   2
ATOM      2  C   UNL     1      -3.536   6.228   1.373  1.00  0.00     0.002 C 
BRANCH   2   3
ATOM      3  C   UNL     1      -4.017   4.977   0.624  1.00  0.00     0.021 C 
BRANCH   3   4
ATOM      4  C   UNL     1      -2.906   4.001   0.259  1.00  0.00     0.116 C 
BRANCH   4   5
ATOM      5  N   UNL     1      -2.417   3.305   1.429  1.00  0.00    -0.356 N 
ATOM      6  C   UNL     1      -1.948   2.046   1.591  1.00  0.00     0.224 C 
ATOM      7  O   UNL     1      -1.656   1.693   2.738  1.00  0.00    -0.275 OA
ATOM      8  H   UNL     1      -2.426   3.843   2.253  1.00  0.00     0.163 HD
BRANCH   6   9
ATOM      9  C   UNL     1      -1.779   1.067   0.428  1.00  0.00     0.098 C 
ATOM     10  C   UNL     1      -3.140   0.576  -0.061  1.00  0.00     0.020 C 
BRANCH   9  11
ATOM     11  C   UNL     1      -0.818   1.526  -0.712  1.00  0.00     0.098 C 
ATOM     12  C   UNL     1      -0.292   0.342  -1.536  1.00  0.00     0.032 C 
BRANCH  11  13
ATOM     13  N   UNL     1       0.290   2.358  -0.227  1.00  0.00    -0.327 N 
ATOM     14  C   UNL     1       0.431   3.689  -0.525  1.00  0.00     0.200 A 
ATOM     15  C   UNL     1       1.039   2.113   0.902  1.00  0.00     0.071 A 
ATOM     16  N   UNL     1       0.927   4.351   0.497  1.00  0.00    -0.237 NA
ATOM     17  C   UNL     1       1.242   3.390   1.425  1.00  0.00     0.092 A 
ATOM     18  C   UNL     1       1.390   0.941   1.578  1.00  0.00     0.071 A 
ATOM     19  C   UNL     1       1.672   3.527   2.751  1.00  0.00     0.073 A 
ATOM     20  C   UNL     1       1.845   1.103   2.885  1.00  0.00     0.161 A 
ATOM     21  C   UNL     1       1.944   2.363   3.471  1.00  0.00     0.161 A 
ATOM     22  F   UNL     1       2.152   0.009   3.596  1.00  0.00    -0.204 F 
ATOM     23  F   UNL     1       2.306   2.467   4.758  1.00  0.00    -0.204 F 
ENDBRANCH  11  13
ENDBRANCH   9  11
ENDBRANCH   6   9
ENDBRANCH   4   5
ENDBRANCH   3   4
ENDBRANCH   2   3
ENDBRANCH   1   2
BRANCH   1  24
ATOM     24  C   UNL     1      -2.993   7.545  -0.792  1.00  0.00     0.021 C 
BRANCH  24  25
ATOM     25  C   UNL     1      -4.375   8.187  -0.869  1.00  0.00     0.116 C 
BRANCH  25  26
ATOM     26  N   UNL     1      -4.476   9.401  -0.080  1.00  0.00    -0.352 N 
ATOM     27  C   UNL     1      -5.033  10.612  -0.419  1.00  0.00     0.251 C 
ATOM     28  H   UNL     1      -4.093   9.350   0.826  1.00  0.00     0.163 HD
ATOM     29  O   UNL     1      -4.900  11.574   0.326  1.00  0.00    -0.269 OA
BRANCH  27  30
ATOM     30  C   UNL     1      -5.756  10.751  -1.704  1.00  0.00     0.039 A 
ATOM     31  C   UNL     1      -5.491  11.864  -2.506  1.00  0.00     0.014 A 
ATOM     32  C   UNL     1      -6.679   9.789  -2.123  1.00  0.00     0.014 A 
ATOM     33  C   UNL     1      -6.104  11.978  -3.756  1.00  0.00     0.010 A 
ATOM     34  C   UNL     1      -7.231   9.866  -3.400  1.00  0.00     0.010 A 
ATOM     35  C   UNL     1      -6.950  10.961  -4.231  1.00  0.00    -0.014 A 
BRANCH  35  36
ATOM     36  C   UNL     1      -7.547  11.031  -5.592  1.00  0.00     0.031 A 
ATOM     37  C   UNL     1      -9.041  11.110  -5.759  1.00  0.00     0.074 A 
ATOM     38  C   UNL     1      -6.747  10.971  -6.676  1.00  0.00     0.049 A 
ATOM     39  N   UNL     1      -9.752  11.110  -6.857  1.00  0.00    -0.248 NA
ATOM     40  C   UNL     1      -9.840  11.165  -4.526  1.00  0.00     0.031 C 
ATOM     41  C   UNL     1      -5.287  10.860  -6.642  1.00  0.00     0.029 A 
ATOM     42  N   UNL     1      -7.045  10.989  -8.016  1.00  0.00    -0.354 N 
ATOM     43  C   UNL     1     -11.081  11.158  -6.449  1.00  0.00     0.074 A 
ATOM     44  C   UNL     1     -11.075  11.117  -5.002  1.00  0.00     0.031 C 
ATOM     45  C   UNL     1      -4.817  10.849  -7.899  1.00  0.00     0.029 A 
ATOM     46  C   UNL     1      -5.940  10.899  -8.831  1.00  0.00     0.049 A 
ATOM     47  H   UNL     1      -7.964  11.061  -8.362  1.00  0.00     0.167 HD
ATOM     48  C   UNL     1     -12.200  11.251  -7.209  1.00  0.00     0.034 A 
ATOM     49  C   UNL     1      -5.841  10.846 -10.175  1.00  0.00     0.034 A 
ATOM     50  C   UNL     1     -12.187  11.298  -8.652  1.00  0.00     0.049 A 
ATOM     51  C   UNL     1      -7.103  10.911 -10.999  1.00  0.00     0.074 A 
ATOM     52  C   UNL     1     -13.257  11.442  -9.519  1.00  0.00     0.029 A 
ATOM     53  N   UNL     1     -11.050  11.192  -9.443  1.00  0.00    -0.354 N 
ATOM     54  N   UNL     1      -8.350  11.004 -10.597  1.00  0.00    -0.248 NA
ATOM     55  C   UNL     1      -6.943  10.875 -12.459  1.00  0.00     0.031 C 
ATOM     56  C   UNL     1     -12.777  11.343 -10.829  1.00  0.00     0.029 A 
ATOM     57  C   UNL     1     -11.397  11.229 -10.785  1.00  0.00     0.049 A 
ATOM     58  H   UNL     1     -10.131  11.104  -9.100  1.00  0.00     0.167 HD
ATOM     59  C   UNL     1      -9.118  11.072 -11.756  1.00  0.00     0.074 A 
ATOM     60  C   UNL     1      -8.193  11.025 -12.870  1.00  0.00     0.031 C 
ATOM     61  C   UNL     1     -10.466  11.170 -11.889  1.00  0.00     0.034 A 
BRANCH  48  62
ATOM     62  C   UNL     1     -13.530  11.280  -6.492  1.00  0.00     0.023 A 
ATOM     63  C   UNL     1     -13.866  12.310  -5.596  1.00  0.00     0.031 A 
ATOM     64  C   UNL     1     -14.469  10.251  -6.689  1.00  0.00     0.131 A 
ATOM     65  C   UNL     1     -15.067  12.249  -4.874  1.00  0.00     0.055 A 
ATOM     66  C   UNL     1     -15.702  10.243  -6.034  1.00  0.00     0.041 A 
ATOM     67  F   UNL     1     -14.199   9.228  -7.514  1.00  0.00    -0.206 F 
ATOM     68  C   UNL     1     -16.001  11.237  -5.107  1.00  0.00     0.022 A 
BRANCH  65  69
ATOM     69  S   UNL     1     -15.322  13.424  -3.516  1.00  0.00     0.124 S 
ATOM     70  O   UNL     1     -14.167  13.145  -2.665  1.00  0.00    -0.237 OA
ATOM     71  O   UNL     1     -15.313  14.709  -4.205  1.00  0.00    -0.237 OA
ATOM     72  O   UNL     1     -16.610  13.025  -2.954  1.00  0.00    -0.744 OA
ENDBRANCH  65  69
ENDBRANCH  48  62
BRANCH  49  73
ATOM     73  C   UNL     1      -4.508  10.710 -10.831  1.00  0.00     0.023 A 
ATOM     74  C   UNL     1      -4.013  11.712 -11.681  1.00  0.00     0.031 A 
ATOM     75  C   UNL     1      -3.729   9.552 -10.657  1.00  0.00     0.131 A 
ATOM     76  C   UNL     1      -2.802  11.517 -12.363  1.00  0.00     0.055 A 
ATOM     77  C   UNL     1      -2.496   9.389 -11.291  1.00  0.00     0.041 A 
ATOM     78  F   UNL     1      -4.153   8.562  -9.855  1.00  0.00    -0.206 F 
ATOM     79  C   UNL     1      -2.032  10.369 -12.162  1.00  0.00     0.022 A 
BRANCH  76  80
ATOM     80  S   UNL     1      -2.293  12.745 -13.598  1.00  0.00     0.124 S 
ATOM     81  O   UNL     1      -3.431  12.737 -14.509  1.00  0.00    -0.237 OA
ATOM     82  O   UNL     1      -2.130  13.944 -12.783  1.00  0.00    -0.237 OA
ATOM     83  O   UNL     1      -1.055  12.188 -14.139  1.00  0.00    -0.744 OA
ENDBRANCH  76  80
ENDBRANCH  49  73
BRANCH  61  84
ATOM     84  C   UNL     1     -11.014  11.283 -13.292  1.00  0.00     0.023 A 
ATOM     85  C   UNL     1     -10.904  10.232 -14.220  1.00  0.00     0.031 A 
ATOM     86  C   UNL     1     -11.649  12.467 -13.708  1.00  0.00     0.131 A 
ATOM     87  C   UNL     1     -11.367  10.407 -15.533  1.00  0.00     0.055 A 
ATOM     88  C   UNL     1     -12.169  12.610 -14.995  1.00  0.00     0.041 A 
ATOM     89  F   UNL     1     -11.780  13.505 -12.867  1.00  0.00    -0.206 F 
ATOM     90  C   UNL     1     -12.017  11.582 -15.920  1.00  0.00     0.022 A 
BRANCH  87  91
ATOM     91  S   UNL     1     -11.019   9.116 -16.758  1.00  0.00     0.124 S 
ATOM     92  O   UNL     1      -9.562   9.045 -16.717  1.00  0.00    -0.237 OA
ATOM     93  O   UNL     1     -11.729   7.965 -16.210  1.00  0.00    -0.237 OA
ATOM     94  O   UNL     1     -11.579   9.657 -17.995  1.00  0.00    -0.744 OA
ENDBRANCH  87  91
ENDBRANCH  61  84
ENDBRANCH  35  36
ENDBRANCH  27  30
ENDBRANCH  25  26
ENDBRANCH  24  25
ENDBRANCH   1  24
TORSDOF 18
