REMARK SMILES CCN1C[C@]2(C(=O)NCCCCCCNC(=O)c3ccc(-c4c5nc(c(-c6cc(S(=O)(=O)[O-])ccc6F)c6ccc([nH]6)c(-c6cc(S(=O)(=O)[O-])ccc6F)c6nc(c(-c7cc(S(=O)(=O)[O-])ccc7F)c7ccc4[nH]7)C=C6)C=C5)cc3)CN(c3ccc(-c4ccccc4)nn3)C[C@H]2C1=O
REMARK SMILES IDX 12 1 11 2 10 3 9 4 8 5 6 6 7 7 5 9 3 10 4 11 97 12 96 13
REMARK SMILES IDX 98 14 81 15 95 16 82 17 2 18 1 19 83 20 84 21 94 22 85 23
REMARK SMILES IDX 93 24 86 25 87 26 88 27 92 28 89 29 91 30 90 31 13 32 14 33
REMARK SMILES IDX 15 34 16 35 17 37 18 38 19 39 80 40 20 41 79 42 21 43 22 44
REMARK SMILES IDX 23 45 73 46 24 47 78 48 72 49 74 50 25 51 77 52 71 53 70 54
REMARK SMILES IDX 26 56 58 57 38 58 57 59 39 60 42 61 56 62 75 63 40 64 41 65
REMARK SMILES IDX 55 67 76 68 43 69 27 70 28 71 36 72 29 73 35 74 37 75 34 76
REMARK SMILES IDX 30 77 31 78 32 79 33 80 59 81 60 82 68 83 61 84 67 85 69 86
REMARK SMILES IDX 66 87 62 88 63 89 64 90 65 91 44 92 45 93 53 94 46 95 52 96
REMARK SMILES IDX 54 97 51 98 47 99 48 100 49 101 50 102
REMARK H PARENT 8 8 15 36 74 55 42 66
REMARK Flexibility Score: inf
ROOT
ATOM      1  C   UNL     1       6.619  -4.506   2.353  1.00  0.00     0.002 C 
ENDROOT
BRANCH   1   2
ATOM      2  C   UNL     1       6.673  -4.850   0.862  1.00  0.00     0.002 C 
BRANCH   2   3
ATOM      3  C   UNL     1       5.309  -5.189   0.252  1.00  0.00     0.021 C 
BRANCH   3   4
ATOM      4  C   UNL     1       4.323  -4.020   0.294  1.00  0.00     0.116 C 
BRANCH   4   5
ATOM      5  N   UNL     1       4.654  -3.082  -0.759  1.00  0.00    -0.355 N 
ATOM      6  C   UNL     1       4.042  -3.016  -1.984  1.00  0.00     0.230 C 
ATOM      7  O   UNL     1       4.673  -2.563  -2.940  1.00  0.00    -0.274 OA
ATOM      8  H   UNL     1       5.377  -2.438  -0.581  1.00  0.00     0.163 HD
BRANCH   6   9
ATOM      9  C   UNL     1       2.573  -3.461  -2.029  1.00  0.00     0.097 C 
ATOM     10  N   UNL     1       0.906  -1.693  -1.967  1.00  0.00    -0.341 N 
ATOM     11  C   UNL     1       2.240  -1.952  -2.468  1.00  0.00     0.139 C 
ATOM     12  C   UNL     1       0.196  -2.865  -1.908  1.00  0.00     0.228 C 
ATOM     13  C   UNL     1       1.137  -3.860  -2.494  1.00  0.00     0.117 C 
ATOM     14  O   UNL     1      -0.944  -3.045  -1.536  1.00  0.00    -0.274 OA
ATOM     15  C   UNL     1       3.092  -4.808  -2.770  1.00  0.00     0.137 C 
ATOM     16  C   UNL     1       0.883  -5.258  -1.993  1.00  0.00     0.133 C 
ATOM     17  N   UNL     1       2.176  -5.840  -2.248  1.00  0.00    -0.353 N 
BRANCH  10  18
ATOM     18  C   UNL     1       0.439  -0.401  -1.502  1.00  0.00     0.116 C 
ATOM     19  C   UNL     1       0.913  -0.109  -0.087  1.00  0.00     0.027 C 
ENDBRANCH  10  18
BRANCH  17  20
ATOM     20  C   UNL     1       2.645  -6.962  -1.614  1.00  0.00     0.151 A 
ATOM     21  C   UNL     1       2.389  -7.221  -0.273  1.00  0.00     0.051 A 
ATOM     22  N   UNL     1       3.424  -7.826  -2.284  1.00  0.00    -0.132 NA
ATOM     23  C   UNL     1       2.906  -8.362   0.353  1.00  0.00     0.035 A 
ATOM     24  N   UNL     1       3.902  -8.992  -1.680  1.00  0.00    -0.148 NA
ATOM     25  C   UNL     1       3.645  -9.272  -0.384  1.00  0.00     0.093 A 
BRANCH  25  26
ATOM     26  C   UNL     1       4.185 -10.542   0.151  1.00  0.00     0.002 A 
ATOM     27  C   UNL     1       5.217 -11.224  -0.523  1.00  0.00     0.010 A 
ATOM     28  C   UNL     1       3.689 -11.144   1.326  1.00  0.00     0.010 A 
ATOM     29  C   UNL     1       5.726 -12.440  -0.054  1.00  0.00     0.001 A 
ATOM     30  C   UNL     1       4.196 -12.362   1.797  1.00  0.00     0.001 A 
ATOM     31  C   UNL     1       5.215 -13.009   1.107  1.00  0.00     0.000 A 
ENDBRANCH  25  26
ENDBRANCH  17  20
ENDBRANCH   6   9
ENDBRANCH   4   5
ENDBRANCH   3   4
ENDBRANCH   2   3
ENDBRANCH   1   2
BRANCH   1  32
ATOM     32  C   UNL     1       5.896  -5.545   3.216  1.00  0.00     0.021 C 
BRANCH  32  33
ATOM     33  C   UNL     1       6.467  -6.954   3.096  1.00  0.00     0.116 C 
BRANCH  33  34
ATOM     34  N   UNL     1       7.850  -6.991   3.536  1.00  0.00    -0.352 N 
ATOM     35  C   UNL     1       8.397  -7.674   4.591  1.00  0.00     0.251 C 
ATOM     36  H   UNL     1       8.481  -6.454   3.005  1.00  0.00     0.163 HD
ATOM     37  O   UNL     1       9.499  -7.349   5.022  1.00  0.00    -0.269 OA
BRANCH  35  38
ATOM     38  C   UNL     1       7.647  -8.792   5.202  1.00  0.00     0.039 A 
ATOM     39  C   UNL     1       7.661  -8.942   6.589  1.00  0.00     0.014 A 
ATOM     40  C   UNL     1       6.960  -9.709   4.400  1.00  0.00     0.014 A 
ATOM     41  C   UNL     1       6.964 -10.001   7.174  1.00  0.00     0.010 A 
ATOM     42  C   UNL     1       6.197 -10.711   4.990  1.00  0.00     0.010 A 
ATOM     43  C   UNL     1       6.213 -10.885   6.381  1.00  0.00    -0.014 A 
BRANCH  43  44
ATOM     44  C   UNL     1       5.495 -12.037   6.984  1.00  0.00     0.031 A 
ATOM     45  C   UNL     1       5.904 -13.441   6.619  1.00  0.00     0.074 A 
ATOM     46  C   UNL     1       4.470 -11.826   7.833  1.00  0.00     0.049 A 
ATOM     47  N   UNL     1       5.370 -14.579   6.980  1.00  0.00    -0.248 NA
ATOM     48  C   UNL     1       7.047 -13.580   5.702  1.00  0.00     0.031 C 
ATOM     49  C   UNL     1       3.974 -10.512   8.249  1.00  0.00     0.029 A 
ATOM     50  N   UNL     1       3.663 -12.711   8.503  1.00  0.00    -0.354 N 
ATOM     51  C   UNL     1       6.114 -15.566   6.341  1.00  0.00     0.074 A 
ATOM     52  C   UNL     1       7.078 -14.888   5.502  1.00  0.00     0.031 C 
ATOM     53  C   UNL     1       2.974 -10.679   9.129  1.00  0.00     0.029 A 
ATOM     54  C   UNL     1       2.720 -12.106   9.302  1.00  0.00     0.049 A 
ATOM     55  H   UNL     1       3.751 -13.688   8.419  1.00  0.00     0.167 HD
ATOM     56  C   UNL     1       6.027 -16.913   6.468  1.00  0.00     0.034 A 
ATOM     57  C   UNL     1       1.757 -12.643  10.078  1.00  0.00     0.034 A 
ATOM     58  C   UNL     1       5.065 -17.576   7.314  1.00  0.00     0.049 A 
ATOM     59  C   UNL     1       1.640 -14.148  10.151  1.00  0.00     0.074 A 
ATOM     60  C   UNL     1       4.890 -18.933   7.522  1.00  0.00     0.029 A 
ATOM     61  N   UNL     1       4.116 -16.930   8.096  1.00  0.00    -0.354 N 
ATOM     62  N   UNL     1       2.364 -15.066   9.552  1.00  0.00    -0.248 NA
ATOM     63  C   UNL     1       0.587 -14.687  11.021  1.00  0.00     0.031 C 
ATOM     64  C   UNL     1       3.795 -19.110   8.373  1.00  0.00     0.029 A 
ATOM     65  C   UNL     1       3.342 -17.862   8.770  1.00  0.00     0.049 A 
ATOM     66  H   UNL     1       4.008 -15.954   8.161  1.00  0.00     0.167 HD
ATOM     67  C   UNL     1       1.887 -16.289  10.020  1.00  0.00     0.074 A 
ATOM     68  C   UNL     1       0.824 -15.987  10.956  1.00  0.00     0.031 C 
ATOM     69  C   UNL     1       2.293 -17.547   9.711  1.00  0.00     0.034 A 
BRANCH  56  70
ATOM     70  C   UNL     1       6.992 -17.751   5.662  1.00  0.00     0.023 A 
ATOM     71  C   UNL     1       8.381 -17.668   5.862  1.00  0.00     0.031 A 
ATOM     72  C   UNL     1       6.522 -18.628   4.670  1.00  0.00     0.131 A 
ATOM     73  C   UNL     1       9.253 -18.390   5.034  1.00  0.00     0.055 A 
ATOM     74  C   UNL     1       7.392 -19.412   3.908  1.00  0.00     0.041 A 
ATOM     75  F   UNL     1       5.208 -18.732   4.414  1.00  0.00    -0.206 F 
ATOM     76  C   UNL     1       8.768 -19.284   4.078  1.00  0.00     0.022 A 
BRANCH  73  77
ATOM     77  S   UNL     1      11.028 -18.032   5.126  1.00  0.00     0.124 S 
ATOM     78  O   UNL     1      11.059 -16.611   4.784  1.00  0.00    -0.237 OA
ATOM     79  O   UNL     1      11.346 -18.363   6.510  1.00  0.00    -0.237 OA
ATOM     80  O   UNL     1      11.610 -18.920   4.122  1.00  0.00    -0.744 OA
ENDBRANCH  73  77
ENDBRANCH  56  70
BRANCH  57  81
ATOM     81  C   UNL     1       0.820 -11.775  10.851  1.00  0.00     0.023 A 
ATOM     82  C   UNL     1       0.752 -11.857  12.251  1.00  0.00     0.031 A 
ATOM     83  C   UNL     1      -0.083 -10.916  10.200  1.00  0.00     0.131 A 
ATOM     84  C   UNL     1      -0.247 -11.159  12.947  1.00  0.00     0.055 A 
ATOM     85  C   UNL     1      -1.028 -10.167  10.904  1.00  0.00     0.041 A 
ATOM     86  F   UNL     1      -0.064 -10.794   8.863  1.00  0.00    -0.206 F 
ATOM     87  C   UNL     1      -1.128 -10.303  12.284  1.00  0.00     0.022 A 
BRANCH  84  88
ATOM     88  S   UNL     1      -0.466 -11.498  14.716  1.00  0.00     0.124 S 
ATOM     89  O   UNL     1      -0.665 -12.943  14.715  1.00  0.00    -0.237 OA
ATOM     90  O   UNL     1       0.797 -11.024  15.272  1.00  0.00    -0.237 OA
ATOM     91  O   UNL     1      -1.640 -10.704  15.070  1.00  0.00    -0.744 OA
ENDBRANCH  84  88
ENDBRANCH  57  81
BRANCH  69  92
ATOM     92  C   UNL     1       1.642 -18.686  10.461  1.00  0.00     0.023 A 
ATOM     93  C   UNL     1       0.272 -18.976  10.340  1.00  0.00     0.031 A 
ATOM     94  C   UNL     1       2.409 -19.480  11.333  1.00  0.00     0.131 A 
ATOM     95  C   UNL     1      -0.302 -19.980  11.134  1.00  0.00     0.055 A 
ATOM     96  C   UNL     1       1.847 -20.528  12.063  1.00  0.00     0.041 A 
ATOM     97  F   UNL     1       3.723 -19.249  11.492  1.00  0.00    -0.206 F 
ATOM     98  C   UNL     1       0.479 -20.771  11.979  1.00  0.00     0.022 A 
BRANCH  95  99
ATOM     99  S   UNL     1      -2.108 -20.157  11.139  1.00  0.00     0.124 S 
ATOM    100  O   UNL     1      -2.543 -18.817  11.516  1.00  0.00    -0.237 OA
ATOM    101  O   UNL     1      -2.386 -20.553   9.762  1.00  0.00    -0.237 OA
ATOM    102  O   UNL     1      -2.348 -21.193  12.142  1.00  0.00    -0.744 OA
ENDBRANCH  95  99
ENDBRANCH  69  92
ENDBRANCH  43  44
ENDBRANCH  35  38
ENDBRANCH  33  34
ENDBRANCH  32  33
ENDBRANCH   1  32
TORSDOF 19
