REMARK SMILES C=Cc1cc(Cl)cc2c1O[C@H](C(F)(F)F)C(C(=O)NCCCCCCNC(=O)c1ccc(-c3c4nc(c(-c5cc(S(=O)(=O)[O-])ccc5F)c5ccc([nH]5)c(-c5cc(S(=O)(=O)[O-])ccc5F)c5nc(c(-c6cc(S(=O)(=O)[O-])ccc6F)c6ccc3[nH]6)C=C5)C=C4)cc1)=C2
REMARK SMILES IDX 23 1 22 2 21 3 20 4 19 5 17 6 18 7 16 9 3 10 4 11 9 12 5 13
REMARK SMILES IDX 8 14 10 15 6 16 7 17 92 18 11 19 2 20 1 21 12 22 13 23 14 24
REMARK SMILES IDX 15 25 24 26 25 27 26 28 27 29 28 31 29 32 30 33 91 34 31 35
REMARK SMILES IDX 90 36 32 37 33 38 34 39 84 40 35 41 89 42 83 43 85 44 36 45
REMARK SMILES IDX 88 46 82 47 81 48 37 50 69 51 49 52 68 53 50 54 53 55 67 56
REMARK SMILES IDX 86 57 51 58 52 59 66 61 87 62 54 63 38 64 39 65 47 66 40 67
REMARK SMILES IDX 46 68 48 69 45 70 41 71 42 72 43 73 44 74 70 75 71 76 79 77
REMARK SMILES IDX 72 78 78 79 80 80 77 81 73 82 74 83 75 84 76 85 55 86 56 87
REMARK SMILES IDX 64 88 57 89 63 90 65 91 62 92 58 93 59 94 60 95 61 96
REMARK H PARENT 19 8 26 30 85 49 53 60
REMARK Flexibility Score: inf
ROOT
ATOM      1  C   UNL     1      -1.855  -3.937   9.652  1.00  0.00     0.002 C 
ENDROOT
BRANCH   1   2
ATOM      2  C   UNL     1      -2.311  -2.542   9.203  1.00  0.00     0.002 C 
BRANCH   2   3
ATOM      3  C   UNL     1      -1.768  -2.067   7.851  1.00  0.00     0.021 C 
BRANCH   3   4
ATOM      4  C   UNL     1      -2.070  -3.005   6.686  1.00  0.00     0.116 C 
BRANCH   4   5
ATOM      5  N   UNL     1      -3.398  -2.781   6.139  1.00  0.00    -0.352 N 
ATOM      6  C   UNL     1      -3.937  -2.424   4.951  1.00  0.00     0.251 C 
ATOM      7  O   UNL     1      -5.172  -2.382   4.929  1.00  0.00    -0.270 OA
ATOM      8  H   UNL     1      -4.095  -2.930   6.818  1.00  0.00     0.163 HD
BRANCH   6   9
ATOM      9  C   UNL     1      -3.171  -2.086   3.712  1.00  0.00     0.067 C 
ATOM     10  C   UNL     1      -1.180  -0.859   0.198  1.00  0.00     0.018 A 
ATOM     11  C   UNL     1      -1.939  -0.521  -0.930  1.00  0.00     0.032 A 
ATOM     12  C   UNL     1      -1.847  -1.245   1.374  1.00  0.00     0.135 A 
ATOM     13  C   UNL     1      -3.332  -0.544  -0.867  1.00  0.00     0.042 A 
ATOM     14  C   UNL     1      -3.244  -1.256   1.439  1.00  0.00     0.019 A 
ATOM     15  O   UNL     1      -1.079  -1.541   2.465  1.00  0.00    -0.475 OA
ATOM     16  Cl  UNL     1      -4.254  -0.118  -2.257  1.00  0.00    -0.084 Cl
ATOM     17  C   UNL     1      -3.988  -0.904   0.310  1.00  0.00     0.032 A 
ATOM     18  C   UNL     1      -3.903  -1.592   2.696  1.00  0.00     0.025 C 
ATOM     19  C   UNL     1      -1.695  -2.302   3.536  1.00  0.00     0.314 C 
BRANCH  10  20
ATOM     20  C   UNL     1       0.289  -0.862   0.142  1.00  0.00     0.004 C 
ATOM     21  C   UNL     1       1.020   0.151  -0.337  1.00  0.00     0.009 C 
ENDBRANCH  10  20
BRANCH  19  22
ATOM     22  C   UNL     1      -1.328  -3.787   3.372  1.00  0.00     0.429 C 
ATOM     23  F   UNL     1       0.009  -3.968   3.500  1.00  0.00    -0.167 F 
ATOM     24  F   UNL     1      -1.913  -4.571   4.308  1.00  0.00    -0.167 F 
ATOM     25  F   UNL     1      -1.692  -4.276   2.165  1.00  0.00    -0.167 F 
ENDBRANCH  19  22
ENDBRANCH   6   9
ENDBRANCH   4   5
ENDBRANCH   3   4
ENDBRANCH   2   3
ENDBRANCH   1   2
BRANCH   1  26
ATOM     26  C   UNL     1      -0.353  -4.213   9.552  1.00  0.00     0.021 C 
BRANCH  26  27
ATOM     27  C   UNL     1       0.536  -3.253  10.333  1.00  0.00     0.116 C 
BRANCH  27  28
ATOM     28  N   UNL     1       0.324  -3.335  11.768  1.00  0.00    -0.352 N 
ATOM     29  C   UNL     1       1.250  -3.490  12.773  1.00  0.00     0.251 C 
ATOM     30  H   UNL     1      -0.614  -3.271  12.062  1.00  0.00     0.163 HD
ATOM     31  O   UNL     1       0.877  -3.692  13.925  1.00  0.00    -0.269 OA
BRANCH  29  32
ATOM     32  C   UNL     1       2.694  -3.451  12.448  1.00  0.00     0.039 A 
ATOM     33  C   UNL     1       3.209  -2.453  11.618  1.00  0.00     0.014 A 
ATOM     34  C   UNL     1       3.535  -4.444  12.958  1.00  0.00     0.014 A 
ATOM     35  C   UNL     1       4.523  -2.539  11.170  1.00  0.00     0.010 A 
ATOM     36  C   UNL     1       4.878  -4.482  12.568  1.00  0.00     0.010 A 
ATOM     37  C   UNL     1       5.372  -3.558  11.635  1.00  0.00    -0.014 A 
BRANCH  37  38
ATOM     38  C   UNL     1       6.772  -3.629  11.138  1.00  0.00     0.031 A 
ATOM     39  C   UNL     1       7.239  -4.792  10.306  1.00  0.00     0.074 A 
ATOM     40  C   UNL     1       7.612  -2.610  11.405  1.00  0.00     0.049 A 
ATOM     41  N   UNL     1       8.417  -5.000   9.775  1.00  0.00    -0.248 NA
ATOM     42  C   UNL     1       6.265  -5.862  10.035  1.00  0.00     0.031 C 
ATOM     43  C   UNL     1       7.268  -1.435  12.206  1.00  0.00     0.029 A 
ATOM     44  N   UNL     1       8.913  -2.386  11.027  1.00  0.00    -0.354 N 
ATOM     45  C   UNL     1       8.331  -6.223   9.120  1.00  0.00     0.074 A 
ATOM     46  C   UNL     1       6.995  -6.729   9.346  1.00  0.00     0.031 C 
ATOM     47  C   UNL     1       8.312  -0.596  12.226  1.00  0.00     0.029 A 
ATOM     48  C   UNL     1       9.426  -1.199  11.497  1.00  0.00     0.049 A 
ATOM     49  H   UNL     1       9.429  -3.015  10.473  1.00  0.00     0.167 HD
ATOM     50  C   UNL     1       9.277  -6.856   8.385  1.00  0.00     0.034 A 
ATOM     51  C   UNL     1      10.656  -0.659  11.374  1.00  0.00     0.034 A 
ATOM     52  C   UNL     1      10.599  -6.331   8.151  1.00  0.00     0.049 A 
ATOM     53  C   UNL     1      11.692  -1.386  10.558  1.00  0.00     0.074 A 
ATOM     54  C   UNL     1      11.619  -6.892   7.402  1.00  0.00     0.029 A 
ATOM     55  N   UNL     1      11.083  -5.129   8.647  1.00  0.00    -0.354 N 
ATOM     56  N   UNL     1      11.577  -2.521   9.909  1.00  0.00    -0.248 NA
ATOM     57  C   UNL     1      13.019  -0.766  10.447  1.00  0.00     0.031 C 
ATOM     58  C   UNL     1      12.734  -6.058   7.488  1.00  0.00     0.029 A 
ATOM     59  C   UNL     1      12.392  -4.942   8.236  1.00  0.00     0.049 A 
ATOM     60  H   UNL     1      10.572  -4.503   9.209  1.00  0.00     0.167 HD
ATOM     61  C   UNL     1      12.811  -2.745   9.306  1.00  0.00     0.074 A 
ATOM     62  C   UNL     1      13.647  -1.610   9.638  1.00  0.00     0.031 C 
ATOM     63  C   UNL     1      13.215  -3.801   8.556  1.00  0.00     0.034 A 
BRANCH  50  64
ATOM     64  C   UNL     1       8.938  -8.180   7.747  1.00  0.00     0.023 A 
ATOM     65  C   UNL     1       9.628  -9.345   8.132  1.00  0.00     0.031 A 
ATOM     66  C   UNL     1       8.050  -8.259   6.660  1.00  0.00     0.131 A 
ATOM     67  C   UNL     1       9.450 -10.530   7.407  1.00  0.00     0.055 A 
ATOM     68  C   UNL     1       7.848  -9.452   5.964  1.00  0.00     0.041 A 
ATOM     69  F   UNL     1       7.368  -7.175   6.256  1.00  0.00    -0.206 F 
ATOM     70  C   UNL     1       8.561 -10.591   6.329  1.00  0.00     0.022 A 
BRANCH  67  71
ATOM     71  S   UNL     1      10.410 -12.020   7.793  1.00  0.00     0.124 S 
ATOM     72  O   UNL     1       9.356 -13.007   8.017  1.00  0.00    -0.237 OA
ATOM     73  O   UNL     1      11.189 -12.205   6.573  1.00  0.00    -0.237 OA
ATOM     74  O   UNL     1      11.171 -11.648   8.981  1.00  0.00    -0.744 OA
ENDBRANCH  67  71
ENDBRANCH  50  64
BRANCH  51  75
ATOM     75  C   UNL     1      10.934   0.656  12.022  1.00  0.00     0.023 A 
ATOM     76  C   UNL     1      10.818   0.807  13.417  1.00  0.00     0.031 A 
ATOM     77  C   UNL     1      11.198   1.802  11.255  1.00  0.00     0.131 A 
ATOM     78  C   UNL     1      10.885   2.083  13.990  1.00  0.00     0.055 A 
ATOM     79  C   UNL     1      11.340   3.063  11.839  1.00  0.00     0.041 A 
ATOM     80  F   UNL     1      11.303   1.713   9.920  1.00  0.00    -0.206 F 
ATOM     81  C   UNL     1      11.162   3.210  13.211  1.00  0.00     0.022 A 
BRANCH  78  82
ATOM     82  S   UNL     1      10.451   2.339  15.734  1.00  0.00     0.124 S 
ATOM     83  O   UNL     1      11.715   2.803  16.295  1.00  0.00    -0.237 OA
ATOM     84  O   UNL     1       9.395   3.345  15.636  1.00  0.00    -0.237 OA
ATOM     85  O   UNL     1      10.008   1.020  16.174  1.00  0.00    -0.744 OA
ENDBRANCH  78  82
ENDBRANCH  51  75
BRANCH  63  86
ATOM     86  C   UNL     1      14.629  -3.813   8.028  1.00  0.00     0.023 A 
ATOM     87  C   UNL     1      14.862  -3.800   6.639  1.00  0.00     0.031 A 
ATOM     88  C   UNL     1      15.725  -4.001   8.886  1.00  0.00     0.131 A 
ATOM     89  C   UNL     1      16.156  -4.014   6.149  1.00  0.00     0.055 A 
ATOM     90  C   UNL     1      17.020  -4.170   8.393  1.00  0.00     0.041 A 
ATOM     91  F   UNL     1      15.551  -4.032  10.217  1.00  0.00    -0.206 F 
ATOM     92  C   UNL     1      17.237  -4.193   7.019  1.00  0.00     0.022 A 
BRANCH  89  93
ATOM     93  S   UNL     1      16.471  -4.160   4.368  1.00  0.00     0.124 S 
ATOM     94  O   UNL     1      17.392  -3.051   4.133  1.00  0.00    -0.237 OA
ATOM     95  O   UNL     1      17.061  -5.492   4.267  1.00  0.00    -0.237 OA
ATOM     96  O   UNL     1      15.151  -4.011   3.763  1.00  0.00    -0.744 OA
ENDBRANCH  89  93
ENDBRANCH  63  86
ENDBRANCH  37  38
ENDBRANCH  29  32
ENDBRANCH  27  28
ENDBRANCH  26  27
ENDBRANCH   1  26
TORSDOF 18
