REMARK SMILES CC(C)(C)c1ccccc1[C@@H]1C[NH2+]C[C@@H]1C(=O)NCCCCCCNC(=O)c1ccc(-c2c3nc(c(-c4cc(S(=O)(=O)[O-])ccc4F)c4ccc([nH]4)c(-c4cc(S(=O)(=O)[O-])ccc4F)c4nc(c(-c5cc(S(=O)(=O)[O-])ccc5F)c5ccc2[nH]5)C=C4)C=C3)cc1
REMARK SMILES IDX 22 1 21 2 20 3 19 4 18 5 16 6 17 7 15 9 11 10 12 11 13 12
REMARK SMILES IDX 14 13 10 16 5 17 6 18 7 19 9 20 8 21 2 22 1 23 3 24 4 25
REMARK SMILES IDX 23 26 24 27 25 28 26 29 27 31 28 32 29 33 90 34 30 35 89 36
REMARK SMILES IDX 31 37 32 38 33 39 83 40 34 41 88 42 82 43 84 44 35 45 87 46
REMARK SMILES IDX 81 47 80 48 36 50 68 51 48 52 67 53 49 54 52 55 66 56 85 57
REMARK SMILES IDX 50 58 51 59 65 61 86 62 53 63 37 64 38 65 46 66 39 67 45 68
REMARK SMILES IDX 47 69 44 70 40 71 41 72 42 73 43 74 69 75 70 76 78 77 71 78
REMARK SMILES IDX 77 79 79 80 76 81 72 82 73 83 74 84 75 85 54 86 55 87 63 88
REMARK SMILES IDX 56 89 62 90 64 91 61 92 57 93 58 94 59 95 60 96
REMARK H PARENT 18 8 13 14 13 15 25 30 84 49 52 60
REMARK Flexibility Score: inf
ROOT
ATOM      1  C   UNL     1      -2.535   0.214   3.457  1.00  0.00     0.002 C 
ENDROOT
BRANCH   1   2
ATOM      2  C   UNL     1      -3.241   1.000   2.344  1.00  0.00     0.002 C 
BRANCH   2   3
ATOM      3  C   UNL     1      -2.381   2.062   1.645  1.00  0.00     0.021 C 
BRANCH   3   4
ATOM      4  C   UNL     1      -1.202   1.472   0.880  1.00  0.00     0.116 C 
BRANCH   4   5
ATOM      5  N   UNL     1      -1.637   0.912  -0.387  1.00  0.00    -0.356 N 
ATOM      6  C   UNL     1      -1.134   0.901  -1.642  1.00  0.00     0.229 C 
ATOM      7  O   UNL     1      -1.809   0.276  -2.474  1.00  0.00    -0.275 OA
ATOM      8  H   UNL     1      -2.494   0.432  -0.317  1.00  0.00     0.163 HD
BRANCH   6   9
ATOM      9  C   UNL     1       0.136   1.581  -2.114  1.00  0.00     0.146 C 
ATOM     10  C   UNL     1       1.440   0.768  -2.265  1.00  0.00     0.093 C 
ATOM     11  C   UNL     1       2.467   1.418  -1.325  1.00  0.00     0.269 C 
ATOM     12  N   UNL     1       1.743   2.476  -0.608  1.00  0.00    -0.345 N 
ATOM     13  C   UNL     1       0.604   2.865  -1.447  1.00  0.00     0.274 C 
ATOM     14  H   UNL     1       2.355   3.277  -0.455  1.00  0.00     0.346 HD
ATOM     15  H   UNL     1       1.425   2.144   0.303  1.00  0.00     0.346 HD
BRANCH  10  16
ATOM     16  C   UNL     1       1.520  -0.730  -2.599  1.00  0.00    -0.035 A 
ATOM     17  C   UNL     1       1.205  -1.891  -1.828  1.00  0.00    -0.039 A 
ATOM     18  C   UNL     1       1.228  -3.144  -2.518  1.00  0.00     0.004 A 
ATOM     19  C   UNL     1       1.659  -3.307  -3.831  1.00  0.00     0.000 A 
ATOM     20  C   UNL     1       1.983  -0.952  -3.939  1.00  0.00     0.004 A 
ATOM     21  C   UNL     1       2.070  -2.205  -4.538  1.00  0.00     0.000 A 
BRANCH  17  22
ATOM     22  C   UNL     1       0.808  -2.020  -0.329  1.00  0.00    -0.013 C 
ATOM     23  C   UNL     1       1.247  -0.859   0.560  1.00  0.00     0.016 C 
ATOM     24  C   UNL     1       1.490  -3.247   0.362  1.00  0.00     0.016 C 
ATOM     25  C   UNL     1      -0.715  -2.256  -0.221  1.00  0.00     0.016 C 
ENDBRANCH  17  22
ENDBRANCH  10  16
ENDBRANCH   6   9
ENDBRANCH   4   5
ENDBRANCH   3   4
ENDBRANCH   2   3
ENDBRANCH   1   2
BRANCH   1  26
ATOM     26  C   UNL     1      -1.851   1.067   4.527  1.00  0.00     0.021 C 
BRANCH  26  27
ATOM     27  C   UNL     1      -2.748   2.116   5.174  1.00  0.00     0.116 C 
BRANCH  27  28
ATOM     28  N   UNL     1      -3.883   1.523   5.859  1.00  0.00    -0.352 N 
ATOM     29  C   UNL     1      -4.366   1.793   7.116  1.00  0.00     0.251 C 
ATOM     30  H   UNL     1      -4.372   0.834   5.353  1.00  0.00     0.163 HD
ATOM     31  O   UNL     1      -5.219   1.069   7.613  1.00  0.00    -0.269 OA
BRANCH  29  32
ATOM     32  C   UNL     1      -3.822   2.945   7.868  1.00  0.00     0.039 A 
ATOM     33  C   UNL     1      -3.468   2.771   9.207  1.00  0.00     0.014 A 
ATOM     34  C   UNL     1      -3.648   4.186   7.248  1.00  0.00     0.014 A 
ATOM     35  C   UNL     1      -2.889   3.829   9.910  1.00  0.00     0.010 A 
ATOM     36  C   UNL     1      -2.999   5.214   7.927  1.00  0.00     0.010 A 
ATOM     37  C   UNL     1      -2.619   5.049   9.267  1.00  0.00    -0.014 A 
BRANCH  37  38
ATOM     38  C   UNL     1      -1.958   6.168   9.989  1.00  0.00     0.031 A 
ATOM     39  C   UNL     1      -2.694   7.465  10.197  1.00  0.00     0.074 A 
ATOM     40  C   UNL     1      -0.688   6.031  10.421  1.00  0.00     0.049 A 
ATOM     41  N   UNL     1      -2.272   8.578  10.740  1.00  0.00    -0.248 NA
ATOM     42  C   UNL     1      -4.080   7.526   9.708  1.00  0.00     0.031 C 
ATOM     43  C   UNL     1       0.136   4.831  10.256  1.00  0.00     0.029 A 
ATOM     44  N   UNL     1       0.136   6.905  11.087  1.00  0.00    -0.354 N 
ATOM     45  C   UNL     1      -3.337   9.469  10.658  1.00  0.00     0.074 A 
ATOM     46  C   UNL     1      -4.399   8.788   9.948  1.00  0.00     0.031 C 
ATOM     47  C   UNL     1       1.331   5.034  10.832  1.00  0.00     0.029 A 
ATOM     48  C   UNL     1       1.384   6.393  11.360  1.00  0.00     0.049 A 
ATOM     49  H   UNL     1      -0.141   7.814  11.345  1.00  0.00     0.167 HD
ATOM     50  C   UNL     1      -3.433  10.726  11.156  1.00  0.00     0.034 A 
ATOM     51  C   UNL     1       2.453   6.960  11.956  1.00  0.00     0.034 A 
ATOM     52  C   UNL     1      -2.369  11.389  11.868  1.00  0.00     0.049 A 
ATOM     53  C   UNL     1       2.337   8.384  12.449  1.00  0.00     0.074 A 
ATOM     54  C   UNL     1      -2.368  12.652  12.434  1.00  0.00     0.029 A 
ATOM     55  N   UNL     1      -1.114  10.845  12.112  1.00  0.00    -0.354 N 
ATOM     56  N   UNL     1       1.308   9.199  12.392  1.00  0.00    -0.248 NA
ATOM     57  C   UNL     1       3.523   8.960  13.096  1.00  0.00     0.031 C 
ATOM     58  C   UNL     1      -1.095  12.899  12.957  1.00  0.00     0.029 A 
ATOM     59  C   UNL     1      -0.326  11.758  12.796  1.00  0.00     0.049 A 
ATOM     60  H   UNL     1      -0.827   9.944  11.839  1.00  0.00     0.167 HD
ATOM     61  C   UNL     1       1.712  10.364  13.039  1.00  0.00     0.074 A 
ATOM     62  C   UNL     1       3.069  10.140  13.490  1.00  0.00     0.031 C 
ATOM     63  C   UNL     1       1.024  11.516  13.246  1.00  0.00     0.034 A 
BRANCH  50  64
ATOM     64  C   UNL     1      -4.729  11.468  10.936  1.00  0.00     0.023 A 
ATOM     65  C   UNL     1      -5.939  11.015  11.492  1.00  0.00     0.031 A 
ATOM     66  C   UNL     1      -4.759  12.642  10.163  1.00  0.00     0.131 A 
ATOM     67  C   UNL     1      -7.134  11.696  11.218  1.00  0.00     0.055 A 
ATOM     68  C   UNL     1      -5.939  13.361   9.962  1.00  0.00     0.041 A 
ATOM     69  F   UNL     1      -3.640  13.110   9.587  1.00  0.00    -0.206 F 
ATOM     70  C   UNL     1      -7.138  12.882  10.481  1.00  0.00     0.022 A 
BRANCH  67  71
ATOM     71  S   UNL     1      -8.699  10.940  11.734  1.00  0.00     0.124 S 
ATOM     72  O   UNL     1      -8.668   9.674  11.005  1.00  0.00    -0.237 OA
ATOM     73  O   UNL     1      -8.544  10.848  13.181  1.00  0.00    -0.237 OA
ATOM     74  O   UNL     1      -9.708  11.892  11.273  1.00  0.00    -0.744 OA
ENDBRANCH  67  71
ENDBRANCH  50  64
BRANCH  51  75
ATOM     75  C   UNL     1       3.733   6.209  12.116  1.00  0.00     0.023 A 
ATOM     76  C   UNL     1       4.277   5.975  13.390  1.00  0.00     0.031 A 
ATOM     77  C   UNL     1       4.479   5.793  10.999  1.00  0.00     0.131 A 
ATOM     78  C   UNL     1       5.560   5.419  13.514  1.00  0.00     0.055 A 
ATOM     79  C   UNL     1       5.723   5.172  11.130  1.00  0.00     0.041 A 
ATOM     80  F   UNL     1       4.011   5.990   9.756  1.00  0.00    -0.206 F 
ATOM     81  C   UNL     1       6.280   5.001  12.393  1.00  0.00     0.022 A 
BRANCH  78  82
ATOM     82  S   UNL     1       6.332   5.383  15.155  1.00  0.00     0.124 S 
ATOM     83  O   UNL     1       6.262   6.787  15.544  1.00  0.00    -0.237 OA
ATOM     84  O   UNL     1       5.455   4.471  15.881  1.00  0.00    -0.237 OA
ATOM     85  O   UNL     1       7.675   4.875  14.887  1.00  0.00    -0.744 OA
ENDBRANCH  78  82
ENDBRANCH  51  75
BRANCH  63  86
ATOM     86  C   UNL     1       1.709  12.594  14.053  1.00  0.00     0.023 A 
ATOM     87  C   UNL     1       2.863  13.250  13.591  1.00  0.00     0.031 A 
ATOM     88  C   UNL     1       1.201  12.959  15.313  1.00  0.00     0.131 A 
ATOM     89  C   UNL     1       3.506  14.191  14.409  1.00  0.00     0.055 A 
ATOM     90  C   UNL     1       1.806  13.945  16.092  1.00  0.00     0.041 A 
ATOM     91  F   UNL     1       0.104  12.363  15.807  1.00  0.00    -0.206 F 
ATOM     92  C   UNL     1       2.974  14.557  15.648  1.00  0.00     0.022 A 
BRANCH  89  93
ATOM     93  S   UNL     1       5.108  14.856  13.877  1.00  0.00     0.124 S 
ATOM     94  O   UNL     1       5.906  13.643  13.730  1.00  0.00    -0.237 OA
ATOM     95  O   UNL     1       4.763  15.545  12.638  1.00  0.00    -0.237 OA
ATOM     96  O   UNL     1       5.502  15.728  14.983  1.00  0.00    -0.744 OA
ENDBRANCH  89  93
ENDBRANCH  63  86
ENDBRANCH  37  38
ENDBRANCH  29  32
ENDBRANCH  27  28
ENDBRANCH  26  27
ENDBRANCH   1  26
TORSDOF 18
