REMARK SMILES C[C@H]1CCCCC[C@H]1NC(=O)c1csc(/C=C/C(=O)NCCCCCCNC(=O)c2ccc(-c3c4nc(c(-c5cc(S(=O)(=O)[O-])ccc5F)c5ccc([nH]5)c(-c5cc(S(=O)(=O)[O-])ccc5F)c5nc(c(-c6cc(S(=O)(=O)[O-])ccc6F)c6ccc3[nH]6)C=C5)C=C4)cc2)c1
REMARK SMILES IDX 22 1 21 2 20 3 18 4 19 5 17 7 16 8 15 9 12 10 13 11 93 12
REMARK SMILES IDX 14 13 10 14 9 15 11 17 8 18 2 19 1 20 3 21 4 22 7 24 6 25
REMARK SMILES IDX 5 26 23 28 24 29 25 30 26 31 27 32 28 33 29 35 30 36 31 37
REMARK SMILES IDX 92 38 32 39 91 40 33 41 34 42 35 43 85 44 36 45 90 46 84 47
REMARK SMILES IDX 86 48 37 49 89 50 83 51 82 52 38 54 70 55 50 56 69 57 51 58
REMARK SMILES IDX 54 59 68 60 87 61 52 62 53 63 67 65 88 66 55 67 39 68 40 69
REMARK SMILES IDX 48 70 41 71 47 72 49 73 46 74 42 75 43 76 44 77 45 78 71 79
REMARK SMILES IDX 72 80 80 81 73 82 79 83 81 84 78 85 74 86 75 87 76 88 77 89
REMARK SMILES IDX 56 90 57 91 65 92 58 93 64 94 66 95 63 96 59 97 60 98 61 99
REMARK SMILES IDX 62 100
REMARK H PARENT 20 6 9 16 27 34 86 53 54 64
REMARK Flexibility Score: 90.00
ROOT
ATOM      1  C   UNL     1       6.105   4.625  -3.962  1.00  0.00     0.021 C 
ENDROOT
BRANCH   1   2
ATOM      2  C   UNL     1       5.761   3.923  -5.277  1.00  0.00     0.116 C 
BRANCH   2   3
ATOM      3  N   UNL     1       6.795   2.956  -5.608  1.00  0.00    -0.353 N 
ATOM      4  C   UNL     1       6.774   1.600  -5.679  1.00  0.00     0.244 C 
ATOM      5  O   UNL     1       7.790   0.997  -6.019  1.00  0.00    -0.270 OA
ATOM      6  H   UNL     1       7.669   3.357  -5.819  1.00  0.00     0.163 HD
BRANCH   4   7
ATOM      7  C   UNL     1       5.524   0.841  -5.466  1.00  0.00     0.072 C 
ATOM      8  C   UNL     1       4.652   1.063  -4.474  1.00  0.00     0.024 C 
BRANCH   8   9
ATOM      9  C   UNL     1       3.413   0.369  -4.354  1.00  0.00     0.028 A 
ATOM     10  C   UNL     1       1.177  -0.085  -3.752  1.00  0.00     0.051 A 
ATOM     11  C   UNL     1       1.562  -1.278  -4.330  1.00  0.00     0.079 A 
ATOM     12  C   UNL     1       2.234   0.876  -3.835  1.00  0.00     0.033 A 
ATOM     13  S   UNL     1       3.195  -1.270  -4.827  1.00  0.00    -0.144 S 
BRANCH  10  14
ATOM     14  C   UNL     1      -0.133   0.181  -3.172  1.00  0.00     0.252 C 
ATOM     15  N   UNL     1      -0.566  -0.613  -2.139  1.00  0.00    -0.349 N 
ATOM     16  H   UNL     1      -1.471  -0.417  -1.804  1.00  0.00     0.164 HD
ATOM     17  O   UNL     1      -0.824   1.122  -3.546  1.00  0.00    -0.269 OA
BRANCH  15  18
ATOM     18  C   UNL     1       0.131  -1.710  -1.467  1.00  0.00     0.085 C 
BRANCH  18  19
ATOM     19  C   UNL     1       0.302  -1.439   0.043  1.00  0.00     0.008 C 
ATOM     20  C   UNL     1      -1.016  -1.172   0.780  1.00  0.00     0.010 C 
BRANCH  19  21
ATOM     21  C   UNL     1       1.145  -2.531   0.733  1.00  0.00     0.005 C 
BRANCH  21  22
ATOM     22  C   UNL     1       0.455  -3.881   0.910  1.00  0.00     0.000 CG0
ATOM     23  G   UNL     1       0.500  -4.827  -0.287  1.00  0.00     0.000 G0
ENDBRANCH  21  22
ENDBRANCH  19  21
ENDBRANCH  18  19
BRANCH  18  24
ATOM     24  C   UNL     1      -0.542  -3.041  -1.832  1.00  0.00     0.025 C 
BRANCH  24  25
ATOM     25  C   UNL     1       0.406  -4.227  -1.685  1.00  0.00     0.002 C 
BRANCH  25  26
ATOM     26  C   UNL     1       0.500  -4.827  -0.287  1.00  0.00     0.000 CG0
ATOM     27  G   UNL     1       0.455  -3.881   0.910  1.00  0.00     0.000 G0
ENDBRANCH  25  26
ENDBRANCH  24  25
ENDBRANCH  18  24
ENDBRANCH  15  18
ENDBRANCH  10  14
ENDBRANCH   8   9
ENDBRANCH   4   7
ENDBRANCH   2   3
ENDBRANCH   1   2
BRANCH   1  28
ATOM     28  C   UNL     1       7.154   5.732  -4.127  1.00  0.00     0.002 C 
BRANCH  28  29
ATOM     29  C   UNL     1       6.729   6.885  -5.046  1.00  0.00     0.002 C 
BRANCH  29  30
ATOM     30  C   UNL     1       5.406   7.554  -4.665  1.00  0.00     0.021 C 
BRANCH  30  31
ATOM     31  C   UNL     1       5.404   8.189  -3.278  1.00  0.00     0.116 C 
BRANCH  31  32
ATOM     32  N   UNL     1       6.372   9.270  -3.187  1.00  0.00    -0.352 N 
ATOM     33  C   UNL     1       6.170  10.592  -2.878  1.00  0.00     0.251 C 
ATOM     34  H   UNL     1       7.306   9.018  -3.374  1.00  0.00     0.163 HD
ATOM     35  O   UNL     1       7.053  11.412  -3.109  1.00  0.00    -0.269 OA
BRANCH  33  36
ATOM     36  C   UNL     1       4.886  11.018  -2.282  1.00  0.00     0.039 A 
ATOM     37  C   UNL     1       4.286  12.195  -2.735  1.00  0.00     0.014 A 
ATOM     38  C   UNL     1       4.284  10.265  -1.270  1.00  0.00     0.014 A 
ATOM     39  C   UNL     1       3.053  12.586  -2.209  1.00  0.00     0.010 A 
ATOM     40  C   UNL     1       3.019  10.614  -0.805  1.00  0.00     0.010 A 
ATOM     41  C   UNL     1       2.393  11.782  -1.264  1.00  0.00    -0.014 A 
BRANCH  41  42
ATOM     42  C   UNL     1       1.050  12.152  -0.746  1.00  0.00     0.031 A 
ATOM     43  C   UNL     1       0.862  12.456   0.716  1.00  0.00     0.074 A 
ATOM     44  C   UNL     1      -0.006  12.165  -1.583  1.00  0.00     0.049 A 
ATOM     45  N   UNL     1      -0.236  12.743   1.367  1.00  0.00    -0.248 NA
ATOM     46  C   UNL     1       2.063  12.400   1.562  1.00  0.00     0.031 C 
ATOM     47  C   UNL     1       0.048  11.851  -3.013  1.00  0.00     0.029 A 
ATOM     48  N   UNL     1      -1.329  12.449  -1.357  1.00  0.00    -0.354 N 
ATOM     49  C   UNL     1       0.139  12.894   2.698  1.00  0.00     0.074 A 
ATOM     50  C   UNL     1       1.554  12.599   2.768  1.00  0.00     0.031 C 
ATOM     51  C   UNL     1      -1.178  11.991  -3.540  1.00  0.00     0.029 A 
ATOM     52  C   UNL     1      -2.116  12.350  -2.482  1.00  0.00     0.049 A 
ATOM     53  H   UNL     1      -1.683  12.699  -0.473  1.00  0.00     0.167 HD
ATOM     54  C   UNL     1      -0.621  13.269   3.757  1.00  0.00     0.034 A 
ATOM     55  C   UNL     1      -3.444  12.516  -2.640  1.00  0.00     0.034 A 
ATOM     56  C   UNL     1      -2.031  13.562   3.665  1.00  0.00     0.049 A 
ATOM     57  C   UNL     1      -4.276  12.892  -1.440  1.00  0.00     0.074 A 
ATOM     58  C   UNL     1      -2.887  13.998   4.661  1.00  0.00     0.029 A 
ATOM     59  N   UNL     1      -2.798  13.437   2.512  1.00  0.00    -0.354 N 
ATOM     60  N   UNL     1      -3.896  13.084  -0.198  1.00  0.00    -0.248 NA
ATOM     61  C   UNL     1      -5.714  13.084  -1.667  1.00  0.00     0.031 C 
ATOM     62  C   UNL     1      -4.182  14.057   4.133  1.00  0.00     0.029 A 
ATOM     63  C   UNL     1      -4.122  13.749   2.784  1.00  0.00     0.049 A 
ATOM     64  H   UNL     1      -2.452  13.166   1.631  1.00  0.00     0.167 HD
ATOM     65  C   UNL     1      -5.045  13.452   0.498  1.00  0.00     0.074 A 
ATOM     66  C   UNL     1      -6.125  13.472  -0.468  1.00  0.00     0.031 C 
ATOM     67  C   UNL     1      -5.194  13.752   1.814  1.00  0.00     0.034 A 
BRANCH  54  68
ATOM     68  C   UNL     1       0.055  13.350   5.106  1.00  0.00     0.023 A 
ATOM     69  C   UNL     1       1.120  14.237   5.349  1.00  0.00     0.031 A 
ATOM     70  C   UNL     1      -0.351  12.512   6.160  1.00  0.00     0.131 A 
ATOM     71  C   UNL     1       1.792  14.207   6.580  1.00  0.00     0.055 A 
ATOM     72  C   UNL     1       0.264  12.551   7.413  1.00  0.00     0.041 A 
ATOM     73  F   UNL     1      -1.346  11.628   5.986  1.00  0.00    -0.206 F 
ATOM     74  C   UNL     1       1.353  13.391   7.624  1.00  0.00     0.022 A 
BRANCH  71  75
ATOM     75  S   UNL     1       3.344  15.133   6.742  1.00  0.00     0.124 S 
ATOM     76  O   UNL     1       4.146  14.553   5.667  1.00  0.00    -0.237 OA
ATOM     77  O   UNL     1       2.911  16.511   6.545  1.00  0.00    -0.237 OA
ATOM     78  O   UNL     1       3.798  14.807   8.092  1.00  0.00    -0.744 OA
ENDBRANCH  71  75
ENDBRANCH  54  68
BRANCH  55  79
ATOM     79  C   UNL     1      -4.077  12.318  -3.977  1.00  0.00     0.023 A 
ATOM     80  C   UNL     1      -4.718  13.376  -4.640  1.00  0.00     0.031 A 
ATOM     81  C   UNL     1      -4.086  11.054  -4.594  1.00  0.00     0.131 A 
ATOM     82  C   UNL     1      -5.384  13.142  -5.853  1.00  0.00     0.055 A 
ATOM     83  C   UNL     1      -4.697  10.839  -5.830  1.00  0.00     0.041 A 
ATOM     84  F   UNL     1      -3.486  10.006  -4.005  1.00  0.00    -0.206 F 
ATOM     85  C   UNL     1      -5.364  11.884  -6.461  1.00  0.00     0.022 A 
BRANCH  82  86
ATOM     86  S   UNL     1      -6.360  14.486  -6.582  1.00  0.00     0.124 S 
ATOM     87  O   UNL     1      -7.299  14.786  -5.507  1.00  0.00    -0.237 OA
ATOM     88  O   UNL     1      -5.339  15.495  -6.843  1.00  0.00    -0.237 OA
ATOM     89  O   UNL     1      -6.947  13.873  -7.771  1.00  0.00    -0.744 OA
ENDBRANCH  82  86
ENDBRANCH  55  79
BRANCH  67  90
ATOM     90  C   UNL     1      -6.571  14.172   2.272  1.00  0.00     0.023 A 
ATOM     91  C   UNL     1      -7.667  13.291   2.240  1.00  0.00     0.031 A 
ATOM     92  C   UNL     1      -6.792  15.482   2.735  1.00  0.00     0.131 A 
ATOM     93  C   UNL     1      -8.943  13.748   2.603  1.00  0.00     0.055 A 
ATOM     94  C   UNL     1      -8.049  15.910   3.163  1.00  0.00     0.041 A 
ATOM     95  F   UNL     1      -5.785  16.369   2.783  1.00  0.00    -0.206 F 
ATOM     96  C   UNL     1      -9.137  15.046   3.084  1.00  0.00     0.022 A 
BRANCH  93  97
ATOM     97  S   UNL     1     -10.367  12.657   2.337  1.00  0.00     0.124 S 
ATOM     98  O   UNL     1     -10.282  12.393   0.904  1.00  0.00    -0.237 OA
ATOM     99  O   UNL     1     -10.064  11.530   3.212  1.00  0.00    -0.237 OA
ATOM    100  O   UNL     1     -11.507  13.474   2.751  1.00  0.00    -0.744 OA
ENDBRANCH  93  97
ENDBRANCH  67  90
ENDBRANCH  41  42
ENDBRANCH  33  36
ENDBRANCH  31  32
ENDBRANCH  30  31
ENDBRANCH  29  30
ENDBRANCH  28  29
ENDBRANCH   1  28
TORSDOF 19
