REMARK SMILES CC[N@H+](CC(C)(C)C(=O)NCCCCCCNC(=O)c1ccc(-c2c3nc(c(-c4cc(S(=O)(=O)[O-])ccc4F)c4ccc([nH]4)c(-c4cc(S(=O)(=O)[O-])ccc4F)c4nc(c(-c5cc(S(=O)(=O)[O-])ccc5F)c5ccc2[nH]5)C=C4)C=C3)cc1)[C@H]1CC[NH2+]C1
REMARK SMILES IDX 13 1 12 2 11 3 10 4 8 5 9 6 5 8 6 9 7 10 4 11 3 12 2 14 1 15
REMARK SMILES IDX 83 16 84 17 87 18 85 19 86 20 14 23 15 24 16 25 17 26 18 27
REMARK SMILES IDX 19 29 20 30 21 31 82 32 22 33 81 34 23 35 24 36 25 37 75 38
REMARK SMILES IDX 26 39 80 40 74 41 76 42 27 43 79 44 73 45 72 46 28 48 60 49
REMARK SMILES IDX 40 50 59 51 41 52 44 53 58 54 77 55 42 56 43 57 57 59 78 60
REMARK SMILES IDX 45 61 29 62 30 63 38 64 31 65 37 66 39 67 36 68 32 69 33 70
REMARK SMILES IDX 34 71 35 72 61 73 62 74 70 75 63 76 69 77 71 78 68 79 64 80
REMARK SMILES IDX 65 81 66 82 67 83 46 84 47 85 55 86 48 87 54 88 56 89 53 90
REMARK SMILES IDX 49 91 50 92 51 93 52 94
REMARK H PARENT 10 7 3 13 86 21 86 22 17 28 76 47 44 58
REMARK Flexibility Score: inf
ROOT
ATOM      1  C   UNL     1       5.438   0.093   7.112  1.00  0.00     0.002 C 
ENDROOT
BRANCH   1   2
ATOM      2  C   UNL     1       6.195  -0.024   5.782  1.00  0.00     0.021 C 
BRANCH   2   3
ATOM      3  C   UNL     1       5.346  -0.592   4.644  1.00  0.00     0.116 C 
BRANCH   3   4
ATOM      4  N   UNL     1       4.279   0.333   4.334  1.00  0.00    -0.355 N 
ATOM      5  C   UNL     1       4.234   1.272   3.356  1.00  0.00     0.231 C 
ATOM      6  O   UNL     1       3.727   2.353   3.671  1.00  0.00    -0.274 OA
ATOM      7  H   UNL     1       3.482   0.274   4.909  1.00  0.00     0.163 HD
BRANCH   5   8
ATOM      8  C   UNL     1       4.797   1.003   1.950  1.00  0.00     0.092 C 
ATOM      9  C   UNL     1       4.559  -0.428   1.440  1.00  0.00     0.027 C 
ATOM     10  C   UNL     1       6.307   1.326   1.979  1.00  0.00     0.027 C 
BRANCH   8  11
ATOM     11  C   UNL     1       4.141   2.009   0.944  1.00  0.00     0.279 C 
BRANCH  11  12
ATOM     12  N   UNL     1       2.756   1.751   0.447  1.00  0.00    -0.327 N 
ATOM     13  H   UNL     1       2.707   0.777   0.148  1.00  0.00     0.348 HD
BRANCH  12  14
ATOM     14  C   UNL     1       1.758   1.915   1.524  1.00  0.00     0.259 C 
ATOM     15  C   UNL     1       0.322   1.541   1.163  1.00  0.00     0.071 C 
ENDBRANCH  12  14
BRANCH  12  16
ATOM     16  C   UNL     1       2.446   2.580  -0.738  1.00  0.00     0.245 C 
ATOM     17  C   UNL     1       2.828   4.061  -0.707  1.00  0.00     0.132 C 
ATOM     18  C   UNL     1       3.080   2.072  -2.053  1.00  0.00     0.326 C 
ATOM     19  C   UNL     1       2.870   4.412  -2.180  1.00  0.00     0.267 C 
ATOM     20  N   UNL     1       3.525   3.260  -2.813  1.00  0.00    -0.341 N 
ATOM     21  H   UNL     1       4.539   3.355  -2.760  1.00  0.00     0.346 HD
ATOM     22  H   UNL     1       3.279   3.186  -3.800  1.00  0.00     0.346 HD
ENDBRANCH  12  16
ENDBRANCH  11  12
ENDBRANCH   8  11
ENDBRANCH   5   8
ENDBRANCH   3   4
ENDBRANCH   2   3
ENDBRANCH   1   2
BRANCH   1  23
ATOM     23  C   UNL     1       4.780  -1.207   7.585  1.00  0.00     0.002 C 
BRANCH  23  24
ATOM     24  C   UNL     1       5.724  -2.409   7.640  1.00  0.00     0.021 C 
BRANCH  24  25
ATOM     25  C   UNL     1       6.955  -2.190   8.509  1.00  0.00     0.116 C 
BRANCH  25  26
ATOM     26  N   UNL     1       6.596  -1.969   9.899  1.00  0.00    -0.352 N 
ATOM     27  C   UNL     1       7.036  -2.638  11.012  1.00  0.00     0.251 C 
ATOM     28  H   UNL     1       5.951  -1.243  10.064  1.00  0.00     0.163 HD
ATOM     29  O   UNL     1       6.456  -2.491  12.086  1.00  0.00    -0.269 OA
BRANCH  27  30
ATOM     30  C   UNL     1       8.193  -3.549  10.897  1.00  0.00     0.039 A 
ATOM     31  C   UNL     1       8.130  -4.806  11.499  1.00  0.00     0.014 A 
ATOM     32  C   UNL     1       9.331  -3.164  10.180  1.00  0.00     0.014 A 
ATOM     33  C   UNL     1       9.191  -5.698  11.341  1.00  0.00     0.010 A 
ATOM     34  C   UNL     1      10.348  -4.084   9.954  1.00  0.00     0.010 A 
ATOM     35  C   UNL     1      10.295  -5.357  10.541  1.00  0.00    -0.014 A 
BRANCH  35  36
ATOM     36  C   UNL     1      11.415  -6.310  10.327  1.00  0.00     0.031 A 
ATOM     37  C   UNL     1      12.796  -5.966  10.813  1.00  0.00     0.074 A 
ATOM     38  C   UNL     1      11.197  -7.459   9.658  1.00  0.00     0.049 A 
ATOM     39  N   UNL     1      13.915  -6.629  10.670  1.00  0.00    -0.248 NA
ATOM     40  C   UNL     1      12.943  -4.689  11.529  1.00  0.00     0.031 C 
ATOM     41  C   UNL     1       9.907  -7.888   9.113  1.00  0.00     0.029 A 
ATOM     42  N   UNL     1      12.053  -8.476   9.318  1.00  0.00    -0.354 N 
ATOM     43  C   UNL     1      14.897  -5.850  11.271  1.00  0.00     0.074 A 
ATOM     44  C   UNL     1      14.253  -4.630  11.710  1.00  0.00     0.031 C 
ATOM     45  C   UNL     1      10.051  -9.093   8.540  1.00  0.00     0.029 A 
ATOM     46  C   UNL     1      11.449  -9.501   8.627  1.00  0.00     0.049 A 
ATOM     47  H   UNL     1      13.011  -8.473   9.548  1.00  0.00     0.167 HD
ATOM     48  C   UNL     1      16.209  -6.136  11.464  1.00  0.00     0.034 A 
ATOM     49  C   UNL     1      11.966 -10.634   8.111  1.00  0.00     0.034 A 
ATOM     50  C   UNL     1      16.833  -7.359  11.019  1.00  0.00     0.049 A 
ATOM     51  C   UNL     1      13.439 -10.907   8.290  1.00  0.00     0.074 A 
ATOM     52  C   UNL     1      18.143  -7.771  11.193  1.00  0.00     0.029 A 
ATOM     53  N   UNL     1      16.194  -8.364  10.303  1.00  0.00    -0.354 N 
ATOM     54  N   UNL     1      14.348 -10.178   8.897  1.00  0.00    -0.248 NA
ATOM     55  C   UNL     1      13.953 -12.161   7.724  1.00  0.00     0.031 C 
ATOM     56  C   UNL     1      18.316  -8.982  10.516  1.00  0.00     0.029 A 
ATOM     57  C   UNL     1      17.092  -9.377   9.998  1.00  0.00     0.049 A 
ATOM     58  H   UNL     1      15.243  -8.359  10.050  1.00  0.00     0.167 HD
ATOM     59  C   UNL     1      15.533 -10.907   8.818  1.00  0.00     0.074 A 
ATOM     60  C   UNL     1      15.217 -12.134   8.116  1.00  0.00     0.031 C 
ATOM     61  C   UNL     1      16.767 -10.593   9.289  1.00  0.00     0.034 A 
BRANCH  48  62
ATOM     62  C   UNL     1      17.051  -5.093  12.161  1.00  0.00     0.023 A 
ATOM     63  C   UNL     1      16.768  -4.672  13.473  1.00  0.00     0.031 A 
ATOM     64  C   UNL     1      18.129  -4.481  11.496  1.00  0.00     0.131 A 
ATOM     65  C   UNL     1      17.491  -3.613  14.042  1.00  0.00     0.055 A 
ATOM     66  C   UNL     1      18.905  -3.493  12.104  1.00  0.00     0.041 A 
ATOM     67  F   UNL     1      18.436  -4.822  10.234  1.00  0.00    -0.206 F 
ATOM     68  C   UNL     1      18.577  -3.039  13.378  1.00  0.00     0.022 A 
BRANCH  65  69
ATOM     69  S   UNL     1      16.883  -2.885  15.589  1.00  0.00     0.124 S 
ATOM     70  O   UNL     1      15.529  -2.485  15.213  1.00  0.00    -0.237 OA
ATOM     71  O   UNL     1      16.985  -3.999  16.523  1.00  0.00    -0.237 OA
ATOM     72  O   UNL     1      17.806  -1.778  15.832  1.00  0.00    -0.744 OA
ENDBRANCH  65  69
ENDBRANCH  48  62
BRANCH  49  73
ATOM     73  C   UNL     1      11.097 -11.595   7.373  1.00  0.00     0.023 A 
ATOM     74  C   UNL     1      10.897 -12.900   7.849  1.00  0.00     0.031 A 
ATOM     75  C   UNL     1      10.488 -11.238   6.156  1.00  0.00     0.131 A 
ATOM     76  C   UNL     1      10.153 -13.817   7.090  1.00  0.00     0.055 A 
ATOM     77  C   UNL     1       9.699 -12.135   5.434  1.00  0.00     0.041 A 
ATOM     78  F   UNL     1      10.644 -10.002   5.655  1.00  0.00    -0.206 F 
ATOM     79  C   UNL     1       9.540 -13.439   5.894  1.00  0.00     0.022 A 
BRANCH  76  80
ATOM     80  S   UNL     1      10.080 -15.543   7.642  1.00  0.00     0.124 S 
ATOM     81  O   UNL     1      11.492 -15.904   7.673  1.00  0.00    -0.237 OA
ATOM     82  O   UNL     1       9.419 -15.419   8.937  1.00  0.00    -0.237 OA
ATOM     83  O   UNL     1       9.290 -16.199   6.601  1.00  0.00    -0.744 OA
ENDBRANCH  76  80
ENDBRANCH  49  73
BRANCH  61  84
ATOM     84  C   UNL     1      17.857 -11.624   9.107  1.00  0.00     0.023 A 
ATOM     85  C   UNL     1      18.329 -11.993   7.836  1.00  0.00     0.031 A 
ATOM     86  C   UNL     1      18.425 -12.254  10.230  1.00  0.00     0.131 A 
ATOM     87  C   UNL     1      19.294 -13.005   7.715  1.00  0.00     0.055 A 
ATOM     88  C   UNL     1      19.434 -13.209  10.107  1.00  0.00     0.041 A 
ATOM     89  F   UNL     1      18.010 -11.945  11.470  1.00  0.00    -0.206 F 
ATOM     90  C   UNL     1      19.864 -13.601   8.843  1.00  0.00     0.022 A 
BRANCH  87  91
ATOM     91  S   UNL     1      19.720 -13.608   6.058  1.00  0.00     0.124 S 
ATOM     92  O   UNL     1      18.423 -14.045   5.552  1.00  0.00    -0.237 OA
ATOM     93  O   UNL     1      20.283 -12.419   5.428  1.00  0.00    -0.237 OA
ATOM     94  O   UNL     1      20.677 -14.682   6.319  1.00  0.00    -0.744 OA
ENDBRANCH  87  91
ENDBRANCH  61  84
ENDBRANCH  35  36
ENDBRANCH  27  30
ENDBRANCH  25  26
ENDBRANCH  24  25
ENDBRANCH  23  24
ENDBRANCH   1  23
TORSDOF 20
