REMARK SMILES CC(C)N(c1cc2c(cc1Cl)C=C(C(=O)NCCCCCCNC(=O)c1ccc(-c3c4nc(c(-c5cc(S(=O)(=O)[O-])ccc5F)c5ccc([nH]5)c(-c5cc(S(=O)(=O)[O-])ccc5F)c5nc(c(-c6cc(S(=O)(=O)[O-])ccc6F)c6ccc3[nH]6)C=C5)C=C4)cc1)[C@@H](C(F)(F)F)O2)C(C)C
REMARK SMILES IDX 20 1 19 2 18 3 17 4 16 5 14 6 15 7 13 9 5 10 6 11 10 12 7 13
REMARK SMILES IDX 9 14 11 15 8 16 94 17 12 18 89 19 4 20 2 21 1 22 3 23 95 24
REMARK SMILES IDX 96 25 97 26 90 27 91 28 92 29 93 30 21 31 22 32 23 33 24 34
REMARK SMILES IDX 25 36 26 37 27 38 88 39 28 40 87 41 29 42 30 43 31 44 81 45
REMARK SMILES IDX 32 46 86 47 80 48 82 49 33 50 85 51 79 52 78 53 34 55 66 56
REMARK SMILES IDX 46 57 65 58 47 59 50 60 64 61 83 62 48 63 49 64 63 66 84 67
REMARK SMILES IDX 51 68 35 69 36 70 44 71 37 72 43 73 45 74 42 75 38 76 39 77
REMARK SMILES IDX 40 78 41 79 67 80 68 81 76 82 69 83 75 84 77 85 74 86 70 87
REMARK SMILES IDX 71 88 72 89 73 90 52 91 53 92 61 93 54 94 60 95 62 96 59 97
REMARK SMILES IDX 55 98 56 99 57 100 58 101
REMARK H PARENT 16 8 23 35 82 54 50 65
REMARK Flexibility Score: inf
ROOT
ATOM      1  C   UNL     1      -9.600   7.824   4.078  1.00  0.00     0.002 C 
ENDROOT
BRANCH   1   2
ATOM      2  C   UNL     1      -8.110   7.997   4.403  1.00  0.00     0.002 C 
BRANCH   2   3
ATOM      3  C   UNL     1      -7.210   6.805   4.063  1.00  0.00     0.021 C 
BRANCH   3   4
ATOM      4  C   UNL     1      -7.286   6.351   2.607  1.00  0.00     0.116 C 
BRANCH   4   5
ATOM      5  N   UNL     1      -6.462   7.174   1.739  1.00  0.00    -0.352 N 
ATOM      6  C   UNL     1      -5.419   6.997   0.896  1.00  0.00     0.251 C 
ATOM      7  O   UNL     1      -5.040   8.020   0.314  1.00  0.00    -0.270 OA
ATOM      8  H   UNL     1      -6.738   8.119   1.774  1.00  0.00     0.163 HD
BRANCH   6   9
ATOM      9  C   UNL     1      -4.722   5.702   0.630  1.00  0.00     0.067 C 
ATOM     10  C   UNL     1      -1.500   2.147  -1.044  1.00  0.00     0.060 A 
ATOM     11  C   UNL     1      -2.498   2.213  -0.055  1.00  0.00     0.074 A 
ATOM     12  C   UNL     1      -1.233   3.343  -1.753  1.00  0.00     0.065 A 
ATOM     13  C   UNL     1      -3.207   3.388   0.197  1.00  0.00     0.130 A 
ATOM     14  C   UNL     1      -1.913   4.538  -1.459  1.00  0.00     0.034 A 
ATOM     15  Cl  UNL     1      -0.126   3.419  -3.085  1.00  0.00    -0.082 Cl
ATOM     16  C   UNL     1      -2.908   4.561  -0.484  1.00  0.00     0.019 A 
ATOM     17  O   UNL     1      -4.171   3.323   1.159  1.00  0.00    -0.475 OA
ATOM     18  C   UNL     1      -3.624   5.784  -0.146  1.00  0.00     0.025 C 
ATOM     19  C   UNL     1      -5.192   4.359   1.120  1.00  0.00     0.314 C 
BRANCH  10  20
ATOM     20  N   UNL     1      -0.848   0.919  -1.279  1.00  0.00    -0.365 N 
BRANCH  20  21
ATOM     21  C   UNL     1       0.622   0.901  -1.118  1.00  0.00     0.076 C 
ATOM     22  C   UNL     1       1.078   0.226   0.174  1.00  0.00     0.030 C 
ATOM     23  C   UNL     1       1.349   0.314  -2.325  1.00  0.00     0.030 C 
ENDBRANCH  20  21
BRANCH  20  24
ATOM     24  C   UNL     1      -1.723  -0.263  -1.468  1.00  0.00     0.076 C 
ATOM     25  C   UNL     1      -1.535  -0.917  -2.835  1.00  0.00     0.030 C 
ATOM     26  C   UNL     1      -1.627  -1.290  -0.344  1.00  0.00     0.030 C 
ENDBRANCH  20  24
ENDBRANCH  10  20
BRANCH  19  27
ATOM     27  C   UNL     1      -6.417   3.848   0.337  1.00  0.00     0.429 C 
ATOM     28  F   UNL     1      -6.982   2.789   0.964  1.00  0.00    -0.167 F 
ATOM     29  F   UNL     1      -7.385   4.789   0.224  1.00  0.00    -0.167 F 
ATOM     30  F   UNL     1      -6.101   3.458  -0.920  1.00  0.00    -0.167 F 
ENDBRANCH  19  27
ENDBRANCH   6   9
ENDBRANCH   4   5
ENDBRANCH   3   4
ENDBRANCH   2   3
ENDBRANCH   1   2
BRANCH   1  31
ATOM     31  C   UNL     1     -10.242   6.518   4.553  1.00  0.00     0.021 C 
BRANCH  31  32
ATOM     32  C   UNL     1     -10.150   6.256   6.051  1.00  0.00     0.116 C 
BRANCH  32  33
ATOM     33  N   UNL     1     -10.879   7.232   6.842  1.00  0.00    -0.352 N 
ATOM     34  C   UNL     1     -11.710   7.021   7.918  1.00  0.00     0.251 C 
ATOM     35  H   UNL     1     -10.762   8.172   6.572  1.00  0.00     0.163 HD
ATOM     36  O   UNL     1     -12.353   7.956   8.389  1.00  0.00    -0.269 OA
BRANCH  34  37
ATOM     37  C   UNL     1     -11.855   5.656   8.474  1.00  0.00     0.039 A 
ATOM     38  C   UNL     1     -10.733   4.856   8.700  1.00  0.00     0.014 A 
ATOM     39  C   UNL     1     -13.135   5.160   8.741  1.00  0.00     0.014 A 
ATOM     40  C   UNL     1     -10.899   3.516   9.033  1.00  0.00     0.010 A 
ATOM     41  C   UNL     1     -13.294   3.834   9.155  1.00  0.00     0.010 A 
ATOM     42  C   UNL     1     -12.181   2.985   9.257  1.00  0.00    -0.014 A 
BRANCH  42  43
ATOM     43  C   UNL     1     -12.322   1.545   9.602  1.00  0.00     0.031 A 
ATOM     44  C   UNL     1     -13.011   0.588   8.666  1.00  0.00     0.074 A 
ATOM     45  C   UNL     1     -11.763   1.089  10.740  1.00  0.00     0.049 A 
ATOM     46  N   UNL     1     -13.148  -0.709   8.774  1.00  0.00    -0.248 NA
ATOM     47  C   UNL     1     -13.627   1.154   7.456  1.00  0.00     0.031 C 
ATOM     48  C   UNL     1     -11.078   1.929  11.723  1.00  0.00     0.029 A 
ATOM     49  N   UNL     1     -11.652  -0.180  11.251  1.00  0.00    -0.354 N 
ATOM     50  C   UNL     1     -13.874  -1.112   7.658  1.00  0.00     0.074 A 
ATOM     51  C   UNL     1     -14.180   0.083   6.903  1.00  0.00     0.031 C 
ATOM     52  C   UNL     1     -10.563   1.149  12.683  1.00  0.00     0.029 A 
ATOM     53  C   UNL     1     -10.934  -0.240  12.423  1.00  0.00     0.049 A 
ATOM     54  H   UNL     1     -12.049  -0.971  10.820  1.00  0.00     0.167 HD
ATOM     55  C   UNL     1     -14.235  -2.365   7.291  1.00  0.00     0.034 A 
ATOM     56  C   UNL     1     -10.607  -1.291  13.205  1.00  0.00     0.034 A 
ATOM     57  C   UNL     1     -13.905  -3.549   8.044  1.00  0.00     0.049 A 
ATOM     58  C   UNL     1     -11.031  -2.672  12.779  1.00  0.00     0.074 A 
ATOM     59  C   UNL     1     -14.205  -4.865   7.738  1.00  0.00     0.029 A 
ATOM     60  N   UNL     1     -13.203  -3.568   9.240  1.00  0.00    -0.354 N 
ATOM     61  N   UNL     1     -11.670  -3.038  11.693  1.00  0.00    -0.248 NA
ATOM     62  C   UNL     1     -10.691  -3.784  13.677  1.00  0.00     0.031 C 
ATOM     63  C   UNL     1     -13.733  -5.673   8.774  1.00  0.00     0.029 A 
ATOM     64  C   UNL     1     -13.079  -4.870   9.695  1.00  0.00     0.049 A 
ATOM     65  H   UNL     1     -12.845  -2.773   9.698  1.00  0.00     0.167 HD
ATOM     66  C   UNL     1     -11.795  -4.422  11.769  1.00  0.00     0.074 A 
ATOM     67  C   UNL     1     -11.137  -4.831  12.993  1.00  0.00     0.031 C 
ATOM     68  C   UNL     1     -12.407  -5.273  10.908  1.00  0.00     0.034 A 
BRANCH  55  69
ATOM     69  C   UNL     1     -15.013  -2.550   6.011  1.00  0.00     0.023 A 
ATOM     70  C   UNL     1     -16.320  -3.071   6.050  1.00  0.00     0.031 A 
ATOM     71  C   UNL     1     -14.416  -2.342   4.756  1.00  0.00     0.131 A 
ATOM     72  C   UNL     1     -16.975  -3.398   4.855  1.00  0.00     0.055 A 
ATOM     73  C   UNL     1     -15.087  -2.635   3.567  1.00  0.00     0.041 A 
ATOM     74  F   UNL     1     -13.171  -1.847   4.667  1.00  0.00    -0.206 F 
ATOM     75  C   UNL     1     -16.367  -3.177   3.615  1.00  0.00     0.022 A 
BRANCH  72  76
ATOM     76  S   UNL     1     -18.612  -4.178   4.864  1.00  0.00     0.124 S 
ATOM     77  O   UNL     1     -19.404  -3.219   4.096  1.00  0.00    -0.237 OA
ATOM     78  O   UNL     1     -18.348  -5.448   4.193  1.00  0.00    -0.237 OA
ATOM     79  O   UNL     1     -18.950  -4.270   6.279  1.00  0.00    -0.744 OA
ENDBRANCH  72  76
ENDBRANCH  55  69
BRANCH  56  80
ATOM     80  C   UNL     1      -9.789  -1.056  14.431  1.00  0.00     0.023 A 
ATOM     81  C   UNL     1     -10.258  -0.224  15.464  1.00  0.00     0.031 A 
ATOM     82  C   UNL     1      -8.482  -1.560  14.531  1.00  0.00     0.131 A 
ATOM     83  C   UNL     1      -9.400   0.141  16.510  1.00  0.00     0.055 A 
ATOM     84  C   UNL     1      -7.655  -1.255  15.615  1.00  0.00     0.041 A 
ATOM     85  F   UNL     1      -7.984  -2.347  13.565  1.00  0.00    -0.206 F 
ATOM     86  C   UNL     1      -8.107  -0.383  16.601  1.00  0.00     0.022 A 
BRANCH  83  87
ATOM     87  S   UNL     1      -9.880   1.427  17.697  1.00  0.00     0.124 S 
ATOM     88  O   UNL     1      -9.894   0.689  18.955  1.00  0.00    -0.237 OA
ATOM     89  O   UNL     1      -8.797   2.395  17.544  1.00  0.00    -0.237 OA
ATOM     90  O   UNL     1     -11.181   1.874  17.211  1.00  0.00    -0.744 OA
ENDBRANCH  83  87
ENDBRANCH  56  80
BRANCH  68  91
ATOM     91  C   UNL     1     -12.413  -6.747  11.230  1.00  0.00     0.023 A 
ATOM     92  C   UNL     1     -11.769  -7.658  10.370  1.00  0.00     0.031 A 
ATOM     93  C   UNL     1     -13.184  -7.260  12.287  1.00  0.00     0.131 A 
ATOM     94  C   UNL     1     -11.944  -9.035  10.558  1.00  0.00     0.055 A 
ATOM     95  C   UNL     1     -13.318  -8.633  12.497  1.00  0.00     0.041 A 
ATOM     96  F   UNL     1     -13.825  -6.431  13.127  1.00  0.00    -0.206 F 
ATOM     97  C   UNL     1     -12.709  -9.527  11.621  1.00  0.00     0.022 A 
BRANCH  94  98
ATOM     98  S   UNL     1     -11.261 -10.234   9.380  1.00  0.00     0.124 S 
ATOM     99  O   UNL     1     -10.360 -11.011  10.229  1.00  0.00    -0.237 OA
ATOM    100  O   UNL     1     -12.458 -10.940   8.931  1.00  0.00    -0.237 OA
ATOM    101  O   UNL     1     -10.606  -9.406   8.373  1.00  0.00    -0.744 OA
ENDBRANCH  94  98
ENDBRANCH  68  91
ENDBRANCH  42  43
ENDBRANCH  34  37
ENDBRANCH  32  33
ENDBRANCH  31  32
ENDBRANCH   1  31
TORSDOF 20
