REMARK SMILES Cc1cccc(NC(=O)[C@H]2C[C@H]2C(=O)NCCCCCCNC(=O)c2ccc(-c3c4nc(c(-c5cc(S(=O)(=O)[O-])ccc5F)c5ccc([nH]5)c(-c5cc(S(=O)(=O)[O-])ccc5F)c5nc(c(-c6cc(S(=O)(=O)[O-])ccc6F)c6ccc3[nH]6)C=C5)C=C4)cc2)c1
REMARK SMILES IDX 19 1 18 2 17 3 16 4 15 5 13 6 14 7 12 9 10 10 11 11 8 12
REMARK SMILES IDX 7 13 9 15 6 16 1 17 2 18 3 19 88 20 4 21 5 22 20 23 21 24
REMARK SMILES IDX 22 25 23 26 24 28 25 29 26 30 87 31 27 32 86 33 28 34 29 35
REMARK SMILES IDX 30 36 80 37 31 38 85 39 79 40 81 41 32 42 84 43 78 44 77 45
REMARK SMILES IDX 33 47 65 48 45 49 64 50 46 51 49 52 63 53 82 54 47 55 48 56
REMARK SMILES IDX 62 58 83 59 50 60 34 61 35 62 43 63 36 64 42 65 44 66 41 67
REMARK SMILES IDX 37 68 38 69 39 70 40 71 66 72 67 73 75 74 68 75 74 76 76 77
REMARK SMILES IDX 73 78 69 79 70 80 71 81 72 82 51 83 52 84 60 85 53 86 59 87
REMARK SMILES IDX 61 88 58 89 54 90 55 91 56 92 57 93
REMARK H PARENT 15 8 7 14 22 27 81 46 49 57
REMARK Flexibility Score: inf
ROOT
ATOM      1  C   UNL     1     -10.326   0.216  -0.553  1.00  0.00     0.002 C 
ENDROOT
BRANCH   1   2
ATOM      2  C   UNL     1      -9.502   1.513  -0.604  1.00  0.00     0.002 C 
BRANCH   2   3
ATOM      3  C   UNL     1      -8.213   1.549   0.229  1.00  0.00     0.021 C 
BRANCH   3   4
ATOM      4  C   UNL     1      -7.234   0.398  -0.008  1.00  0.00     0.116 C 
BRANCH   4   5
ATOM      5  N   UNL     1      -6.652   0.447  -1.330  1.00  0.00    -0.356 N 
ATOM      6  C   UNL     1      -5.391   0.298  -1.815  1.00  0.00     0.223 C 
ATOM      7  O   UNL     1      -5.244   0.388  -3.034  1.00  0.00    -0.275 OA
ATOM      8  H   UNL     1      -7.315   0.629  -2.035  1.00  0.00     0.163 HD
BRANCH   6   9
ATOM      9  C   UNL     1      -4.169   0.011  -1.027  1.00  0.00     0.091 C 
ATOM     10  C   UNL     1      -3.599   0.938   0.024  1.00  0.00     0.092 C 
ATOM     11  C   UNL     1      -3.996  -0.499   0.360  1.00  0.00     0.028 C 
BRANCH  10  12
ATOM     12  C   UNL     1      -4.304   2.033   0.734  1.00  0.00     0.228 C 
ATOM     13  N   UNL     1      -4.202   3.336   0.326  1.00  0.00    -0.326 N 
ATOM     14  H   UNL     1      -4.582   3.974   0.973  1.00  0.00     0.169 HD
ATOM     15  O   UNL     1      -4.860   1.793   1.805  1.00  0.00    -0.274 OA
BRANCH  13  16
ATOM     16  C   UNL     1      -3.674   3.958  -0.816  1.00  0.00     0.041 A 
ATOM     17  C   UNL     1      -2.704   7.544  -1.714  1.00  0.00     0.044 C 
ATOM     18  C   UNL     1      -2.949   6.068  -1.819  1.00  0.00    -0.049 A 
ATOM     19  C   UNL     1      -2.684   5.400  -3.016  1.00  0.00     0.003 A 
ATOM     20  C   UNL     1      -3.463   5.343  -0.734  1.00  0.00     0.029 A 
ATOM     21  C   UNL     1      -2.910   4.030  -3.114  1.00  0.00     0.002 A 
ATOM     22  C   UNL     1      -3.390   3.313  -2.014  1.00  0.00     0.026 A 
ENDBRANCH  13  16
ENDBRANCH  10  12
ENDBRANCH   6   9
ENDBRANCH   4   5
ENDBRANCH   3   4
ENDBRANCH   2   3
ENDBRANCH   1   2
BRANCH   1  23
ATOM     23  C   UNL     1     -10.595  -0.366   0.835  1.00  0.00     0.021 C 
BRANCH  23  24
ATOM     24  C   UNL     1     -11.416   0.532   1.751  1.00  0.00     0.116 C 
BRANCH  24  25
ATOM     25  N   UNL     1     -12.796   0.102   1.939  1.00  0.00    -0.352 N 
ATOM     26  C   UNL     1     -13.785   0.665   2.731  1.00  0.00     0.251 C 
ATOM     27  H   UNL     1     -13.063  -0.700   1.433  1.00  0.00     0.163 HD
ATOM     28  O   UNL     1     -14.875   0.131   2.853  1.00  0.00    -0.269 OA
BRANCH  26  29
ATOM     29  C   UNL     1     -13.540   1.993   3.349  1.00  0.00     0.039 A 
ATOM     30  C   UNL     1     -14.485   3.001   3.123  1.00  0.00     0.014 A 
ATOM     31  C   UNL     1     -12.320   2.296   3.945  1.00  0.00     0.014 A 
ATOM     32  C   UNL     1     -14.115   4.335   3.280  1.00  0.00     0.010 A 
ATOM     33  C   UNL     1     -11.916   3.615   4.000  1.00  0.00     0.010 A 
ATOM     34  C   UNL     1     -12.793   4.633   3.612  1.00  0.00    -0.014 A 
BRANCH  34  35
ATOM     35  C   UNL     1     -12.194   5.948   3.412  1.00  0.00     0.031 A 
ATOM     36  C   UNL     1     -11.783   6.795   4.549  1.00  0.00     0.074 A 
ATOM     37  C   UNL     1     -11.930   6.375   2.157  1.00  0.00     0.049 A 
ATOM     38  N   UNL     1     -11.708   8.083   4.487  1.00  0.00    -0.248 NA
ATOM     39  C   UNL     1     -11.446   6.265   5.865  1.00  0.00     0.031 C 
ATOM     40  C   UNL     1     -11.072   7.490   1.765  1.00  0.00     0.029 A 
ATOM     41  N   UNL     1     -12.571   6.008   0.980  1.00  0.00    -0.354 N 
ATOM     42  C   UNL     1     -11.035   8.514   5.604  1.00  0.00     0.074 A 
ATOM     43  C   UNL     1     -10.968   7.358   6.470  1.00  0.00     0.031 C 
ATOM     44  C   UNL     1     -11.398   7.876   0.523  1.00  0.00     0.029 A 
ATOM     45  C   UNL     1     -12.571   7.120   0.126  1.00  0.00     0.049 A 
ATOM     46  H   UNL     1     -12.957   5.124   0.782  1.00  0.00     0.167 HD
ATOM     47  C   UNL     1     -10.471   9.753   5.618  1.00  0.00     0.034 A 
ATOM     48  C   UNL     1     -13.735   7.660  -0.338  1.00  0.00     0.034 A 
ATOM     49  C   UNL     1     -10.678  10.467   4.361  1.00  0.00     0.049 A 
ATOM     50  C   UNL     1     -13.940   9.107   0.054  1.00  0.00     0.074 A 
ATOM     51  C   UNL     1      -9.859  10.713   3.270  1.00  0.00     0.029 A 
ATOM     52  N   UNL     1     -11.960  10.838   3.978  1.00  0.00    -0.354 N 
ATOM     53  N   UNL     1     -13.244   9.726   0.966  1.00  0.00    -0.248 NA
ATOM     54  C   UNL     1     -14.969   9.962  -0.527  1.00  0.00     0.031 C 
ATOM     55  C   UNL     1     -10.659  11.243   2.227  1.00  0.00     0.029 A 
ATOM     56  C   UNL     1     -11.960  11.331   2.688  1.00  0.00     0.049 A 
ATOM     57  H   UNL     1     -12.759  10.760   4.548  1.00  0.00     0.167 HD
ATOM     58  C   UNL     1     -13.722  11.005   1.137  1.00  0.00     0.074 A 
ATOM     59  C   UNL     1     -14.790  11.106   0.158  1.00  0.00     0.031 C 
ATOM     60  C   UNL     1     -13.191  11.835   2.090  1.00  0.00     0.034 A 
BRANCH  47  61
ATOM     61  C   UNL     1      -9.473  10.205   6.656  1.00  0.00     0.023 A 
ATOM     62  C   UNL     1      -8.438  11.087   6.281  1.00  0.00     0.031 A 
ATOM     63  C   UNL     1      -9.468   9.803   8.004  1.00  0.00     0.131 A 
ATOM     64  C   UNL     1      -7.411  11.441   7.172  1.00  0.00     0.055 A 
ATOM     65  C   UNL     1      -8.420  10.115   8.882  1.00  0.00     0.041 A 
ATOM     66  F   UNL     1     -10.497   9.126   8.535  1.00  0.00    -0.206 F 
ATOM     67  C   UNL     1      -7.375  10.927   8.463  1.00  0.00     0.022 A 
BRANCH  64  68
ATOM     68  S   UNL     1      -6.123  12.587   6.608  1.00  0.00     0.124 S 
ATOM     69  O   UNL     1      -5.564  11.882   5.458  1.00  0.00    -0.237 OA
ATOM     70  O   UNL     1      -6.887  13.794   6.316  1.00  0.00    -0.237 OA
ATOM     71  O   UNL     1      -5.230  12.686   7.762  1.00  0.00    -0.744 OA
ENDBRANCH  64  68
ENDBRANCH  47  61
BRANCH  48  72
ATOM     72  C   UNL     1     -14.813   6.648  -0.517  1.00  0.00     0.023 A 
ATOM     73  C   UNL     1     -14.563   5.598  -1.427  1.00  0.00     0.031 A 
ATOM     74  C   UNL     1     -15.818   6.462   0.442  1.00  0.00     0.131 A 
ATOM     75  C   UNL     1     -15.186   4.354  -1.259  1.00  0.00     0.055 A 
ATOM     76  C   UNL     1     -16.484   5.236   0.565  1.00  0.00     0.041 A 
ATOM     77  F   UNL     1     -16.076   7.410   1.354  1.00  0.00    -0.206 F 
ATOM     78  C   UNL     1     -16.138   4.162  -0.257  1.00  0.00     0.022 A 
BRANCH  75  79
ATOM     79  S   UNL     1     -14.532   2.932  -2.184  1.00  0.00     0.124 S 
ATOM     80  O   UNL     1     -15.212   3.067  -3.467  1.00  0.00    -0.237 OA
ATOM     81  O   UNL     1     -13.094   3.192  -2.193  1.00  0.00    -0.237 OA
ATOM     82  O   UNL     1     -14.932   1.783  -1.376  1.00  0.00    -0.744 OA
ENDBRANCH  75  79
ENDBRANCH  48  72
BRANCH  60  83
ATOM     83  C   UNL     1     -13.698  13.202   2.537  1.00  0.00     0.023 A 
ATOM     84  C   UNL     1     -14.848  13.825   2.033  1.00  0.00     0.031 A 
ATOM     85  C   UNL     1     -13.026  13.931   3.557  1.00  0.00     0.131 A 
ATOM     86  C   UNL     1     -15.269  15.089   2.499  1.00  0.00     0.055 A 
ATOM     87  C   UNL     1     -13.468  15.163   4.051  1.00  0.00     0.041 A 
ATOM     88  F   UNL     1     -11.906  13.480   4.140  1.00  0.00    -0.206 F 
ATOM     89  C   UNL     1     -14.596  15.756   3.517  1.00  0.00     0.022 A 
BRANCH  86  90
ATOM     90  S   UNL     1     -16.705  15.861   1.708  1.00  0.00     0.124 S 
ATOM     91  O   UNL     1     -16.259  15.985   0.323  1.00  0.00    -0.237 OA
ATOM     92  O   UNL     1     -17.757  14.878   1.948  1.00  0.00    -0.237 OA
ATOM     93  O   UNL     1     -16.860  17.124   2.426  1.00  0.00    -0.744 OA
ENDBRANCH  86  90
ENDBRANCH  60  83
ENDBRANCH  34  35
ENDBRANCH  26  29
ENDBRANCH  24  25
ENDBRANCH  23  24
ENDBRANCH   1  23
TORSDOF 18
