REMARK SMILES O=C(NCCCCCCNC(=O)[C@@H]1CCCC[C@H]1C(=O)Nc1ccc(NC(=O)c2ccco2)cc1)c1ccc(-c2c3nc(c(-c4cc(S(=O)(=O)[O-])ccc4F)c4ccc([nH]4)c(-c4cc(S(=O)(=O)[O-])ccc4F)c4nc(c(-c5cc(S(=O)(=O)[O-])ccc5F)c5ccc2[nH]5)C=C4)C=C3)cc1
REMARK SMILES IDX 7 1 6 2 5 3 4 4 3 5 1 6 2 7 36 9 37 10 98 11 38 12 97 13
REMARK SMILES IDX 39 14 40 15 41 16 91 17 42 18 96 19 90 20 92 21 43 22 95 23
REMARK SMILES IDX 89 24 88 25 44 27 76 28 56 29 75 30 57 31 60 32 74 33 93 34
REMARK SMILES IDX 58 35 59 36 73 38 94 39 61 40 45 41 46 42 54 43 47 44 53 45
REMARK SMILES IDX 55 46 52 47 48 48 49 49 50 50 51 51 77 52 78 53 86 54 79 55
REMARK SMILES IDX 85 56 87 57 84 58 80 59 81 60 82 61 83 62 62 63 63 64 71 65
REMARK SMILES IDX 64 66 70 67 72 68 69 69 65 70 66 71 67 72 68 73 8 74 9 75
REMARK SMILES IDX 10 76 11 77 12 79 13 80 14 81 18 82 15 83 17 84 16 85 19 86
REMARK SMILES IDX 20 87 21 88 22 90 23 91 35 92 24 93 34 94 25 95 26 96 27 97
REMARK SMILES IDX 28 99 29 100 30 101 33 102 31 103 32 104
REMARK H PARENT 3 8 92 26 60 37 10 78 21 89 26 98
REMARK Flexibility Score: inf
ROOT
ATOM      1  C   UNL     1       4.525  -2.487  -3.421  1.00  0.00     0.002 C 
ENDROOT
BRANCH   1   2
ATOM      2  C   UNL     1       3.746  -3.000  -2.207  1.00  0.00     0.002 C 
BRANCH   2   3
ATOM      3  C   UNL     1       4.210  -2.442  -0.861  1.00  0.00     0.021 C 
BRANCH   3   4
ATOM      4  C   UNL     1       4.206  -0.921  -0.775  1.00  0.00     0.116 C 
BRANCH   4   5
ATOM      5  N   UNL     1       2.859  -0.377  -0.834  1.00  0.00    -0.352 N 
ATOM      6  O   UNL     1       1.002   0.601  -0.007  1.00  0.00    -0.269 OA
ATOM      7  C   UNL     1       2.201   0.395   0.096  1.00  0.00     0.251 C 
ATOM      8  H   UNL     1       2.349  -0.590  -1.649  1.00  0.00     0.163 HD
BRANCH   7   9
ATOM      9  C   UNL     1       2.968   0.958   1.229  1.00  0.00     0.039 A 
ATOM     10  C   UNL     1       4.194   1.588   1.004  1.00  0.00     0.014 A 
ATOM     11  C   UNL     1       2.461   0.843   2.525  1.00  0.00     0.014 A 
ATOM     12  C   UNL     1       4.975   1.978   2.083  1.00  0.00     0.010 A 
ATOM     13  C   UNL     1       3.212   1.316   3.605  1.00  0.00     0.010 A 
ATOM     14  C   UNL     1       4.488   1.861   3.396  1.00  0.00    -0.014 A 
BRANCH  14  15
ATOM     15  C   UNL     1       5.320   2.362   4.521  1.00  0.00     0.031 A 
ATOM     16  C   UNL     1       5.864   1.426   5.564  1.00  0.00     0.074 A 
ATOM     17  C   UNL     1       5.614   3.676   4.566  1.00  0.00     0.049 A 
ATOM     18  N   UNL     1       6.637   1.691   6.587  1.00  0.00    -0.248 NA
ATOM     19  C   UNL     1       5.481   0.012   5.453  1.00  0.00     0.031 C 
ATOM     20  C   UNL     1       5.132   4.677   3.609  1.00  0.00     0.029 A 
ATOM     21  N   UNL     1       6.405   4.395   5.425  1.00  0.00    -0.354 N 
ATOM     22  C   UNL     1       6.816   0.484   7.256  1.00  0.00     0.074 A 
ATOM     23  C   UNL     1       6.043  -0.507   6.536  1.00  0.00     0.031 C 
ATOM     24  C   UNL     1       5.686   5.863   3.897  1.00  0.00     0.029 A 
ATOM     25  C   UNL     1       6.505   5.726   5.095  1.00  0.00     0.049 A 
ATOM     26  H   UNL     1       6.857   3.996   6.203  1.00  0.00     0.167 HD
ATOM     27  C   UNL     1       7.559   0.231   8.363  1.00  0.00     0.034 A 
ATOM     28  C   UNL     1       7.172   6.730   5.695  1.00  0.00     0.034 A 
ATOM     29  C   UNL     1       8.331   1.234   9.060  1.00  0.00     0.049 A 
ATOM     30  C   UNL     1       7.973   6.424   6.931  1.00  0.00     0.074 A 
ATOM     31  C   UNL     1       9.151   1.081  10.166  1.00  0.00     0.029 A 
ATOM     32  N   UNL     1       8.373   2.583   8.725  1.00  0.00    -0.354 N 
ATOM     33  N   UNL     1       8.148   5.273   7.538  1.00  0.00    -0.248 NA
ATOM     34  C   UNL     1       8.667   7.553   7.559  1.00  0.00     0.031 C 
ATOM     35  C   UNL     1       9.634   2.341  10.536  1.00  0.00     0.029 A 
ATOM     36  C   UNL     1       9.178   3.275   9.620  1.00  0.00     0.049 A 
ATOM     37  H   UNL     1       7.901   2.989   7.963  1.00  0.00     0.167 HD
ATOM     38  C   UNL     1       8.991   5.538   8.611  1.00  0.00     0.074 A 
ATOM     39  C   UNL     1       9.305   6.952   8.552  1.00  0.00     0.031 C 
ATOM     40  C   UNL     1       9.464   4.690   9.560  1.00  0.00     0.034 A 
BRANCH  27  41
ATOM     41  C   UNL     1       7.528  -1.177   8.915  1.00  0.00     0.023 A 
ATOM     42  C   UNL     1       8.025  -2.274   8.189  1.00  0.00     0.031 A 
ATOM     43  C   UNL     1       6.966  -1.428  10.180  1.00  0.00     0.131 A 
ATOM     44  C   UNL     1       7.883  -3.575   8.698  1.00  0.00     0.055 A 
ATOM     45  C   UNL     1       6.898  -2.716  10.715  1.00  0.00     0.041 A 
ATOM     46  F   UNL     1       6.458  -0.425  10.914  1.00  0.00    -0.206 F 
ATOM     47  C   UNL     1       7.344  -3.801   9.966  1.00  0.00     0.022 A 
BRANCH  44  48
ATOM     48  S   UNL     1       8.278  -4.977   7.617  1.00  0.00     0.124 S 
ATOM     49  O   UNL     1       7.407  -4.725   6.471  1.00  0.00    -0.237 OA
ATOM     50  O   UNL     1       9.707  -4.802   7.382  1.00  0.00    -0.237 OA
ATOM     51  O   UNL     1       7.915  -6.143   8.420  1.00  0.00    -0.744 OA
ENDBRANCH  44  48
ENDBRANCH  27  41
BRANCH  28  52
ATOM     52  C   UNL     1       7.098   8.113   5.147  1.00  0.00     0.023 A 
ATOM     53  C   UNL     1       8.239   8.749   4.636  1.00  0.00     0.031 A 
ATOM     54  C   UNL     1       5.885   8.825   5.144  1.00  0.00     0.131 A 
ATOM     55  C   UNL     1       8.152  10.072   4.175  1.00  0.00     0.055 A 
ATOM     56  C   UNL     1       5.793  10.121   4.637  1.00  0.00     0.041 A 
ATOM     57  F   UNL     1       4.763   8.258   5.616  1.00  0.00    -0.206 F 
ATOM     58  C   UNL     1       6.934  10.757   4.159  1.00  0.00     0.022 A 
BRANCH  55  59
ATOM     59  S   UNL     1       9.674  10.912   3.659  1.00  0.00     0.124 S 
ATOM     60  O   UNL     1      10.486  10.828   4.867  1.00  0.00    -0.237 OA
ATOM     61  O   UNL     1      10.108  10.089   2.535  1.00  0.00    -0.237 OA
ATOM     62  O   UNL     1       9.217  12.255   3.305  1.00  0.00    -0.744 OA
ENDBRANCH  55  59
ENDBRANCH  28  52
BRANCH  40  63
ATOM     63  C   UNL     1      10.403   5.280  10.583  1.00  0.00     0.023 A 
ATOM     64  C   UNL     1       9.967   6.231  11.522  1.00  0.00     0.031 A 
ATOM     65  C   UNL     1      11.762   4.919  10.587  1.00  0.00     0.131 A 
ATOM     66  C   UNL     1      10.894   6.839  12.382  1.00  0.00     0.055 A 
ATOM     67  C   UNL     1      12.668   5.482  11.487  1.00  0.00     0.041 A 
ATOM     68  F   UNL     1      12.232   4.018   9.710  1.00  0.00    -0.206 F 
ATOM     69  C   UNL     1      12.239   6.460  12.380  1.00  0.00     0.022 A 
BRANCH  66  70
ATOM     70  S   UNL     1      10.339   8.213  13.429  1.00  0.00     0.124 S 
ATOM     71  O   UNL     1       9.815   9.153  12.443  1.00  0.00    -0.237 OA
ATOM     72  O   UNL     1       9.349   7.571  14.287  1.00  0.00    -0.237 OA
ATOM     73  O   UNL     1      11.561   8.642  14.107  1.00  0.00    -0.744 OA
ENDBRANCH  66  70
ENDBRANCH  40  63
ENDBRANCH  14  15
ENDBRANCH   7   9
ENDBRANCH   4   5
ENDBRANCH   3   4
ENDBRANCH   2   3
ENDBRANCH   1   2
BRANCH   1  74
ATOM     74  C   UNL     1       6.048  -2.562  -3.288  1.00  0.00     0.021 C 
BRANCH  74  75
ATOM     75  C   UNL     1       6.593  -3.973  -3.090  1.00  0.00     0.116 C 
BRANCH  75  76
ATOM     76  N   UNL     1       6.540  -4.725  -4.328  1.00  0.00    -0.356 N 
ATOM     77  C   UNL     1       7.523  -5.099  -5.181  1.00  0.00     0.223 C 
ATOM     78  H   UNL     1       5.636  -5.013  -4.593  1.00  0.00     0.163 HD
ATOM     79  O   UNL     1       7.190  -5.623  -6.249  1.00  0.00    -0.275 OA
BRANCH  77  80
ATOM     80  C   UNL     1       8.998  -4.927  -4.853  1.00  0.00     0.091 C 
ATOM     81  C   UNL     1       9.447  -5.778  -3.657  1.00  0.00     0.014 C 
ATOM     82  C   UNL     1       9.488  -3.476  -4.793  1.00  0.00     0.091 C 
ATOM     83  C   UNL     1      10.963  -5.697  -3.484  1.00  0.00     0.001 C 
ATOM     84  C   UNL     1      11.003  -3.396  -4.541  1.00  0.00     0.014 C 
ATOM     85  C   UNL     1      11.424  -4.250  -3.341  1.00  0.00     0.001 C 
BRANCH  82  86
ATOM     86  C   UNL     1       9.009  -2.530  -5.910  1.00  0.00     0.228 C 
ATOM     87  O   UNL     1       8.230  -1.611  -5.620  1.00  0.00    -0.274 OA
ATOM     88  N   UNL     1       9.470  -2.509  -7.190  1.00  0.00    -0.326 N 
ATOM     89  H   UNL     1       9.084  -1.795  -7.748  1.00  0.00     0.169 HD
BRANCH  88  90
ATOM     90  C   UNL     1      10.389  -3.318  -7.849  1.00  0.00     0.041 A 
ATOM     91  C   UNL     1      11.425  -2.697  -8.533  1.00  0.00     0.028 A 
ATOM     92  C   UNL     1      10.298  -4.700  -7.886  1.00  0.00     0.028 A 
ATOM     93  C   UNL     1      12.480  -3.460  -9.036  1.00  0.00     0.028 A 
ATOM     94  C   UNL     1      11.373  -5.463  -8.344  1.00  0.00     0.028 A 
ATOM     95  C   UNL     1      12.520  -4.840  -8.841  1.00  0.00     0.041 A 
BRANCH  95  96
ATOM     96  N   UNL     1      13.629  -5.665  -9.091  1.00  0.00    -0.319 N 
ATOM     97  C   UNL     1      14.957  -5.398  -9.364  1.00  0.00     0.291 C 
ATOM     98  H   UNL     1      13.418  -6.627  -9.068  1.00  0.00     0.170 HD
ATOM     99  O   UNL     1      15.698  -6.366  -9.552  1.00  0.00    -0.265 OA
BRANCH  97 100
ATOM    100  C   UNL     1      15.436  -4.040  -9.385  1.00  0.00     0.191 A 
ATOM    101  C   UNL     1      15.677  -3.118  -8.381  1.00  0.00     0.056 A 
ATOM    102  O   UNL     1      15.690  -3.467 -10.602  1.00  0.00    -0.459 OA
ATOM    103  C   UNL     1      16.049  -1.911  -9.024  1.00  0.00     0.043 A 
ATOM    104  C   UNL     1      16.049  -2.179 -10.373  1.00  0.00     0.196 A 
ENDBRANCH  97 100
ENDBRANCH  95  96
ENDBRANCH  88  90
ENDBRANCH  82  86
ENDBRANCH  77  80
ENDBRANCH  75  76
ENDBRANCH  74  75
ENDBRANCH   1  74
TORSDOF 20
