REMARK SMILES Cc1ccccc1N(CCC(=O)NCCCCCCNC(=O)c1ccc(-c2c3nc(c(-c4cc(S(=O)(=O)[O-])ccc4F)c4ccc([nH]4)c(-c4cc(S(=O)(=O)[O-])ccc4F)c4nc(c(-c5cc(S(=O)(=O)[O-])ccc5F)c5ccc2[nH]5)C=C4)C=C3)cc1)C(=O)[C@@H]1C=C[C@H]([NH3+])C1
REMARK SMILES IDX 15 1 14 2 13 3 11 4 12 5 10 7 9 8 8 9 7 10 1 11 2 12 3 13
REMARK SMILES IDX 4 14 6 15 5 16 86 17 87 18 88 19 89 20 93 21 90 22 91 23
REMARK SMILES IDX 92 24 16 28 17 29 18 30 19 31 20 32 21 33 22 35 23 36 24 37
REMARK SMILES IDX 85 38 25 39 84 40 26 41 27 42 28 43 78 44 29 45 83 46 77 47
REMARK SMILES IDX 79 48 30 49 82 50 76 51 75 52 31 54 63 55 43 56 62 57 44 58
REMARK SMILES IDX 47 59 61 60 80 61 45 62 46 63 60 65 81 66 48 67 32 68 33 69
REMARK SMILES IDX 41 70 34 71 40 72 42 73 39 74 35 75 36 76 37 77 38 78 64 79
REMARK SMILES IDX 65 80 73 81 66 82 72 83 74 84 71 85 67 86 68 87 69 88 70 89
REMARK SMILES IDX 49 90 50 91 58 92 51 93 57 94 59 95 56 96 52 97 53 98 54 99
REMARK SMILES IDX 55 100
REMARK H PARENT 13 6 92 25 92 26 92 27 20 34 79 53 47 64
REMARK Flexibility Score: inf
ROOT
ATOM      1  C   UNL     1       2.996   5.240   2.569  1.00  0.00     0.021 C 
ENDROOT
BRANCH   1   2
ATOM      2  C   UNL     1       1.783   4.344   2.803  1.00  0.00     0.116 C 
BRANCH   2   3
ATOM      3  N   UNL     1       1.269   3.761   1.572  1.00  0.00    -0.356 N 
ATOM      4  C   UNL     1       1.366   2.496   1.082  1.00  0.00     0.221 C 
ATOM      5  O   UNL     1       0.793   2.227   0.022  1.00  0.00    -0.275 OA
ATOM      6  H   UNL     1       0.768   4.386   0.999  1.00  0.00     0.163 HD
BRANCH   4   7
ATOM      7  C   UNL     1       2.164   1.430   1.797  1.00  0.00     0.122 C 
BRANCH   7   8
ATOM      8  C   UNL     1       3.391   1.028   0.974  1.00  0.00     0.135 C 
BRANCH   8   9
ATOM      9  N   UNL     1       4.559   1.909   1.232  1.00  0.00    -0.311 N 
BRANCH   9  10
ATOM     10  C   UNL     1       5.296   1.656   2.514  1.00  0.00     0.047 A 
ATOM     11  C   UNL     1       6.637   3.904   2.832  1.00  0.00     0.046 C 
ATOM     12  C   UNL     1       6.159   2.533   3.231  1.00  0.00    -0.027 A 
ATOM     13  C   UNL     1       6.700   2.131   4.494  1.00  0.00     0.005 A 
ATOM     14  C   UNL     1       6.444   0.898   5.069  1.00  0.00     0.000 A 
ATOM     15  C   UNL     1       5.108   0.387   3.142  1.00  0.00     0.026 A 
ATOM     16  C   UNL     1       5.655   0.012   4.378  1.00  0.00     0.002 A 
ENDBRANCH   9  10
BRANCH   9  17
ATOM     17  C   UNL     1       4.860   2.951   0.315  1.00  0.00     0.234 C 
ATOM     18  O   UNL     1       5.787   3.748   0.463  1.00  0.00    -0.274 OA
BRANCH  17  19
ATOM     19  C   UNL     1       4.029   3.110  -0.999  1.00  0.00     0.108 C 
ATOM     20  C   UNL     1       4.940   3.011  -2.192  1.00  0.00    -0.012 C 
ATOM     21  C   UNL     1       3.433   4.520  -1.182  1.00  0.00     0.087 C 
ATOM     22  C   UNL     1       5.132   4.203  -2.773  1.00  0.00     0.033 C 
ATOM     23  C   UNL     1       4.390   5.304  -2.088  1.00  0.00     0.205 C 
BRANCH  23  24
ATOM     24  N   UNL     1       5.328   6.144  -1.375  1.00  0.00    -0.352 N 
ATOM     25  H   UNL     1       5.882   5.571  -0.739  1.00  0.00     0.345 HD
ATOM     26  H   UNL     1       4.818   6.848  -0.842  1.00  0.00     0.345 HD
ATOM     27  H   UNL     1       5.946   6.606  -2.042  1.00  0.00     0.345 HD
ENDBRANCH  23  24
ENDBRANCH  17  19
ENDBRANCH   9  17
ENDBRANCH   8   9
ENDBRANCH   7   8
ENDBRANCH   4   7
ENDBRANCH   2   3
ENDBRANCH   1   2
BRANCH   1  28
ATOM     28  C   UNL     1       2.677   6.653   2.058  1.00  0.00     0.002 C 
BRANCH  28  29
ATOM     29  C   UNL     1       2.041   7.611   3.077  1.00  0.00     0.002 C 
BRANCH  29  30
ATOM     30  C   UNL     1       2.714   7.676   4.447  1.00  0.00     0.021 C 
BRANCH  30  31
ATOM     31  C   UNL     1       4.184   8.087   4.429  1.00  0.00     0.116 C 
BRANCH  31  32
ATOM     32  N   UNL     1       4.398   9.510   4.616  1.00  0.00    -0.352 N 
ATOM     33  C   UNL     1       5.569  10.205   4.832  1.00  0.00     0.251 C 
ATOM     34  H   UNL     1       3.584  10.063   4.583  1.00  0.00     0.163 HD
ATOM     35  O   UNL     1       5.525  11.389   5.176  1.00  0.00    -0.269 OA
BRANCH  33  36
ATOM     36  C   UNL     1       6.887   9.589   4.523  1.00  0.00     0.039 A 
ATOM     37  C   UNL     1       7.823  10.393   3.853  1.00  0.00     0.014 A 
ATOM     38  C   UNL     1       7.165   8.238   4.720  1.00  0.00     0.014 A 
ATOM     39  C   UNL     1       8.919   9.810   3.218  1.00  0.00     0.010 A 
ATOM     40  C   UNL     1       8.213   7.646   4.038  1.00  0.00     0.010 A 
ATOM     41  C   UNL     1       9.056   8.423   3.243  1.00  0.00    -0.014 A 
BRANCH  41  42
ATOM     42  C   UNL     1       9.966   7.696   2.370  1.00  0.00     0.031 A 
ATOM     43  C   UNL     1      11.284   7.243   2.839  1.00  0.00     0.074 A 
ATOM     44  C   UNL     1       9.603   7.416   1.101  1.00  0.00     0.049 A 
ATOM     45  N   UNL     1      12.335   7.206   2.089  1.00  0.00    -0.248 NA
ATOM     46  C   UNL     1      11.520   6.802   4.209  1.00  0.00     0.031 C 
ATOM     47  C   UNL     1      10.296   6.557   0.147  1.00  0.00     0.029 A 
ATOM     48  N   UNL     1       8.644   8.084   0.342  1.00  0.00    -0.354 N 
ATOM     49  C   UNL     1      13.272   6.464   2.759  1.00  0.00     0.074 A 
ATOM     50  C   UNL     1      12.764   6.322   4.107  1.00  0.00     0.031 C 
ATOM     51  C   UNL     1       9.963   6.943  -1.094  1.00  0.00     0.029 A 
ATOM     52  C   UNL     1       9.152   8.141  -0.971  1.00  0.00     0.049 A 
ATOM     53  H   UNL     1       7.785   8.444   0.659  1.00  0.00     0.167 HD
ATOM     54  C   UNL     1      14.303   5.880   2.088  1.00  0.00     0.034 A 
ATOM     55  C   UNL     1       9.387   9.335  -1.585  1.00  0.00     0.034 A 
ATOM     56  C   UNL     1      14.240   6.092   0.645  1.00  0.00     0.049 A 
ATOM     57  C   UNL     1      10.819   9.518  -2.056  1.00  0.00     0.074 A 
ATOM     58  C   UNL     1      13.875   5.282  -0.419  1.00  0.00     0.029 A 
ATOM     59  N   UNL     1      14.334   7.377   0.130  1.00  0.00    -0.354 N 
ATOM     60  N   UNL     1      11.814   8.738  -1.732  1.00  0.00    -0.248 NA
ATOM     61  C   UNL     1      11.256  10.649  -2.870  1.00  0.00     0.031 C 
ATOM     62  C   UNL     1      13.777   6.088  -1.584  1.00  0.00     0.029 A 
ATOM     63  C   UNL     1      14.091   7.387  -1.232  1.00  0.00     0.049 A 
ATOM     64  H   UNL     1      14.545   8.177   0.663  1.00  0.00     0.167 HD
ATOM     65  C   UNL     1      12.994   9.247  -2.226  1.00  0.00     0.074 A 
ATOM     66  C   UNL     1      12.586  10.453  -2.924  1.00  0.00     0.031 C 
ATOM     67  C   UNL     1      14.196   8.634  -1.980  1.00  0.00     0.034 A 
BRANCH  54  68
ATOM     68  C   UNL     1      15.172   4.849   2.756  1.00  0.00     0.023 A 
ATOM     69  C   UNL     1      15.525   3.670   2.075  1.00  0.00     0.031 A 
ATOM     70  C   UNL     1      15.644   4.969   4.077  1.00  0.00     0.131 A 
ATOM     71  C   UNL     1      16.214   2.634   2.727  1.00  0.00     0.055 A 
ATOM     72  C   UNL     1      16.287   3.919   4.744  1.00  0.00     0.041 A 
ATOM     73  F   UNL     1      15.486   6.110   4.768  1.00  0.00    -0.206 F 
ATOM     74  C   UNL     1      16.561   2.735   4.072  1.00  0.00     0.022 A 
BRANCH  71  75
ATOM     75  S   UNL     1      16.640   1.141   1.788  1.00  0.00     0.124 S 
ATOM     76  O   UNL     1      15.340   0.699   1.296  1.00  0.00    -0.237 OA
ATOM     77  O   UNL     1      17.565   1.661   0.787  1.00  0.00    -0.237 OA
ATOM     78  O   UNL     1      17.246   0.270   2.794  1.00  0.00    -0.744 OA
ENDBRANCH  71  75
ENDBRANCH  54  68
BRANCH  55  79
ATOM     79  C   UNL     1       8.483  10.427  -1.101  1.00  0.00     0.023 A 
ATOM     80  C   UNL     1       7.083  10.207  -1.155  1.00  0.00     0.031 A 
ATOM     81  C   UNL     1       8.950  11.461  -0.280  1.00  0.00     0.131 A 
ATOM     82  C   UNL     1       6.221  10.900  -0.292  1.00  0.00     0.055 A 
ATOM     83  C   UNL     1       8.077  12.199   0.529  1.00  0.00     0.041 A 
ATOM     84  F   UNL     1      10.264  11.701  -0.159  1.00  0.00    -0.206 F 
ATOM     85  C   UNL     1       6.715  11.893   0.557  1.00  0.00     0.022 A 
BRANCH  82  86
ATOM     86  S   UNL     1       4.494  10.347  -0.098  1.00  0.00     0.124 S 
ATOM     87  O   UNL     1       3.778  11.275  -0.968  1.00  0.00    -0.237 OA
ATOM     88  O   UNL     1       4.515   8.954  -0.543  1.00  0.00    -0.237 OA
ATOM     89  O   UNL     1       4.242  10.511   1.333  1.00  0.00    -0.744 OA
ENDBRANCH  82  86
ENDBRANCH  55  79
BRANCH  67  90
ATOM     90  C   UNL     1      15.585   9.101  -2.407  1.00  0.00     0.023 A 
ATOM     91  C   UNL     1      15.828  10.061  -3.400  1.00  0.00     0.031 A 
ATOM     92  C   UNL     1      16.753   8.533  -1.827  1.00  0.00     0.131 A 
ATOM     93  C   UNL     1      17.141  10.469  -3.724  1.00  0.00     0.055 A 
ATOM     94  C   UNL     1      18.054   8.912  -2.173  1.00  0.00     0.041 A 
ATOM     95  F   UNL     1      16.695   7.584  -0.882  1.00  0.00    -0.206 F 
ATOM     96  C   UNL     1      18.257   9.899  -3.118  1.00  0.00     0.022 A 
BRANCH  93  97
ATOM     97  S   UNL     1      17.364  11.785  -4.951  1.00  0.00     0.124 S 
ATOM     98  O   UNL     1      16.713  11.224  -6.131  1.00  0.00    -0.237 OA
ATOM     99  O   UNL     1      16.677  12.908  -4.321  1.00  0.00    -0.237 OA
ATOM    100  O   UNL     1      18.816  11.925  -5.051  1.00  0.00    -0.744 OA
ENDBRANCH  93  97
ENDBRANCH  67  90
ENDBRANCH  41  42
ENDBRANCH  33  36
ENDBRANCH  31  32
ENDBRANCH  30  31
ENDBRANCH  29  30
ENDBRANCH  28  29
ENDBRANCH   1  28
TORSDOF 22
