REMARK SMILES C[C@H]1CN([C@@H](C(=O)NCCCCCCNC(=O)c2ccc(-c3c4nc(c(-c5cc(S(=O)(=O)[O-])ccc5F)c5ccc([nH]5)c(-c5cc(S(=O)(=O)[O-])ccc5F)c5nc(c(-c6cc(S(=O)(=O)[O-])ccc6F)c6ccc3[nH]6)C=C5)C=C4)cc2)C(C)(C)C)S(=O)(=O)C1
REMARK SMILES IDX 12 1 11 2 10 3 9 4 8 5 6 6 7 7 5 9 4 10 1 11 2 12 3 13 88 14
REMARK SMILES IDX 85 15 86 16 87 17 81 18 82 19 83 20 84 21 13 22 14 23 15 24
REMARK SMILES IDX 16 25 17 27 18 28 19 29 80 30 20 31 79 32 21 33 22 34 23 35
REMARK SMILES IDX 73 36 24 37 78 38 72 39 74 40 25 41 77 42 71 43 70 44 26 46
REMARK SMILES IDX 58 47 38 48 57 49 39 50 42 51 56 52 75 53 40 54 41 55 55 57
REMARK SMILES IDX 76 58 43 59 27 60 28 61 36 62 29 63 35 64 37 65 34 66 30 67
REMARK SMILES IDX 31 68 32 69 33 70 59 71 60 72 68 73 61 74 67 75 69 76 66 77
REMARK SMILES IDX 62 78 63 79 64 80 65 81 44 82 45 83 53 84 46 85 52 86 54 87
REMARK SMILES IDX 51 88 47 89 48 90 49 91 50 92
REMARK H PARENT 8 8 15 26 74 45 42 56
REMARK Flexibility Score: inf
ROOT
ATOM      1  C   UNL     1      -2.589   3.900   1.010  1.00  0.00     0.002 C 
ENDROOT
BRANCH   1   2
ATOM      2  C   UNL     1      -2.109   2.464   1.201  1.00  0.00     0.002 C 
BRANCH   2   3
ATOM      3  C   UNL     1      -0.677   2.351   1.732  1.00  0.00     0.021 C 
BRANCH   3   4
ATOM      4  C   UNL     1      -0.543   2.332   3.260  1.00  0.00     0.116 C 
BRANCH   4   5
ATOM      5  N   UNL     1      -1.249   1.213   3.868  1.00  0.00    -0.355 N 
ATOM      6  C   UNL     1      -0.857   0.040   4.455  1.00  0.00     0.238 C 
ATOM      7  O   UNL     1      -1.781  -0.673   4.855  1.00  0.00    -0.273 OA
ATOM      8  H   UNL     1      -2.227   1.326   3.855  1.00  0.00     0.163 HD
BRANCH   6   9
ATOM      9  C   UNL     1       0.632  -0.337   4.635  1.00  0.00     0.167 C 
BRANCH   9  10
ATOM     10  N   UNL     1       1.235  -1.112   3.499  1.00  0.00    -0.189 NA
ATOM     11  C   UNL     1      -0.745  -1.067   1.047  1.00  0.00     0.010 C 
ATOM     12  C   UNL     1       0.785  -1.204   1.108  1.00  0.00     0.017 C 
ATOM     13  C   UNL     1       1.489  -0.406   2.226  1.00  0.00     0.107 C 
ATOM     14  C   UNL     1       1.168  -2.642   1.429  1.00  0.00     0.159 C 
ATOM     15  S   UNL     1       0.962  -2.760   3.200  1.00  0.00     0.215 S 
ATOM     16  O   UNL     1       2.070  -3.516   3.728  1.00  0.00    -0.212 OA
ATOM     17  O   UNL     1      -0.419  -3.088   3.470  1.00  0.00    -0.212 OA
ENDBRANCH   9  10
BRANCH   9  18
ATOM     18  C   UNL     1       0.950  -0.940   6.068  1.00  0.00    -0.013 C 
ATOM     19  C   UNL     1       2.480  -1.006   6.275  1.00  0.00     0.013 C 
ATOM     20  C   UNL     1       0.393   0.002   7.168  1.00  0.00     0.013 C 
ATOM     21  C   UNL     1       0.366  -2.337   6.363  1.00  0.00     0.013 C 
ENDBRANCH   9  18
ENDBRANCH   6   9
ENDBRANCH   4   5
ENDBRANCH   3   4
ENDBRANCH   2   3
ENDBRANCH   1   2
BRANCH   1  22
ATOM     22  C   UNL     1      -1.721   4.749   0.075  1.00  0.00     0.021 C 
BRANCH  22  23
ATOM     23  C   UNL     1      -1.458   4.123  -1.293  1.00  0.00     0.116 C 
BRANCH  23  24
ATOM     24  N   UNL     1      -2.668   4.086  -2.097  1.00  0.00    -0.352 N 
ATOM     25  C   UNL     1      -2.946   4.809  -3.232  1.00  0.00     0.251 C 
ATOM     26  H   UNL     1      -3.373   3.470  -1.792  1.00  0.00     0.163 HD
ATOM     27  O   UNL     1      -4.099   4.922  -3.633  1.00  0.00    -0.269 OA
BRANCH  25  28
ATOM     28  C   UNL     1      -1.828   5.456  -3.951  1.00  0.00     0.039 A 
ATOM     29  C   UNL     1      -1.917   6.805  -4.297  1.00  0.00     0.014 A 
ATOM     30  C   UNL     1      -0.676   4.721  -4.248  1.00  0.00     0.014 A 
ATOM     31  C   UNL     1      -0.823   7.433  -4.898  1.00  0.00     0.010 A 
ATOM     32  C   UNL     1       0.436   5.366  -4.777  1.00  0.00     0.010 A 
ATOM     33  C   UNL     1       0.373   6.727  -5.116  1.00  0.00    -0.014 A 
BRANCH  33  34
ATOM     34  C   UNL     1       1.563   7.383  -5.720  1.00  0.00     0.031 A 
ATOM     35  C   UNL     1       2.087   6.900  -7.047  1.00  0.00     0.074 A 
ATOM     36  C   UNL     1       2.205   8.363  -5.052  1.00  0.00     0.049 A 
ATOM     37  N   UNL     1       3.157   7.274  -7.700  1.00  0.00    -0.248 NA
ATOM     38  C   UNL     1       1.321   5.834  -7.713  1.00  0.00     0.031 C 
ATOM     39  C   UNL     1       1.806   8.900  -3.749  1.00  0.00     0.029 A 
ATOM     40  N   UNL     1       3.332   9.080  -5.371  1.00  0.00    -0.354 N 
ATOM     41  C   UNL     1       3.204   6.478  -8.840  1.00  0.00     0.074 A 
ATOM     42  C   UNL     1       2.085   5.564  -8.761  1.00  0.00     0.031 C 
ATOM     43  C   UNL     1       2.655   9.880  -3.397  1.00  0.00     0.029 A 
ATOM     44  C   UNL     1       3.691  10.006  -4.416  1.00  0.00     0.049 A 
ATOM     45  H   UNL     1       3.837   8.945  -6.205  1.00  0.00     0.167 HD
ATOM     46  C   UNL     1       4.088   6.519  -9.867  1.00  0.00     0.034 A 
ATOM     47  C   UNL     1       4.744  10.847  -4.363  1.00  0.00     0.034 A 
ATOM     48  C   UNL     1       5.183   7.454  -9.941  1.00  0.00     0.049 A 
ATOM     49  C   UNL     1       5.736  10.843  -5.503  1.00  0.00     0.074 A 
ATOM     50  C   UNL     1       6.096   7.627 -10.967  1.00  0.00     0.029 A 
ATOM     51  N   UNL     1       5.523   8.366  -8.950  1.00  0.00    -0.354 N 
ATOM     52  N   UNL     1       5.733  10.120  -6.599  1.00  0.00    -0.248 NA
ATOM     53  C   UNL     1       6.869  11.774  -5.402  1.00  0.00     0.031 C 
ATOM     54  C   UNL     1       7.036   8.578 -10.561  1.00  0.00     0.029 A 
ATOM     55  C   UNL     1       6.656   9.072  -9.323  1.00  0.00     0.049 A 
ATOM     56  H   UNL     1       5.031   8.492  -8.106  1.00  0.00     0.167 HD
ATOM     57  C   UNL     1       6.836  10.546  -7.337  1.00  0.00     0.074 A 
ATOM     58  C   UNL     1       7.473  11.591  -6.565  1.00  0.00     0.031 C 
ATOM     59  C   UNL     1       7.279  10.117  -8.546  1.00  0.00     0.034 A 
BRANCH  46  60
ATOM     60  C   UNL     1       3.930   5.507 -10.975  1.00  0.00     0.023 A 
ATOM     61  C   UNL     1       2.794   5.479 -11.803  1.00  0.00     0.031 A 
ATOM     62  C   UNL     1       4.940   4.557 -11.212  1.00  0.00     0.131 A 
ATOM     63  C   UNL     1       2.669   4.485 -12.786  1.00  0.00     0.055 A 
ATOM     64  C   UNL     1       4.846   3.623 -12.245  1.00  0.00     0.041 A 
ATOM     65  F   UNL     1       6.037   4.518 -10.439  1.00  0.00    -0.206 F 
ATOM     66  C   UNL     1       3.700   3.575 -13.032  1.00  0.00     0.022 A 
BRANCH  63  67
ATOM     67  S   UNL     1       1.084   4.317 -13.652  1.00  0.00     0.124 S 
ATOM     68  O   UNL     1       0.168   4.065 -12.541  1.00  0.00    -0.237 OA
ATOM     69  O   UNL     1       0.947   5.609 -14.313  1.00  0.00    -0.237 OA
ATOM     70  O   UNL     1       1.300   3.178 -14.542  1.00  0.00    -0.744 OA
ENDBRANCH  63  67
ENDBRANCH  46  60
BRANCH  47  71
ATOM     71  C   UNL     1       4.940  11.760  -3.197  1.00  0.00     0.023 A 
ATOM     72  C   UNL     1       4.964  13.153  -3.371  1.00  0.00     0.031 A 
ATOM     73  C   UNL     1       5.186  11.257  -1.907  1.00  0.00     0.131 A 
ATOM     74  C   UNL     1       5.297  13.990  -2.295  1.00  0.00     0.055 A 
ATOM     75  C   UNL     1       5.449  12.097  -0.823  1.00  0.00     0.041 A 
ATOM     76  F   UNL     1       5.177   9.933  -1.680  1.00  0.00    -0.206 F 
ATOM     77  C   UNL     1       5.525  13.473  -1.018  1.00  0.00     0.022 A 
BRANCH  74  78
ATOM     78  S   UNL     1       5.559  15.755  -2.620  1.00  0.00     0.124 S 
ATOM     79  O   UNL     1       6.593  15.715  -3.647  1.00  0.00    -0.237 OA
ATOM     80  O   UNL     1       4.233  16.181  -3.057  1.00  0.00    -0.237 OA
ATOM     81  O   UNL     1       5.985  16.279  -1.323  1.00  0.00    -0.744 OA
ENDBRANCH  74  78
ENDBRANCH  47  71
BRANCH  59  82
ATOM     82  C   UNL     1       8.471  10.827  -9.141  1.00  0.00     0.023 A 
ATOM     83  C   UNL     1       9.748  10.758  -8.559  1.00  0.00     0.031 A 
ATOM     84  C   UNL     1       8.321  11.583 -10.318  1.00  0.00     0.131 A 
ATOM     85  C   UNL     1      10.813  11.475  -9.125  1.00  0.00     0.055 A 
ATOM     86  C   UNL     1       9.399  12.238 -10.914  1.00  0.00     0.041 A 
ATOM     87  F   UNL     1       7.123  11.688 -10.916  1.00  0.00    -0.206 F 
ATOM     88  C   UNL     1      10.651  12.197 -10.310  1.00  0.00     0.022 A 
BRANCH  85  89
ATOM     89  S   UNL     1      12.395  11.528  -8.239  1.00  0.00     0.124 S 
ATOM     90  O   UNL     1      12.005  12.103  -6.956  1.00  0.00    -0.237 OA
ATOM     91  O   UNL     1      12.787  10.123  -8.215  1.00  0.00    -0.237 OA
ATOM     92  O   UNL     1      13.228  12.389  -9.077  1.00  0.00    -0.744 OA
ENDBRANCH  85  89
ENDBRANCH  59  82
ENDBRANCH  33  34
ENDBRANCH  25  28
ENDBRANCH  23  24
ENDBRANCH  22  23
ENDBRANCH   1  22
TORSDOF 18
