REMARK SMILES C[C@@H](C(=O)NCCCCCCNC(=O)c1ccc(-c2c3nc(c(-c4cc(S(=O)(=O)[O-])ccc4F)c4ccc([nH]4)c(-c4cc(S(=O)(=O)[O-])ccc4F)c4nc(c(-c5cc(S(=O)(=O)[O-])ccc5F)c5ccc2[nH]5)C=C4)C=C3)cc1)c1ccc(C[C@@H]2CCC[C@@H]2O)cc1F
REMARK SMILES IDX 8 1 7 2 6 3 5 4 3 5 4 6 2 8 1 9 78 10 79 11 90 12 80 13
REMARK SMILES IDX 89 14 91 15 81 16 82 17 83 18 84 19 87 20 85 21 86 22 88 23
REMARK SMILES IDX 9 25 10 26 11 27 12 28 13 29 14 31 15 32 16 33 77 34 17 35
REMARK SMILES IDX 76 36 18 37 19 38 20 39 70 40 21 41 75 42 69 43 71 44 22 45
REMARK SMILES IDX 74 46 68 47 67 48 23 50 55 51 35 52 54 53 36 54 39 55 53 56
REMARK SMILES IDX 72 57 37 58 38 59 52 61 73 62 40 63 24 64 25 65 33 66 26 67
REMARK SMILES IDX 32 68 34 69 31 70 27 71 28 72 29 73 30 74 56 75 57 76 65 77
REMARK SMILES IDX 58 78 64 79 66 80 63 81 59 82 60 83 61 84 62 85 41 86 42 87
REMARK SMILES IDX 50 88 43 89 49 90 51 91 48 92 44 93 45 94 46 95 47 96
REMARK H PARENT 5 7 88 24 12 30 71 49 39 60
REMARK Flexibility Score: inf
ROOT
ATOM      1  C   UNL     1     -12.516   6.352   6.988  1.00  0.00     0.002 C 
ENDROOT
BRANCH   1   2
ATOM      2  C   UNL     1     -11.164   5.636   7.104  1.00  0.00     0.021 C 
BRANCH   2   3
ATOM      3  C   UNL     1     -11.246   4.121   6.914  1.00  0.00     0.116 C 
BRANCH   3   4
ATOM      4  N   UNL     1     -11.733   3.793   5.592  1.00  0.00    -0.356 N 
ATOM      5  C   UNL     1     -11.090   3.256   4.519  1.00  0.00     0.227 C 
ATOM      6  O   UNL     1     -11.787   3.030   3.527  1.00  0.00    -0.274 OA
ATOM      7  H   UNL     1     -12.686   3.992   5.444  1.00  0.00     0.163 HD
BRANCH   5   8
ATOM      8  C   UNL     1      -9.606   2.867   4.627  1.00  0.00     0.108 C 
ATOM      9  C   UNL     1      -8.649   4.037   4.891  1.00  0.00     0.023 C 
BRANCH   8  10
ATOM     10  C   UNL     1      -9.105   2.129   3.396  1.00  0.00    -0.000 A 
ATOM     11  C   UNL     1      -8.514   0.865   3.515  1.00  0.00     0.008 A 
ATOM     12  C   UNL     1      -9.143   2.731   2.133  1.00  0.00     0.127 A 
ATOM     13  C   UNL     1      -7.936   0.247   2.403  1.00  0.00     0.004 A 
ATOM     14  C   UNL     1      -8.580   2.116   1.024  1.00  0.00     0.043 A 
ATOM     15  F   UNL     1      -9.667   3.956   1.981  1.00  0.00    -0.207 F 
ATOM     16  C   UNL     1      -7.928   0.886   1.156  1.00  0.00    -0.045 A 
BRANCH  16  17
ATOM     17  C   UNL     1      -7.173   0.312  -0.013  1.00  0.00     0.041 C 
BRANCH  17  18
ATOM     18  C   UNL     1      -5.652   0.585  -0.075  1.00  0.00     0.022 C 
ATOM     19  C   UNL     1      -4.840  -0.067   1.051  1.00  0.00     0.007 C 
ATOM     20  C   UNL     1      -5.181   2.044  -0.024  1.00  0.00     0.117 C 
ATOM     21  C   UNL     1      -4.536   1.031   2.074  1.00  0.00     0.003 C 
ATOM     22  C   UNL     1      -4.994   2.348   1.457  1.00  0.00     0.032 C 
BRANCH  20  23
ATOM     23  O   UNL     1      -6.054   2.960  -0.647  1.00  0.00    -0.393 OA
ATOM     24  H   UNL     1      -6.918   2.934  -0.206  1.00  0.00     0.210 HD
ENDBRANCH  20  23
ENDBRANCH  17  18
ENDBRANCH  16  17
ENDBRANCH   8  10
ENDBRANCH   5   8
ENDBRANCH   3   4
ENDBRANCH   2   3
ENDBRANCH   1   2
BRANCH   1  25
ATOM     25  C   UNL     1     -13.617   5.802   7.900  1.00  0.00     0.002 C 
BRANCH  25  26
ATOM     26  C   UNL     1     -13.246   5.736   9.382  1.00  0.00     0.021 C 
BRANCH  26  27
ATOM     27  C   UNL     1     -12.867   7.078   9.991  1.00  0.00     0.116 C 
BRANCH  27  28
ATOM     28  N   UNL     1     -13.985   8.006   9.985  1.00  0.00    -0.352 N 
ATOM     29  C   UNL     1     -14.508   8.728  11.027  1.00  0.00     0.251 C 
ATOM     30  H   UNL     1     -14.427   8.134   9.115  1.00  0.00     0.163 HD
ATOM     31  O   UNL     1     -15.599   9.282  10.898  1.00  0.00    -0.269 OA
BRANCH  29  32
ATOM     32  C   UNL     1     -13.766   8.819  12.302  1.00  0.00     0.039 A 
ATOM     33  C   UNL     1     -14.469   8.725  13.505  1.00  0.00     0.014 A 
ATOM     34  C   UNL     1     -12.381   9.013  12.312  1.00  0.00     0.014 A 
ATOM     35  C   UNL     1     -13.778   8.797  14.716  1.00  0.00     0.010 A 
ATOM     36  C   UNL     1     -11.685   8.994  13.516  1.00  0.00     0.010 A 
ATOM     37  C   UNL     1     -12.379   8.915  14.733  1.00  0.00    -0.014 A 
BRANCH  37  38
ATOM     38  C   UNL     1     -11.632   9.022  16.013  1.00  0.00     0.031 A 
ATOM     39  C   UNL     1     -10.865  10.281  16.326  1.00  0.00     0.074 A 
ATOM     40  C   UNL     1     -11.612   7.984  16.871  1.00  0.00     0.049 A 
ATOM     41  N   UNL     1     -10.119  10.562  17.363  1.00  0.00    -0.248 NA
ATOM     42  C   UNL     1     -10.916  11.351  15.318  1.00  0.00     0.031 C 
ATOM     43  C   UNL     1     -12.290   6.702  16.663  1.00  0.00     0.029 A 
ATOM     44  N   UNL     1     -11.004   7.842  18.093  1.00  0.00    -0.354 N 
ATOM     45  C   UNL     1      -9.598  11.830  17.123  1.00  0.00     0.074 A 
ATOM     46  C   UNL     1     -10.056  12.228  15.810  1.00  0.00     0.031 C 
ATOM     47  C   UNL     1     -12.094   5.923  17.738  1.00  0.00     0.029 A 
ATOM     48  C   UNL     1     -11.240   6.626  18.691  1.00  0.00     0.049 A 
ATOM     49  H   UNL     1     -10.449   8.545  18.503  1.00  0.00     0.167 HD
ATOM     50  C   UNL     1      -8.831  12.602  17.933  1.00  0.00     0.034 A 
ATOM     51  C   UNL     1     -10.815   6.135  19.872  1.00  0.00     0.034 A 
ATOM     52  C   UNL     1      -8.401  12.193  19.249  1.00  0.00     0.049 A 
ATOM     53  C   UNL     1      -9.945   7.003  20.748  1.00  0.00     0.074 A 
ATOM     54  C   UNL     1      -7.673  12.912  20.180  1.00  0.00     0.029 A 
ATOM     55  N   UNL     1      -8.652  10.950  19.818  1.00  0.00    -0.354 N 
ATOM     56  N   UNL     1      -9.503   8.221  20.531  1.00  0.00    -0.248 NA
ATOM     57  C   UNL     1      -9.532   6.433  22.036  1.00  0.00     0.031 C 
ATOM     58  C   UNL     1      -7.415  12.079  21.274  1.00  0.00     0.029 A 
ATOM     59  C   UNL     1      -8.064  10.871  21.071  1.00  0.00     0.049 A 
ATOM     60  H   UNL     1      -9.172  10.230  19.393  1.00  0.00     0.167 HD
ATOM     61  C   UNL     1      -8.800   8.579  21.680  1.00  0.00     0.074 A 
ATOM     62  C   UNL     1      -8.885   7.451  22.584  1.00  0.00     0.031 C 
ATOM     63  C   UNL     1      -8.153   9.739  21.965  1.00  0.00     0.034 A 
BRANCH  50  64
ATOM     64  C   UNL     1      -8.383  13.944  17.398  1.00  0.00     0.023 A 
ATOM     65  C   UNL     1      -9.303  14.942  17.026  1.00  0.00     0.031 A 
ATOM     66  C   UNL     1      -7.016  14.216  17.216  1.00  0.00     0.131 A 
ATOM     67  C   UNL     1      -8.851  16.117  16.407  1.00  0.00     0.055 A 
ATOM     68  C   UNL     1      -6.567  15.428  16.688  1.00  0.00     0.041 A 
ATOM     69  F   UNL     1      -6.088  13.297  17.529  1.00  0.00    -0.206 F 
ATOM     70  C   UNL     1      -7.488  16.381  16.262  1.00  0.00     0.022 A 
BRANCH  67  71
ATOM     71  S   UNL     1     -10.074  17.215  15.638  1.00  0.00     0.124 S 
ATOM     72  O   UNL     1     -10.731  16.310  14.697  1.00  0.00    -0.237 OA
ATOM     73  O   UNL     1     -10.876  17.643  16.778  1.00  0.00    -0.237 OA
ATOM     74  O   UNL     1      -9.258  18.258  15.020  1.00  0.00    -0.744 OA
ENDBRANCH  67  71
ENDBRANCH  50  64
BRANCH  51  75
ATOM     75  C   UNL     1     -11.210   4.765  20.311  1.00  0.00     0.023 A 
ATOM     76  C   UNL     1     -11.998   4.576  21.458  1.00  0.00     0.031 A 
ATOM     77  C   UNL     1     -10.771   3.623  19.619  1.00  0.00     0.131 A 
ATOM     78  C   UNL     1     -12.277   3.277  21.910  1.00  0.00     0.055 A 
ATOM     79  C   UNL     1     -11.100   2.333  20.040  1.00  0.00     0.041 A 
ATOM     80  F   UNL     1     -10.019   3.746  18.513  1.00  0.00    -0.206 F 
ATOM     81  C   UNL     1     -11.845   2.154  21.201  1.00  0.00     0.022 A 
BRANCH  78  82
ATOM     82  S   UNL     1     -13.135   3.075  23.496  1.00  0.00     0.124 S 
ATOM     83  O   UNL     1     -12.232   3.765  24.410  1.00  0.00    -0.237 OA
ATOM     84  O   UNL     1     -14.411   3.732  23.235  1.00  0.00    -0.237 OA
ATOM     85  O   UNL     1     -13.204   1.625  23.662  1.00  0.00    -0.744 OA
ENDBRANCH  78  82
ENDBRANCH  51  75
BRANCH  63  86
ATOM     86  C   UNL     1      -7.547   9.869  23.343  1.00  0.00     0.023 A 
ATOM     87  C   UNL     1      -6.495   9.045  23.779  1.00  0.00     0.031 A 
ATOM     88  C   UNL     1      -8.051  10.826  24.243  1.00  0.00     0.131 A 
ATOM     89  C   UNL     1      -6.029   9.146  25.099  1.00  0.00     0.055 A 
ATOM     90  C   UNL     1      -7.534  10.972  25.531  1.00  0.00     0.041 A 
ATOM     91  F   UNL     1      -9.059  11.638  23.885  1.00  0.00    -0.206 F 
ATOM     92  C   UNL     1      -6.528  10.117  25.971  1.00  0.00     0.022 A 
BRANCH  89  93
ATOM     93  S   UNL     1      -4.847   7.909  25.702  1.00  0.00     0.124 S 
ATOM     94  O   UNL     1      -5.556   6.660  25.445  1.00  0.00    -0.237 OA
ATOM     95  O   UNL     1      -3.678   8.162  24.865  1.00  0.00    -0.237 OA
ATOM     96  O   UNL     1      -4.683   8.250  27.114  1.00  0.00    -0.744 OA
ENDBRANCH  89  93
ENDBRANCH  63  86
ENDBRANCH  37  38
ENDBRANCH  29  32
ENDBRANCH  27  28
ENDBRANCH  26  27
ENDBRANCH  25  26
ENDBRANCH   1  25
TORSDOF 20
