REMARK SMILES Cc1ccc(O)c(C(=O)NCc2ccc(C(=O)NCCCCCCNC(=O)c3ccc(-c4c5nc(c(-c6cc(S(=O)(=O)[O-])ccc6F)c6ccc([nH]6)c(-c6cc(S(=O)(=O)[O-])ccc6F)c6nc(c(-c7cc(S(=O)(=O)[O-])ccc7F)c7ccc4[nH]7)C=C6)C=C5)cc3)o2)c1
REMARK SMILES IDX 21 1 20 2 19 3 18 4 16 5 17 6 15 8 12 9 13 10 91 11 14 12
REMARK SMILES IDX 11 13 10 14 8 15 9 16 7 18 1 19 2 20 3 21 92 22 4 23 5 24
REMARK SMILES IDX 6 25 22 27 23 28 24 29 25 30 26 31 27 33 28 34 29 35 90 36
REMARK SMILES IDX 30 37 89 38 31 39 32 40 33 41 83 42 34 43 88 44 82 45 84 46
REMARK SMILES IDX 35 47 87 48 81 49 80 50 36 52 68 53 48 54 67 55 49 56 52 57
REMARK SMILES IDX 66 58 85 59 50 60 51 61 65 63 86 64 53 65 37 66 38 67 46 68
REMARK SMILES IDX 39 69 45 70 47 71 44 72 40 73 41 74 42 75 43 76 69 77 70 78
REMARK SMILES IDX 78 79 71 80 77 81 79 82 76 83 72 84 73 85 74 86 75 87 54 88
REMARK SMILES IDX 55 89 63 90 56 91 62 92 64 93 61 94 57 95 58 96 59 97 60 98
REMARK H PARENT 18 7 10 17 6 26 25 32 84 51 52 62
REMARK Flexibility Score: inf
ROOT
ATOM      1  C   UNL     1       2.019  -7.983   7.343  1.00  0.00     0.002 C 
ENDROOT
BRANCH   1   2
ATOM      2  C   UNL     1       1.958  -6.727   6.465  1.00  0.00     0.021 C 
BRANCH   2   3
ATOM      3  C   UNL     1       2.875  -6.807   5.247  1.00  0.00     0.116 C 
BRANCH   3   4
ATOM      4  N   UNL     1       2.285  -7.623   4.210  1.00  0.00    -0.349 N 
ATOM      5  C   UNL     1       1.744  -7.319   2.988  1.00  0.00     0.286 C 
ATOM      6  O   UNL     1       1.311  -8.289   2.353  1.00  0.00    -0.266 OA
ATOM      7  H   UNL     1       2.268  -8.584   4.424  1.00  0.00     0.163 HD
BRANCH   5   8
ATOM      8  C   UNL     1       1.700  -5.965   2.465  1.00  0.00     0.191 A 
ATOM      9  C   UNL     1       1.257  -4.525   0.830  1.00  0.00     0.124 A 
ATOM     10  C   UNL     1       1.741  -3.783   1.880  1.00  0.00     0.048 A 
ATOM     11  O   UNL     1       1.247  -5.842   1.171  1.00  0.00    -0.454 OA
ATOM     12  C   UNL     1       1.986  -4.695   2.933  1.00  0.00     0.056 A 
BRANCH   9  13
ATOM     13  C   UNL     1       0.709  -4.198  -0.508  1.00  0.00     0.191 C 
BRANCH  13  14
ATOM     14  N   UNL     1      -0.639  -3.704  -0.329  1.00  0.00    -0.345 N 
ATOM     15  C   UNL     1      -1.212  -2.475  -0.167  1.00  0.00     0.255 C 
ATOM     16  O   UNL     1      -2.441  -2.470  -0.029  1.00  0.00    -0.269 OA
ATOM     17  H   UNL     1      -1.305  -4.430  -0.320  1.00  0.00     0.164 HD
BRANCH  15  18
ATOM     18  C   UNL     1      -0.504  -1.155  -0.147  1.00  0.00     0.081 A 
ATOM     19  C   UNL     1       2.984   0.407   0.059  1.00  0.00     0.044 C 
ATOM     20  C   UNL     1       1.490   0.274  -0.033  1.00  0.00    -0.050 A 
ATOM     21  C   UNL     1       0.687   1.414  -0.032  1.00  0.00     0.007 A 
ATOM     22  C   UNL     1       0.886  -0.994  -0.103  1.00  0.00     0.021 A 
ATOM     23  C   UNL     1      -0.697   1.287  -0.082  1.00  0.00     0.047 A 
ATOM     24  C   UNL     1      -1.283   0.021  -0.129  1.00  0.00     0.128 A 
BRANCH  24  25
ATOM     25  O   UNL     1      -2.657   0.024  -0.145  1.00  0.00    -0.507 OA
ATOM     26  H   UNL     1      -3.124   0.836  -0.132  1.00  0.00     0.293 HD
ENDBRANCH  24  25
ENDBRANCH  15  18
ENDBRANCH  13  14
ENDBRANCH   9  13
ENDBRANCH   5   8
ENDBRANCH   3   4
ENDBRANCH   2   3
ENDBRANCH   1   2
BRANCH   1  27
ATOM     27  C   UNL     1       3.423  -8.341   7.848  1.00  0.00     0.002 C 
BRANCH  27  28
ATOM     28  C   UNL     1       4.165  -7.198   8.547  1.00  0.00     0.021 C 
BRANCH  28  29
ATOM     29  C   UNL     1       3.457  -6.668   9.788  1.00  0.00     0.116 C 
BRANCH  29  30
ATOM     30  N   UNL     1       3.335  -7.697  10.805  1.00  0.00    -0.352 N 
ATOM     31  C   UNL     1       3.760  -7.683  12.108  1.00  0.00     0.251 C 
ATOM     32  H   UNL     1       2.882  -8.523  10.518  1.00  0.00     0.163 HD
ATOM     33  O   UNL     1       3.820  -8.737  12.736  1.00  0.00    -0.269 OA
BRANCH  31  34
ATOM     34  C   UNL     1       4.150  -6.406  12.743  1.00  0.00     0.039 A 
ATOM     35  C   UNL     1       5.242  -6.391  13.612  1.00  0.00     0.014 A 
ATOM     36  C   UNL     1       3.419  -5.236  12.513  1.00  0.00     0.014 A 
ATOM     37  C   UNL     1       5.614  -5.197  14.233  1.00  0.00     0.010 A 
ATOM     38  C   UNL     1       3.845  -4.031  13.062  1.00  0.00     0.010 A 
ATOM     39  C   UNL     1       4.928  -4.003  13.952  1.00  0.00    -0.014 A 
BRANCH  39  40
ATOM     40  C   UNL     1       5.300  -2.734  14.628  1.00  0.00     0.031 A 
ATOM     41  C   UNL     1       4.315  -2.056  15.546  1.00  0.00     0.074 A 
ATOM     42  C   UNL     1       6.508  -2.184  14.401  1.00  0.00     0.049 A 
ATOM     43  N   UNL     1       4.438  -0.936  16.211  1.00  0.00    -0.248 NA
ATOM     44  C   UNL     1       3.008  -2.710  15.711  1.00  0.00     0.031 C 
ATOM     45  C   UNL     1       7.529  -2.729  13.503  1.00  0.00     0.029 A 
ATOM     46  N   UNL     1       7.087  -1.048  14.909  1.00  0.00    -0.354 N 
ATOM     47  C   UNL     1       3.224  -0.748  16.864  1.00  0.00     0.074 A 
ATOM     48  C   UNL     1       2.355  -1.828  16.451  1.00  0.00     0.031 C 
ATOM     49  C   UNL     1       8.621  -1.949  13.554  1.00  0.00     0.029 A 
ATOM     50  C   UNL     1       8.364  -0.825  14.449  1.00  0.00     0.049 A 
ATOM     51  H   UNL     1       6.630  -0.449  15.542  1.00  0.00     0.167 HD
ATOM     52  C   UNL     1       2.876   0.217  17.751  1.00  0.00     0.034 A 
ATOM     53  C   UNL     1       9.228   0.173  14.717  1.00  0.00     0.034 A 
ATOM     54  C   UNL     1       3.761   1.281  18.159  1.00  0.00     0.049 A 
ATOM     55  C   UNL     1       8.812   1.247  15.692  1.00  0.00     0.074 A 
ATOM     56  C   UNL     1       3.530   2.291  19.077  1.00  0.00     0.029 A 
ATOM     57  N   UNL     1       5.047   1.478  17.670  1.00  0.00    -0.354 N 
ATOM     58  N   UNL     1       7.676   1.385  16.338  1.00  0.00    -0.248 NA
ATOM     59  C   UNL     1       9.803   2.287  15.987  1.00  0.00     0.031 C 
ATOM     60  C   UNL     1       4.644   3.139  19.087  1.00  0.00     0.029 A 
ATOM     61  C   UNL     1       5.609   2.608  18.245  1.00  0.00     0.049 A 
ATOM     62  H   UNL     1       5.494   0.900  17.011  1.00  0.00     0.167 HD
ATOM     63  C   UNL     1       7.835   2.508  17.147  1.00  0.00     0.074 A 
ATOM     64  C   UNL     1       9.182   2.991  16.921  1.00  0.00     0.031 C 
ATOM     65  C   UNL     1       6.951   3.087  18.002  1.00  0.00     0.034 A 
BRANCH  52  66
ATOM     66  C   UNL     1       1.472   0.173  18.312  1.00  0.00     0.023 A 
ATOM     67  C   UNL     1       1.008  -0.922  19.064  1.00  0.00     0.031 A 
ATOM     68  C   UNL     1       0.571   1.224  18.064  1.00  0.00     0.131 A 
ATOM     69  C   UNL     1      -0.335  -0.980  19.466  1.00  0.00     0.055 A 
ATOM     70  C   UNL     1      -0.740   1.202  18.547  1.00  0.00     0.041 A 
ATOM     71  F   UNL     1       0.943   2.286  17.332  1.00  0.00    -0.206 F 
ATOM     72  C   UNL     1      -1.205   0.087  19.238  1.00  0.00     0.022 A 
BRANCH  69  73
ATOM     73  S   UNL     1      -0.968  -2.538  20.146  1.00  0.00     0.124 S 
ATOM     74  O   UNL     1      -0.698  -3.468  19.052  1.00  0.00    -0.237 OA
ATOM     75  O   UNL     1      -0.159  -2.711  21.346  1.00  0.00    -0.237 OA
ATOM     76  O   UNL     1      -2.384  -2.259  20.381  1.00  0.00    -0.744 OA
ENDBRANCH  69  73
ENDBRANCH  52  66
BRANCH  53  77
ATOM     77  C   UNL     1      10.570   0.213  14.065  1.00  0.00     0.023 A 
ATOM     78  C   UNL     1      11.749   0.131  14.823  1.00  0.00     0.031 A 
ATOM     79  C   UNL     1      10.693   0.389  12.675  1.00  0.00     0.131 A 
ATOM     80  C   UNL     1      12.996   0.282  14.198  1.00  0.00     0.055 A 
ATOM     81  C   UNL     1      11.938   0.477  12.049  1.00  0.00     0.041 A 
ATOM     82  F   UNL     1       9.599   0.470  11.900  1.00  0.00    -0.206 F 
ATOM     83  C   UNL     1      13.099   0.440  12.814  1.00  0.00     0.022 A 
BRANCH  80  84
ATOM     84  S   UNL     1      14.482   0.372  15.234  1.00  0.00     0.124 S 
ATOM     85  O   UNL     1      14.172   1.504  16.099  1.00  0.00    -0.237 OA
ATOM     86  O   UNL     1      14.487  -0.941  15.871  1.00  0.00    -0.237 OA
ATOM     87  O   UNL     1      15.556   0.599  14.269  1.00  0.00    -0.744 OA
ENDBRANCH  80  84
ENDBRANCH  53  77
BRANCH  65  88
ATOM     88  C   UNL     1       7.444   4.277  18.793  1.00  0.00     0.023 A 
ATOM     89  C   UNL     1       7.846   5.470  18.167  1.00  0.00     0.031 A 
ATOM     90  C   UNL     1       7.557   4.198  20.193  1.00  0.00     0.131 A 
ATOM     91  C   UNL     1       8.424   6.498  18.927  1.00  0.00     0.055 A 
ATOM     92  C   UNL     1       8.055   5.258  20.952  1.00  0.00     0.041 A 
ATOM     93  F   UNL     1       7.192   3.084  20.848  1.00  0.00    -0.206 F 
ATOM     94  C   UNL     1       8.512   6.408  20.317  1.00  0.00     0.022 A 
BRANCH  91  95
ATOM     95  S   UNL     1       9.193   7.892  18.056  1.00  0.00     0.124 S 
ATOM     96  O   UNL     1      10.133   7.213  17.170  1.00  0.00    -0.237 OA
ATOM     97  O   UNL     1       8.049   8.523  17.407  1.00  0.00    -0.237 OA
ATOM     98  O   UNL     1       9.805   8.671  19.131  1.00  0.00    -0.744 OA
ENDBRANCH  91  95
ENDBRANCH  65  88
ENDBRANCH  39  40
ENDBRANCH  31  34
ENDBRANCH  29  30
ENDBRANCH  28  29
ENDBRANCH  27  28
ENDBRANCH   1  27
TORSDOF 20
