REMARK SMILES CC(=O)N[C@H]1[C@@H](O[C@H](C)C(=O)NCCCCCCNC(=O)c2ccc(-c3c4nc(c(-c5cc(S(=O)(=O)[O-])ccc5F)c5ccc([nH]5)c(-c5cc(S(=O)(=O)[O-])ccc5F)c5nc(c(-c6cc(S(=O)(=O)[O-])ccc6F)c6ccc3[nH]6)C=C5)C=C4)cc2)[C@H]2OC(C)(C)OC[C@@H]2O[C@H]1Sc1ccc(Cl)cc1
REMARK SMILES IDX 15 1 14 2 13 3 12 4 10 5 11 6 8 8 9 9 7 10 6 11 5 12 94 13
REMARK SMILES IDX 85 14 93 15 86 16 92 17 87 18 91 19 88 20 89 21 90 22 4 23
REMARK SMILES IDX 1 24 2 25 3 26 95 28 96 29 97 30 102 31 98 32 101 33 99 34
REMARK SMILES IDX 100 35 16 36 17 37 18 38 19 39 20 40 21 42 22 43 23 44 84 45
REMARK SMILES IDX 24 46 83 47 25 48 26 49 27 50 77 51 28 52 82 53 76 54 78 55
REMARK SMILES IDX 29 56 81 57 75 58 74 59 30 61 62 62 42 63 61 64 43 65 46 66
REMARK SMILES IDX 60 67 79 68 44 69 45 70 59 72 80 73 47 74 31 75 32 76 40 77
REMARK SMILES IDX 33 78 39 79 41 80 38 81 34 82 35 83 36 84 37 85 63 86 64 87
REMARK SMILES IDX 72 88 65 89 71 90 73 91 70 92 66 93 67 94 68 95 69 96 48 97
REMARK SMILES IDX 49 98 57 99 50 100 56 101 58 102 55 103 51 104 52 105 53 106
REMARK SMILES IDX 54 107
REMARK H PARENT 12 7 4 27 19 41 78 60 46 71
REMARK Flexibility Score: inf
ROOT
ATOM      1  C   UNL     1       3.216  -0.743   0.823  1.00  0.00     0.002 C 
ENDROOT
BRANCH   1   2
ATOM      2  C   UNL     1       2.238  -0.810  -0.370  1.00  0.00     0.021 C 
BRANCH   2   3
ATOM      3  C   UNL     1       1.877  -2.226  -0.903  1.00  0.00     0.116 C 
BRANCH   3   4
ATOM      4  N   UNL     1       0.632  -2.424  -1.716  1.00  0.00    -0.354 N 
ATOM      5  C   UNL     1       0.098  -3.264  -2.685  1.00  0.00     0.248 C 
ATOM      6  O   UNL     1      -0.979  -3.756  -2.291  1.00  0.00    -0.272 OA
ATOM      7  H   UNL     1      -0.025  -1.726  -1.488  1.00  0.00     0.163 HD
BRANCH   5   8
ATOM      8  C   UNL     1       0.561  -3.614  -4.287  1.00  0.00     0.204 C 
ATOM      9  C   UNL     1      -0.699  -4.025  -5.093  1.00  0.00     0.049 C 
BRANCH   8  10
ATOM     10  O   UNL     1       1.169  -2.816  -5.320  1.00  0.00    -0.360 OA
BRANCH  10  11
ATOM     11  C   UNL     1       2.578  -2.536  -5.399  1.00  0.00     0.177 C 
ATOM     12  C   UNL     1       2.967  -2.194  -3.970  1.00  0.00     0.153 C 
ATOM     13  C   UNL     1       2.008  -0.806  -3.738  1.00  0.00     0.206 C 
ATOM     14  C   UNL     1       2.875  -1.399  -6.408  1.00  0.00     0.184 C 
ATOM     15  O   UNL     1       2.532   0.201  -4.655  1.00  0.00    -0.356 OA
ATOM     16  O   UNL     1       2.419  -1.778  -7.704  1.00  0.00    -0.342 OA
ATOM     17  C   UNL     1       2.145  -0.160  -5.962  1.00  0.00     0.177 C 
ATOM     18  C   UNL     1       2.403  -0.720  -8.670  1.00  0.00     0.163 C 
ATOM     19  C   UNL     1       2.331   0.951  -6.962  1.00  0.00     0.198 C 
ATOM     20  C   UNL     1       1.466  -1.212  -9.773  1.00  0.00     0.075 C 
ATOM     21  C   UNL     1       3.797  -0.471  -9.239  1.00  0.00     0.075 C 
ATOM     22  O   UNL     1       1.818   0.505  -8.211  1.00  0.00    -0.348 OA
BRANCH  12  23
ATOM     23  N   UNL     1       3.033  -3.653  -3.378  1.00  0.00    -0.347 N 
ATOM     24  C   UNL     1       3.867  -4.598  -1.145  1.00  0.00     0.114 C 
ATOM     25  C   UNL     1       3.302  -4.646  -2.521  1.00  0.00     0.217 C 
ATOM     26  O   UNL     1       3.004  -5.764  -2.971  1.00  0.00    -0.275 OA
ATOM     27  H   UNL     1       2.594  -4.157  -4.101  1.00  0.00     0.163 HD
ENDBRANCH  12  23
BRANCH  13  28
ATOM     28  S   UNL     1       0.085  -0.142  -3.412  1.00  0.00    -0.092 SA
BRANCH  28  29
ATOM     29  C   UNL     1      -1.231  -0.758  -4.484  1.00  0.00     0.010 A 
ATOM     30  C   UNL     1      -1.393  -0.452  -5.843  1.00  0.00     0.016 A 
ATOM     31  C   UNL     1      -2.322  -1.413  -3.870  1.00  0.00     0.016 A 
ATOM     32  C   UNL     1      -2.477  -0.955  -6.594  1.00  0.00     0.021 A 
ATOM     33  C   UNL     1      -3.419  -1.903  -4.605  1.00  0.00     0.021 A 
ATOM     34  C   UNL     1      -3.471  -1.705  -5.977  1.00  0.00     0.041 A 
ATOM     35  Cl  UNL     1      -4.756  -2.377  -6.903  1.00  0.00    -0.084 Cl
ENDBRANCH  28  29
ENDBRANCH  13  28
ENDBRANCH  10  11
ENDBRANCH   8  10
ENDBRANCH   5   8
ENDBRANCH   3   4
ENDBRANCH   2   3
ENDBRANCH   1   2
BRANCH   1  36
ATOM     36  C   UNL     1       4.465  -1.634   0.789  1.00  0.00     0.002 C 
BRANCH  36  37
ATOM     37  C   UNL     1       5.487  -1.405  -0.337  1.00  0.00     0.021 C 
BRANCH  37  38
ATOM     38  C   UNL     1       6.216  -0.060  -0.333  1.00  0.00     0.116 C 
BRANCH  38  39
ATOM     39  N   UNL     1       6.793   0.243   0.967  1.00  0.00    -0.352 N 
ATOM     40  C   UNL     1       8.099   0.223   1.392  1.00  0.00     0.251 C 
ATOM     41  H   UNL     1       6.140   0.505   1.656  1.00  0.00     0.163 HD
ATOM     42  O   UNL     1       8.337   0.185   2.595  1.00  0.00    -0.269 OA
BRANCH  40  43
ATOM     43  C   UNL     1       9.212   0.261   0.417  1.00  0.00     0.039 A 
ATOM     44  C   UNL     1      10.352  -0.519   0.643  1.00  0.00     0.014 A 
ATOM     45  C   UNL     1       9.163   1.124  -0.679  1.00  0.00     0.014 A 
ATOM     46  C   UNL     1      11.416  -0.478  -0.265  1.00  0.00     0.010 A 
ATOM     47  C   UNL     1      10.196   1.119  -1.613  1.00  0.00     0.010 A 
ATOM     48  C   UNL     1      11.332   0.319  -1.416  1.00  0.00    -0.014 A 
BRANCH  48  49
ATOM     49  C   UNL     1      12.413   0.351  -2.436  1.00  0.00     0.031 A 
ATOM     50  C   UNL     1      13.148   1.636  -2.702  1.00  0.00     0.074 A 
ATOM     51  C   UNL     1      12.643  -0.738  -3.196  1.00  0.00     0.049 A 
ATOM     52  N   UNL     1      13.976   1.936  -3.668  1.00  0.00    -0.248 NA
ATOM     53  C   UNL     1      12.879   2.745  -1.774  1.00  0.00     0.031 C 
ATOM     54  C   UNL     1      11.970  -2.030  -3.047  1.00  0.00     0.029 A 
ATOM     55  N   UNL     1      13.486  -0.926  -4.263  1.00  0.00    -0.354 N 
ATOM     56  C   UNL     1      14.305   3.275  -3.484  1.00  0.00     0.074 A 
ATOM     57  C   UNL     1      13.544   3.739  -2.342  1.00  0.00     0.031 C 
ATOM     58  C   UNL     1      12.428  -2.876  -3.982  1.00  0.00     0.029 A 
ATOM     59  C   UNL     1      13.387  -2.176  -4.831  1.00  0.00     0.049 A 
ATOM     60  H   UNL     1      14.103  -0.233  -4.590  1.00  0.00     0.167 HD
ATOM     61  C   UNL     1      15.174   4.039  -4.192  1.00  0.00     0.034 A 
ATOM     62  C   UNL     1      13.979  -2.688  -5.928  1.00  0.00     0.034 A 
ATOM     63  C   UNL     1      15.939   3.544  -5.311  1.00  0.00     0.049 A 
ATOM     64  C   UNL     1      14.925  -1.815  -6.713  1.00  0.00     0.074 A 
ATOM     65  C   UNL     1      16.900   4.201  -6.059  1.00  0.00     0.029 A 
ATOM     66  N   UNL     1      15.824   2.267  -5.847  1.00  0.00    -0.354 N 
ATOM     67  N   UNL     1      15.259  -0.563  -6.502  1.00  0.00    -0.248 NA
ATOM     68  C   UNL     1      15.575  -2.424  -7.881  1.00  0.00     0.031 C 
ATOM     69  C   UNL     1      17.319   3.345  -7.084  1.00  0.00     0.029 A 
ATOM     70  C   UNL     1      16.671   2.129  -6.936  1.00  0.00     0.049 A 
ATOM     71  H   UNL     1      15.228   1.563  -5.504  1.00  0.00     0.167 HD
ATOM     72  C   UNL     1      16.176  -0.242  -7.497  1.00  0.00     0.074 A 
ATOM     73  C   UNL     1      16.353  -1.436  -8.299  1.00  0.00     0.031 C 
ATOM     74  C   UNL     1      16.819   0.931  -7.728  1.00  0.00     0.034 A 
BRANCH  61  75
ATOM     75  C   UNL     1      15.318   5.489  -3.791  1.00  0.00     0.023 A 
ATOM     76  C   UNL     1      15.791   5.860  -2.520  1.00  0.00     0.031 A 
ATOM     77  C   UNL     1      14.947   6.515  -4.678  1.00  0.00     0.131 A 
ATOM     78  C   UNL     1      15.799   7.211  -2.141  1.00  0.00     0.055 A 
ATOM     79  C   UNL     1      15.039   7.864  -4.325  1.00  0.00     0.041 A 
ATOM     80  F   UNL     1      14.471   6.226  -5.899  1.00  0.00    -0.206 F 
ATOM     81  C   UNL     1      15.451   8.218  -3.044  1.00  0.00     0.022 A 
BRANCH  78  82
ATOM     82  S   UNL     1      16.126   7.617  -0.404  1.00  0.00     0.124 S 
ATOM     83  O   UNL     1      15.052   6.896   0.273  1.00  0.00    -0.237 OA
ATOM     84  O   UNL     1      17.471   7.097  -0.205  1.00  0.00    -0.237 OA
ATOM     85  O   UNL     1      16.007   9.076  -0.365  1.00  0.00    -0.744 OA
ENDBRANCH  78  82
ENDBRANCH  61  75
BRANCH  62  86
ATOM     86  C   UNL     1      13.686  -4.083  -6.362  1.00  0.00     0.023 A 
ATOM     87  C   UNL     1      14.686  -5.067  -6.347  1.00  0.00     0.031 A 
ATOM     88  C   UNL     1      12.409  -4.449  -6.825  1.00  0.00     0.131 A 
ATOM     89  C   UNL     1      14.408  -6.357  -6.823  1.00  0.00     0.055 A 
ATOM     90  C   UNL     1      12.123  -5.748  -7.251  1.00  0.00     0.041 A 
ATOM     91  F   UNL     1      11.413  -3.550  -6.855  1.00  0.00    -0.206 F 
ATOM     92  C   UNL     1      13.129  -6.708  -7.263  1.00  0.00     0.022 A 
BRANCH  89  93
ATOM     93  S   UNL     1      15.767  -7.553  -6.931  1.00  0.00     0.124 S 
ATOM     94  O   UNL     1      16.709  -6.854  -7.797  1.00  0.00    -0.237 OA
ATOM     95  O   UNL     1      16.159  -7.691  -5.533  1.00  0.00    -0.237 OA
ATOM     96  O   UNL     1      15.135  -8.733  -7.519  1.00  0.00    -0.744 OA
ENDBRANCH  89  93
ENDBRANCH  62  86
BRANCH  74  97
ATOM     97  C   UNL     1      17.794   0.961  -8.877  1.00  0.00     0.023 A 
ATOM     98  C   UNL     1      17.361   0.894 -10.211  1.00  0.00     0.031 A 
ATOM     99  C   UNL     1      19.175   1.065  -8.630  1.00  0.00     0.131 A 
ATOM    100  C   UNL     1      18.303   0.891 -11.250  1.00  0.00     0.055 A 
ATOM    101  C   UNL     1      20.103   1.115  -9.669  1.00  0.00     0.041 A 
ATOM    102  F   UNL     1      19.640   1.129  -7.372  1.00  0.00    -0.206 F 
ATOM    103  C   UNL     1      19.670   1.019 -10.989  1.00  0.00     0.022 A 
BRANCH 100 104
ATOM    104  S   UNL     1      17.721   0.653 -12.951  1.00  0.00     0.124 S 
ATOM    105  O   UNL     1      17.116  -0.672 -12.881  1.00  0.00    -0.237 OA
ATOM    106  O   UNL     1      16.796   1.768 -13.125  1.00  0.00    -0.237 OA
ATOM    107  O   UNL     1      18.945   0.736 -13.747  1.00  0.00    -0.744 OA
ENDBRANCH 100 104
ENDBRANCH  74  97
ENDBRANCH  48  49
ENDBRANCH  40  43
ENDBRANCH  38  39
ENDBRANCH  37  38
ENDBRANCH  36  37
ENDBRANCH   1  36
TORSDOF 21
