REMARK SMILES O=C(C[C@@H]1CN(C(=O)[C@H]2C[C@H](O)C[NH2+]2)CCO1)NCCCCCCNC(=O)c1ccc(-c2c3nc(c(-c4cc(S(=O)(=O)[O-])ccc4F)c4ccc([nH]4)c(-c4cc(S(=O)(=O)[O-])ccc4F)c4nc(c(-c5cc(S(=O)(=O)[O-])ccc5F)c5ccc2[nH]5)C=C4)C=C3)cc1
REMARK SMILES IDX 21 1 20 2 19 3 18 4 1 5 2 6 3 8 4 9 5 10 17 11 6 12 16 13
REMARK SMILES IDX 15 14 7 15 8 16 9 17 10 18 14 19 11 20 13 21 12 24 22 26
REMARK SMILES IDX 23 27 24 28 25 29 26 30 27 32 28 33 29 34 90 35 30 36 89 37
REMARK SMILES IDX 31 38 32 39 33 40 83 41 34 42 88 43 82 44 84 45 35 46 87 47
REMARK SMILES IDX 81 48 80 49 36 51 68 52 48 53 67 54 49 55 52 56 66 57 85 58
REMARK SMILES IDX 50 59 51 60 65 62 86 63 53 64 37 65 38 66 46 67 39 68 45 69
REMARK SMILES IDX 47 70 44 71 40 72 41 73 42 74 43 75 69 76 70 77 78 78 71 79
REMARK SMILES IDX 77 80 79 81 76 82 72 83 73 84 74 85 75 86 54 87 55 88 63 89
REMARK SMILES IDX 56 90 62 91 64 92 61 93 57 94 58 95 59 96 60 97
REMARK H PARENT 18 7 14 22 14 23 12 25 25 31 84 50 52 61
REMARK Flexibility Score: inf
ROOT
ATOM      1  C   UNL     1       3.989  -1.626  -3.775  1.00  0.00     0.002 C 
ENDROOT
BRANCH   1   2
ATOM      2  C   UNL     1       2.546  -1.136  -3.604  1.00  0.00     0.021 C 
BRANCH   2   3
ATOM      3  C   UNL     1       2.011  -1.125  -2.169  1.00  0.00     0.116 C 
BRANCH   3   4
ATOM      4  N   UNL     1       2.736  -0.236  -1.275  1.00  0.00    -0.356 N 
ATOM      5  O   UNL     1       1.141  -0.342   0.366  1.00  0.00    -0.275 OA
ATOM      6  C   UNL     1       2.208   0.102  -0.049  1.00  0.00     0.222 C 
ATOM      7  H   UNL     1       3.609   0.127  -1.548  1.00  0.00     0.163 HD
BRANCH   6   8
ATOM      8  C   UNL     1       3.056   1.028   0.795  1.00  0.00     0.133 C 
BRANCH   8   9
ATOM      9  C   UNL     1       3.857   0.330   1.908  1.00  0.00     0.147 C 
ATOM     10  C   UNL     1       3.420  -1.118   2.226  1.00  0.00     0.152 C 
ATOM     11  O   UNL     1       3.763   1.156   3.091  1.00  0.00    -0.374 OA
ATOM     12  N   UNL     1       4.136  -1.674   3.379  1.00  0.00    -0.333 N 
ATOM     13  C   UNL     1       4.541   0.622   4.172  1.00  0.00     0.182 C 
ATOM     14  C   UNL     1       4.087  -0.790   4.546  1.00  0.00     0.148 C 
BRANCH  12  15
ATOM     15  C   UNL     1       4.636  -2.958   3.549  1.00  0.00     0.281 C 
ATOM     16  O   UNL     1       5.006  -3.339   4.668  1.00  0.00    -0.268 OA
BRANCH  15  17
ATOM     17  C   UNL     1       4.799  -3.940   2.363  1.00  0.00     0.275 C 
ATOM     18  C   UNL     1       3.522  -4.533   1.788  1.00  0.00     0.113 C 
ATOM     19  N   UNL     1       5.604  -3.360   1.271  1.00  0.00    -0.334 N 
ATOM     20  C   UNL     1       3.448  -4.030   0.361  1.00  0.00     0.175 C 
ATOM     21  C   UNL     1       4.873  -3.580   0.028  1.00  0.00     0.293 C 
ATOM     22  H   UNL     1       6.514  -3.819   1.226  1.00  0.00     0.347 HD
ATOM     23  H   UNL     1       5.760  -2.364   1.427  1.00  0.00     0.347 HD
BRANCH  20  24
ATOM     24  O   UNL     1       2.964  -5.024  -0.529  1.00  0.00    -0.387 OA
ATOM     25  H   UNL     1       3.546  -5.799  -0.495  1.00  0.00     0.211 HD
ENDBRANCH  20  24
ENDBRANCH  15  17
ENDBRANCH  12  15
ENDBRANCH   8   9
ENDBRANCH   6   8
ENDBRANCH   3   4
ENDBRANCH   2   3
ENDBRANCH   1   2
BRANCH   1  26
ATOM     26  C   UNL     1       4.255  -3.045  -3.280  1.00  0.00     0.002 C 
BRANCH  26  27
ATOM     27  C   UNL     1       3.569  -4.183  -4.021  1.00  0.00     0.021 C 
BRANCH  27  28
ATOM     28  C   UNL     1       3.953  -4.325  -5.483  1.00  0.00     0.116 C 
BRANCH  28  29
ATOM     29  N   UNL     1       5.364  -4.630  -5.683  1.00  0.00    -0.352 N 
ATOM     30  C   UNL     1       5.941  -5.619  -6.448  1.00  0.00     0.251 C 
ATOM     31  H   UNL     1       5.995  -4.046  -5.204  1.00  0.00     0.163 HD
ATOM     32  O   UNL     1       7.156  -5.794  -6.407  1.00  0.00    -0.269 OA
BRANCH  30  33
ATOM     33  C   UNL     1       5.085  -6.495  -7.281  1.00  0.00     0.039 A 
ATOM     34  C   UNL     1       5.302  -7.876  -7.271  1.00  0.00     0.014 A 
ATOM     35  C   UNL     1       4.035  -5.960  -8.028  1.00  0.00     0.014 A 
ATOM     36  C   UNL     1       4.407  -8.724  -7.934  1.00  0.00     0.010 A 
ATOM     37  C   UNL     1       3.092  -6.807  -8.597  1.00  0.00     0.010 A 
ATOM     38  C   UNL     1       3.265  -8.200  -8.559  1.00  0.00    -0.014 A 
BRANCH  38  39
ATOM     39  C   UNL     1       2.241  -9.064  -9.208  1.00  0.00     0.031 A 
ATOM     40  C   UNL     1       1.937  -8.870 -10.671  1.00  0.00     0.074 A 
ATOM     41  C   UNL     1       1.514  -9.931  -8.473  1.00  0.00     0.049 A 
ATOM     42  N   UNL     1       0.957  -9.355 -11.387  1.00  0.00    -0.248 NA
ATOM     43  C   UNL     1       2.831  -7.966 -11.414  1.00  0.00     0.031 C 
ATOM     44  C   UNL     1       1.682 -10.180  -7.039  1.00  0.00     0.029 A 
ATOM     45  N   UNL     1       0.469 -10.749  -8.826  1.00  0.00    -0.354 N 
ATOM     46  C   UNL     1       1.085  -8.776 -12.646  1.00  0.00     0.074 A 
ATOM     47  C   UNL     1       2.211  -7.871 -12.580  1.00  0.00     0.031 C 
ATOM     48  C   UNL     1       0.786 -11.099  -6.642  1.00  0.00     0.029 A 
ATOM     49  C   UNL     1      -0.057 -11.467  -7.775  1.00  0.00     0.049 A 
ATOM     50  H   UNL     1       0.126 -10.815  -9.747  1.00  0.00     0.167 HD
ATOM     51  C   UNL     1       0.342  -8.994 -13.759  1.00  0.00     0.034 A 
ATOM     52  C   UNL     1      -1.110 -12.308  -7.727  1.00  0.00     0.034 A 
ATOM     53  C   UNL     1      -0.733  -9.950 -13.827  1.00  0.00     0.049 A 
ATOM     54  C   UNL     1      -1.897 -12.562  -8.991  1.00  0.00     0.074 A 
ATOM     55  C   UNL     1      -1.492 -10.316 -14.924  1.00  0.00     0.029 A 
ATOM     56  N   UNL     1      -1.194 -10.702 -12.755  1.00  0.00    -0.354 N 
ATOM     57  N   UNL     1      -1.733 -12.037 -10.185  1.00  0.00    -0.248 NA
ATOM     58  C   UNL     1      -3.003 -13.525  -8.906  1.00  0.00     0.031 C 
ATOM     59  C   UNL     1      -2.444 -11.252 -14.506  1.00  0.00     0.029 A 
ATOM     60  C   UNL     1      -2.237 -11.517 -13.162  1.00  0.00     0.049 A 
ATOM     61  H   UNL     1      -0.833 -10.662 -11.840  1.00  0.00     0.167 HD
ATOM     62  C   UNL     1      -2.687 -12.643 -10.998  1.00  0.00     0.074 A 
ATOM     63  C   UNL     1      -3.418 -13.573 -10.163  1.00  0.00     0.031 C 
ATOM     64  C   UNL     1      -2.937 -12.453 -12.317  1.00  0.00     0.034 A 
BRANCH  51  65
ATOM     65  C   UNL     1       0.659  -8.174 -14.984  1.00  0.00     0.023 A 
ATOM     66  C   UNL     1       1.889  -8.287 -15.655  1.00  0.00     0.031 A 
ATOM     67  C   UNL     1      -0.283  -7.258 -15.485  1.00  0.00     0.131 A 
ATOM     68  C   UNL     1       2.170  -7.449 -16.744  1.00  0.00     0.055 A 
ATOM     69  C   UNL     1      -0.027  -6.483 -16.617  1.00  0.00     0.041 A 
ATOM     70  F   UNL     1      -1.468  -7.093 -14.874  1.00  0.00    -0.206 F 
ATOM     71  C   UNL     1       1.211  -6.567 -17.247  1.00  0.00     0.022 A 
BRANCH  68  72
ATOM     72  S   UNL     1       3.852  -7.446 -17.421  1.00  0.00     0.124 S 
ATOM     73  O   UNL     1       4.626  -6.964 -16.280  1.00  0.00    -0.237 OA
ATOM     74  O   UNL     1       4.052  -8.845 -17.782  1.00  0.00    -0.237 OA
ATOM     75  O   UNL     1       3.767  -6.517 -18.546  1.00  0.00    -0.744 OA
ENDBRANCH  68  72
ENDBRANCH  51  65
BRANCH  52  76
ATOM     76  C   UNL     1      -1.506 -12.971  -6.450  1.00  0.00     0.023 A 
ATOM     77  C   UNL     1      -1.455 -14.369  -6.321  1.00  0.00     0.031 A 
ATOM     78  C   UNL     1      -2.010 -12.229  -5.368  1.00  0.00     0.131 A 
ATOM     79  C   UNL     1      -1.961 -14.986  -5.166  1.00  0.00     0.055 A 
ATOM     80  C   UNL     1      -2.458 -12.844  -4.196  1.00  0.00     0.041 A 
ATOM     81  F   UNL     1      -2.076 -10.890  -5.434  1.00  0.00    -0.206 F 
ATOM     82  C   UNL     1      -2.452 -14.232  -4.098  1.00  0.00     0.022 A 
BRANCH  79  83
ATOM     83  S   UNL     1      -2.077 -16.796  -5.131  1.00  0.00     0.124 S 
ATOM     84  O   UNL     1      -2.849 -17.068  -6.339  1.00  0.00    -0.237 OA
ATOM     85  O   UNL     1      -0.672 -17.188  -5.166  1.00  0.00    -0.237 OA
ATOM     86  O   UNL     1      -2.769 -17.068  -3.873  1.00  0.00    -0.744 OA
ENDBRANCH  79  83
ENDBRANCH  52  76
BRANCH  64  87
ATOM     87  C   UNL     1      -3.989 -13.324 -12.952  1.00  0.00     0.023 A 
ATOM     88  C   UNL     1      -5.354 -13.174 -12.656  1.00  0.00     0.031 A 
ATOM     89  C   UNL     1      -3.612 -14.313 -13.877  1.00  0.00     0.131 A 
ATOM     90  C   UNL     1      -6.292 -14.032 -13.248  1.00  0.00     0.055 A 
ATOM     91  C   UNL     1      -4.555 -15.130 -14.502  1.00  0.00     0.041 A 
ATOM     92  F   UNL     1      -2.320 -14.495 -14.194  1.00  0.00    -0.206 F 
ATOM     93  C   UNL     1      -5.903 -14.998 -14.181  1.00  0.00     0.022 A 
BRANCH  90  94
ATOM     94  S   UNL     1      -8.028 -13.911 -12.739  1.00  0.00     0.124 S 
ATOM     95  O   UNL     1      -7.947 -14.206 -11.312  1.00  0.00    -0.237 OA
ATOM     96  O   UNL     1      -8.361 -12.533 -13.086  1.00  0.00    -0.237 OA
ATOM     97  O   UNL     1      -8.695 -14.930 -13.546  1.00  0.00    -0.744 OA
ENDBRANCH  90  94
ENDBRANCH  64  87
ENDBRANCH  38  39
ENDBRANCH  30  33
ENDBRANCH  28  29
ENDBRANCH  27  28
ENDBRANCH  26  27
ENDBRANCH   1  26
TORSDOF 20
