REMARK SMILES COc1ccc(C(=O)Nc2ccccc2C(=O)N[C@@H](C(=O)NCCCCCCNC(=O)c2ccc(-c3c4nc(c(-c5cc(S(=O)(=O)[O-])ccc5F)c5ccc([nH]5)c(-c5cc(S(=O)(=O)[O-])ccc5F)c5nc(c(-c6cc(S(=O)(=O)[O-])ccc6F)c6ccc3[nH]6)C=C5)C=C4)cc2)C(C)C)cc1
REMARK SMILES IDX 24 1 23 2 22 3 20 4 21 5 19 7 18 8 16 9 17 10 15 12 10 13
REMARK SMILES IDX 11 14 12 15 14 16 13 17 9 18 7 19 8 20 6 22 3 23 4 24 99 25
REMARK SMILES IDX 5 26 98 27 2 28 1 29 95 30 96 31 97 32 25 33 26 34 27 35
REMARK SMILES IDX 28 36 29 37 30 38 31 40 32 41 33 42 94 43 34 44 93 45 35 46
REMARK SMILES IDX 36 47 37 48 87 49 38 50 92 51 86 52 88 53 39 54 91 55 85 56
REMARK SMILES IDX 84 57 40 59 72 60 52 61 71 62 53 63 56 64 70 65 89 66 54 67
REMARK SMILES IDX 55 68 69 70 90 71 57 72 41 73 42 74 50 75 43 76 49 77 51 78
REMARK SMILES IDX 48 79 44 80 45 81 46 82 47 83 73 84 74 85 82 86 75 87 81 88
REMARK SMILES IDX 83 89 80 90 76 91 77 92 78 93 79 94 58 95 59 96 67 97 60 98
REMARK SMILES IDX 66 99 68 100 65 101 61 102 62 103 63 104 64 105
REMARK H PARENT 22 6 18 11 9 21 29 39 88 58 56 69
REMARK Flexibility Score: inf
ROOT
ATOM      1  C   UNL     1       5.413   7.190   3.730  1.00  0.00     0.021 C 
ENDROOT
BRANCH   1   2
ATOM      2  C   UNL     1       4.998   6.556   5.060  1.00  0.00     0.116 C 
BRANCH   2   3
ATOM      3  N   UNL     1       3.794   7.189   5.535  1.00  0.00    -0.354 N 
ATOM      4  C   UNL     1       2.515   6.775   5.365  1.00  0.00     0.242 C 
ATOM      5  O   UNL     1       1.665   7.671   5.312  1.00  0.00    -0.273 OA
ATOM      6  H   UNL     1       3.916   8.023   6.043  1.00  0.00     0.163 HD
BRANCH   4   7
ATOM      7  C   UNL     1       2.153   5.256   5.234  1.00  0.00     0.174 C 
BRANCH   7   8
ATOM      8  N   UNL     1       2.318   4.887   3.816  1.00  0.00    -0.340 N 
ATOM      9  C   UNL     1       3.300   4.273   3.055  1.00  0.00     0.254 C 
ATOM     10  O   UNL     1       3.242   4.526   1.846  1.00  0.00    -0.269 OA
ATOM     11  H   UNL     1       1.536   5.140   3.274  1.00  0.00     0.164 HD
BRANCH   9  12
ATOM     12  C   UNL     1       4.430   3.380   3.515  1.00  0.00     0.063 A 
ATOM     13  C   UNL     1       4.521   2.633   4.698  1.00  0.00     0.054 A 
ATOM     14  C   UNL     1       5.736   2.015   5.069  1.00  0.00     0.027 A 
ATOM     15  C   UNL     1       6.804   1.948   4.179  1.00  0.00     0.002 A 
ATOM     16  C   UNL     1       5.524   3.271   2.621  1.00  0.00     0.016 A 
ATOM     17  C   UNL     1       6.678   2.537   2.931  1.00  0.00     0.001 A 
BRANCH  13  18
ATOM     18  N   UNL     1       3.436   2.246   5.496  1.00  0.00    -0.321 N 
ATOM     19  C   UNL     1       2.339   1.530   5.059  1.00  0.00     0.255 C 
ATOM     20  O   UNL     1       1.572   1.030   5.878  1.00  0.00    -0.269 OA
ATOM     21  H   UNL     1       3.457   2.506   6.445  1.00  0.00     0.170 HD
BRANCH  19  22
ATOM     22  C   UNL     1       2.115   1.280   3.620  1.00  0.00     0.040 A 
ATOM     23  C   UNL     1       1.567   0.825   0.923  1.00  0.00     0.118 A 
ATOM     24  C   UNL     1       0.912   1.845   1.594  1.00  0.00     0.047 A 
ATOM     25  C   UNL     1       2.532   0.057   1.585  1.00  0.00     0.047 A 
ATOM     26  C   UNL     1       1.167   2.043   2.942  1.00  0.00     0.017 A 
ATOM     27  C   UNL     1       2.809   0.281   2.940  1.00  0.00     0.017 A 
BRANCH  23  28
ATOM     28  O   UNL     1       1.210   0.676  -0.387  1.00  0.00    -0.497 OA
ATOM     29  C   UNL     1       1.115  -0.681  -0.800  1.00  0.00     0.278 C 
ENDBRANCH  23  28
ENDBRANCH  19  22
ENDBRANCH  13  18
ENDBRANCH   9  12
ENDBRANCH   7   8
BRANCH   7  30
ATOM     30  C   UNL     1       0.666   5.181   5.777  1.00  0.00     0.015 C 
ATOM     31  C   UNL     1      -0.211   3.978   5.458  1.00  0.00     0.010 C 
ATOM     32  C   UNL     1       0.671   5.346   7.306  1.00  0.00     0.010 C 
ENDBRANCH   7  30
ENDBRANCH   4   7
ENDBRANCH   2   3
ENDBRANCH   1   2
BRANCH   1  33
ATOM     33  C   UNL     1       5.968   8.613   3.898  1.00  0.00     0.002 C 
BRANCH  33  34
ATOM     34  C   UNL     1       7.265   8.687   4.710  1.00  0.00     0.002 C 
BRANCH  34  35
ATOM     35  C   UNL     1       8.438   7.920   4.096  1.00  0.00     0.021 C 
BRANCH  35  36
ATOM     36  C   UNL     1       8.846   8.408   2.708  1.00  0.00     0.116 C 
BRANCH  36  37
ATOM     37  N   UNL     1       9.254   9.805   2.730  1.00  0.00    -0.352 N 
ATOM     38  C   UNL     1      10.457  10.366   2.378  1.00  0.00     0.251 C 
ATOM     39  H   UNL     1       8.569  10.439   3.043  1.00  0.00     0.163 HD
ATOM     40  O   UNL     1      10.710  11.522   2.696  1.00  0.00    -0.269 OA
BRANCH  38  41
ATOM     41  C   UNL     1      11.444   9.559   1.632  1.00  0.00     0.039 A 
ATOM     42  C   UNL     1      12.780   9.573   2.040  1.00  0.00     0.014 A 
ATOM     43  C   UNL     1      11.047   8.787   0.536  1.00  0.00     0.014 A 
ATOM     44  C   UNL     1      13.705   8.752   1.392  1.00  0.00     0.010 A 
ATOM     45  C   UNL     1      11.957   7.924  -0.067  1.00  0.00     0.010 A 
ATOM     46  C   UNL     1      13.292   7.891   0.362  1.00  0.00    -0.014 A 
BRANCH  46  47
ATOM     47  C   UNL     1      14.234   6.926  -0.258  1.00  0.00     0.031 A 
ATOM     48  C   UNL     1      14.598   7.051  -1.711  1.00  0.00     0.074 A 
ATOM     49  C   UNL     1      14.698   5.894   0.474  1.00  0.00     0.049 A 
ATOM     50  N   UNL     1      15.323   6.254  -2.453  1.00  0.00    -0.248 NA
ATOM     51  C   UNL     1      14.053   8.213  -2.428  1.00  0.00     0.031 C 
ATOM     52  C   UNL     1      14.378   5.648   1.883  1.00  0.00     0.029 A 
ATOM     53  N   UNL     1      15.521   4.849   0.136  1.00  0.00    -0.354 N 
ATOM     54  C   UNL     1      15.321   6.815  -3.725  1.00  0.00     0.074 A 
ATOM     55  C   UNL     1      14.471   7.986  -3.665  1.00  0.00     0.031 C 
ATOM     56  C   UNL     1      15.005   4.533   2.288  1.00  0.00     0.029 A 
ATOM     57  C   UNL     1      15.731   3.957   1.161  1.00  0.00     0.049 A 
ATOM     58  H   UNL     1      15.922   4.748  -0.757  1.00  0.00     0.167 HD
ATOM     59  C   UNL     1      15.985   6.403  -4.834  1.00  0.00     0.034 A 
ATOM     60  C   UNL     1      16.412   2.794   1.185  1.00  0.00     0.034 A 
ATOM     61  C   UNL     1      16.827   5.231  -4.875  1.00  0.00     0.049 A 
ATOM     62  C   UNL     1      17.107   2.334  -0.070  1.00  0.00     0.074 A 
ATOM     63  C   UNL     1      17.584   4.750  -5.929  1.00  0.00     0.029 A 
ATOM     64  N   UNL     1      17.015   4.349  -3.818  1.00  0.00    -0.354 N 
ATOM     65  N   UNL     1      17.136   2.904  -1.253  1.00  0.00    -0.248 NA
ATOM     66  C   UNL     1      17.865   1.079   0.013  1.00  0.00     0.031 C 
ATOM     67  C   UNL     1      18.175   3.545  -5.532  1.00  0.00     0.029 A 
ATOM     68  C   UNL     1      17.846   3.309  -4.207  1.00  0.00     0.049 A 
ATOM     69  H   UNL     1      16.615   4.448  -2.924  1.00  0.00     0.167 HD
ATOM     70  C   UNL     1      17.933   2.085  -2.048  1.00  0.00     0.074 A 
ATOM     71  C   UNL     1      18.381   0.996  -1.204  1.00  0.00     0.031 C 
ATOM     72  C   UNL     1      18.264   2.219  -3.358  1.00  0.00     0.034 A 
BRANCH  59  73
ATOM     73  C   UNL     1      15.806   7.216  -6.093  1.00  0.00     0.023 A 
ATOM     74  C   UNL     1      16.232   8.554  -6.171  1.00  0.00     0.031 A 
ATOM     75  C   UNL     1      15.187   6.656  -7.224  1.00  0.00     0.131 A 
ATOM     76  C   UNL     1      15.972   9.306  -7.326  1.00  0.00     0.055 A 
ATOM     77  C   UNL     1      15.001   7.388  -8.400  1.00  0.00     0.041 A 
ATOM     78  F   UNL     1      14.741   5.390  -7.204  1.00  0.00    -0.206 F 
ATOM     79  C   UNL     1      15.381   8.726  -8.450  1.00  0.00     0.022 A 
BRANCH  76  80
ATOM     80  S   UNL     1      16.298  11.090  -7.288  1.00  0.00     0.124 S 
ATOM     81  O   UNL     1      15.437  11.523  -6.190  1.00  0.00    -0.237 OA
ATOM     82  O   UNL     1      17.733  11.143  -7.035  1.00  0.00    -0.237 OA
ATOM     83  O   UNL     1      15.880  11.543  -8.614  1.00  0.00    -0.744 OA
ENDBRANCH  76  80
ENDBRANCH  59  73
BRANCH  60  84
ATOM     84  C   UNL     1      16.445   1.964   2.424  1.00  0.00     0.023 A 
ATOM     85  C   UNL     1      17.649   1.723   3.104  1.00  0.00     0.031 A 
ATOM     86  C   UNL     1      15.275   1.362   2.921  1.00  0.00     0.131 A 
ATOM     87  C   UNL     1      17.665   0.864   4.214  1.00  0.00     0.055 A 
ATOM     88  C   UNL     1      15.287   0.552   4.058  1.00  0.00     0.041 A 
ATOM     89  F   UNL     1      14.095   1.563   2.313  1.00  0.00    -0.206 F 
ATOM     90  C   UNL     1      16.491   0.287   4.703  1.00  0.00     0.022 A 
BRANCH  87  91
ATOM     91  S   UNL     1      19.264   0.436   4.957  1.00  0.00     0.124 S 
ATOM     92  O   UNL     1      19.982  -0.119   3.816  1.00  0.00    -0.237 OA
ATOM     93  O   UNL     1      19.728   1.733   5.439  1.00  0.00    -0.237 OA
ATOM     94  O   UNL     1      18.907  -0.523   5.999  1.00  0.00    -0.744 OA
ENDBRANCH  87  91
ENDBRANCH  60  84
BRANCH  72  95
ATOM     95  C   UNL     1      19.174   1.166  -3.940  1.00  0.00     0.023 A 
ATOM     96  C   UNL     1      18.747  -0.163  -4.109  1.00  0.00     0.031 A 
ATOM     97  C   UNL     1      20.488   1.493  -4.319  1.00  0.00     0.131 A 
ATOM     98  C   UNL     1      19.643  -1.128  -4.592  1.00  0.00     0.055 A 
ATOM     99  C   UNL     1      21.356   0.541  -4.853  1.00  0.00     0.041 A 
ATOM    100  F   UNL     1      20.948   2.746  -4.176  1.00  0.00    -0.206 F 
ATOM    101  C   UNL     1      20.939  -0.781  -4.981  1.00  0.00     0.022 A 
BRANCH  98 102
ATOM    102  S   UNL     1      19.117  -2.864  -4.626  1.00  0.00     0.124 S 
ATOM    103  O   UNL     1      18.832  -3.122  -3.218  1.00  0.00    -0.237 OA
ATOM    104  O   UNL     1      17.959  -2.823  -5.513  1.00  0.00    -0.237 OA
ATOM    105  O   UNL     1      20.282  -3.565  -5.162  1.00  0.00    -0.744 OA
ENDBRANCH  98 102
ENDBRANCH  72  95
ENDBRANCH  46  47
ENDBRANCH  38  41
ENDBRANCH  36  37
ENDBRANCH  35  36
ENDBRANCH  34  35
ENDBRANCH  33  34
ENDBRANCH   1  33
TORSDOF 22
