REMARK SMILES O=C(NCCCCCCNC(=O)[C@H]1C[C@@H]1C(=O)Nc1ccc(Cl)c(Br)c1)c1ccc(-c2c3nc(c(-c4cc(S(=O)(=O)[O-])ccc4F)c4ccc([nH]4)c(-c4cc(S(=O)(=O)[O-])ccc4F)c4nc(c(-c5cc(S(=O)(=O)[O-])ccc5F)c5ccc2[nH]5)C=C4)C=C3)cc1
REMARK SMILES IDX 6 1 5 2 4 3 3 4 1 5 2 6 27 8 28 9 89 10 29 11 88 12 30 13
REMARK SMILES IDX 31 14 32 15 82 16 33 17 87 18 81 19 83 20 34 21 86 22 80 23
REMARK SMILES IDX 79 24 35 26 67 27 47 28 66 29 48 30 51 31 65 32 84 33 49 34
REMARK SMILES IDX 50 35 64 37 85 38 52 39 36 40 37 41 45 42 38 43 44 44 46 45
REMARK SMILES IDX 43 46 39 47 40 48 41 49 42 50 68 51 69 52 77 53 70 54 76 55
REMARK SMILES IDX 78 56 75 57 71 58 72 59 73 60 74 61 53 62 54 63 62 64 55 65
REMARK SMILES IDX 61 66 63 67 60 68 56 69 57 70 58 71 59 72 7 73 8 74 9 75
REMARK SMILES IDX 10 76 11 77 12 79 13 80 14 81 15 82 16 83 17 84 18 85 19 87
REMARK SMILES IDX 20 88 26 89 21 90 24 91 22 92 25 93 23 94
REMARK H PARENT 3 7 83 25 51 36 10 78 18 86
REMARK Flexibility Score: inf
ROOT
ATOM      1  C   UNL     1      10.570  11.229   5.942  1.00  0.00     0.002 C 
ENDROOT
BRANCH   1   2
ATOM      2  C   UNL     1      11.071  12.147   4.824  1.00  0.00     0.021 C 
BRANCH   2   3
ATOM      3  C   UNL     1      10.201  13.372   4.569  1.00  0.00     0.116 C 
BRANCH   3   4
ATOM      4  N   UNL     1      10.161  14.252   5.723  1.00  0.00    -0.352 N 
ATOM      5  O   UNL     1      10.583  16.121   6.898  1.00  0.00    -0.269 OA
ATOM      6  C   UNL     1      10.445  15.591   5.799  1.00  0.00     0.251 C 
ATOM      7  H   UNL     1       9.893  13.827   6.570  1.00  0.00     0.163 HD
BRANCH   6   8
ATOM      8  C   UNL     1      10.580  16.395   4.565  1.00  0.00     0.039 A 
ATOM      9  C   UNL     1      11.589  17.360   4.495  1.00  0.00     0.014 A 
ATOM     10  C   UNL     1       9.678  16.245   3.506  1.00  0.00     0.014 A 
ATOM     11  C   UNL     1      11.699  18.168   3.362  1.00  0.00     0.010 A 
ATOM     12  C   UNL     1       9.832  17.004   2.350  1.00  0.00     0.010 A 
ATOM     13  C   UNL     1      10.822  17.994   2.280  1.00  0.00    -0.014 A 
BRANCH  13  14
ATOM     14  C   UNL     1      10.887  18.872   1.085  1.00  0.00     0.031 A 
ATOM     15  C   UNL     1       9.739  19.790   0.769  1.00  0.00     0.074 A 
ATOM     16  C   UNL     1      11.943  18.800   0.254  1.00  0.00     0.049 A 
ATOM     17  N   UNL     1       9.571  20.575  -0.262  1.00  0.00    -0.248 NA
ATOM     18  C   UNL     1       8.621  19.809   1.727  1.00  0.00     0.031 C 
ATOM     19  C   UNL     1      13.099  17.928   0.447  1.00  0.00     0.029 A 
ATOM     20  N   UNL     1      12.209  19.457  -0.922  1.00  0.00    -0.354 N 
ATOM     21  C   UNL     1       8.321  21.160  -0.092  1.00  0.00     0.074 A 
ATOM     22  C   UNL     1       7.754  20.602   1.114  1.00  0.00     0.031 C 
ATOM     23  C   UNL     1      13.958  18.113  -0.565  1.00  0.00     0.029 A 
ATOM     24  C   UNL     1      13.392  19.076  -1.510  1.00  0.00     0.049 A 
ATOM     25  H   UNL     1      11.610  20.137  -1.308  1.00  0.00     0.167 HD
ATOM     26  C   UNL     1       7.716  22.092  -0.864  1.00  0.00     0.034 A 
ATOM     27  C   UNL     1      13.953  19.442  -2.682  1.00  0.00     0.034 A 
ATOM     28  C   UNL     1       8.318  22.662  -2.042  1.00  0.00     0.049 A 
ATOM     29  C   UNL     1      13.260  20.473  -3.535  1.00  0.00     0.074 A 
ATOM     30  C   UNL     1       7.832  23.688  -2.831  1.00  0.00     0.029 A 
ATOM     31  N   UNL     1       9.518  22.256  -2.606  1.00  0.00    -0.354 N 
ATOM     32  N   UNL     1      12.129  21.100  -3.309  1.00  0.00    -0.248 NA
ATOM     33  C   UNL     1      13.911  20.854  -4.796  1.00  0.00     0.031 C 
ATOM     34  C   UNL     1       8.689  23.840  -3.920  1.00  0.00     0.029 A 
ATOM     35  C   UNL     1       9.761  22.973  -3.766  1.00  0.00     0.049 A 
ATOM     36  H   UNL     1      10.110  21.561  -2.237  1.00  0.00     0.167 HD
ATOM     37  C   UNL     1      11.938  21.956  -4.389  1.00  0.00     0.074 A 
ATOM     38  C   UNL     1      13.084  21.785  -5.259  1.00  0.00     0.031 C 
ATOM     39  C   UNL     1      10.905  22.802  -4.635  1.00  0.00     0.034 A 
BRANCH  26  40
ATOM     40  C   UNL     1       6.339  22.576  -0.476  1.00  0.00     0.023 A 
ATOM     41  C   UNL     1       5.265  22.408  -1.370  1.00  0.00     0.031 A 
ATOM     42  C   UNL     1       6.111  23.303   0.706  1.00  0.00     0.131 A 
ATOM     43  C   UNL     1       4.021  22.984  -1.083  1.00  0.00     0.055 A 
ATOM     44  C   UNL     1       4.856  23.832   1.012  1.00  0.00     0.041 A 
ATOM     45  F   UNL     1       7.103  23.501   1.589  1.00  0.00    -0.206 F 
ATOM     46  C   UNL     1       3.808  23.686   0.108  1.00  0.00     0.022 A 
BRANCH  43  47
ATOM     47  S   UNL     1       2.658  22.915  -2.276  1.00  0.00     0.124 S 
ATOM     48  O   UNL     1       1.641  22.182  -1.525  1.00  0.00    -0.237 OA
ATOM     49  O   UNL     1       2.372  24.330  -2.495  1.00  0.00    -0.237 OA
ATOM     50  O   UNL     1       3.223  22.202  -3.416  1.00  0.00    -0.744 OA
ENDBRANCH  43  47
ENDBRANCH  26  40
BRANCH  27  51
ATOM     51  C   UNL     1      15.270  18.847  -3.052  1.00  0.00     0.023 A 
ATOM     52  C   UNL     1      15.402  17.458  -3.239  1.00  0.00     0.031 A 
ATOM     53  C   UNL     1      16.436  19.628  -3.044  1.00  0.00     0.131 A 
ATOM     54  C   UNL     1      16.677  16.883  -3.302  1.00  0.00     0.055 A 
ATOM     55  C   UNL     1      17.703  19.059  -3.188  1.00  0.00     0.041 A 
ATOM     56  F   UNL     1      16.360  20.955  -2.859  1.00  0.00    -0.206 F 
ATOM     57  C   UNL     1      17.829  17.676  -3.293  1.00  0.00     0.022 A 
BRANCH  54  58
ATOM     58  S   UNL     1      16.886  15.082  -3.227  1.00  0.00     0.124 S 
ATOM     59  O   UNL     1      17.691  14.815  -4.415  1.00  0.00    -0.237 OA
ATOM     60  O   UNL     1      17.575  14.918  -1.949  1.00  0.00    -0.237 OA
ATOM     61  O   UNL     1      15.519  14.573  -3.265  1.00  0.00    -0.744 OA
ENDBRANCH  54  58
ENDBRANCH  27  51
BRANCH  39  62
ATOM     62  C   UNL     1      10.912  23.621  -5.905  1.00  0.00     0.023 A 
ATOM     63  C   UNL     1      10.908  25.028  -5.835  1.00  0.00     0.031 A 
ATOM     64  C   UNL     1      10.716  23.018  -7.159  1.00  0.00     0.131 A 
ATOM     65  C   UNL     1      10.640  25.783  -6.984  1.00  0.00     0.055 A 
ATOM     66  C   UNL     1      10.507  23.777  -8.312  1.00  0.00     0.041 A 
ATOM     67  F   UNL     1      10.703  21.681  -7.278  1.00  0.00    -0.206 F 
ATOM     68  C   UNL     1      10.448  25.166  -8.223  1.00  0.00     0.022 A 
BRANCH  65  69
ATOM     69  S   UNL     1      10.422  27.582  -6.891  1.00  0.00     0.124 S 
ATOM     70  O   UNL     1      11.437  28.060  -7.827  1.00  0.00    -0.237 OA
ATOM     71  O   UNL     1       9.040  27.747  -7.333  1.00  0.00    -0.237 OA
ATOM     72  O   UNL     1      10.675  27.896  -5.489  1.00  0.00    -0.744 OA
ENDBRANCH  65  69
ENDBRANCH  39  62
ENDBRANCH  13  14
ENDBRANCH   6   8
ENDBRANCH   3   4
ENDBRANCH   2   3
ENDBRANCH   1   2
BRANCH   1  73
ATOM     73  C   UNL     1       9.145  10.696   5.760  1.00  0.00     0.002 C 
BRANCH  73  74
ATOM     74  C   UNL     1       8.868  10.004   4.420  1.00  0.00     0.021 C 
BRANCH  74  75
ATOM     75  C   UNL     1       9.850   8.891   4.064  1.00  0.00     0.116 C 
BRANCH  75  76
ATOM     76  N   UNL     1       9.849   7.856   5.073  1.00  0.00    -0.356 N 
ATOM     77  C   UNL     1       9.327   6.603   5.010  1.00  0.00     0.223 C 
ATOM     78  H   UNL     1      10.288   8.091   5.922  1.00  0.00     0.163 HD
ATOM     79  O   UNL     1       9.266   5.920   6.028  1.00  0.00    -0.275 OA
BRANCH  77  80
ATOM     80  C   UNL     1       8.828   6.075   3.718  1.00  0.00     0.091 C 
ATOM     81  C   UNL     1       9.679   6.028   2.472  1.00  0.00     0.028 C 
ATOM     82  C   UNL     1       9.418   4.759   3.234  1.00  0.00     0.092 C 
BRANCH  82  83
ATOM     83  C   UNL     1       8.549   3.689   2.664  1.00  0.00     0.228 C 
ATOM     84  O   UNL     1       7.910   3.883   1.635  1.00  0.00    -0.274 OA
ATOM     85  N   UNL     1       8.596   2.435   3.236  1.00  0.00    -0.326 N 
ATOM     86  H   UNL     1       8.254   1.693   2.687  1.00  0.00     0.169 HD
BRANCH  85  87
ATOM     87  C   UNL     1       9.076   2.094   4.509  1.00  0.00     0.042 A 
ATOM     88  C   UNL     1       8.890   2.934   5.605  1.00  0.00     0.028 A 
ATOM     89  C   UNL     1       9.755   0.890   4.679  1.00  0.00     0.043 A 
ATOM     90  C   UNL     1       9.488   2.650   6.832  1.00  0.00     0.024 A 
ATOM     91  C   UNL     1      10.361   0.599   5.910  1.00  0.00     0.038 A 
ATOM     92  C   UNL     1      10.247   1.492   6.984  1.00  0.00     0.055 A 
ATOM     93  Br  UNL     1      11.359  -1.014   6.031  1.00  0.00    -0.049 Br
ATOM     94  Cl  UNL     1      11.013   1.233   8.509  1.00  0.00    -0.083 Cl
ENDBRANCH  85  87
ENDBRANCH  82  83
ENDBRANCH  77  80
ENDBRANCH  75  76
ENDBRANCH  74  75
ENDBRANCH  73  74
ENDBRANCH   1  73
TORSDOF 18
