REMARK SMILES CC(C)[C@@H](NC(=O)[C@@H]1CC[C@H]2CCCC[C@@H]2[NH2+]1)C(=O)NCCCCCCNC(=O)c1ccc(-c2c3nc(c(-c4cc(S(=O)(=O)[O-])ccc4F)c4ccc([nH]4)c(-c4cc(S(=O)(=O)[O-])ccc4F)c4nc(c(-c5cc(S(=O)(=O)[O-])ccc5F)c5ccc2[nH]5)C=C4)C=C3)cc1
REMARK SMILES IDX 24 1 23 2 22 3 21 4 20 5 18 6 19 7 4 9 2 10 1 11 3 12 5 13
REMARK SMILES IDX 6 14 7 16 8 17 9 18 17 19 10 20 16 21 11 24 15 25 12 26
REMARK SMILES IDX 14 27 13 28 25 29 26 30 27 31 28 32 29 34 30 35 31 36 92 37
REMARK SMILES IDX 32 38 91 39 33 40 34 41 35 42 85 43 36 44 90 45 84 46 86 47
REMARK SMILES IDX 37 48 89 49 83 50 82 51 38 53 70 54 50 55 69 56 51 57 54 58
REMARK SMILES IDX 68 59 87 60 52 61 53 62 67 64 88 65 55 66 39 67 40 68 48 69
REMARK SMILES IDX 41 70 47 71 49 72 46 73 42 74 43 75 44 76 45 77 71 78 72 79
REMARK SMILES IDX 80 80 73 81 79 82 81 83 78 84 74 85 75 86 76 87 77 88 56 89
REMARK SMILES IDX 57 90 65 91 58 92 64 93 66 94 63 95 59 96 60 97 61 98 62 99
REMARK H PARENT 20 8 5 15 17 22 17 23 27 33 86 52 54 63
REMARK Flexibility Score: inf
ROOT
ATOM      1  C   UNL     1      -1.114   0.701   1.058  1.00  0.00     0.002 C 
ENDROOT
BRANCH   1   2
ATOM      2  C   UNL     1      -1.117   0.774   2.588  1.00  0.00     0.002 C 
BRANCH   2   3
ATOM      3  C   UNL     1      -2.503   0.896   3.234  1.00  0.00     0.021 C 
BRANCH   3   4
ATOM      4  C   UNL     1      -3.355  -0.346   3.047  1.00  0.00     0.116 C 
BRANCH   4   5
ATOM      5  N   UNL     1      -2.938  -1.323   4.026  1.00  0.00    -0.354 N 
ATOM      6  C   UNL     1      -3.612  -2.395   4.527  1.00  0.00     0.242 C 
ATOM      7  O   UNL     1      -3.209  -2.938   5.553  1.00  0.00    -0.273 OA
ATOM      8  H   UNL     1      -2.030  -1.195   4.384  1.00  0.00     0.163 HD
BRANCH   6   9
ATOM      9  C   UNL     1      -4.965  -2.761   3.973  1.00  0.00     0.174 C 
BRANCH   9  10
ATOM     10  C   UNL     1      -6.030  -1.777   4.601  1.00  0.00     0.015 C 
ATOM     11  C   UNL     1      -7.266  -2.540   5.091  1.00  0.00     0.010 C 
ATOM     12  C   UNL     1      -5.524  -0.957   5.817  1.00  0.00     0.010 C 
ENDBRANCH   9  10
BRANCH   9  13
ATOM     13  N   UNL     1      -4.968  -2.813   2.497  1.00  0.00    -0.339 N 
ATOM     14  C   UNL     1      -4.327  -3.728   1.696  1.00  0.00     0.278 C 
ATOM     15  H   UNL     1      -5.487  -2.115   2.036  1.00  0.00     0.164 HD
ATOM     16  O   UNL     1      -5.065  -4.235   0.834  1.00  0.00    -0.268 OA
BRANCH  14  17
ATOM     17  C   UNL     1      -2.770  -4.003   1.598  1.00  0.00     0.272 C 
ATOM     18  C   UNL     1      -2.452  -5.459   1.172  1.00  0.00     0.076 C 
ATOM     19  N   UNL     1      -1.884  -3.453   2.646  1.00  0.00    -0.333 N 
ATOM     20  C   UNL     1      -1.984  -6.395   2.295  1.00  0.00     0.016 C 
ATOM     21  C   UNL     1      -1.136  -4.421   3.468  1.00  0.00     0.186 C 
ATOM     22  H   UNL     1      -2.463  -2.898   3.277  1.00  0.00     0.347 HD
ATOM     23  H   UNL     1      -1.171  -2.929   2.141  1.00  0.00     0.347 HD
ATOM     24  C   UNL     1      -1.972  -5.684   3.643  1.00  0.00     0.048 C 
ATOM     25  C   UNL     1      -0.535  -3.827   4.769  1.00  0.00     0.065 C 
ATOM     26  C   UNL     1      -1.438  -6.550   4.776  1.00  0.00     0.010 C 
ATOM     27  C   UNL     1      -0.855  -4.494   6.120  1.00  0.00     0.006 C 
ATOM     28  C   UNL     1      -1.649  -5.793   6.077  1.00  0.00     0.001 C 
ENDBRANCH  14  17
ENDBRANCH   9  13
ENDBRANCH   6   9
ENDBRANCH   4   5
ENDBRANCH   3   4
ENDBRANCH   2   3
ENDBRANCH   1   2
BRANCH   1  29
ATOM     29  C   UNL     1      -1.995   1.731   0.350  1.00  0.00     0.021 C 
BRANCH  29  30
ATOM     30  C   UNL     1      -1.816   3.171   0.813  1.00  0.00     0.116 C 
BRANCH  30  31
ATOM     31  N   UNL     1      -0.508   3.716   0.517  1.00  0.00    -0.352 N 
ATOM     32  C   UNL     1      -0.203   5.021   0.182  1.00  0.00     0.251 C 
ATOM     33  H   UNL     1       0.248   3.087   0.560  1.00  0.00     0.163 HD
ATOM     34  O   UNL     1       0.929   5.336  -0.121  1.00  0.00    -0.269 OA
BRANCH  32  35
ATOM     35  C   UNL     1      -1.309   6.010   0.149  1.00  0.00     0.039 A 
ATOM     36  C   UNL     1      -1.528   6.725  -1.028  1.00  0.00     0.014 A 
ATOM     37  C   UNL     1      -2.163   6.170   1.246  1.00  0.00     0.014 A 
ATOM     38  C   UNL     1      -2.644   7.559  -1.130  1.00  0.00     0.010 A 
ATOM     39  C   UNL     1      -3.310   6.951   1.119  1.00  0.00     0.010 A 
ATOM     40  C   UNL     1      -3.563   7.653  -0.071  1.00  0.00    -0.014 A 
BRANCH  40  41
ATOM     41  C   UNL     1      -4.787   8.489  -0.189  1.00  0.00     0.031 A 
ATOM     42  C   UNL     1      -4.960   9.694   0.695  1.00  0.00     0.074 A 
ATOM     43  C   UNL     1      -5.763   8.134  -1.049  1.00  0.00     0.049 A 
ATOM     44  N   UNL     1      -5.978  10.510   0.793  1.00  0.00    -0.248 NA
ATOM     45  C   UNL     1      -3.852  10.001   1.611  1.00  0.00     0.031 C 
ATOM     46  C   UNL     1      -5.728   6.966  -1.931  1.00  0.00     0.029 A 
ATOM     47  N   UNL     1      -6.976   8.716  -1.319  1.00  0.00    -0.354 N 
ATOM     48  C   UNL     1      -5.638  11.421   1.788  1.00  0.00     0.074 A 
ATOM     49  C   UNL     1      -4.347  11.015   2.303  1.00  0.00     0.031 C 
ATOM     50  C   UNL     1      -6.857   6.929  -2.658  1.00  0.00     0.029 A 
ATOM     51  C   UNL     1      -7.715   8.044  -2.267  1.00  0.00     0.049 A 
ATOM     52  H   UNL     1      -7.290   9.537  -0.876  1.00  0.00     0.167 HD
ATOM     53  C   UNL     1      -6.327  12.508   2.215  1.00  0.00     0.034 A 
ATOM     54  C   UNL     1      -8.946   8.292  -2.757  1.00  0.00     0.034 A 
ATOM     55  C   UNL     1      -7.606  12.908   1.681  1.00  0.00     0.049 A 
ATOM     56  C   UNL     1      -9.704   9.495  -2.251  1.00  0.00     0.074 A 
ATOM     57  C   UNL     1      -8.363  14.022   2.000  1.00  0.00     0.029 A 
ATOM     58  N   UNL     1      -8.323  12.204   0.722  1.00  0.00    -0.354 N 
ATOM     59  N   UNL     1      -9.345  10.376  -1.346  1.00  0.00    -0.248 NA
ATOM     60  C   UNL     1     -11.026   9.741  -2.840  1.00  0.00     0.031 C 
ATOM     61  C   UNL     1      -9.563  13.958   1.282  1.00  0.00     0.029 A 
ATOM     62  C   UNL     1      -9.525  12.842   0.461  1.00  0.00     0.049 A 
ATOM     63  H   UNL     1      -8.020  11.372   0.291  1.00  0.00     0.167 HD
ATOM     64  C   UNL     1     -10.387  11.296  -1.279  1.00  0.00     0.074 A 
ATOM     65  C   UNL     1     -11.380  10.870  -2.244  1.00  0.00     0.031 C 
ATOM     66  C   UNL     1     -10.511  12.397  -0.496  1.00  0.00     0.034 A 
BRANCH  53  67
ATOM     67  C   UNL     1      -5.714  13.321   3.331  1.00  0.00     0.023 A 
ATOM     68  C   UNL     1      -4.484  13.983   3.172  1.00  0.00     0.031 A 
ATOM     69  C   UNL     1      -6.351  13.409   4.582  1.00  0.00     0.131 A 
ATOM     70  C   UNL     1      -3.891  14.633   4.265  1.00  0.00     0.055 A 
ATOM     71  C   UNL     1      -5.795  14.128   5.642  1.00  0.00     0.041 A 
ATOM     72  F   UNL     1      -7.518  12.782   4.801  1.00  0.00    -0.206 F 
ATOM     73  C   UNL     1      -4.550  14.731   5.492  1.00  0.00     0.022 A 
BRANCH  70  74
ATOM     74  S   UNL     1      -2.182  15.217   4.101  1.00  0.00     0.124 S 
ATOM     75  O   UNL     1      -1.476  13.977   3.786  1.00  0.00    -0.237 OA
ATOM     76  O   UNL     1      -2.283  16.188   3.017  1.00  0.00    -0.237 OA
ATOM     77  O   UNL     1      -1.883  15.778   5.417  1.00  0.00    -0.744 OA
ENDBRANCH  70  74
ENDBRANCH  53  67
BRANCH  54  78
ATOM     78  C   UNL     1      -9.553   7.385  -3.773  1.00  0.00     0.023 A 
ATOM     79  C   UNL     1      -9.827   7.835  -5.074  1.00  0.00     0.031 A 
ATOM     80  C   UNL     1      -9.907   6.064  -3.443  1.00  0.00     0.131 A 
ATOM     81  C   UNL     1     -10.477   6.987  -5.985  1.00  0.00     0.055 A 
ATOM     82  C   UNL     1     -10.508   5.209  -4.368  1.00  0.00     0.041 A 
ATOM     83  F   UNL     1      -9.662   5.582  -2.214  1.00  0.00    -0.206 F 
ATOM     84  C   UNL     1     -10.809   5.674  -5.644  1.00  0.00     0.022 A 
BRANCH  81  85
ATOM     85  S   UNL     1     -10.958   7.655  -7.602  1.00  0.00     0.124 S 
ATOM     86  O   UNL     1     -11.811   8.774  -7.220  1.00  0.00    -0.237 OA
ATOM     87  O   UNL     1      -9.665   8.002  -8.181  1.00  0.00    -0.237 OA
ATOM     88  O   UNL     1     -11.645   6.535  -8.242  1.00  0.00    -0.744 OA
ENDBRANCH  81  85
ENDBRANCH  54  78
BRANCH  66  89
ATOM     89  C   UNL     1     -11.750  13.237  -0.686  1.00  0.00     0.023 A 
ATOM     90  C   UNL     1     -13.024  12.769  -0.322  1.00  0.00     0.031 A 
ATOM     91  C   UNL     1     -11.650  14.524  -1.244  1.00  0.00     0.131 A 
ATOM     92  C   UNL     1     -14.155  13.562  -0.568  1.00  0.00     0.055 A 
ATOM     93  C   UNL     1     -12.773  15.331  -1.435  1.00  0.00     0.041 A 
ATOM     94  F   UNL     1     -10.457  15.020  -1.610  1.00  0.00    -0.206 F 
ATOM     95  C   UNL     1     -14.036  14.846  -1.107  1.00  0.00     0.022 A 
BRANCH  92  96
ATOM     96  S   UNL     1     -15.797  12.862  -0.246  1.00  0.00     0.124 S 
ATOM     97  O   UNL     1     -15.809  11.698  -1.126  1.00  0.00    -0.237 OA
ATOM     98  O   UNL     1     -15.742  12.579   1.185  1.00  0.00    -0.237 OA
ATOM     99  O   UNL     1     -16.710  13.938  -0.629  1.00  0.00    -0.744 OA
ENDBRANCH  92  96
ENDBRANCH  66  89
ENDBRANCH  40  41
ENDBRANCH  32  35
ENDBRANCH  30  31
ENDBRANCH  29  30
ENDBRANCH   1  29
TORSDOF 19
