REMARK SMILES Cc1ccc(C(=O)N2CCCC[C@@H]2C(=O)NCCCCCCNC(=O)c2ccc(-c3c4nc(c(-c5cc(S(=O)(=O)[O-])ccc5F)c5ccc([nH]5)c(-c5cc(S(=O)(=O)[O-])ccc5F)c5nc(c(-c6cc(S(=O)(=O)[O-])ccc6F)c6ccc3[nH]6)C=C5)C=C4)cc2)cc1S(=O)(=O)N1CCCCC1
REMARK SMILES IDX 19 1 18 2 17 3 16 4 14 5 15 6 13 8 8 9 9 10 10 11 12 12
REMARK SMILES IDX 11 13 6 14 7 15 5 16 1 17 2 18 3 19 90 20 4 21 89 22 91 23
REMARK SMILES IDX 92 24 93 25 94 26 95 27 99 28 96 29 98 30 97 31 20 32 21 33
REMARK SMILES IDX 22 34 23 35 24 36 25 38 26 39 27 40 88 41 28 42 87 43 29 44
REMARK SMILES IDX 30 45 31 46 81 47 32 48 86 49 80 50 82 51 33 52 85 53 79 54
REMARK SMILES IDX 78 55 34 57 66 58 46 59 65 60 47 61 50 62 64 63 83 64 48 65
REMARK SMILES IDX 49 66 63 68 84 69 51 70 35 71 36 72 44 73 37 74 43 75 45 76
REMARK SMILES IDX 42 77 38 78 39 79 40 80 41 81 67 82 68 83 76 84 69 85 75 86
REMARK SMILES IDX 77 87 74 88 70 89 71 90 72 91 73 92 52 93 53 94 61 95 54 96
REMARK SMILES IDX 60 97 62 98 59 99 55 100 56 101 57 102 58 103
REMARK H PARENT 16 7 23 37 82 56 50 67
REMARK Flexibility Score: inf
ROOT
ATOM      1  C   UNL     1      -4.992  -1.533  -4.746  1.00  0.00     0.002 C 
ENDROOT
BRANCH   1   2
ATOM      2  C   UNL     1      -5.598  -0.523  -3.762  1.00  0.00     0.021 C 
BRANCH   2   3
ATOM      3  C   UNL     1      -4.795  -0.350  -2.475  1.00  0.00     0.116 C 
BRANCH   3   4
ATOM      4  N   UNL     1      -3.513   0.264  -2.762  1.00  0.00    -0.354 N 
ATOM      5  C   UNL     1      -2.991   1.435  -2.312  1.00  0.00     0.242 C 
ATOM      6  O   UNL     1      -1.976   1.869  -2.864  1.00  0.00    -0.273 OA
ATOM      7  H   UNL     1      -2.934  -0.245  -3.374  1.00  0.00     0.163 HD
BRANCH   5   8
ATOM      8  C   UNL     1      -3.684   2.251  -1.198  1.00  0.00     0.174 C 
ATOM      9  N   UNL     1      -4.080   1.458  -0.000  1.00  0.00    -0.327 N 
ATOM     10  C   UNL     1      -5.005   2.097   0.926  1.00  0.00     0.120 C 
ATOM     11  C   UNL     1      -6.234   2.656   0.241  1.00  0.00     0.022 C 
ATOM     12  C   UNL     1      -4.888   2.976  -1.849  1.00  0.00     0.035 C 
ATOM     13  C   UNL     1      -5.825   3.636  -0.847  1.00  0.00     0.004 C 
BRANCH   9  14
ATOM     14  C   UNL     1      -3.376   0.378   0.544  1.00  0.00     0.254 C 
ATOM     15  O   UNL     1      -3.888  -0.398   1.353  1.00  0.00    -0.269 OA
BRANCH  14  16
ATOM     16  C   UNL     1      -1.951   0.149   0.230  1.00  0.00     0.041 A 
ATOM     17  C   UNL     1       2.223  -0.852  -0.097  1.00  0.00     0.046 C 
ATOM     18  C   UNL     1       0.821  -0.344  -0.025  1.00  0.00    -0.031 A 
ATOM     19  C   UNL     1      -0.134  -1.392  -0.045  1.00  0.00     0.005 A 
ATOM     20  C   UNL     1       0.357   0.980   0.092  1.00  0.00     0.086 A 
ATOM     21  C   UNL     1      -1.498  -1.155   0.080  1.00  0.00     0.014 A 
ATOM     22  C   UNL     1      -1.030   1.198   0.254  1.00  0.00     0.035 A 
BRANCH  20  23
ATOM     23  S   UNL     1       1.248   2.545   0.107  1.00  0.00     0.243 S 
ATOM     24  O   UNL     1       0.875   3.230  -1.117  1.00  0.00    -0.207 OA
ATOM     25  O   UNL     1       0.947   3.139   1.393  1.00  0.00    -0.207 OA
BRANCH  23  26
ATOM     26  N   UNL     1       2.927   2.333   0.057  1.00  0.00    -0.198 NA
ATOM     27  C   UNL     1       3.569   1.954   1.327  1.00  0.00     0.102 C 
ATOM     28  C   UNL     1       3.514   2.023  -1.264  1.00  0.00     0.102 C 
ATOM     29  C   UNL     1       5.069   1.739   1.231  1.00  0.00     0.017 C 
ATOM     30  C   UNL     1       5.013   1.758  -1.242  1.00  0.00     0.017 C 
ATOM     31  C   UNL     1       5.481   0.987  -0.021  1.00  0.00     0.003 C 
ENDBRANCH  23  26
ENDBRANCH  20  23
ENDBRANCH  14  16
ENDBRANCH   9  14
ENDBRANCH   5   8
ENDBRANCH   3   4
ENDBRANCH   2   3
ENDBRANCH   1   2
BRANCH   1  32
ATOM     32  C   UNL     1      -4.656  -2.909  -4.155  1.00  0.00     0.002 C 
BRANCH  32  33
ATOM     33  C   UNL     1      -5.788  -3.580  -3.385  1.00  0.00     0.021 C 
BRANCH  33  34
ATOM     34  C   UNL     1      -6.985  -3.941  -4.243  1.00  0.00     0.116 C 
BRANCH  34  35
ATOM     35  N   UNL     1      -6.901  -5.256  -4.857  1.00  0.00    -0.352 N 
ATOM     36  C   UNL     1      -7.907  -6.040  -5.395  1.00  0.00     0.251 C 
ATOM     37  H   UNL     1      -5.997  -5.646  -4.897  1.00  0.00     0.163 HD
ATOM     38  O   UNL     1      -7.738  -7.235  -5.625  1.00  0.00    -0.269 OA
BRANCH  36  39
ATOM     39  C   UNL     1      -9.128  -5.377  -5.926  1.00  0.00     0.039 A 
ATOM     40  C   UNL     1      -9.462  -5.709  -7.249  1.00  0.00     0.014 A 
ATOM     41  C   UNL     1      -9.611  -4.209  -5.354  1.00  0.00     0.014 A 
ATOM     42  C   UNL     1      -9.970  -4.727  -8.083  1.00  0.00     0.010 A 
ATOM     43  C   UNL     1      -9.946  -3.188  -6.199  1.00  0.00     0.010 A 
ATOM     44  C   UNL     1     -10.058  -3.445  -7.566  1.00  0.00    -0.014 A 
BRANCH  44  45
ATOM     45  C   UNL     1     -10.348  -2.269  -8.345  1.00  0.00     0.031 A 
ATOM     46  C   UNL     1     -11.754  -1.865  -8.401  1.00  0.00     0.074 A 
ATOM     47  C   UNL     1      -9.310  -1.526  -8.781  1.00  0.00     0.049 A 
ATOM     48  N   UNL     1     -12.253  -1.108  -9.302  1.00  0.00    -0.248 NA
ATOM     49  C   UNL     1     -12.749  -2.351  -7.444  1.00  0.00     0.031 C 
ATOM     50  C   UNL     1      -9.303  -0.160  -9.284  1.00  0.00     0.029 A 
ATOM     51  N   UNL     1      -8.026  -1.997  -9.056  1.00  0.00    -0.354 N 
ATOM     52  C   UNL     1     -13.491  -0.714  -8.849  1.00  0.00     0.074 A 
ATOM     53  C   UNL     1     -13.813  -1.619  -7.777  1.00  0.00     0.031 C 
ATOM     54  C   UNL     1      -8.208   0.013 -10.048  1.00  0.00     0.029 A 
ATOM     55  C   UNL     1      -7.575  -1.288 -10.188  1.00  0.00     0.049 A 
ATOM     56  H   UNL     1      -7.532  -2.688  -8.558  1.00  0.00     0.167 HD
ATOM     57  C   UNL     1     -13.996   0.457  -9.320  1.00  0.00     0.034 A 
ATOM     58  C   UNL     1      -7.415  -1.967 -11.366  1.00  0.00     0.034 A 
ATOM     59  C   UNL     1     -13.079   1.030 -10.309  1.00  0.00     0.049 A 
ATOM     60  C   UNL     1      -8.423  -1.543 -12.426  1.00  0.00     0.074 A 
ATOM     61  C   UNL     1     -12.106   2.014 -10.261  1.00  0.00     0.029 A 
ATOM     62  N   UNL     1     -12.831   0.308 -11.461  1.00  0.00    -0.354 N 
ATOM     63  N   UNL     1      -9.482  -0.813 -12.192  1.00  0.00    -0.248 NA
ATOM     64  C   UNL     1      -8.327  -1.928 -13.829  1.00  0.00     0.031 C 
ATOM     65  C   UNL     1     -11.255   1.845 -11.396  1.00  0.00     0.029 A 
ATOM     66  C   UNL     1     -11.734   0.784 -12.143  1.00  0.00     0.049 A 
ATOM     67  H   UNL     1     -13.375  -0.457 -11.758  1.00  0.00     0.167 HD
ATOM     68  C   UNL     1     -10.200  -0.624 -13.348  1.00  0.00     0.074 A 
ATOM     69  C   UNL     1      -9.446  -1.380 -14.339  1.00  0.00     0.031 C 
ATOM     70  C   UNL     1     -11.353   0.124 -13.384  1.00  0.00     0.034 A 
BRANCH  57  71
ATOM     71  C   UNL     1     -15.137   1.230  -8.712  1.00  0.00     0.023 A 
ATOM     72  C   UNL     1     -15.200   2.611  -8.976  1.00  0.00     0.031 A 
ATOM     73  C   UNL     1     -16.156   0.729  -7.879  1.00  0.00     0.131 A 
ATOM     74  C   UNL     1     -16.168   3.436  -8.383  1.00  0.00     0.055 A 
ATOM     75  C   UNL     1     -17.107   1.554  -7.260  1.00  0.00     0.041 A 
ATOM     76  F   UNL     1     -16.320  -0.581  -7.658  1.00  0.00    -0.206 F 
ATOM     77  C   UNL     1     -17.114   2.919  -7.506  1.00  0.00     0.022 A 
BRANCH  74  78
ATOM     78  S   UNL     1     -16.159   5.199  -8.790  1.00  0.00     0.124 S 
ATOM     79  O   UNL     1     -14.852   5.619  -8.293  1.00  0.00    -0.237 OA
ATOM     80  O   UNL     1     -16.325   5.183 -10.239  1.00  0.00    -0.237 OA
ATOM     81  O   UNL     1     -17.301   5.723  -8.043  1.00  0.00    -0.744 OA
ENDBRANCH  74  78
ENDBRANCH  57  71
BRANCH  58  82
ATOM     82  C   UNL     1      -6.887  -3.357 -11.121  1.00  0.00     0.023 A 
ATOM     83  C   UNL     1      -5.679  -3.447 -10.383  1.00  0.00     0.031 A 
ATOM     84  C   UNL     1      -7.736  -4.472 -11.110  1.00  0.00     0.131 A 
ATOM     85  C   UNL     1      -5.482  -4.502  -9.475  1.00  0.00     0.055 A 
ATOM     86  C   UNL     1      -7.478  -5.572 -10.278  1.00  0.00     0.041 A 
ATOM     87  F   UNL     1      -8.899  -4.454 -11.778  1.00  0.00    -0.206 F 
ATOM     88  C   UNL     1      -6.386  -5.561  -9.406  1.00  0.00     0.022 A 
BRANCH  85  89
ATOM     89  S   UNL     1      -4.227  -4.298  -8.168  1.00  0.00     0.124 S 
ATOM     90  O   UNL     1      -3.013  -4.754  -8.834  1.00  0.00    -0.237 OA
ATOM     91  O   UNL     1      -4.296  -2.867  -7.880  1.00  0.00    -0.237 OA
ATOM     92  O   UNL     1      -4.708  -5.149  -7.079  1.00  0.00    -0.744 OA
ENDBRANCH  85  89
ENDBRANCH  58  82
BRANCH  70  93
ATOM     93  C   UNL     1     -12.265   0.288 -14.589  1.00  0.00     0.023 A 
ATOM     94  C   UNL     1     -11.799   0.177 -15.900  1.00  0.00     0.031 A 
ATOM     95  C   UNL     1     -13.649   0.597 -14.468  1.00  0.00     0.131 A 
ATOM     96  C   UNL     1     -12.684   0.219 -16.993  1.00  0.00     0.055 A 
ATOM     97  C   UNL     1     -14.513   0.718 -15.558  1.00  0.00     0.041 A 
ATOM     98  F   UNL     1     -14.256   0.771 -13.287  1.00  0.00    -0.206 F 
ATOM     99  C   UNL     1     -14.038   0.498 -16.834  1.00  0.00     0.022 A 
BRANCH  96 100
ATOM    100  S   UNL     1     -12.026  -0.175 -18.629  1.00  0.00     0.124 S 
ATOM    101  O   UNL     1     -10.914   0.761 -18.754  1.00  0.00    -0.237 OA
ATOM    102  O   UNL     1     -11.658  -1.579 -18.468  1.00  0.00    -0.237 OA
ATOM    103  O   UNL     1     -13.155   0.073 -19.523  1.00  0.00    -0.744 OA
ENDBRANCH  96 100
ENDBRANCH  70  93
ENDBRANCH  44  45
ENDBRANCH  36  39
ENDBRANCH  34  35
ENDBRANCH  33  34
ENDBRANCH  32  33
ENDBRANCH   1  32
TORSDOF 20
