REMARK SMILES COc1ccc(N2C(=O)[NH+]=C(NCCCCCCNC(=O)c3ccc(-c4c5nc(c(-c6cc(S(=O)(=O)[O-])ccc6F)c6ccc([nH]6)c(-c6cc(S(=O)(=O)[O-])ccc6F)c6nc(c(-c7cc(S(=O)(=O)[O-])ccc7F)c7ccc4[nH]7)C=C6)C=C5)cc3)/C(=C\c3cc(Cl)c(OCC(=O)[O-])c(Cl)c3)C2=O)cc1
REMARK SMILES IDX 15 1 14 2 13 3 12 4 7 5 8 6 100 7 9 8 10 9 85 10 101 11
REMARK SMILES IDX 11 12 86 14 6 16 3 17 4 18 103 19 5 20 102 21 2 22 1 23
REMARK SMILES IDX 87 24 88 25 99 26 89 27 97 28 90 29 91 30 98 31 92 32 93 33
REMARK SMILES IDX 94 34 95 35 96 36 16 37 17 38 18 39 19 40 20 41 21 43 22 44
REMARK SMILES IDX 23 45 84 46 24 47 83 48 25 49 26 50 27 51 77 52 28 53 82 54
REMARK SMILES IDX 76 55 78 56 29 57 81 58 75 59 74 60 30 62 62 63 42 64 61 65
REMARK SMILES IDX 43 66 46 67 60 68 79 69 44 70 45 71 59 73 80 74 47 75 31 76
REMARK SMILES IDX 32 77 40 78 33 79 39 80 41 81 38 82 34 83 35 84 36 85 37 86
REMARK SMILES IDX 63 87 64 88 72 89 65 90 71 91 73 92 70 93 66 94 67 95 68 96
REMARK SMILES IDX 69 97 48 98 49 99 57 100 50 101 56 102 58 103 55 104 51 105
REMARK SMILES IDX 52 106 53 107 54 108
REMARK H PARENT 10 13 12 15 19 42 78 61 46 72
REMARK Flexibility Score: inf
ROOT
ATOM      1  C   UNL     1       3.925  12.428  -1.729  1.00  0.00     0.003 C 
ENDROOT
BRANCH   1   2
ATOM      2  C   UNL     1       2.914  11.655  -0.882  1.00  0.00     0.037 C 
BRANCH   2   3
ATOM      3  C   UNL     1       1.880  10.877  -1.695  1.00  0.00     0.194 C 
BRANCH   3   4
ATOM      4  N   UNL     1       2.545   9.911  -2.558  1.00  0.00    -0.305 N 
ATOM      5  N   UNL     1       1.851   5.830  -2.208  1.00  0.00    -0.155 N 
ATOM      6  C   UNL     1       1.132   6.809  -1.511  1.00  0.00     0.448 C 
ATOM      7  C   UNL     1       2.904   6.124  -3.062  1.00  0.00     0.328 C 
ATOM      8  O   UNL     1       0.262   6.527  -0.695  1.00  0.00    -0.212 OA
ATOM      9  N   UNL     1       1.430   8.125  -1.705  1.00  0.00    -0.209 N 
ATOM     10  C   UNL     1       3.231   7.577  -3.217  1.00  0.00     0.129 C 
ATOM     11  O   UNL     1       3.544   5.280  -3.695  1.00  0.00    -0.249 OA
ATOM     12  C   UNL     1       2.384   8.548  -2.470  1.00  0.00     0.236 C 
ATOM     13  H   UNL     1       0.886   8.796  -1.232  1.00  0.00     0.270 HD
ATOM     14  C   UNL     1       4.287   7.853  -4.013  1.00  0.00     0.030 C 
ATOM     15  H   UNL     1       3.151  10.258  -3.251  1.00  0.00     0.256 HD
BRANCH   5  16
ATOM     16  C   UNL     1       1.499   4.455  -1.987  1.00  0.00     0.111 A 
ATOM     17  C   UNL     1       0.790   1.787  -1.448  1.00  0.00     0.119 A 
ATOM     18  C   UNL     1      -0.190   2.715  -1.784  1.00  0.00     0.050 A 
ATOM     19  C   UNL     1       2.130   2.171  -1.422  1.00  0.00     0.050 A 
ATOM     20  C   UNL     1       0.158   4.045  -2.030  1.00  0.00     0.047 A 
ATOM     21  C   UNL     1       2.483   3.496  -1.701  1.00  0.00     0.047 A 
BRANCH  17  22
ATOM     22  O   UNL     1       0.362   0.509  -1.214  1.00  0.00    -0.497 OA
ATOM     23  C   UNL     1       0.927  -0.067  -0.038  1.00  0.00     0.278 C 
ENDBRANCH  17  22
ENDBRANCH   5  16
BRANCH  14  24
ATOM     24  C   UNL     1       4.965   9.115  -4.323  1.00  0.00    -0.021 A 
ATOM     25  C   UNL     1       4.734   9.773  -5.527  1.00  0.00     0.032 A 
ATOM     26  C   UNL     1       5.964   9.596  -3.474  1.00  0.00     0.032 A 
ATOM     27  C   UNL     1       5.505  10.893  -5.872  1.00  0.00     0.085 A 
ATOM     28  C   UNL     1       6.750  10.712  -3.825  1.00  0.00     0.085 A 
ATOM     29  Cl  UNL     1       5.177  11.625  -7.411  1.00  0.00    -0.080 Cl
ATOM     30  C   UNL     1       6.526  11.388  -5.032  1.00  0.00     0.157 A 
ATOM     31  Cl  UNL     1       8.036  11.064  -2.728  1.00  0.00    -0.080 Cl
BRANCH  30  32
ATOM     32  O   UNL     1       7.262  12.405  -5.574  1.00  0.00    -0.485 OA
BRANCH  32  33
ATOM     33  C   UNL     1       7.812  13.441  -4.787  1.00  0.00     0.282 C 
BRANCH  33  34
ATOM     34  C   UNL     1       6.887  14.304  -3.944  1.00  0.00     0.079 C 
ATOM     35  O   UNL     1       6.598  14.105  -2.773  1.00  0.00    -0.546 OA
ATOM     36  O   UNL     1       6.408  15.368  -4.621  1.00  0.00    -0.546 OA
ENDBRANCH  33  34
ENDBRANCH  32  33
ENDBRANCH  30  32
ENDBRANCH  14  24
ENDBRANCH   3   4
ENDBRANCH   2   3
ENDBRANCH   1   2
BRANCH   1  37
ATOM     37  C   UNL     1       3.309  13.437  -2.700  1.00  0.00     0.002 C 
BRANCH  37  38
ATOM     38  C   UNL     1       2.598  14.613  -2.029  1.00  0.00     0.021 C 
BRANCH  38  39
ATOM     39  C   UNL     1       3.443  15.379  -1.011  1.00  0.00     0.116 C 
BRANCH  39  40
ATOM     40  N   UNL     1       4.716  15.799  -1.576  1.00  0.00    -0.352 N 
ATOM     41  C   UNL     1       5.180  17.067  -1.814  1.00  0.00     0.251 C 
ATOM     42  H   UNL     1       5.330  15.070  -1.822  1.00  0.00     0.163 HD
ATOM     43  O   UNL     1       6.001  17.231  -2.715  1.00  0.00    -0.269 OA
BRANCH  41  44
ATOM     44  C   UNL     1       4.670  18.198  -1.002  1.00  0.00     0.039 A 
ATOM     45  C   UNL     1       4.547  19.464  -1.577  1.00  0.00     0.014 A 
ATOM     46  C   UNL     1       4.311  18.002   0.336  1.00  0.00     0.014 A 
ATOM     47  C   UNL     1       3.971  20.503  -0.840  1.00  0.00     0.010 A 
ATOM     48  C   UNL     1       3.661  19.011   1.039  1.00  0.00     0.010 A 
ATOM     49  C   UNL     1       3.473  20.269   0.454  1.00  0.00    -0.014 A 
BRANCH  49  50
ATOM     50  C   UNL     1       2.704  21.307   1.187  1.00  0.00     0.031 A 
ATOM     51  C   UNL     1       3.208  21.853   2.495  1.00  0.00     0.074 A 
ATOM     52  C   UNL     1       1.501  21.683   0.708  1.00  0.00     0.049 A 
ATOM     53  N   UNL     1       2.648  22.719   3.301  1.00  0.00    -0.248 NA
ATOM     54  C   UNL     1       4.493  21.326   2.978  1.00  0.00     0.031 C 
ATOM     55  C   UNL     1       0.874  21.154  -0.507  1.00  0.00     0.029 A 
ATOM     56  N   UNL     1       0.586  22.586   1.183  1.00  0.00    -0.354 N 
ATOM     57  C   UNL     1       3.504  22.831   4.392  1.00  0.00     0.074 A 
ATOM     58  C   UNL     1       4.586  21.894   4.171  1.00  0.00     0.031 C 
ATOM     59  C   UNL     1      -0.303  21.768  -0.699  1.00  0.00     0.029 A 
ATOM     60  C   UNL     1      -0.535  22.704   0.394  1.00  0.00     0.049 A 
ATOM     61  H   UNL     1       0.718  23.102   2.011  1.00  0.00     0.167 HD
ATOM     62  C   UNL     1       3.408  23.656   5.466  1.00  0.00     0.034 A 
ATOM     63  C   UNL     1      -1.625  23.482   0.535  1.00  0.00     0.034 A 
ATOM     64  C   UNL     1       2.321  24.587   5.660  1.00  0.00     0.049 A 
ATOM     65  C   UNL     1      -1.694  24.413   1.716  1.00  0.00     0.074 A 
ATOM     66  C   UNL     1       2.145  25.513   6.674  1.00  0.00     0.029 A 
ATOM     67  N   UNL     1       1.219  24.707   4.821  1.00  0.00    -0.354 N 
ATOM     68  N   UNL     1      -0.840  24.561   2.703  1.00  0.00    -0.248 NA
ATOM     69  C   UNL     1      -2.864  25.296   1.789  1.00  0.00     0.031 C 
ATOM     70  C   UNL     1       0.913  26.150   6.480  1.00  0.00     0.029 A 
ATOM     71  C   UNL     1       0.349  25.673   5.307  1.00  0.00     0.049 A 
ATOM     72  H   UNL     1       1.076  24.183   4.000  1.00  0.00     0.167 HD
ATOM     73  C   UNL     1      -1.363  25.568   3.507  1.00  0.00     0.074 A 
ATOM     74  C   UNL     1      -2.588  26.011   2.869  1.00  0.00     0.031 C 
ATOM     75  C   UNL     1      -0.882  26.079   4.670  1.00  0.00     0.034 A 
BRANCH  62  76
ATOM     76  C   UNL     1       4.496  23.564   6.511  1.00  0.00     0.023 A 
ATOM     77  C   UNL     1       5.839  23.850   6.204  1.00  0.00     0.031 A 
ATOM     78  C   UNL     1       4.199  23.149   7.821  1.00  0.00     0.131 A 
ATOM     79  C   UNL     1       6.841  23.635   7.163  1.00  0.00     0.055 A 
ATOM     80  C   UNL     1       5.191  23.018   8.796  1.00  0.00     0.041 A 
ATOM     81  F   UNL     1       2.941  22.843   8.173  1.00  0.00    -0.206 F 
ATOM     82  C   UNL     1       6.524  23.245   8.465  1.00  0.00     0.022 A 
BRANCH  79  83
ATOM     83  S   UNL     1       8.575  23.728   6.638  1.00  0.00     0.124 S 
ATOM     84  O   UNL     1       8.625  22.697   5.604  1.00  0.00    -0.237 OA
ATOM     85  O   UNL     1       8.692  25.105   6.173  1.00  0.00    -0.237 OA
ATOM     86  O   UNL     1       9.320  23.415   7.856  1.00  0.00    -0.744 OA
ENDBRANCH  79  83
ENDBRANCH  62  76
BRANCH  63  87
ATOM     87  C   UNL     1      -2.726  23.429  -0.468  1.00  0.00     0.023 A 
ATOM     88  C   UNL     1      -3.008  24.533  -1.287  1.00  0.00     0.031 A 
ATOM     89  C   UNL     1      -3.527  22.282  -0.608  1.00  0.00     0.131 A 
ATOM     90  C   UNL     1      -4.090  24.485  -2.179  1.00  0.00     0.055 A 
ATOM     91  C   UNL     1      -4.573  22.222  -1.530  1.00  0.00     0.041 A 
ATOM     92  F   UNL     1      -3.292  21.194   0.142  1.00  0.00    -0.206 F 
ATOM     93  C   UNL     1      -4.868  23.333  -2.314  1.00  0.00     0.022 A 
BRANCH  90  94
ATOM     94  S   UNL     1      -4.512  25.982  -3.113  1.00  0.00     0.124 S 
ATOM     95  O   UNL     1      -4.736  26.948  -2.043  1.00  0.00    -0.237 OA
ATOM     96  O   UNL     1      -3.312  26.183  -3.918  1.00  0.00    -0.237 OA
ATOM     97  O   UNL     1      -5.704  25.591  -3.862  1.00  0.00    -0.744 OA
ENDBRANCH  90  94
ENDBRANCH  63  87
BRANCH  75  98
ATOM     98  C   UNL     1      -1.690  27.187   5.300  1.00  0.00     0.023 A 
ATOM     99  C   UNL     1      -2.985  26.958   5.798  1.00  0.00     0.031 A 
ATOM    100  C   UNL     1      -1.182  28.496   5.354  1.00  0.00     0.131 A 
ATOM    101  C   UNL     1      -3.757  28.034   6.256  1.00  0.00     0.055 A 
ATOM    102  C   UNL     1      -1.931  29.553   5.873  1.00  0.00     0.041 A 
ATOM    103  F   UNL     1       0.048  28.773   4.890  1.00  0.00    -0.206 F 
ATOM    104  C   UNL     1      -3.233  29.328   6.311  1.00  0.00     0.022 A 
BRANCH 101 105
ATOM    105  S   UNL     1      -5.501  27.739   6.661  1.00  0.00     0.124 S 
ATOM    106  O   UNL     1      -6.009  27.172   5.416  1.00  0.00    -0.237 OA
ATOM    107  O   UNL     1      -5.407  26.819   7.790  1.00  0.00    -0.237 OA
ATOM    108  O   UNL     1      -6.007  29.071   6.987  1.00  0.00    -0.744 OA
ENDBRANCH 101 105
ENDBRANCH  75  98
ENDBRANCH  49  50
ENDBRANCH  41  44
ENDBRANCH  39  40
ENDBRANCH  38  39
ENDBRANCH  37  38
ENDBRANCH   1  37
TORSDOF 21
