REMARK SMILES CCOc1cccc(OCC)c1-c1ccc([C@@H](C)C(=O)NCCCCCCNC(=O)c2ccc(-c3c4nc(c(-c5cc(S(=O)(=O)[O-])ccc5F)c5ccc([nH]5)c(-c5cc(S(=O)(=O)[O-])ccc5F)c5nc(c(-c6cc(S(=O)(=O)[O-])ccc6F)c6ccc3[nH]6)C=C5)C=C4)cc2)cc1F
REMARK SMILES IDX 24 1 23 2 22 3 21 4 19 5 20 6 17 8 18 9 16 10 13 11 14 12
REMARK SMILES IDX 95 13 15 14 94 15 96 16 12 17 4 18 5 19 6 20 8 21 7 22 3 23
REMARK SMILES IDX 2 24 1 25 9 26 10 27 11 28 25 29 26 30 27 31 28 32 29 33
REMARK SMILES IDX 30 35 31 36 32 37 93 38 33 39 92 40 34 41 35 42 36 43 86 44
REMARK SMILES IDX 37 45 91 46 85 47 87 48 38 49 90 50 84 51 83 52 39 54 71 55
REMARK SMILES IDX 51 56 70 57 52 58 55 59 69 60 88 61 53 62 54 63 68 65 89 66
REMARK SMILES IDX 56 67 40 68 41 69 49 70 42 71 48 72 50 73 47 74 43 75 44 76
REMARK SMILES IDX 45 77 46 78 72 79 73 80 81 81 74 82 80 83 82 84 79 85 75 86
REMARK SMILES IDX 76 87 77 88 78 89 57 90 58 91 66 92 59 93 65 94 67 95 64 96
REMARK SMILES IDX 60 97 61 98 62 99 63 100
REMARK H PARENT 21 7 28 34 87 53 55 64
REMARK Flexibility Score: inf
ROOT
ATOM      1  C   UNL     1       2.542  -4.751   2.850  1.00  0.00     0.002 C 
ENDROOT
BRANCH   1   2
ATOM      2  C   UNL     1       2.609  -4.063   1.488  1.00  0.00     0.021 C 
BRANCH   2   3
ATOM      3  C   UNL     1       2.163  -4.927   0.292  1.00  0.00     0.116 C 
BRANCH   3   4
ATOM      4  N   UNL     1       0.770  -4.679  -0.054  1.00  0.00    -0.356 N 
ATOM      5  C   UNL     1       0.141  -3.978  -1.038  1.00  0.00     0.227 C 
ATOM      6  O   UNL     1      -1.095  -3.937  -0.948  1.00  0.00    -0.274 OA
ATOM      7  H   UNL     1       0.141  -5.117   0.562  1.00  0.00     0.163 HD
BRANCH   5   8
ATOM      8  C   UNL     1       0.830  -3.260  -2.221  1.00  0.00     0.105 C 
ATOM      9  C   UNL     1       1.771  -4.137  -3.039  1.00  0.00     0.023 C 
BRANCH   8  10
ATOM     10  C   UNL     1       1.422  -1.907  -1.866  1.00  0.00    -0.033 A 
ATOM     11  C   UNL     1       2.466   0.596  -1.000  1.00  0.00     0.025 A 
ATOM     12  C   UNL     1       2.845  -0.601  -0.400  1.00  0.00     0.012 A 
ATOM     13  C   UNL     1       1.534   0.521  -2.042  1.00  0.00     0.131 A 
ATOM     14  C   UNL     1       2.420  -1.816  -0.906  1.00  0.00     0.005 A 
ATOM     15  C   UNL     1       0.990  -0.709  -2.450  1.00  0.00     0.044 A 
ATOM     16  F   UNL     1       1.107   1.638  -2.652  1.00  0.00    -0.206 F 
BRANCH  11  17
ATOM     17  C   UNL     1       2.990   1.840  -0.423  1.00  0.00     0.069 A 
ATOM     18  C   UNL     1       2.088   2.631   0.340  1.00  0.00     0.130 A 
ATOM     19  C   UNL     1       2.499   3.767   1.041  1.00  0.00     0.047 A 
ATOM     20  C   UNL     1       3.836   4.132   1.019  1.00  0.00     0.008 A 
ATOM     21  C   UNL     1       4.348   2.235  -0.450  1.00  0.00     0.130 A 
ATOM     22  C   UNL     1       4.741   3.380   0.272  1.00  0.00     0.047 A 
BRANCH  18  23
ATOM     23  O   UNL     1       0.747   2.324   0.334  1.00  0.00    -0.493 OA
BRANCH  23  24
ATOM     24  C   UNL     1       0.298   1.722   1.553  1.00  0.00     0.226 C 
ATOM     25  C   UNL     1      -0.280   0.350   1.245  1.00  0.00     0.049 C 
ENDBRANCH  23  24
ENDBRANCH  18  23
BRANCH  21  26
ATOM     26  O   UNL     1       5.429   1.719  -1.115  1.00  0.00    -0.493 OA
BRANCH  26  27
ATOM     27  C   UNL     1       5.534   0.386  -1.589  1.00  0.00     0.226 C 
ATOM     28  C   UNL     1       6.035  -0.551  -0.497  1.00  0.00     0.049 C 
ENDBRANCH  26  27
ENDBRANCH  21  26
ENDBRANCH  11  17
ENDBRANCH   8  10
ENDBRANCH   5   8
ENDBRANCH   3   4
ENDBRANCH   2   3
ENDBRANCH   1   2
BRANCH   1  29
ATOM     29  C   UNL     1       3.524  -5.912   3.031  1.00  0.00     0.002 C 
BRANCH  29  30
ATOM     30  C   UNL     1       5.004  -5.573   2.819  1.00  0.00     0.021 C 
BRANCH  30  31
ATOM     31  C   UNL     1       5.563  -4.491   3.742  1.00  0.00     0.116 C 
BRANCH  31  32
ATOM     32  N   UNL     1       5.482  -4.882   5.141  1.00  0.00    -0.352 N 
ATOM     33  C   UNL     1       6.487  -5.124   6.040  1.00  0.00     0.251 C 
ATOM     34  H   UNL     1       4.569  -4.987   5.495  1.00  0.00     0.163 HD
ATOM     35  O   UNL     1       6.224  -5.704   7.100  1.00  0.00    -0.269 OA
BRANCH  33  36
ATOM     36  C   UNL     1       7.875  -4.709   5.749  1.00  0.00     0.039 A 
ATOM     37  C   UNL     1       8.927  -5.577   6.055  1.00  0.00     0.014 A 
ATOM     38  C   UNL     1       8.144  -3.448   5.206  1.00  0.00     0.014 A 
ATOM     39  C   UNL     1      10.242  -5.205   5.763  1.00  0.00     0.010 A 
ATOM     40  C   UNL     1       9.448  -3.107   4.854  1.00  0.00     0.010 A 
ATOM     41  C   UNL     1      10.512  -3.979   5.133  1.00  0.00    -0.014 A 
BRANCH  41  42
ATOM     42  C   UNL     1      11.899  -3.588   4.765  1.00  0.00     0.031 A 
ATOM     43  C   UNL     1      12.541  -2.387   5.407  1.00  0.00     0.074 A 
ATOM     44  C   UNL     1      12.553  -4.273   3.806  1.00  0.00     0.049 A 
ATOM     45  N   UNL     1      13.704  -1.839   5.164  1.00  0.00    -0.248 NA
ATOM     46  C   UNL     1      11.755  -1.695   6.439  1.00  0.00     0.031 C 
ATOM     47  C   UNL     1      12.024  -5.436   3.089  1.00  0.00     0.029 A 
ATOM     48  N   UNL     1      13.801  -4.090   3.264  1.00  0.00    -0.354 N 
ATOM     49  C   UNL     1      13.782  -0.727   5.997  1.00  0.00     0.074 A 
ATOM     50  C   UNL     1      12.524  -0.651   6.709  1.00  0.00     0.031 C 
ATOM     51  C   UNL     1      12.950  -5.877   2.223  1.00  0.00     0.029 A 
ATOM     52  C   UNL     1      14.118  -5.004   2.284  1.00  0.00     0.049 A 
ATOM     53  H   UNL     1      14.411  -3.372   3.548  1.00  0.00     0.167 HD
ATOM     54  C   UNL     1      14.814   0.137   6.165  1.00  0.00     0.034 A 
ATOM     55  C   UNL     1      15.219  -5.118   1.515  1.00  0.00     0.034 A 
ATOM     56  C   UNL     1      16.068   0.034   5.458  1.00  0.00     0.049 A 
ATOM     57  C   UNL     1      16.342  -4.127   1.700  1.00  0.00     0.074 A 
ATOM     58  C   UNL     1      17.204   0.812   5.600  1.00  0.00     0.029 A 
ATOM     59  N   UNL     1      16.349  -0.897   4.466  1.00  0.00    -0.354 N 
ATOM     60  N   UNL     1      16.422  -3.113   2.530  1.00  0.00    -0.248 NA
ATOM     61  C   UNL     1      17.525  -4.303   0.848  1.00  0.00     0.031 C 
ATOM     62  C   UNL     1      18.141   0.401   4.645  1.00  0.00     0.029 A 
ATOM     63  C   UNL     1      17.625  -0.689   3.962  1.00  0.00     0.049 A 
ATOM     64  H   UNL     1      15.733  -1.603   4.164  1.00  0.00     0.167 HD
ATOM     65  C   UNL     1      17.680  -2.554   2.325  1.00  0.00     0.074 A 
ATOM     66  C   UNL     1      18.325  -3.349   1.301  1.00  0.00     0.031 C 
ATOM     67  C   UNL     1      18.253  -1.483   2.933  1.00  0.00     0.034 A 
BRANCH  54  68
ATOM     68  C   UNL     1      14.613   1.286   7.127  1.00  0.00     0.023 A 
ATOM     69  C   UNL     1      14.371   1.075   8.496  1.00  0.00     0.031 A 
ATOM     70  C   UNL     1      14.636   2.613   6.663  1.00  0.00     0.131 A 
ATOM     71  C   UNL     1      14.082   2.163   9.334  1.00  0.00     0.055 A 
ATOM     72  C   UNL     1      14.434   3.698   7.520  1.00  0.00     0.041 A 
ATOM     73  F   UNL     1      14.841   2.880   5.364  1.00  0.00    -0.206 F 
ATOM     74  C   UNL     1      14.138   3.475   8.861  1.00  0.00     0.022 A 
BRANCH  71  75
ATOM     75  S   UNL     1      13.482   1.827  11.012  1.00  0.00     0.124 S 
ATOM     76  O   UNL     1      12.294   1.019  10.744  1.00  0.00    -0.237 OA
ATOM     77  O   UNL     1      14.608   1.126  11.617  1.00  0.00    -0.237 OA
ATOM     78  O   UNL     1      13.210   3.158  11.552  1.00  0.00    -0.744 OA
ENDBRANCH  71  75
ENDBRANCH  54  68
BRANCH  55  79
ATOM     79  C   UNL     1      15.324  -6.204   0.499  1.00  0.00     0.023 A 
ATOM     80  C   UNL     1      16.301  -7.205   0.614  1.00  0.00     0.031 A 
ATOM     81  C   UNL     1      14.478  -6.234  -0.624  1.00  0.00     0.131 A 
ATOM     82  C   UNL     1      16.441  -8.167  -0.399  1.00  0.00     0.055 A 
ATOM     83  C   UNL     1      14.586  -7.225  -1.602  1.00  0.00     0.041 A 
ATOM     84  F   UNL     1      13.523  -5.304  -0.781  1.00  0.00    -0.206 F 
ATOM     85  C   UNL     1      15.581  -8.192  -1.499  1.00  0.00     0.022 A 
BRANCH  82  86
ATOM     86  S   UNL     1      17.822  -9.338  -0.297  1.00  0.00     0.124 S 
ATOM     87  O   UNL     1      18.971  -8.440  -0.267  1.00  0.00    -0.237 OA
ATOM     88  O   UNL     1      17.527 -10.047   0.943  1.00  0.00    -0.237 OA
ATOM     89  O   UNL     1      17.683 -10.133  -1.516  1.00  0.00    -0.744 OA
ENDBRANCH  82  86
ENDBRANCH  55  79
BRANCH  67  90
ATOM     90  C   UNL     1      19.671  -1.147   2.537  1.00  0.00     0.023 A 
ATOM     91  C   UNL     1      19.993  -0.689   1.247  1.00  0.00     0.031 A 
ATOM     92  C   UNL     1      20.717  -1.299   3.465  1.00  0.00     0.131 A 
ATOM     93  C   UNL     1      21.334  -0.453   0.904  1.00  0.00     0.055 A 
ATOM     94  C   UNL     1      22.040  -1.002   3.137  1.00  0.00     0.041 A 
ATOM     95  F   UNL     1      20.468  -1.737   4.710  1.00  0.00    -0.206 F 
ATOM     96  C   UNL     1      22.357  -0.589   1.846  1.00  0.00     0.022 A 
BRANCH  93  97
ATOM     97  S   UNL     1      21.735  -0.056  -0.820  1.00  0.00     0.124 S 
ATOM     98  O   UNL     1      21.216  -1.222  -1.528  1.00  0.00    -0.237 OA
ATOM     99  O   UNL     1      21.010   1.193  -1.030  1.00  0.00    -0.237 OA
ATOM    100  O   UNL     1      23.192   0.068  -0.813  1.00  0.00    -0.744 OA
ENDBRANCH  93  97
ENDBRANCH  67  90
ENDBRANCH  41  42
ENDBRANCH  33  36
ENDBRANCH  31  32
ENDBRANCH  30  31
ENDBRANCH  29  30
ENDBRANCH   1  29
TORSDOF 22
