REMARK SMILES C[C@H](C(=O)NCCCCCCNC(=O)c1ccc(-c2c3nc(c(-c4cc(S(=O)(=O)[O-])ccc4F)c4ccc([nH]4)c(-c4cc(S(=O)(=O)[O-])ccc4F)c4nc(c(-c5cc(S(=O)(=O)[O-])ccc5F)c5ccc2[nH]5)C=C4)C=C3)cc1)c1ccc2c(c1)OCCO2
REMARK SMILES IDX 9 1 8 2 7 3 6 4 5 5 3 6 4 7 2 9 1 10 78 11 79 12 83 13 80 14
REMARK SMILES IDX 82 15 81 16 84 17 87 18 85 19 86 20 10 21 11 22 12 23 13 24
REMARK SMILES IDX 14 26 15 27 16 28 77 29 17 30 76 31 18 32 19 33 20 34 70 35
REMARK SMILES IDX 21 36 75 37 69 38 71 39 22 40 74 41 68 42 67 43 23 45 55 46
REMARK SMILES IDX 35 47 54 48 36 49 39 50 53 51 72 52 37 53 38 54 52 56 73 57
REMARK SMILES IDX 40 58 24 59 25 60 33 61 26 62 32 63 34 64 31 65 27 66 28 67
REMARK SMILES IDX 29 68 30 69 56 70 57 71 65 72 58 73 64 74 66 75 63 76 59 77
REMARK SMILES IDX 60 78 61 79 62 80 41 81 42 82 50 83 43 84 49 85 51 86 48 87
REMARK SMILES IDX 44 88 45 89 46 90 47 91
REMARK H PARENT 5 8 12 25 71 44 39 55
REMARK Flexibility Score: inf
ROOT
ATOM      1  C   UNL     1       2.096   3.247   3.675  1.00  0.00     0.002 C 
ENDROOT
BRANCH   1   2
ATOM      2  C   UNL     1       2.567   1.800   3.534  1.00  0.00     0.002 C 
BRANCH   2   3
ATOM      3  C   UNL     1       1.447   0.758   3.511  1.00  0.00     0.021 C 
BRANCH   3   4
ATOM      4  C   UNL     1       0.414   0.960   2.405  1.00  0.00     0.116 C 
BRANCH   4   5
ATOM      5  N   UNL     1       1.021   0.989   1.092  1.00  0.00    -0.356 N 
ATOM      6  C   UNL     1       1.159  -0.007   0.180  1.00  0.00     0.227 C 
ATOM      7  O   UNL     1       1.706   0.266  -0.893  1.00  0.00    -0.274 OA
ATOM      8  H   UNL     1       1.389   1.861   0.819  1.00  0.00     0.163 HD
BRANCH   6   9
ATOM      9  C   UNL     1       0.671  -1.420   0.468  1.00  0.00     0.105 C 
ATOM     10  C   UNL     1       1.511  -2.105   1.548  1.00  0.00     0.023 C 
BRANCH   9  11
ATOM     11  C   UNL     1      -0.839  -1.601   0.588  1.00  0.00    -0.032 A 
ATOM     12  C   UNL     1      -1.733  -0.770  -0.119  1.00  0.00     0.008 A 
ATOM     13  C   UNL     1      -1.339  -2.760   1.199  1.00  0.00     0.055 A 
ATOM     14  C   UNL     1      -3.052  -1.169  -0.346  1.00  0.00     0.051 A 
ATOM     15  C   UNL     1      -2.611  -3.203   0.887  1.00  0.00     0.161 A 
ATOM     16  C   UNL     1      -3.438  -2.434   0.070  1.00  0.00     0.161 A 
ATOM     17  O   UNL     1      -2.912  -4.484   1.260  1.00  0.00    -0.486 OA
ATOM     18  O   UNL     1      -4.544  -3.003  -0.517  1.00  0.00    -0.486 OA
ATOM     19  C   UNL     1      -3.767  -5.146   0.319  1.00  0.00     0.271 C 
ATOM     20  C   UNL     1      -4.115  -4.316  -0.915  1.00  0.00     0.271 C 
ENDBRANCH   9  11
ENDBRANCH   6   9
ENDBRANCH   4   5
ENDBRANCH   3   4
ENDBRANCH   2   3
ENDBRANCH   1   2
BRANCH   1  21
ATOM     21  C   UNL     1       1.166   3.505   4.861  1.00  0.00     0.021 C 
BRANCH  21  22
ATOM     22  C   UNL     1       1.724   3.070   6.211  1.00  0.00     0.116 C 
BRANCH  22  23
ATOM     23  N   UNL     1       2.922   3.809   6.571  1.00  0.00    -0.352 N 
ATOM     24  C   UNL     1       3.172   4.539   7.706  1.00  0.00     0.251 C 
ATOM     25  H   UNL     1       3.653   3.784   5.911  1.00  0.00     0.163 HD
ATOM     26  O   UNL     1       4.158   5.270   7.765  1.00  0.00    -0.269 OA
BRANCH  24  27
ATOM     27  C   UNL     1       2.228   4.457   8.840  1.00  0.00     0.039 A 
ATOM     28  C   UNL     1       1.780   5.636   9.440  1.00  0.00     0.014 A 
ATOM     29  C   UNL     1       1.762   3.216   9.285  1.00  0.00     0.014 A 
ATOM     30  C   UNL     1       0.811   5.573  10.444  1.00  0.00     0.010 A 
ATOM     31  C   UNL     1       0.742   3.162  10.229  1.00  0.00     0.010 A 
ATOM     32  C   UNL     1       0.256   4.339  10.819  1.00  0.00    -0.014 A 
BRANCH  32  33
ATOM     33  C   UNL     1      -0.829   4.248  11.832  1.00  0.00     0.031 A 
ATOM     34  C   UNL     1      -0.597   3.491  13.110  1.00  0.00     0.074 A 
ATOM     35  C   UNL     1      -2.044   4.765  11.563  1.00  0.00     0.049 A 
ATOM     36  N   UNL     1      -1.444   3.183  14.058  1.00  0.00    -0.248 NA
ATOM     37  C   UNL     1       0.764   2.981  13.328  1.00  0.00     0.031 C 
ATOM     38  C   UNL     1      -2.402   5.485  10.339  1.00  0.00     0.029 A 
ATOM     39  N   UNL     1      -3.210   4.743  12.288  1.00  0.00    -0.354 N 
ATOM     40  C   UNL     1      -0.724   2.425  14.975  1.00  0.00     0.074 A 
ATOM     41  C   UNL     1       0.608   2.267  14.431  1.00  0.00     0.031 C 
ATOM     42  C   UNL     1      -3.696   5.839  10.401  1.00  0.00     0.029 A 
ATOM     43  C   UNL     1      -4.274   5.326  11.640  1.00  0.00     0.049 A 
ATOM     44  H   UNL     1      -3.278   4.347  13.187  1.00  0.00     0.167 HD
ATOM     45  C   UNL     1      -1.133   1.925  16.169  1.00  0.00     0.034 A 
ATOM     46  C   UNL     1      -5.575   5.412  11.985  1.00  0.00     0.034 A 
ATOM     47  C   UNL     1      -2.466   2.099  16.692  1.00  0.00     0.049 A 
ATOM     48  C   UNL     1      -6.021   4.824  13.300  1.00  0.00     0.074 A 
ATOM     49  C   UNL     1      -2.971   1.697  17.916  1.00  0.00     0.029 A 
ATOM     50  N   UNL     1      -3.515   2.709  16.012  1.00  0.00    -0.354 N 
ATOM     51  N   UNL     1      -5.316   4.163  14.188  1.00  0.00    -0.248 NA
ATOM     52  C   UNL     1      -7.433   5.001  13.663  1.00  0.00     0.031 C 
ATOM     53  C   UNL     1      -4.340   1.986  17.942  1.00  0.00     0.029 A 
ATOM     54  C   UNL     1      -4.673   2.655  16.774  1.00  0.00     0.049 A 
ATOM     55  H   UNL     1      -3.446   3.120  15.120  1.00  0.00     0.167 HD
ATOM     56  C   UNL     1      -6.193   3.870  15.229  1.00  0.00     0.074 A 
ATOM     57  C   UNL     1      -7.476   4.431  14.859  1.00  0.00     0.031 C 
ATOM     58  C   UNL     1      -5.953   3.207  16.390  1.00  0.00     0.034 A 
BRANCH  45  59
ATOM     59  C   UNL     1      -0.131   1.111  16.958  1.00  0.00     0.023 A 
ATOM     60  C   UNL     1       1.095   1.655  17.383  1.00  0.00     0.031 A 
ATOM     61  C   UNL     1      -0.378  -0.244  17.242  1.00  0.00     0.131 A 
ATOM     62  C   UNL     1       2.066   0.827  17.965  1.00  0.00     0.055 A 
ATOM     63  C   UNL     1       0.553  -1.038  17.915  1.00  0.00     0.041 A 
ATOM     64  F   UNL     1      -1.520  -0.829  16.848  1.00  0.00    -0.206 F 
ATOM     65  C   UNL     1       1.793  -0.510  18.260  1.00  0.00     0.022 A 
BRANCH  62  66
ATOM     66  S   UNL     1       3.751   1.473  18.150  1.00  0.00     0.124 S 
ATOM     67  O   UNL     1       4.065   1.873  16.780  1.00  0.00    -0.237 OA
ATOM     68  O   UNL     1       3.569   2.558  19.107  1.00  0.00    -0.237 OA
ATOM     69  O   UNL     1       4.507   0.324  18.642  1.00  0.00    -0.744 OA
ENDBRANCH  62  66
ENDBRANCH  45  59
BRANCH  46  70
ATOM     70  C   UNL     1      -6.549   6.050  11.054  1.00  0.00     0.023 A 
ATOM     71  C   UNL     1      -7.198   7.250  11.382  1.00  0.00     0.031 A 
ATOM     72  C   UNL     1      -6.844   5.458   9.812  1.00  0.00     0.131 A 
ATOM     73  C   UNL     1      -8.132   7.805  10.491  1.00  0.00     0.055 A 
ATOM     74  C   UNL     1      -7.734   6.040   8.908  1.00  0.00     0.041 A 
ATOM     75  F   UNL     1      -6.246   4.313   9.447  1.00  0.00    -0.206 F 
ATOM     76  C   UNL     1      -8.391   7.217   9.251  1.00  0.00     0.022 A 
BRANCH  73  77
ATOM     77  S   UNL     1      -9.053   9.282  11.002  1.00  0.00     0.124 S 
ATOM     78  O   UNL     1      -9.734   8.807  12.201  1.00  0.00    -0.237 OA
ATOM     79  O   UNL     1      -7.981  10.250  11.213  1.00  0.00    -0.237 OA
ATOM     80  O   UNL     1      -9.919   9.556   9.857  1.00  0.00    -0.744 OA
ENDBRANCH  73  77
ENDBRANCH  46  70
BRANCH  58  81
ATOM     81  C   UNL     1      -7.092   3.094  17.375  1.00  0.00     0.023 A 
ATOM     82  C   UNL     1      -8.231   2.313  17.114  1.00  0.00     0.031 A 
ATOM     83  C   UNL     1      -7.017   3.762  18.611  1.00  0.00     0.131 A 
ATOM     84  C   UNL     1      -9.265   2.247  18.062  1.00  0.00     0.055 A 
ATOM     85  C   UNL     1      -8.020   3.645  19.574  1.00  0.00     0.041 A 
ATOM     86  F   UNL     1      -5.955   4.526  18.911  1.00  0.00    -0.206 F 
ATOM     87  C   UNL     1      -9.156   2.891  19.298  1.00  0.00     0.022 A 
BRANCH  84  88
ATOM     88  S   UNL     1     -10.790   1.362  17.636  1.00  0.00     0.124 S 
ATOM     89  O   UNL     1     -11.251   2.101  16.465  1.00  0.00    -0.237 OA
ATOM     90  O   UNL     1     -10.307   0.008  17.387  1.00  0.00    -0.237 OA
ATOM     91  O   UNL     1     -11.620   1.514  18.830  1.00  0.00    -0.744 OA
ENDBRANCH  84  88
ENDBRANCH  58  81
ENDBRANCH  32  33
ENDBRANCH  24  27
ENDBRANCH  22  23
ENDBRANCH  21  22
ENDBRANCH   1  21
TORSDOF 17
