REMARK SMILES CCCC[C@H](C(=O)NCCCCCCNC(=O)c1ccc(-c2c3nc(c(-c4cc(S(=O)(=O)[O-])ccc4F)c4ccc([nH]4)c(-c4cc(S(=O)(=O)[O-])ccc4F)c4nc(c(-c5cc(S(=O)(=O)[O-])ccc5F)c5ccc2[nH]5)C=C4)C=C3)cc1)c1ccnn1C
REMARK SMILES IDX 11 1 10 2 9 3 8 4 6 5 7 6 5 8 4 9 3 10 2 11 1 12 81 13 82 14
REMARK SMILES IDX 85 15 83 16 84 17 86 18 12 19 13 20 14 21 15 22 16 23 17 25
REMARK SMILES IDX 18 26 19 27 80 28 20 29 79 30 21 31 22 32 23 33 73 34 24 35
REMARK SMILES IDX 78 36 72 37 74 38 25 39 77 40 71 41 70 42 26 44 58 45 38 46
REMARK SMILES IDX 57 47 39 48 42 49 56 50 75 51 40 52 41 53 55 55 76 56 43 57
REMARK SMILES IDX 27 58 28 59 36 60 29 61 35 62 37 63 34 64 30 65 31 66 32 67
REMARK SMILES IDX 33 68 59 69 60 70 68 71 61 72 67 73 69 74 66 75 62 76 63 77
REMARK SMILES IDX 64 78 65 79 44 80 45 81 53 82 46 83 52 84 54 85 51 86 47 87
REMARK SMILES IDX 48 88 49 89 50 90
REMARK H PARENT 8 7 15 24 74 43 42 54
REMARK Flexibility Score: inf
ROOT
ATOM      1  C   UNL     1       2.717  -3.840  -1.112  1.00  0.00     0.002 C 
ENDROOT
BRANCH   1   2
ATOM      2  C   UNL     1       1.210  -3.627  -1.316  1.00  0.00     0.021 C 
BRANCH   2   3
ATOM      3  C   UNL     1       0.723  -2.221  -0.942  1.00  0.00     0.116 C 
BRANCH   3   4
ATOM      4  N   UNL     1       1.075  -1.296  -1.996  1.00  0.00    -0.356 N 
ATOM      5  C   UNL     1       0.370  -0.946  -3.109  1.00  0.00     0.229 C 
ATOM      6  O   UNL     1       1.053  -0.578  -4.073  1.00  0.00    -0.274 OA
ATOM      7  H   UNL     1       1.949  -0.855  -1.895  1.00  0.00     0.163 HD
BRANCH   5   8
ATOM      8  C   UNL     1      -1.198  -0.908  -3.135  1.00  0.00     0.127 C 
BRANCH   8   9
ATOM      9  C   UNL     1      -1.505   0.438  -3.842  1.00  0.00     0.020 C 
BRANCH   9  10
ATOM     10  C   UNL     1      -2.858   0.900  -4.370  1.00  0.00     0.001 C 
BRANCH  10  11
ATOM     11  C   UNL     1      -4.098   0.492  -3.595  1.00  0.00    -0.003 C 
ATOM     12  C   UNL     1      -4.500   1.559  -2.591  1.00  0.00     0.004 C 
ENDBRANCH  10  11
ENDBRANCH   9  10
ENDBRANCH   8   9
BRANCH   8  13
ATOM     13  C   UNL     1      -1.697  -2.263  -3.620  1.00  0.00     0.050 A 
ATOM     14  C   UNL     1      -1.779  -3.435  -2.870  1.00  0.00     0.046 A 
ATOM     15  N   UNL     1      -2.102  -2.693  -4.878  1.00  0.00    -0.272 N 
ATOM     16  C   UNL     1      -1.798  -4.482  -3.801  1.00  0.00     0.135 A 
ATOM     17  N   UNL     1      -1.865  -4.019  -5.044  1.00  0.00    -0.182 NA
ATOM     18  C   UNL     1      -3.247  -2.231  -5.635  1.00  0.00     0.174 C 
ENDBRANCH   8  13
ENDBRANCH   5   8
ENDBRANCH   3   4
ENDBRANCH   2   3
ENDBRANCH   1   2
BRANCH   1  19
ATOM     19  C   UNL     1       3.178  -3.836   0.349  1.00  0.00     0.002 C 
BRANCH  19  20
ATOM     20  C   UNL     1       2.438  -4.812   1.266  1.00  0.00     0.021 C 
BRANCH  20  21
ATOM     21  C   UNL     1       2.470  -6.269   0.808  1.00  0.00     0.116 C 
BRANCH  21  22
ATOM     22  N   UNL     1       3.823  -6.803   0.801  1.00  0.00    -0.352 N 
ATOM     23  C   UNL     1       4.342  -7.853   1.512  1.00  0.00     0.251 C 
ATOM     24  H   UNL     1       4.455  -6.346   0.200  1.00  0.00     0.163 HD
ATOM     25  O   UNL     1       5.564  -8.010   1.565  1.00  0.00    -0.269 OA
BRANCH  23  26
ATOM     26  C   UNL     1       3.442  -8.781   2.228  1.00  0.00     0.039 A 
ATOM     27  C   UNL     1       3.762  -9.172   3.530  1.00  0.00     0.014 A 
ATOM     28  C   UNL     1       2.287  -9.274   1.612  1.00  0.00     0.014 A 
ATOM     29  C   UNL     1       2.894 -10.010   4.235  1.00  0.00     0.010 A 
ATOM     30  C   UNL     1       1.388 -10.050   2.341  1.00  0.00     0.010 A 
ATOM     31  C   UNL     1       1.683 -10.430   3.659  1.00  0.00    -0.014 A 
BRANCH  31  32
ATOM     32  C   UNL     1       0.720 -11.271   4.419  1.00  0.00     0.031 A 
ATOM     33  C   UNL     1       0.397 -12.663   3.946  1.00  0.00     0.074 A 
ATOM     34  C   UNL     1       0.099 -10.761   5.501  1.00  0.00     0.049 A 
ATOM     35  N   UNL     1      -0.462 -13.523   4.430  1.00  0.00    -0.248 NA
ATOM     36  C   UNL     1       1.115 -13.138   2.754  1.00  0.00     0.031 C 
ATOM     37  C   UNL     1       0.303  -9.413   6.035  1.00  0.00     0.029 A 
ATOM     38  N   UNL     1      -0.836 -11.311   6.343  1.00  0.00    -0.354 N 
ATOM     39  C   UNL     1      -0.395 -14.636   3.599  1.00  0.00     0.074 A 
ATOM     40  C   UNL     1       0.541 -14.312   2.543  1.00  0.00     0.031 C 
ATOM     41  C   UNL     1      -0.461  -9.251   7.127  1.00  0.00     0.029 A 
ATOM     42  C   UNL     1      -1.247 -10.461   7.344  1.00  0.00     0.049 A 
ATOM     43  H   UNL     1      -1.179 -12.228   6.240  1.00  0.00     0.167 HD
ATOM     44  C   UNL     1      -1.038 -15.825   3.717  1.00  0.00     0.034 A 
ATOM     45  C   UNL     1      -2.164 -10.631   8.318  1.00  0.00     0.034 A 
ATOM     46  C   UNL     1      -1.963 -16.133   4.781  1.00  0.00     0.049 A 
ATOM     47  C   UNL     1      -2.891 -11.950   8.410  1.00  0.00     0.074 A 
ATOM     48  C   UNL     1      -2.631 -17.320   5.026  1.00  0.00     0.029 A 
ATOM     49  N   UNL     1      -2.361 -15.245   5.773  1.00  0.00    -0.354 N 
ATOM     50  N   UNL     1      -2.780 -13.010   7.643  1.00  0.00    -0.248 NA
ATOM     51  C   UNL     1      -3.858 -12.098   9.505  1.00  0.00     0.031 C 
ATOM     52  C   UNL     1      -3.486 -17.127   6.116  1.00  0.00     0.029 A 
ATOM     53  C   UNL     1      -3.290 -15.847   6.609  1.00  0.00     0.049 A 
ATOM     54  H   UNL     1      -2.032 -14.322   5.869  1.00  0.00     0.167 HD
ATOM     55  C   UNL     1      -3.639 -13.962   8.186  1.00  0.00     0.074 A 
ATOM     56  C   UNL     1      -4.247 -13.354   9.352  1.00  0.00     0.031 C 
ATOM     57  C   UNL     1      -3.898 -15.226   7.763  1.00  0.00     0.034 A 
BRANCH  44  58
ATOM     58  C   UNL     1      -0.779 -16.866   2.653  1.00  0.00     0.023 A 
ATOM     59  C   UNL     1       0.502 -17.407   2.443  1.00  0.00     0.031 A 
ATOM     60  C   UNL     1      -1.822 -17.310   1.821  1.00  0.00     0.131 A 
ATOM     61  C   UNL     1       0.723 -18.297   1.381  1.00  0.00     0.055 A 
ATOM     62  C   UNL     1      -1.614 -18.262   0.820  1.00  0.00     0.041 A 
ATOM     63  F   UNL     1      -3.063 -16.816   1.957  1.00  0.00    -0.206 F 
ATOM     64  C   UNL     1      -0.332 -18.750   0.585  1.00  0.00     0.022 A 
BRANCH  61  65
ATOM     65  S   UNL     1       2.432 -18.738   0.962  1.00  0.00     0.124 S 
ATOM     66  O   UNL     1       3.015 -17.427   0.689  1.00  0.00    -0.237 OA
ATOM     67  O   UNL     1       2.892 -19.403   2.175  1.00  0.00    -0.237 OA
ATOM     68  O   UNL     1       2.286 -19.603  -0.207  1.00  0.00    -0.744 OA
ENDBRANCH  61  65
ENDBRANCH  44  58
BRANCH  45  69
ATOM     69  C   UNL     1      -2.461  -9.529   9.279  1.00  0.00     0.023 A 
ATOM     70  C   UNL     1      -2.206  -9.676  10.652  1.00  0.00     0.031 A 
ATOM     71  C   UNL     1      -3.049  -8.328   8.845  1.00  0.00     0.131 A 
ATOM     72  C   UNL     1      -2.584  -8.663  11.547  1.00  0.00     0.055 A 
ATOM     73  C   UNL     1      -3.370  -7.299   9.732  1.00  0.00     0.041 A 
ATOM     74  F   UNL     1      -3.313  -8.132   7.543  1.00  0.00    -0.206 F 
ATOM     75  C   UNL     1      -3.151  -7.470  11.095  1.00  0.00     0.022 A 
BRANCH  72  76
ATOM     76  S   UNL     1      -2.412  -8.969  13.327  1.00  0.00     0.124 S 
ATOM     77  O   UNL     1      -3.220 -10.170  13.501  1.00  0.00    -0.237 OA
ATOM     78  O   UNL     1      -0.969  -9.139  13.466  1.00  0.00    -0.237 OA
ATOM     79  O   UNL     1      -2.956  -7.756  13.934  1.00  0.00    -0.744 OA
ENDBRANCH  72  76
ENDBRANCH  45  69
BRANCH  57  80
ATOM     80  C   UNL     1      -4.848 -16.050   8.599  1.00  0.00     0.023 A 
ATOM     81  C   UNL     1      -6.208 -15.715   8.727  1.00  0.00     0.031 A 
ATOM     82  C   UNL     1      -4.380 -17.183   9.289  1.00  0.00     0.131 A 
ATOM     83  C   UNL     1      -7.037 -16.468   9.572  1.00  0.00     0.055 A 
ATOM     84  C   UNL     1      -5.225 -17.967  10.075  1.00  0.00     0.041 A 
ATOM     85  F   UNL     1      -3.091 -17.549   9.208  1.00  0.00    -0.206 F 
ATOM     86  C   UNL     1      -6.559 -17.603  10.232  1.00  0.00     0.022 A 
BRANCH  83  87
ATOM     87  S   UNL     1      -8.728 -15.886   9.878  1.00  0.00     0.124 S 
ATOM     88  O   UNL     1      -8.495 -14.551  10.420  1.00  0.00    -0.237 OA
ATOM     89  O   UNL     1      -9.322 -15.938   8.547  1.00  0.00    -0.237 OA
ATOM     90  O   UNL     1      -9.258 -16.858  10.832  1.00  0.00    -0.744 OA
ENDBRANCH  83  87
ENDBRANCH  57  80
ENDBRANCH  31  32
ENDBRANCH  23  26
ENDBRANCH  21  22
ENDBRANCH  20  21
ENDBRANCH  19  20
ENDBRANCH   1  19
TORSDOF 20
