REMARK SMILES O=C(Cc1ccc(F)c(F)c1)NC1(C(=O)NCCCCCCNC(=O)c2ccc(-c3c4nc(c(-c5cc(S(=O)(=O)[O-])ccc5F)c5ccc([nH]5)c(-c5cc(S(=O)(=O)[O-])ccc5F)c5nc(c(-c6cc(S(=O)(=O)[O-])ccc6F)c6ccc3[nH]6)C=C5)C=C4)cc2)CCCC1
REMARK SMILES IDX 19 1 18 2 17 3 16 4 14 5 15 6 13 8 89 9 92 10 90 11 91 12
REMARK SMILES IDX 12 13 1 14 2 15 3 17 4 18 5 19 11 20 6 21 9 22 7 23 10 24
REMARK SMILES IDX 8 25 20 26 21 27 22 28 23 29 24 30 25 32 26 33 27 34 88 35
REMARK SMILES IDX 28 36 87 37 29 38 30 39 31 40 81 41 32 42 86 43 80 44 82 45
REMARK SMILES IDX 33 46 85 47 79 48 78 49 34 51 66 52 46 53 65 54 47 55 50 56
REMARK SMILES IDX 64 57 83 58 48 59 49 60 63 62 84 63 51 64 35 65 36 66 44 67
REMARK SMILES IDX 37 68 43 69 45 70 42 71 38 72 39 73 40 74 41 75 67 76 68 77
REMARK SMILES IDX 76 78 69 79 75 80 77 81 74 82 70 83 71 84 72 85 73 86 52 87
REMARK SMILES IDX 53 88 61 89 54 90 60 91 62 92 59 93 55 94 56 95 57 96 58 97
REMARK H PARENT 16 7 12 16 23 31 82 50 50 61
REMARK Flexibility Score: inf
ROOT
ATOM      1  C   UNL     1      -2.316  -5.287  -0.680  1.00  0.00     0.002 C 
ENDROOT
BRANCH   1   2
ATOM      2  C   UNL     1      -0.799  -5.274  -0.897  1.00  0.00     0.021 C 
BRANCH   2   3
ATOM      3  C   UNL     1      -0.321  -4.108  -1.760  1.00  0.00     0.116 C 
BRANCH   3   4
ATOM      4  N   UNL     1      -0.240  -2.909  -0.965  1.00  0.00    -0.354 N 
ATOM      5  C   UNL     1       0.852  -2.323  -0.407  1.00  0.00     0.245 C 
ATOM      6  O   UNL     1       0.662  -1.807   0.705  1.00  0.00    -0.272 OA
ATOM      7  H   UNL     1      -1.095  -2.449  -0.803  1.00  0.00     0.163 HD
BRANCH   5   8
ATOM      8  C   UNL     1       2.289  -2.358  -1.061  1.00  0.00     0.119 C 
ATOM      9  C   UNL     1       2.373  -2.305  -2.589  1.00  0.00     0.038 C 
ATOM     10  C   UNL     1       3.022  -3.644  -0.638  1.00  0.00     0.038 C 
ATOM     11  C   UNL     1       2.878  -3.660  -3.083  1.00  0.00     0.003 C 
ATOM     12  C   UNL     1       3.179  -4.523  -1.867  1.00  0.00     0.003 C 
BRANCH   8  13
ATOM     13  N   UNL     1       3.016  -1.205  -0.480  1.00  0.00    -0.341 N 
ATOM     14  O   UNL     1       1.558   0.417  -1.162  1.00  0.00    -0.275 OA
ATOM     15  C   UNL     1       2.495   0.068  -0.444  1.00  0.00     0.225 C 
ATOM     16  H   UNL     1       3.913  -1.356  -0.102  1.00  0.00     0.164 HD
BRANCH  15  17
ATOM     17  C   UNL     1       3.165   1.052   0.504  1.00  0.00     0.135 C 
BRANCH  17  18
ATOM     18  C   UNL     1       3.886   0.562   1.754  1.00  0.00    -0.036 A 
ATOM     19  C   UNL     1       3.714  -0.704   2.340  1.00  0.00     0.007 A 
ATOM     20  C   UNL     1       4.745   1.470   2.403  1.00  0.00     0.046 A 
ATOM     21  C   UNL     1       4.473  -1.099   3.448  1.00  0.00     0.043 A 
ATOM     22  C   UNL     1       5.461   1.089   3.536  1.00  0.00     0.159 A 
ATOM     23  C   UNL     1       5.348  -0.199   4.038  1.00  0.00     0.158 A 
ATOM     24  F   UNL     1       6.265   1.979   4.134  1.00  0.00    -0.204 F 
ATOM     25  F   UNL     1       6.069  -0.578   5.102  1.00  0.00    -0.204 F 
ENDBRANCH  17  18
ENDBRANCH  15  17
ENDBRANCH   8  13
ENDBRANCH   5   8
ENDBRANCH   3   4
ENDBRANCH   2   3
ENDBRANCH   1   2
BRANCH   1  26
ATOM     26  C   UNL     1      -3.141  -5.379  -1.969  1.00  0.00     0.002 C 
BRANCH  26  27
ATOM     27  C   UNL     1      -2.755  -6.532  -2.900  1.00  0.00     0.021 C 
BRANCH  27  28
ATOM     28  C   UNL     1      -2.831  -7.913  -2.255  1.00  0.00     0.116 C 
BRANCH  28  29
ATOM     29  N   UNL     1      -4.173  -8.208  -1.776  1.00  0.00    -0.352 N 
ATOM     30  C   UNL     1      -5.043  -9.193  -2.174  1.00  0.00     0.251 C 
ATOM     31  H   UNL     1      -4.505  -7.615  -1.064  1.00  0.00     0.163 HD
ATOM     32  O   UNL     1      -6.223  -9.136  -1.848  1.00  0.00    -0.269 OA
BRANCH  30  33
ATOM     33  C   UNL     1      -4.547 -10.305  -3.011  1.00  0.00     0.039 A 
ATOM     34  C   UNL     1      -5.278 -10.683  -4.139  1.00  0.00     0.014 A 
ATOM     35  C   UNL     1      -3.355 -10.961  -2.686  1.00  0.00     0.014 A 
ATOM     36  C   UNL     1      -4.769 -11.666  -4.990  1.00  0.00     0.010 A 
ATOM     37  C   UNL     1      -2.818 -11.891  -3.571  1.00  0.00     0.010 A 
ATOM     38  C   UNL     1      -3.511 -12.240  -4.739  1.00  0.00    -0.014 A 
BRANCH  38  39
ATOM     39  C   UNL     1      -2.880 -13.167  -5.713  1.00  0.00     0.031 A 
ATOM     40  C   UNL     1      -2.595 -14.591  -5.332  1.00  0.00     0.074 A 
ATOM     41  C   UNL     1      -2.489 -12.693  -6.912  1.00  0.00     0.049 A 
ATOM     42  N   UNL     1      -1.954 -15.513  -6.002  1.00  0.00    -0.248 NA
ATOM     43  C   UNL     1      -3.073 -15.024  -4.011  1.00  0.00     0.031 C 
ATOM     44  C   UNL     1      -2.681 -11.317  -7.377  1.00  0.00     0.029 A 
ATOM     45  N   UNL     1      -1.833 -13.303  -7.951  1.00  0.00    -0.354 N 
ATOM     46  C   UNL     1      -1.952 -16.640  -5.187  1.00  0.00     0.074 A 
ATOM     47  C   UNL     1      -2.596 -16.258  -3.947  1.00  0.00     0.031 C 
ATOM     48  C   UNL     1      -2.164 -11.192  -8.608  1.00  0.00     0.029 A 
ATOM     49  C   UNL     1      -1.551 -12.457  -8.998  1.00  0.00     0.049 A 
ATOM     50  H   UNL     1      -1.586 -14.257  -7.946  1.00  0.00     0.167 HD
ATOM     51  C   UNL     1      -1.477 -17.881  -5.460  1.00  0.00     0.034 A 
ATOM     52  C   UNL     1      -0.850 -12.664 -10.131  1.00  0.00     0.034 A 
ATOM     53  C   UNL     1      -0.823 -18.234  -6.698  1.00  0.00     0.049 A 
ATOM     54  C   UNL     1      -0.265 -14.029 -10.383  1.00  0.00     0.074 A 
ATOM     55  C   UNL     1      -0.344 -19.468  -7.100  1.00  0.00     0.029 A 
ATOM     56  N   UNL     1      -0.536 -17.346  -7.729  1.00  0.00    -0.354 N 
ATOM     57  N   UNL     1      -0.320 -15.101  -9.627  1.00  0.00    -0.248 NA
ATOM     58  C   UNL     1       0.474 -14.212 -11.638  1.00  0.00     0.031 C 
ATOM     59  C   UNL     1       0.303 -19.310  -8.330  1.00  0.00     0.029 A 
ATOM     60  C   UNL     1       0.156 -17.994  -8.741  1.00  0.00     0.049 A 
ATOM     61  H   UNL     1      -0.788 -16.394  -7.739  1.00  0.00     0.167 HD
ATOM     62  C   UNL     1       0.367 -16.091 -10.323  1.00  0.00     0.074 A 
ATOM     63  C   UNL     1       0.805 -15.494 -11.569  1.00  0.00     0.031 C 
ATOM     64  C   UNL     1       0.614 -17.378  -9.966  1.00  0.00     0.034 A 
BRANCH  51  65
ATOM     65  C   UNL     1      -1.625 -18.931  -4.383  1.00  0.00     0.023 A 
ATOM     66  C   UNL     1      -2.890 -19.323  -3.908  1.00  0.00     0.031 A 
ATOM     67  C   UNL     1      -0.493 -19.521  -3.794  1.00  0.00     0.131 A 
ATOM     68  C   UNL     1      -2.990 -20.203  -2.821  1.00  0.00     0.055 A 
ATOM     69  C   UNL     1      -0.602 -20.467  -2.772  1.00  0.00     0.041 A 
ATOM     70  F   UNL     1       0.743 -19.174  -4.187  1.00  0.00    -0.206 F 
ATOM     71  C   UNL     1      -1.855 -20.799  -2.266  1.00  0.00     0.022 A 
BRANCH  68  72
ATOM     72  S   UNL     1      -4.609 -20.420  -2.033  1.00  0.00     0.124 S 
ATOM     73  O   UNL     1      -4.954 -19.043  -1.684  1.00  0.00    -0.237 OA
ATOM     74  O   UNL     1      -5.399 -21.026  -3.099  1.00  0.00    -0.237 OA
ATOM     75  O   UNL     1      -4.323 -21.290  -0.894  1.00  0.00    -0.744 OA
ENDBRANCH  68  72
ENDBRANCH  51  65
BRANCH  52  76
ATOM     76  C   UNL     1      -0.626 -11.540 -11.085  1.00  0.00     0.023 A 
ATOM     77  C   UNL     1      -1.154 -11.571 -12.384  1.00  0.00     0.031 A 
ATOM     78  C   UNL     1       0.141 -10.421 -10.711  1.00  0.00     0.131 A 
ATOM     79  C   UNL     1      -0.881 -10.521 -13.274  1.00  0.00     0.055 A 
ATOM     80  C   UNL     1       0.363  -9.353 -11.581  1.00  0.00     0.041 A 
ATOM     81  F   UNL     1       0.668 -10.339  -9.479  1.00  0.00    -0.206 F 
ATOM     82  C   UNL     1      -0.141  -9.404 -12.877  1.00  0.00     0.022 A 
BRANCH  79  83
ATOM     83  S   UNL     1      -1.444 -10.668 -14.992  1.00  0.00     0.124 S 
ATOM     84  O   UNL     1      -0.779 -11.894 -15.418  1.00  0.00    -0.237 OA
ATOM     85  O   UNL     1      -2.892 -10.745 -14.830  1.00  0.00    -0.237 OA
ATOM     86  O   UNL     1      -0.954  -9.441 -15.617  1.00  0.00    -0.744 OA
ENDBRANCH  79  83
ENDBRANCH  52  76
BRANCH  64  87
ATOM     87  C   UNL     1       1.385 -18.227 -10.947  1.00  0.00     0.023 A 
ATOM     88  C   UNL     1       2.735 -17.968 -11.240  1.00  0.00     0.031 A 
ATOM     89  C   UNL     1       0.764 -19.311 -11.592  1.00  0.00     0.131 A 
ATOM     90  C   UNL     1       3.408 -18.753 -12.188  1.00  0.00     0.055 A 
ATOM     91  C   UNL     1       1.456 -20.127 -12.488  1.00  0.00     0.041 A 
ATOM     92  F   UNL     1      -0.525 -19.601 -11.355  1.00  0.00    -0.206 F 
ATOM     93  C   UNL     1       2.783 -19.844 -12.798  1.00  0.00     0.022 A 
BRANCH  90  94
ATOM     94  S   UNL     1       5.091 -18.282 -12.674  1.00  0.00     0.124 S 
ATOM     95  O   UNL     1       4.885 -16.943 -13.216  1.00  0.00    -0.237 OA
ATOM     96  O   UNL     1       5.814 -18.353 -11.408  1.00  0.00    -0.237 OA
ATOM     97  O   UNL     1       5.462 -19.299 -13.656  1.00  0.00    -0.744 OA
ENDBRANCH  90  94
ENDBRANCH  64  87
ENDBRANCH  38  39
ENDBRANCH  30  33
ENDBRANCH  28  29
ENDBRANCH  27  28
ENDBRANCH  26  27
ENDBRANCH   1  26
TORSDOF 19
