REMARK SMILES O=C(NCCCCCCNC(=O)[C@@]1(Cc2cn3ccccc3n2)CCC[NH2+]C1)c1ccc(-c2c3nc(c(-c4cc(S(=O)(=O)[O-])ccc4F)c4ccc([nH]4)c(-c4cc(S(=O)(=O)[O-])ccc4F)c4nc(c(-c5cc(S(=O)(=O)[O-])ccc5F)c5ccc2[nH]5)C=C4)C=C3)cc1
REMARK SMILES IDX 6 1 5 2 4 3 3 4 1 5 2 6 29 8 30 9 91 10 31 11 90 12 32 13
REMARK SMILES IDX 33 14 34 15 84 16 35 17 89 18 83 19 85 20 36 21 88 22 82 23
REMARK SMILES IDX 81 24 37 26 69 27 49 28 68 29 50 30 53 31 67 32 86 33 51 34
REMARK SMILES IDX 52 35 66 37 87 38 54 39 38 40 39 41 47 42 40 43 46 44 48 45
REMARK SMILES IDX 45 46 41 47 42 48 43 49 44 50 70 51 71 52 79 53 72 54 78 55
REMARK SMILES IDX 80 56 77 57 73 58 74 59 75 60 76 61 55 62 56 63 64 64 57 65
REMARK SMILES IDX 63 66 65 67 62 68 58 69 59 70 60 71 61 72 7 73 8 74 9 75
REMARK SMILES IDX 10 76 11 77 12 79 13 80 24 81 28 82 25 83 27 84 26 85 14 88
REMARK SMILES IDX 15 89 16 90 23 91 17 92 22 93 18 94 21 95 19 96 20 97
REMARK H PARENT 3 7 85 25 53 36 10 78 27 86 27 87
REMARK Flexibility Score: inf
ROOT
ATOM      1  C   UNL     1       5.220   1.371   1.907  1.00  0.00     0.002 C 
ENDROOT
BRANCH   1   2
ATOM      2  C   UNL     1       3.864   1.827   2.451  1.00  0.00     0.021 C 
BRANCH   2   3
ATOM      3  C   UNL     1       3.154   2.818   1.540  1.00  0.00     0.116 C 
BRANCH   3   4
ATOM      4  N   UNL     1       2.839   2.207   0.259  1.00  0.00    -0.352 N 
ATOM      5  O   UNL     1       1.482   1.158  -1.205  1.00  0.00    -0.269 OA
ATOM      6  C   UNL     1       1.603   1.948  -0.277  1.00  0.00     0.251 C 
ATOM      7  H   UNL     1       3.610   1.945  -0.294  1.00  0.00     0.163 HD
BRANCH   6   8
ATOM      8  C   UNL     1       0.429   2.652   0.276  1.00  0.00     0.039 A 
ATOM      9  C   UNL     1       0.511   4.021   0.551  1.00  0.00     0.014 A 
ATOM     10  C   UNL     1      -0.760   1.954   0.489  1.00  0.00     0.014 A 
ATOM     11  C   UNL     1      -0.568   4.675   1.126  1.00  0.00     0.010 A 
ATOM     12  C   UNL     1      -1.874   2.634   0.984  1.00  0.00     0.010 A 
ATOM     13  C   UNL     1      -1.784   4.000   1.302  1.00  0.00    -0.014 A 
BRANCH  13  14
ATOM     14  C   UNL     1      -2.987   4.774   1.688  1.00  0.00     0.031 A 
ATOM     15  C   UNL     1      -3.688   4.523   2.989  1.00  0.00     0.074 A 
ATOM     16  C   UNL     1      -3.441   5.703   0.823  1.00  0.00     0.049 A 
ATOM     17  N   UNL     1      -4.782   5.071   3.448  1.00  0.00    -0.248 NA
ATOM     18  C   UNL     1      -3.092   3.523   3.888  1.00  0.00     0.031 C 
ATOM     19  C   UNL     1      -2.824   6.018  -0.471  1.00  0.00     0.029 A 
ATOM     20  N   UNL     1      -4.516   6.551   0.887  1.00  0.00    -0.354 N 
ATOM     21  C   UNL     1      -5.023   4.470   4.678  1.00  0.00     0.074 A 
ATOM     22  C   UNL     1      -3.966   3.502   4.886  1.00  0.00     0.031 C 
ATOM     23  C   UNL     1      -3.514   7.001  -1.063  1.00  0.00     0.029 A 
ATOM     24  C   UNL     1      -4.670   7.326  -0.240  1.00  0.00     0.049 A 
ATOM     25  H   UNL     1      -5.119   6.600   1.663  1.00  0.00     0.167 HD
ATOM     26  C   UNL     1      -6.040   4.710   5.542  1.00  0.00     0.034 A 
ATOM     27  C   UNL     1      -5.659   8.167  -0.596  1.00  0.00     0.034 A 
ATOM     28  C   UNL     1      -7.076   5.687   5.304  1.00  0.00     0.049 A 
ATOM     29  C   UNL     1      -6.806   8.362   0.359  1.00  0.00     0.074 A 
ATOM     30  C   UNL     1      -8.111   6.062   6.142  1.00  0.00     0.029 A 
ATOM     31  N   UNL     1      -7.226   6.425   4.136  1.00  0.00    -0.354 N 
ATOM     32  N   UNL     1      -6.989   7.827   1.544  1.00  0.00    -0.248 NA
ATOM     33  C   UNL     1      -7.878   9.268  -0.069  1.00  0.00     0.031 C 
ATOM     34  C   UNL     1      -8.936   6.953   5.449  1.00  0.00     0.029 A 
ATOM     35  C   UNL     1      -8.368   7.208   4.210  1.00  0.00     0.049 A 
ATOM     36  H   UNL     1      -6.611   6.396   3.367  1.00  0.00     0.167 HD
ATOM     37  C   UNL     1      -8.192   8.348   2.010  1.00  0.00     0.074 A 
ATOM     38  C   UNL     1      -8.674   9.257   0.990  1.00  0.00     0.031 C 
ATOM     39  C   UNL     1      -8.841   8.096   3.175  1.00  0.00     0.034 A 
BRANCH  26  40
ATOM     40  C   UNL     1      -6.123   3.870   6.793  1.00  0.00     0.023 A 
ATOM     41  C   UNL     1      -5.154   3.938   7.808  1.00  0.00     0.031 A 
ATOM     42  C   UNL     1      -7.215   3.002   6.981  1.00  0.00     0.131 A 
ATOM     43  C   UNL     1      -5.273   3.121   8.944  1.00  0.00     0.055 A 
ATOM     44  C   UNL     1      -7.364   2.244   8.144  1.00  0.00     0.041 A 
ATOM     45  F   UNL     1      -8.159   2.878   6.035  1.00  0.00    -0.206 F 
ATOM     46  C   UNL     1      -6.384   2.295   9.130  1.00  0.00     0.022 A 
BRANCH  43  47
ATOM     47  S   UNL     1      -3.900   3.072  10.128  1.00  0.00     0.124 S 
ATOM     48  O   UNL     1      -2.793   2.638   9.280  1.00  0.00    -0.237 OA
ATOM     49  O   UNL     1      -3.841   4.450  10.601  1.00  0.00    -0.237 OA
ATOM     50  O   UNL     1      -4.337   2.091  11.120  1.00  0.00    -0.744 OA
ENDBRANCH  43  47
ENDBRANCH  26  40
BRANCH  27  51
ATOM     51  C   UNL     1      -5.647   8.825  -1.934  1.00  0.00     0.023 A 
ATOM     52  C   UNL     1      -5.631  10.221  -2.055  1.00  0.00     0.031 A 
ATOM     53  C   UNL     1      -5.703   8.062  -3.116  1.00  0.00     0.131 A 
ATOM     54  C   UNL     1      -5.730  10.813  -3.324  1.00  0.00     0.055 A 
ATOM     55  C   UNL     1      -5.728   8.655  -4.379  1.00  0.00     0.041 A 
ATOM     56  F   UNL     1      -5.722   6.720  -3.061  1.00  0.00    -0.206 F 
ATOM     57  C   UNL     1      -5.760  10.040  -4.487  1.00  0.00     0.022 A 
BRANCH  54  58
ATOM     58  S   UNL     1      -5.941  12.611  -3.423  1.00  0.00     0.124 S 
ATOM     59  O   UNL     1      -7.115  12.818  -2.581  1.00  0.00    -0.237 OA
ATOM     60  O   UNL     1      -4.674  13.094  -2.886  1.00  0.00    -0.237 OA
ATOM     61  O   UNL     1      -6.146  12.851  -4.850  1.00  0.00    -0.744 OA
ENDBRANCH  54  58
ENDBRANCH  27  51
BRANCH  39  62
ATOM     62  C   UNL     1     -10.129   8.843   3.411  1.00  0.00     0.023 A 
ATOM     63  C   UNL     1     -11.274   8.601   2.634  1.00  0.00     0.031 A 
ATOM     64  C   UNL     1     -10.210   9.810   4.429  1.00  0.00     0.131 A 
ATOM     65  C   UNL     1     -12.439   9.350   2.856  1.00  0.00     0.055 A 
ATOM     66  C   UNL     1     -11.390  10.506   4.687  1.00  0.00     0.041 A 
ATOM     67  F   UNL     1      -9.143  10.086   5.196  1.00  0.00    -0.206 F 
ATOM     68  C   UNL     1     -12.511  10.286   3.891  1.00  0.00     0.022 A 
BRANCH  65  69
ATOM     69  S   UNL     1     -13.838   9.141   1.722  1.00  0.00     0.124 S 
ATOM     70  O   UNL     1     -13.256   9.544   0.446  1.00  0.00    -0.237 OA
ATOM     71  O   UNL     1     -14.147   7.722   1.862  1.00  0.00    -0.237 OA
ATOM     72  O   UNL     1     -14.851  10.050   2.256  1.00  0.00    -0.744 OA
ENDBRANCH  65  69
ENDBRANCH  39  62
ENDBRANCH  13  14
ENDBRANCH   6   8
ENDBRANCH   3   4
ENDBRANCH   2   3
ENDBRANCH   1   2
BRANCH   1  73
ATOM     73  C   UNL     1       6.246   2.499   1.721  1.00  0.00     0.002 C 
BRANCH  73  74
ATOM     74  C   UNL     1       6.425   3.405   2.943  1.00  0.00     0.021 C 
BRANCH  74  75
ATOM     75  C   UNL     1       6.811   2.629   4.201  1.00  0.00     0.116 C 
BRANCH  75  76
ATOM     76  N   UNL     1       8.253   2.519   4.323  1.00  0.00    -0.355 N 
ATOM     77  C   UNL     1       9.228   3.159   5.007  1.00  0.00     0.232 C 
ATOM     78  H   UNL     1       8.613   1.793   3.765  1.00  0.00     0.163 HD
ATOM     79  O   UNL     1      10.370   2.768   4.714  1.00  0.00    -0.274 OA
BRANCH  77  80
ATOM     80  C   UNL     1       9.051   4.284   6.068  1.00  0.00     0.104 C 
ATOM     81  C   UNL     1       9.768   3.764   7.346  1.00  0.00     0.029 C 
ATOM     82  C   UNL     1       9.861   5.486   5.515  1.00  0.00     0.277 C 
ATOM     83  C   UNL     1      10.133   4.861   8.341  1.00  0.00     0.063 C 
ATOM     84  N   UNL     1      10.124   6.549   6.488  1.00  0.00    -0.345 N 
ATOM     85  C   UNL     1      10.815   6.054   7.676  1.00  0.00     0.260 C 
ATOM     86  H   UNL     1      10.702   7.263   6.046  1.00  0.00     0.346 HD
ATOM     87  H   UNL     1       9.225   6.928   6.786  1.00  0.00     0.346 HD
BRANCH  80  88
ATOM     88  C   UNL     1       7.577   4.639   6.339  1.00  0.00     0.080 C 
BRANCH  88  89
ATOM     89  C   UNL     1       7.204   5.698   7.314  1.00  0.00     0.061 A 
ATOM     90  C   UNL     1       7.228   7.068   7.167  1.00  0.00     0.116 A 
ATOM     91  N   UNL     1       6.656   5.354   8.532  1.00  0.00    -0.234 NA
ATOM     92  N   UNL     1       6.846   7.574   8.378  1.00  0.00    -0.307 N 
ATOM     93  C   UNL     1       6.437   6.495   9.152  1.00  0.00     0.136 A 
ATOM     94  C   UNL     1       6.858   8.889   8.831  1.00  0.00     0.093 A 
ATOM     95  C   UNL     1       5.911   6.787  10.441  1.00  0.00     0.048 A 
ATOM     96  C   UNL     1       6.424   9.154  10.075  1.00  0.00     0.018 A 
ATOM     97  C   UNL     1       5.910   8.059  10.887  1.00  0.00     0.005 A 
ENDBRANCH  88  89
ENDBRANCH  80  88
ENDBRANCH  77  80
ENDBRANCH  75  76
ENDBRANCH  74  75
ENDBRANCH  73  74
ENDBRANCH   1  73
TORSDOF 18
