REMARK SMILES CC1(C)C(C(=O)Nc2ccc(CC(=O)NCCCCCCNC(=O)c3ccc(-c4c5nc(c(-c6cc(S(=O)(=O)[O-])ccc6F)c6ccc([nH]6)c(-c6cc(S(=O)(=O)[O-])ccc6F)c6nc(c(-c7cc(S(=O)(=O)[O-])ccc7F)c7ccc4[nH]7)C=C6)C=C5)cc3)cc2)C1(C)C
REMARK SMILES IDX 18 1 17 2 16 3 15 4 13 5 14 6 12 8 11 9 8 10 9 11 89 12
REMARK SMILES IDX 10 13 88 14 7 15 5 16 6 17 4 19 1 20 2 21 3 22 90 23 91 24
REMARK SMILES IDX 92 25 19 26 20 27 21 28 22 29 23 30 24 32 25 33 26 34 87 35
REMARK SMILES IDX 27 36 86 37 28 38 29 39 30 40 80 41 31 42 85 43 79 44 81 45
REMARK SMILES IDX 32 46 84 47 78 48 77 49 33 51 65 52 45 53 64 54 46 55 49 56
REMARK SMILES IDX 63 57 82 58 47 59 48 60 62 62 83 63 50 64 34 65 35 66 43 67
REMARK SMILES IDX 36 68 42 69 44 70 41 71 37 72 38 73 39 74 40 75 66 76 67 77
REMARK SMILES IDX 75 78 68 79 74 80 76 81 73 82 69 83 70 84 71 85 72 86 51 87
REMARK SMILES IDX 52 88 60 89 53 90 59 91 61 92 58 93 54 94 55 95 56 96 57 97
REMARK H PARENT 15 7 7 18 22 31 81 50 49 61
REMARK Flexibility Score: inf
ROOT
ATOM      1  C   UNL     1      -6.054   0.647   4.110  1.00  0.00     0.002 C 
ENDROOT
BRANCH   1   2
ATOM      2  C   UNL     1      -4.673   0.059   3.811  1.00  0.00     0.021 C 
BRANCH   2   3
ATOM      3  C   UNL     1      -3.868  -0.262   5.074  1.00  0.00     0.116 C 
BRANCH   3   4
ATOM      4  N   UNL     1      -4.374  -1.453   5.726  1.00  0.00    -0.356 N 
ATOM      5  C   UNL     1      -3.959  -2.745   5.583  1.00  0.00     0.224 C 
ATOM      6  O   UNL     1      -4.597  -3.638   6.144  1.00  0.00    -0.275 OA
ATOM      7  H   UNL     1      -5.117  -1.311   6.357  1.00  0.00     0.163 HD
BRANCH   5   8
ATOM      8  C   UNL     1      -2.697  -3.053   4.804  1.00  0.00     0.135 C 
BRANCH   8   9
ATOM      9  C   UNL     1      -2.809  -2.875   3.313  1.00  0.00    -0.039 A 
ATOM     10  C   UNL     1      -2.694  -2.670   0.538  1.00  0.00     0.041 A 
ATOM     11  C   UNL     1      -3.457  -3.680   1.122  1.00  0.00     0.026 A 
ATOM     12  C   UNL     1      -2.188  -1.651   1.315  1.00  0.00     0.026 A 
ATOM     13  C   UNL     1      -3.510  -3.786   2.515  1.00  0.00     0.006 A 
ATOM     14  C   UNL     1      -2.183  -1.788   2.695  1.00  0.00     0.006 A 
BRANCH  10  15
ATOM     15  N   UNL     1      -2.437  -2.707  -0.822  1.00  0.00    -0.326 N 
ATOM     16  C   UNL     1      -1.376  -2.238  -1.553  1.00  0.00     0.228 C 
ATOM     17  O   UNL     1      -1.623  -2.029  -2.747  1.00  0.00    -0.274 OA
ATOM     18  H   UNL     1      -3.137  -3.146  -1.356  1.00  0.00     0.169 HD
BRANCH  16  19
ATOM     19  C   UNL     1       0.071  -2.163  -1.162  1.00  0.00     0.091 C 
ATOM     20  C   UNL     1       1.823  -0.448  -0.639  1.00  0.00     0.012 C 
ATOM     21  C   UNL     1       0.885  -1.500  -0.040  1.00  0.00    -0.017 C 
ATOM     22  C   UNL     1       0.768  -1.221   1.439  1.00  0.00     0.012 C 
ATOM     23  C   UNL     1       0.952  -3.044  -0.332  1.00  0.00    -0.017 C 
ATOM     24  C   UNL     1       2.269  -3.551  -0.873  1.00  0.00     0.012 C 
ATOM     25  C   UNL     1       0.274  -4.106   0.512  1.00  0.00     0.012 C 
ENDBRANCH  16  19
ENDBRANCH  10  15
ENDBRANCH   8   9
ENDBRANCH   5   8
ENDBRANCH   3   4
ENDBRANCH   2   3
ENDBRANCH   1   2
BRANCH   1  26
ATOM     26  C   UNL     1      -6.023   1.954   4.908  1.00  0.00     0.002 C 
BRANCH  26  27
ATOM     27  C   UNL     1      -5.211   3.076   4.257  1.00  0.00     0.021 C 
BRANCH  27  28
ATOM     28  C   UNL     1      -5.760   3.534   2.910  1.00  0.00     0.116 C 
BRANCH  28  29
ATOM     29  N   UNL     1      -7.090   4.109   3.048  1.00  0.00    -0.352 N 
ATOM     30  C   UNL     1      -7.524   5.364   2.703  1.00  0.00     0.251 C 
ATOM     31  H   UNL     1      -7.771   3.516   3.442  1.00  0.00     0.163 HD
ATOM     32  O   UNL     1      -8.602   5.780   3.120  1.00  0.00    -0.269 OA
BRANCH  30  33
ATOM     33  C   UNL     1      -6.674   6.207   1.840  1.00  0.00     0.039 A 
ATOM     34  C   UNL     1      -6.457   7.543   2.184  1.00  0.00     0.014 A 
ATOM     35  C   UNL     1      -6.079   5.663   0.698  1.00  0.00     0.014 A 
ATOM     36  C   UNL     1      -5.592   8.320   1.411  1.00  0.00     0.010 A 
ATOM     37  C   UNL     1      -5.162   6.416  -0.025  1.00  0.00     0.010 A 
ATOM     38  C   UNL     1      -4.912   7.754   0.320  1.00  0.00    -0.014 A 
BRANCH  38  39
ATOM     39  C   UNL     1      -3.953   8.539  -0.498  1.00  0.00     0.031 A 
ATOM     40  C   UNL     1      -4.241   8.772  -1.956  1.00  0.00     0.074 A 
ATOM     41  C   UNL     1      -2.794   8.963   0.043  1.00  0.00     0.049 A 
ATOM     42  N   UNL     1      -3.477   9.295  -2.880  1.00  0.00    -0.248 NA
ATOM     43  C   UNL     1      -5.554   8.322  -2.445  1.00  0.00     0.031 C 
ATOM     44  C   UNL     1      -2.394   8.776   1.439  1.00  0.00     0.029 A 
ATOM     45  N   UNL     1      -1.729   9.622  -0.520  1.00  0.00    -0.354 N 
ATOM     46  C   UNL     1      -4.207   9.219  -4.061  1.00  0.00     0.074 A 
ATOM     47  C   UNL     1      -5.448   8.543  -3.745  1.00  0.00     0.031 C 
ATOM     48  C   UNL     1      -1.181   9.321   1.626  1.00  0.00     0.029 A 
ATOM     49  C   UNL     1      -0.691   9.845   0.354  1.00  0.00     0.049 A 
ATOM     50  H   UNL     1      -1.711   9.908  -1.462  1.00  0.00     0.167 HD
ATOM     51  C   UNL     1      -3.880   9.687  -5.291  1.00  0.00     0.034 A 
ATOM     52  C   UNL     1       0.527  10.387   0.149  1.00  0.00     0.034 A 
ATOM     53  C   UNL     1      -2.643  10.370  -5.582  1.00  0.00     0.049 A 
ATOM     54  C   UNL     1       0.886  10.866  -1.236  1.00  0.00     0.074 A 
ATOM     55  C   UNL     1      -2.228  10.929  -6.778  1.00  0.00     0.029 A 
ATOM     56  N   UNL     1      -1.618  10.583  -4.668  1.00  0.00    -0.354 N 
ATOM     57  N   UNL     1       0.172  10.817  -2.338  1.00  0.00    -0.248 NA
ATOM     58  C   UNL     1       2.210  11.479  -1.406  1.00  0.00     0.031 C 
ATOM     59  C   UNL     1      -0.928  11.413  -6.607  1.00  0.00     0.029 A 
ATOM     60  C   UNL     1      -0.562  11.236  -5.282  1.00  0.00     0.049 A 
ATOM     61  H   UNL     1      -1.639  10.309  -3.723  1.00  0.00     0.167 HD
ATOM     62  C   UNL     1       0.946  11.431  -3.319  1.00  0.00     0.074 A 
ATOM     63  C   UNL     1       2.178  11.844  -2.679  1.00  0.00     0.031 C 
ATOM     64  C   UNL     1       0.660  11.645  -4.629  1.00  0.00     0.034 A 
BRANCH  51  65
ATOM     65  C   UNL     1      -4.863   9.447  -6.412  1.00  0.00     0.023 A 
ATOM     66  C   UNL     1      -6.162   9.985  -6.384  1.00  0.00     0.031 A 
ATOM     67  C   UNL     1      -4.508   8.648  -7.513  1.00  0.00     0.131 A 
ATOM     68  C   UNL     1      -7.081   9.652  -7.391  1.00  0.00     0.055 A 
ATOM     69  C   UNL     1      -5.399   8.392  -8.556  1.00  0.00     0.041 A 
ATOM     70  F   UNL     1      -3.290   8.088  -7.586  1.00  0.00    -0.206 F 
ATOM     71  C   UNL     1      -6.700   8.881  -8.491  1.00  0.00     0.022 A 
BRANCH  68  72
ATOM     72  S   UNL     1      -8.819  10.115  -7.161  1.00  0.00     0.124 S 
ATOM     73  O   UNL     1      -9.141   9.438  -5.907  1.00  0.00    -0.237 OA
ATOM     74  O   UNL     1      -8.754  11.570  -7.103  1.00  0.00    -0.237 OA
ATOM     75  O   UNL     1      -9.479   9.566  -8.344  1.00  0.00    -0.744 OA
ENDBRANCH  68  72
ENDBRANCH  51  65
BRANCH  52  76
ATOM     76  C   UNL     1       1.507  10.493   1.269  1.00  0.00     0.023 A 
ATOM     77  C   UNL     1       1.951  11.745   1.724  1.00  0.00     0.031 A 
ATOM     78  C   UNL     1       2.052   9.344   1.870  1.00  0.00     0.131 A 
ATOM     79  C   UNL     1       2.946  11.819   2.711  1.00  0.00     0.055 A 
ATOM     80  C   UNL     1       2.999   9.423   2.892  1.00  0.00     0.041 A 
ATOM     81  F   UNL     1       1.662   8.121   1.476  1.00  0.00    -0.206 F 
ATOM     82  C   UNL     1       3.463  10.667   3.308  1.00  0.00     0.022 A 
BRANCH  79  83
ATOM     83  S   UNL     1       3.629  13.445   3.134  1.00  0.00     0.124 S 
ATOM     84  O   UNL     1       4.117  13.907   1.840  1.00  0.00    -0.237 OA
ATOM     85  O   UNL     1       2.457  14.136   3.664  1.00  0.00    -0.237 OA
ATOM     86  O   UNL     1       4.664  13.133   4.118  1.00  0.00    -0.744 OA
ENDBRANCH  79  83
ENDBRANCH  52  76
BRANCH  64  87
ATOM     87  C   UNL     1       1.668  12.418  -5.443  1.00  0.00     0.023 A 
ATOM     88  C   UNL     1       2.933  11.895  -5.759  1.00  0.00     0.031 A 
ATOM     89  C   UNL     1       1.341  13.699  -5.926  1.00  0.00     0.131 A 
ATOM     90  C   UNL     1       3.841  12.666  -6.501  1.00  0.00     0.055 A 
ATOM     91  C   UNL     1       2.225  14.436  -6.713  1.00  0.00     0.041 A 
ATOM     92  F   UNL     1       0.147  14.248  -5.651  1.00  0.00    -0.206 F 
ATOM     93  C   UNL     1       3.488  13.925  -6.997  1.00  0.00     0.022 A 
BRANCH  90  94
ATOM     94  S   UNL     1       5.522  12.034  -6.754  1.00  0.00     0.124 S 
ATOM     95  O   UNL     1       6.002  11.893  -5.383  1.00  0.00    -0.237 OA
ATOM     96  O   UNL     1       5.284  10.790  -7.477  1.00  0.00    -0.237 OA
ATOM     97  O   UNL     1       6.172  13.087  -7.532  1.00  0.00    -0.744 OA
ENDBRANCH  90  94
ENDBRANCH  64  87
ENDBRANCH  38  39
ENDBRANCH  30  33
ENDBRANCH  28  29
ENDBRANCH  27  28
ENDBRANCH  26  27
ENDBRANCH   1  26
TORSDOF 19
