REMARK SMILES CC(C)[NH2+][C@]1(C(=O)NCCCCCCNC(=O)c2ccc(-c3c4nc(c(-c5cc(S(=O)(=O)[O-])ccc5F)c5ccc([nH]5)c(-c5cc(S(=O)(=O)[O-])ccc5F)c5nc(c(-c6cc(S(=O)(=O)[O-])ccc6F)c6ccc3[nH]6)C=C5)C=C4)cc2)CC[C@@H]([N@@H+](C)[C@@H](C)C(C)C)C1
REMARK SMILES IDX 11 1 10 2 9 3 8 4 6 5 7 6 5 8 81 9 91 10 82 11 83 12 4 13
REMARK SMILES IDX 2 16 1 17 3 18 84 19 85 20 86 22 87 23 88 24 89 25 90 26
REMARK SMILES IDX 12 27 13 28 14 29 15 30 16 31 17 33 18 34 19 35 80 36 20 37
REMARK SMILES IDX 79 38 21 39 22 40 23 41 73 42 24 43 78 44 72 45 74 46 25 47
REMARK SMILES IDX 77 48 71 49 70 50 26 52 58 53 38 54 57 55 39 56 42 57 56 58
REMARK SMILES IDX 75 59 40 60 41 61 55 63 76 64 43 65 27 66 28 67 36 68 29 69
REMARK SMILES IDX 35 70 37 71 34 72 30 73 31 74 32 75 33 76 59 77 60 78 68 79
REMARK SMILES IDX 61 80 67 81 69 82 66 83 62 84 63 85 64 86 65 87 44 88 45 89
REMARK SMILES IDX 53 90 46 91 52 92 54 93 51 94 47 95 48 96 49 97 50 98
REMARK H PARENT 8 7 4 14 4 15 84 21 15 32 74 51 42 62
REMARK Flexibility Score: inf
ROOT
ATOM      1  C   UNL     1       1.681  -1.141  -3.122  1.00  0.00     0.002 C 
ENDROOT
BRANCH   1   2
ATOM      2  C   UNL     1       0.523  -1.815  -2.382  1.00  0.00     0.021 C 
BRANCH   2   3
ATOM      3  C   UNL     1       0.746  -2.046  -0.885  1.00  0.00     0.116 C 
BRANCH   3   4
ATOM      4  N   UNL     1      -0.034  -1.121  -0.093  1.00  0.00    -0.351 N 
ATOM      5  C   UNL     1      -0.943  -1.196   0.895  1.00  0.00     0.281 C 
ATOM      6  O   UNL     1      -1.293  -0.069   1.308  1.00  0.00    -0.268 OA
ATOM      7  H   UNL     1       0.149  -0.187  -0.345  1.00  0.00     0.163 HD
BRANCH   5   8
ATOM      8  C   UNL     1      -1.648  -2.452   1.564  1.00  0.00     0.181 C 
ATOM      9  C   UNL     1      -3.005  -2.600   0.854  1.00  0.00     0.085 C 
ATOM     10  C   UNL     1      -1.074  -3.881   1.429  1.00  0.00     0.144 C 
ATOM     11  C   UNL     1      -3.522  -3.978   1.232  1.00  0.00     0.072 C 
ATOM     12  C   UNL     1      -2.280  -4.863   1.288  1.00  0.00     0.191 C 
BRANCH   8  13
ATOM     13  N   UNL     1      -1.680  -2.048   3.009  1.00  0.00    -0.331 N 
ATOM     14  H   UNL     1      -0.772  -2.317   3.390  1.00  0.00     0.347 HD
ATOM     15  H   UNL     1      -1.948  -1.067   2.925  1.00  0.00     0.347 HD
BRANCH  13  16
ATOM     16  C   UNL     1      -2.665  -2.517   3.975  1.00  0.00     0.176 C 
ATOM     17  C   UNL     1      -2.083  -2.208   5.365  1.00  0.00     0.075 C 
ATOM     18  C   UNL     1      -4.019  -1.799   3.887  1.00  0.00     0.075 C 
ENDBRANCH  13  16
ENDBRANCH   8  13
BRANCH  12  19
ATOM     19  N   UNL     1      -2.118  -5.952   0.296  1.00  0.00    -0.332 N 
ATOM     20  C   UNL     1      -2.651  -7.217   0.824  1.00  0.00     0.333 C 
ATOM     21  H   UNL     1      -1.103  -5.910   0.209  1.00  0.00     0.348 HD
BRANCH  19  22
ATOM     22  C   UNL     1      -2.466  -5.810  -1.146  1.00  0.00     0.183 C 
ATOM     23  C   UNL     1      -3.922  -5.461  -1.487  1.00  0.00     0.075 C 
BRANCH  22  24
ATOM     24  C   UNL     1      -1.442  -4.943  -1.925  1.00  0.00     0.041 C 
ATOM     25  C   UNL     1      -0.070  -5.635  -1.940  1.00  0.00     0.013 C 
ATOM     26  C   UNL     1      -1.857  -4.648  -3.374  1.00  0.00     0.013 C 
ENDBRANCH  22  24
ENDBRANCH  19  22
ENDBRANCH  12  19
ENDBRANCH   5   8
ENDBRANCH   3   4
ENDBRANCH   2   3
ENDBRANCH   1   2
BRANCH   1  27
ATOM     27  C   UNL     1       3.032  -1.867  -3.079  1.00  0.00     0.002 C 
BRANCH  27  28
ATOM     28  C   UNL     1       3.023  -3.361  -3.416  1.00  0.00     0.021 C 
BRANCH  28  29
ATOM     29  C   UNL     1       2.387  -3.738  -4.752  1.00  0.00     0.116 C 
BRANCH  29  30
ATOM     30  N   UNL     1       3.145  -3.208  -5.872  1.00  0.00    -0.352 N 
ATOM     31  C   UNL     1       3.881  -3.875  -6.818  1.00  0.00     0.251 C 
ATOM     32  H   UNL     1       3.129  -2.228  -5.966  1.00  0.00     0.163 HD
ATOM     33  O   UNL     1       4.672  -3.244  -7.524  1.00  0.00    -0.269 OA
BRANCH  31  34
ATOM     34  C   UNL     1       3.739  -5.337  -6.993  1.00  0.00     0.039 A 
ATOM     35  C   UNL     1       4.885  -6.120  -7.164  1.00  0.00     0.014 A 
ATOM     36  C   UNL     1       2.475  -5.931  -7.044  1.00  0.00     0.014 A 
ATOM     37  C   UNL     1       4.768  -7.504  -7.339  1.00  0.00     0.010 A 
ATOM     38  C   UNL     1       2.362  -7.316  -7.164  1.00  0.00     0.010 A 
ATOM     39  C   UNL     1       3.506  -8.117  -7.319  1.00  0.00    -0.014 A 
BRANCH  39  40
ATOM     40  C   UNL     1       3.337  -9.584  -7.500  1.00  0.00     0.031 A 
ATOM     41  C   UNL     1       2.606 -10.101  -8.710  1.00  0.00     0.074 A 
ATOM     42  C   UNL     1       3.754 -10.441  -6.548  1.00  0.00     0.049 A 
ATOM     43  N   UNL     1       2.175 -11.309  -8.969  1.00  0.00    -0.248 NA
ATOM     44  C   UNL     1       2.295  -9.113  -9.753  1.00  0.00     0.031 C 
ATOM     45  C   UNL     1       4.479 -10.067  -5.332  1.00  0.00     0.029 A 
ATOM     46  N   UNL     1       3.607 -11.803  -6.441  1.00  0.00    -0.354 N 
ATOM     47  C   UNL     1       1.517 -11.222 -10.192  1.00  0.00     0.074 A 
ATOM     48  C   UNL     1       1.569  -9.832 -10.595  1.00  0.00     0.031 C 
ATOM     49  C   UNL     1       4.713 -11.171  -4.604  1.00  0.00     0.029 A 
ATOM     50  C   UNL     1       4.106 -12.322  -5.268  1.00  0.00     0.049 A 
ATOM     51  H   UNL     1       3.184 -12.355  -7.137  1.00  0.00     0.167 HD
ATOM     52  C   UNL     1       0.935 -12.212 -10.915  1.00  0.00     0.034 A 
ATOM     53  C   UNL     1       4.053 -13.574  -4.769  1.00  0.00     0.034 A 
ATOM     54  C   UNL     1       0.906 -13.594 -10.504  1.00  0.00     0.049 A 
ATOM     55  C   UNL     1       3.358 -14.652  -5.566  1.00  0.00     0.074 A 
ATOM     56  C   UNL     1       0.374 -14.683 -11.172  1.00  0.00     0.029 A 
ATOM     57  N   UNL     1       1.431 -14.080  -9.312  1.00  0.00    -0.354 N 
ATOM     58  N   UNL     1       2.742 -14.557  -6.721  1.00  0.00    -0.248 NA
ATOM     59  C   UNL     1       3.353 -16.006  -4.993  1.00  0.00     0.031 C 
ATOM     60  C   UNL     1       0.518 -15.813 -10.360  1.00  0.00     0.029 A 
ATOM     61  C   UNL     1       1.212 -15.446  -9.218  1.00  0.00     0.049 A 
ATOM     62  H   UNL     1       1.890 -13.534  -8.634  1.00  0.00     0.167 HD
ATOM     63  C   UNL     1       2.318 -15.846  -7.033  1.00  0.00     0.074 A 
ATOM     64  C   UNL     1       2.741 -16.700  -5.942  1.00  0.00     0.031 C 
ATOM     65  C   UNL     1       1.651 -16.286  -8.129  1.00  0.00     0.034 A 
BRANCH  52  66
ATOM     66  C   UNL     1       0.253 -11.821 -12.205  1.00  0.00     0.023 A 
ATOM     67  C   UNL     1       0.967 -11.254 -13.276  1.00  0.00     0.031 A 
ATOM     68  C   UNL     1      -1.135 -11.984 -12.355  1.00  0.00     0.131 A 
ATOM     69  C   UNL     1       0.280 -10.794 -14.410  1.00  0.00     0.055 A 
ATOM     70  C   UNL     1      -1.800 -11.605 -13.523  1.00  0.00     0.041 A 
ATOM     71  F   UNL     1      -1.875 -12.500 -11.361  1.00  0.00    -0.206 F 
ATOM     72  C   UNL     1      -1.095 -10.990 -14.553  1.00  0.00     0.022 A 
BRANCH  69  73
ATOM     73  S   UNL     1       1.187  -9.795 -15.621  1.00  0.00     0.124 S 
ATOM     74  O   UNL     1       1.658  -8.686 -14.794  1.00  0.00    -0.237 OA
ATOM     75  O   UNL     1       2.211 -10.721 -16.092  1.00  0.00    -0.237 OA
ATOM     76  O   UNL     1       0.167  -9.439 -16.605  1.00  0.00    -0.744 OA
ENDBRANCH  69  73
ENDBRANCH  52  66
BRANCH  53  77
ATOM     77  C   UNL     1       4.652 -13.882  -3.438  1.00  0.00     0.023 A 
ATOM     78  C   UNL     1       5.741 -14.760  -3.323  1.00  0.00     0.031 A 
ATOM     79  C   UNL     1       4.117 -13.336  -2.257  1.00  0.00     0.131 A 
ATOM     80  C   UNL     1       6.234 -15.102  -2.054  1.00  0.00     0.055 A 
ATOM     81  C   UNL     1       4.646 -13.637  -1.001  1.00  0.00     0.041 A 
ATOM     82  F   UNL     1       3.077 -12.490  -2.311  1.00  0.00    -0.206 F 
ATOM     83  C   UNL     1       5.702 -14.536  -0.893  1.00  0.00     0.022 A 
BRANCH  80  84
ATOM     84  S   UNL     1       7.527 -16.368  -1.938  1.00  0.00     0.124 S 
ATOM     85  O   UNL     1       6.881 -17.510  -2.575  1.00  0.00    -0.237 OA
ATOM     86  O   UNL     1       8.621 -15.752  -2.681  1.00  0.00    -0.237 OA
ATOM     87  O   UNL     1       7.748 -16.497  -0.499  1.00  0.00    -0.744 OA
ENDBRANCH  80  84
ENDBRANCH  53  77
BRANCH  65  88
ATOM     88  C   UNL     1       1.408 -17.770  -8.247  1.00  0.00     0.023 A 
ATOM     89  C   UNL     1       0.494 -18.448  -7.423  1.00  0.00     0.031 A 
ATOM     90  C   UNL     1       2.089 -18.509  -9.233  1.00  0.00     0.131 A 
ATOM     91  C   UNL     1       0.309 -19.831  -7.579  1.00  0.00     0.055 A 
ATOM     92  C   UNL     1       1.863 -19.873  -9.415  1.00  0.00     0.041 A 
ATOM     93  F   UNL     1       2.973 -17.909 -10.046  1.00  0.00    -0.206 F 
ATOM     94  C   UNL     1       0.974 -20.544  -8.581  1.00  0.00     0.022 A 
BRANCH  91  95
ATOM     95  S   UNL     1      -0.782 -20.705  -6.422  1.00  0.00     0.124 S 
ATOM     96  O   UNL     1      -0.114 -20.479  -5.145  1.00  0.00    -0.237 OA
ATOM     97  O   UNL     1      -2.054 -20.013  -6.607  1.00  0.00    -0.237 OA
ATOM     98  O   UNL     1      -0.755 -22.086  -6.900  1.00  0.00    -0.744 OA
ENDBRANCH  91  95
ENDBRANCH  65  88
ENDBRANCH  39  40
ENDBRANCH  31  34
ENDBRANCH  29  30
ENDBRANCH  28  29
ENDBRANCH  27  28
ENDBRANCH   1  27
TORSDOF 21
