REMARK SMILES C[C@@H](C(=O)NCCCCCCNC(=O)c1ccc(-c2c3nc(c(-c4cc(S(=O)(=O)[O-])ccc4F)c4ccc([nH]4)c(-c4cc(S(=O)(=O)[O-])ccc4F)c4nc(c(-c5cc(S(=O)(=O)[O-])ccc5F)c5ccc2[nH]5)C=C4)C=C3)cc1)c1ccc(C[SiH](C)C)cc1
REMARK SMILES IDX 8 1 7 2 6 3 5 4 3 5 4 6 2 8 1 9 78 10 79 11 87 12 80 13
REMARK SMILES IDX 86 14 81 15 82 16 83 17 84 18 85 19 9 21 10 22 11 23 12 24
REMARK SMILES IDX 13 25 14 27 15 28 16 29 77 30 17 31 76 32 18 33 19 34 20 35
REMARK SMILES IDX 70 36 21 37 75 38 69 39 71 40 22 41 74 42 68 43 67 44 23 46
REMARK SMILES IDX 55 47 35 48 54 49 36 50 39 51 53 52 72 53 37 54 38 55 52 57
REMARK SMILES IDX 73 58 40 59 24 60 25 61 33 62 26 63 32 64 34 65 31 66 27 67
REMARK SMILES IDX 28 68 29 69 30 70 56 71 57 72 65 73 58 74 64 75 66 76 63 77
REMARK SMILES IDX 59 78 60 79 61 80 62 81 41 82 42 83 50 84 43 85 49 86 51 87
REMARK SMILES IDX 48 88 44 89 45 90 46 91 47 92
REMARK H PARENT 5 7 83 20 12 26 71 45 39 56
REMARK Flexibility Score: inf
ROOT
ATOM      1  C   UNL     1       5.061  -2.566   1.198  1.00  0.00     0.002 C 
ENDROOT
BRANCH   1   2
ATOM      2  C   UNL     1       4.340  -1.382   0.539  1.00  0.00     0.021 C 
BRANCH   2   3
ATOM      3  C   UNL     1       3.476  -1.762  -0.670  1.00  0.00     0.116 C 
BRANCH   3   4
ATOM      4  N   UNL     1       2.406  -2.648  -0.257  1.00  0.00    -0.356 N 
ATOM      5  C   UNL     1       1.111  -2.345   0.057  1.00  0.00     0.227 C 
ATOM      6  O   UNL     1       0.533  -3.138   0.803  1.00  0.00    -0.274 OA
ATOM      7  H   UNL     1       2.645  -3.601  -0.193  1.00  0.00     0.163 HD
BRANCH   5   8
ATOM      8  C   UNL     1       0.467  -1.071  -0.523  1.00  0.00     0.105 C 
ATOM      9  C   UNL     1       0.876   0.115   0.367  1.00  0.00     0.023 C 
BRANCH   8  10
ATOM     10  C   UNL     1      -1.058  -1.118  -0.704  1.00  0.00    -0.036 A 
ATOM     11  C   UNL     1      -1.776   0.069  -0.927  1.00  0.00     0.005 A 
ATOM     12  C   UNL     1      -1.796  -2.310  -0.667  1.00  0.00     0.005 A 
ATOM     13  C   UNL     1      -3.172   0.081  -0.957  1.00  0.00     0.004 A 
ATOM     14  C   UNL     1      -3.195  -2.300  -0.667  1.00  0.00     0.004 A 
ATOM     15  C   UNL     1      -3.897  -1.098  -0.762  1.00  0.00    -0.051 A 
BRANCH  15  16
ATOM     16  C   UNL     1      -5.400  -1.067  -0.618  1.00  0.00     0.021 C 
BRANCH  16  17
ATOM     17  Si  UNL     1      -6.041  -0.384   1.036  1.00  0.00     0.035 Si
ATOM     18  C   UNL     1      -5.470   1.372   1.309  1.00  0.00    -0.013 C 
ATOM     19  C   UNL     1      -7.906  -0.445   1.055  1.00  0.00    -0.013 C 
ATOM     20  H   UNL     1      -5.519  -1.189   2.082  1.00  0.00     0.014 H 
ENDBRANCH  16  17
ENDBRANCH  15  16
ENDBRANCH   8  10
ENDBRANCH   5   8
ENDBRANCH   3   4
ENDBRANCH   2   3
ENDBRANCH   1   2
BRANCH   1  21
ATOM     21  C   UNL     1       6.000  -3.346   0.276  1.00  0.00     0.002 C 
BRANCH  21  22
ATOM     22  C   UNL     1       7.057  -2.494  -0.427  1.00  0.00     0.021 C 
BRANCH  22  23
ATOM     23  C   UNL     1       7.974  -1.722   0.515  1.00  0.00     0.116 C 
BRANCH  23  24
ATOM     24  N   UNL     1       8.819  -2.609   1.299  1.00  0.00    -0.352 N 
ATOM     25  C   UNL     1      10.182  -2.567   1.460  1.00  0.00     0.251 C 
ATOM     26  H   UNL     1       8.354  -3.333   1.777  1.00  0.00     0.163 HD
ATOM     27  O   UNL     1      10.772  -3.505   1.986  1.00  0.00    -0.269 OA
BRANCH  25  28
ATOM     28  C   UNL     1      10.928  -1.388   0.969  1.00  0.00     0.039 A 
ATOM     29  C   UNL     1      12.074  -1.578   0.192  1.00  0.00     0.014 A 
ATOM     30  C   UNL     1      10.477  -0.098   1.262  1.00  0.00     0.014 A 
ATOM     31  C   UNL     1      12.739  -0.470  -0.339  1.00  0.00     0.010 A 
ATOM     32  C   UNL     1      11.099   0.998   0.675  1.00  0.00     0.010 A 
ATOM     33  C   UNL     1      12.241   0.825  -0.125  1.00  0.00    -0.014 A 
BRANCH  33  34
ATOM     34  C   UNL     1      12.911   2.027  -0.685  1.00  0.00     0.031 A 
ATOM     35  C   UNL     1      13.490   3.051   0.251  1.00  0.00     0.074 A 
ATOM     36  C   UNL     1      12.915   2.243  -2.014  1.00  0.00     0.049 A 
ATOM     37  N   UNL     1      13.965   4.242  -0.009  1.00  0.00    -0.248 NA
ATOM     38  C   UNL     1      13.493   2.698   1.678  1.00  0.00     0.031 C 
ATOM     39  C   UNL     1      12.361   1.336  -3.021  1.00  0.00     0.029 A 
ATOM     40  N   UNL     1      13.383   3.306  -2.746  1.00  0.00    -0.354 N 
ATOM     41  C   UNL     1      14.296   4.793   1.225  1.00  0.00     0.074 A 
ATOM     42  C   UNL     1      13.908   3.826   2.231  1.00  0.00     0.031 C 
ATOM     43  C   UNL     1      12.526   1.879  -4.238  1.00  0.00     0.029 A 
ATOM     44  C   UNL     1      13.151   3.191  -4.097  1.00  0.00     0.049 A 
ATOM     45  H   UNL     1      13.841   4.078  -2.342  1.00  0.00     0.167 HD
ATOM     46  C   UNL     1      14.888   5.984   1.492  1.00  0.00     0.034 A 
ATOM     47  C   UNL     1      13.392   4.054  -5.104  1.00  0.00     0.034 A 
ATOM     48  C   UNL     1      15.281   6.925   0.471  1.00  0.00     0.049 A 
ATOM     49  C   UNL     1      14.035   5.381  -4.790  1.00  0.00     0.074 A 
ATOM     50  C   UNL     1      15.932   8.137   0.618  1.00  0.00     0.029 A 
ATOM     51  N   UNL     1      15.054   6.760  -0.891  1.00  0.00    -0.354 N 
ATOM     52  N   UNL     1      14.372   5.879  -3.622  1.00  0.00    -0.248 NA
ATOM     53  C   UNL     1      14.338   6.257  -5.928  1.00  0.00     0.031 C 
ATOM     54  C   UNL     1      16.040   8.733  -0.644  1.00  0.00     0.029 A 
ATOM     55  C   UNL     1      15.528   7.860  -1.590  1.00  0.00     0.049 A 
ATOM     56  H   UNL     1      14.619   5.977  -1.299  1.00  0.00     0.167 HD
ATOM     57  C   UNL     1      14.961   7.111  -3.891  1.00  0.00     0.074 A 
ATOM     58  C   UNL     1      14.932   7.280  -5.329  1.00  0.00     0.031 C 
ATOM     59  C   UNL     1      15.489   8.015  -3.026  1.00  0.00     0.034 A 
BRANCH  46  60
ATOM     60  C   UNL     1      15.104   6.337   2.946  1.00  0.00     0.023 A 
ATOM     61  C   UNL     1      15.902   5.542   3.788  1.00  0.00     0.031 A 
ATOM     62  C   UNL     1      14.455   7.446   3.516  1.00  0.00     0.131 A 
ATOM     63  C   UNL     1      15.944   5.802   5.166  1.00  0.00     0.055 A 
ATOM     64  C   UNL     1      14.581   7.758   4.872  1.00  0.00     0.041 A 
ATOM     65  F   UNL     1      13.664   8.234   2.770  1.00  0.00    -0.206 F 
ATOM     66  C   UNL     1      15.310   6.920   5.710  1.00  0.00     0.022 A 
BRANCH  63  67
ATOM     67  S   UNL     1      16.680   4.553   6.257  1.00  0.00     0.124 S 
ATOM     68  O   UNL     1      15.884   3.372   5.931  1.00  0.00    -0.237 OA
ATOM     69  O   UNL     1      18.070   4.529   5.815  1.00  0.00    -0.237 OA
ATOM     70  O   UNL     1      16.459   5.094   7.596  1.00  0.00    -0.744 OA
ENDBRANCH  63  67
ENDBRANCH  46  60
BRANCH  47  71
ATOM     71  C   UNL     1      13.011   3.698  -6.500  1.00  0.00     0.023 A 
ATOM     72  C   UNL     1      13.989   3.475  -7.482  1.00  0.00     0.031 A 
ATOM     73  C   UNL     1      11.660   3.586  -6.874  1.00  0.00     0.131 A 
ATOM     74  C   UNL     1      13.602   3.183  -8.799  1.00  0.00     0.055 A 
ATOM     75  C   UNL     1      11.281   3.251  -8.175  1.00  0.00     0.041 A 
ATOM     76  F   UNL     1      10.687   3.780  -5.970  1.00  0.00    -0.206 F 
ATOM     77  C   UNL     1      12.255   3.057  -9.149  1.00  0.00     0.022 A 
BRANCH  74  78
ATOM     78  S   UNL     1      14.888   3.026 -10.068  1.00  0.00     0.124 S 
ATOM     79  O   UNL     1      15.507   4.345 -10.029  1.00  0.00    -0.237 OA
ATOM     80  O   UNL     1      15.691   1.923  -9.550  1.00  0.00    -0.237 OA
ATOM     81  O   UNL     1      14.132   2.725 -11.283  1.00  0.00    -0.744 OA
ENDBRANCH  74  78
ENDBRANCH  47  71
BRANCH  59  82
ATOM     82  C   UNL     1      16.139   9.241  -3.620  1.00  0.00     0.023 A 
ATOM     83  C   UNL     1      15.393  10.244  -4.262  1.00  0.00     0.031 A 
ATOM     84  C   UNL     1      17.532   9.409  -3.524  1.00  0.00     0.131 A 
ATOM     85  C   UNL     1      16.050  11.352  -4.819  1.00  0.00     0.055 A 
ATOM     86  C   UNL     1      18.174  10.539  -4.032  1.00  0.00     0.041 A 
ATOM     87  F   UNL     1      18.292   8.480  -2.922  1.00  0.00    -0.206 F 
ATOM     88  C   UNL     1      17.433  11.514  -4.693  1.00  0.00     0.022 A 
BRANCH  85  89
ATOM     89  S   UNL     1      15.083  12.552  -5.776  1.00  0.00     0.124 S 
ATOM     90  O   UNL     1      14.531  11.719  -6.839  1.00  0.00    -0.237 OA
ATOM     91  O   UNL     1      14.127  13.042  -4.789  1.00  0.00    -0.237 OA
ATOM     92  O   UNL     1      16.080  13.530  -6.209  1.00  0.00    -0.744 OA
ENDBRANCH  85  89
ENDBRANCH  59  82
ENDBRANCH  33  34
ENDBRANCH  25  28
ENDBRANCH  23  24
ENDBRANCH  22  23
ENDBRANCH  21  22
ENDBRANCH   1  21
TORSDOF 19
