REMARK SMILES O=C(NCCCCCCNC(=O)c1ccc(-c2c3nc(c(-c4cc(S(=O)(=O)[O-])ccc4F)c4ccc([nH]4)c(-c4cc(S(=O)(=O)[O-])ccc4F)c4nc(c(-c5cc(S(=O)(=O)[O-])ccc5F)c5ccc2[nH]5)C=C4)C=C3)cc1)C1=Cc2cc(Cl)cc(-c3ccc(Cl)cc3)c2O[C@@H]1C(F)(F)F
REMARK SMILES IDX 7 1 6 2 5 3 4 4 3 5 1 6 2 7 76 9 77 10 93 11 78 12 92 13
REMARK SMILES IDX 79 14 91 15 80 16 83 17 81 18 82 19 94 20 95 21 96 22 97 23
REMARK SMILES IDX 84 24 85 25 90 26 86 27 89 28 87 29 88 30 8 31 9 32 10 33
REMARK SMILES IDX 11 34 12 36 13 37 14 38 75 39 15 40 74 41 16 42 17 43 18 44
REMARK SMILES IDX 68 45 19 46 73 47 67 48 69 49 20 50 72 51 66 52 65 53 21 55
REMARK SMILES IDX 53 56 33 57 52 58 34 59 37 60 51 61 70 62 35 63 36 64 50 66
REMARK SMILES IDX 71 67 38 68 22 69 23 70 31 71 24 72 30 73 32 74 29 75 25 76
REMARK SMILES IDX 26 77 27 78 28 79 54 80 55 81 63 82 56 83 62 84 64 85 61 86
REMARK SMILES IDX 57 87 58 88 59 89 60 90 39 91 40 92 48 93 41 94 47 95 49 96
REMARK SMILES IDX 46 97 42 98 43 99 44 100 45 101
REMARK H PARENT 3 8 10 35 69 54 37 65
REMARK Flexibility Score: inf
ROOT
ATOM      1  C   UNL     1       4.525  -1.500   4.587  1.00  0.00     0.002 C 
ENDROOT
BRANCH   1   2
ATOM      2  C   UNL     1       3.855  -0.120   4.597  1.00  0.00     0.002 C 
BRANCH   2   3
ATOM      3  C   UNL     1       4.224   0.837   3.460  1.00  0.00     0.021 C 
BRANCH   3   4
ATOM      4  C   UNL     1       4.006   0.328   2.032  1.00  0.00     0.116 C 
BRANCH   4   5
ATOM      5  N   UNL     1       2.723   0.696   1.437  1.00  0.00    -0.352 N 
ATOM      6  O   UNL     1       1.159   0.942  -0.165  1.00  0.00    -0.270 OA
ATOM      7  C   UNL     1       2.340   0.753   0.117  1.00  0.00     0.251 C 
ATOM      8  H   UNL     1       2.022   0.941   2.084  1.00  0.00     0.163 HD
BRANCH   7   9
ATOM      9  C   UNL     1       3.301   0.388  -0.963  1.00  0.00     0.067 C 
ATOM     10  C   UNL     1       4.546   0.867  -1.082  1.00  0.00     0.025 C 
ATOM     11  C   UNL     1       3.039  -0.943  -1.600  1.00  0.00     0.314 C 
ATOM     12  C   UNL     1       5.584  -0.150  -0.843  1.00  0.00     0.019 A 
ATOM     13  O   UNL     1       3.941  -1.943  -1.077  1.00  0.00    -0.475 OA
ATOM     14  C   UNL     1       6.848   0.267  -0.413  1.00  0.00     0.032 A 
ATOM     15  C   UNL     1       5.202  -1.507  -0.720  1.00  0.00     0.135 A 
ATOM     16  C   UNL     1       7.708  -0.655   0.175  1.00  0.00     0.042 A 
ATOM     17  C   UNL     1       6.045  -2.431  -0.072  1.00  0.00     0.026 A 
ATOM     18  Cl  UNL     1       9.201  -0.121   0.841  1.00  0.00    -0.084 Cl
ATOM     19  C   UNL     1       7.314  -1.982   0.346  1.00  0.00     0.033 A 
BRANCH  11  20
ATOM     20  C   UNL     1       3.100  -0.825  -3.143  1.00  0.00     0.429 C 
ATOM     21  F   UNL     1       2.747  -1.987  -3.744  1.00  0.00    -0.167 F 
ATOM     22  F   UNL     1       2.248   0.126  -3.606  1.00  0.00    -0.167 F 
ATOM     23  F   UNL     1       4.332  -0.499  -3.605  1.00  0.00    -0.167 F 
ENDBRANCH  11  20
BRANCH  17  24
ATOM     24  C   UNL     1       5.582  -3.765   0.363  1.00  0.00    -0.015 A 
ATOM     25  C   UNL     1       5.588  -4.075   1.736  1.00  0.00     0.010 A 
ATOM     26  C   UNL     1       5.122  -4.747  -0.520  1.00  0.00     0.010 A 
ATOM     27  C   UNL     1       5.172  -5.314   2.222  1.00  0.00     0.021 A 
ATOM     28  C   UNL     1       4.708  -6.000  -0.043  1.00  0.00     0.021 A 
ATOM     29  C   UNL     1       4.739  -6.278   1.324  1.00  0.00     0.041 A 
ATOM     30  Cl  UNL     1       4.241  -7.818   1.905  1.00  0.00    -0.084 Cl
ENDBRANCH  17  24
ENDBRANCH   7   9
ENDBRANCH   4   5
ENDBRANCH   3   4
ENDBRANCH   2   3
ENDBRANCH   1   2
BRANCH   1  31
ATOM     31  C   UNL     1       6.046  -1.522   4.413  1.00  0.00     0.021 C 
BRANCH  31  32
ATOM     32  C   UNL     1       6.857  -0.828   5.498  1.00  0.00     0.116 C 
BRANCH  32  33
ATOM     33  N   UNL     1       6.744  -1.517   6.773  1.00  0.00    -0.352 N 
ATOM     34  C   UNL     1       7.667  -2.235   7.497  1.00  0.00     0.251 C 
ATOM     35  H   UNL     1       5.854  -1.460   7.189  1.00  0.00     0.163 HD
ATOM     36  O   UNL     1       7.261  -2.955   8.406  1.00  0.00    -0.269 OA
BRANCH  34  37
ATOM     37  C   UNL     1       9.121  -2.167   7.202  1.00  0.00     0.039 A 
ATOM     38  C   UNL     1       9.915  -3.292   7.463  1.00  0.00     0.014 A 
ATOM     39  C   UNL     1       9.731  -0.996   6.748  1.00  0.00     0.014 A 
ATOM     40  C   UNL     1      11.295  -3.252   7.231  1.00  0.00     0.010 A 
ATOM     41  C   UNL     1      11.088  -0.987   6.424  1.00  0.00     0.010 A 
ATOM     42  C   UNL     1      11.892  -2.106   6.684  1.00  0.00    -0.014 A 
BRANCH  42  43
ATOM     43  C   UNL     1      13.357  -2.034   6.425  1.00  0.00     0.031 A 
ATOM     44  C   UNL     1      14.195  -0.998   7.132  1.00  0.00     0.074 A 
ATOM     45  C   UNL     1      13.923  -2.849   5.513  1.00  0.00     0.049 A 
ATOM     46  N   UNL     1      15.456  -0.690   6.963  1.00  0.00    -0.248 NA
ATOM     47  C   UNL     1      13.506  -0.171   8.134  1.00  0.00     0.031 C 
ATOM     48  C   UNL     1      13.213  -3.864   4.733  1.00  0.00     0.029 A 
ATOM     49  N   UNL     1      15.221  -2.943   5.077  1.00  0.00    -0.354 N 
ATOM     50  C   UNL     1      15.704   0.378   7.821  1.00  0.00     0.074 A 
ATOM     51  C   UNL     1      14.443   0.709   8.449  1.00  0.00     0.031 C 
ATOM     52  C   UNL     1      14.086  -4.489   3.927  1.00  0.00     0.029 A 
ATOM     53  C   UNL     1      15.407  -3.891   4.096  1.00  0.00     0.049 A 
ATOM     54  H   UNL     1      15.950  -2.386   5.432  1.00  0.00     0.167 HD
ATOM     55  C   UNL     1      16.879   1.004   8.085  1.00  0.00     0.034 A 
ATOM     56  C   UNL     1      16.510  -4.228   3.400  1.00  0.00     0.034 A 
ATOM     57  C   UNL     1      18.131   0.648   7.462  1.00  0.00     0.049 A 
ATOM     58  C   UNL     1      17.805  -3.516   3.698  1.00  0.00     0.074 A 
ATOM     59  C   UNL     1      19.390   1.181   7.682  1.00  0.00     0.029 A 
ATOM     60  N   UNL     1      18.283  -0.334   6.490  1.00  0.00    -0.354 N 
ATOM     61  N   UNL     1      18.032  -2.534   4.540  1.00  0.00    -0.248 NA
ATOM     62  C   UNL     1      18.993  -3.966   2.964  1.00  0.00     0.031 C 
ATOM     63  C   UNL     1      20.288   0.567   6.802  1.00  0.00     0.029 A 
ATOM     64  C   UNL     1      19.608  -0.405   6.085  1.00  0.00     0.049 A 
ATOM     65  H   UNL     1      17.556  -0.897   6.140  1.00  0.00     0.167 HD
ATOM     66  C   UNL     1      19.395  -2.267   4.454  1.00  0.00     0.074 A 
ATOM     67  C   UNL     1      19.939  -3.204   3.491  1.00  0.00     0.031 C 
ATOM     68  C   UNL     1      20.132  -1.335   5.112  1.00  0.00     0.034 A 
BRANCH  55  69
ATOM     69  C   UNL     1      16.847   2.147   9.076  1.00  0.00     0.023 A 
ATOM     70  C   UNL     1      16.436   1.956  10.409  1.00  0.00     0.031 A 
ATOM     71  C   UNL     1      17.180   3.454   8.678  1.00  0.00     0.131 A 
ATOM     72  C   UNL     1      16.273   3.059  11.260  1.00  0.00     0.055 A 
ATOM     73  C   UNL     1      17.106   4.536   9.559  1.00  0.00     0.041 A 
ATOM     74  F   UNL     1      17.561   3.708   7.416  1.00  0.00    -0.206 F 
ATOM     75  C   UNL     1      16.631   4.345  10.853  1.00  0.00     0.022 A 
BRANCH  72  76
ATOM     76  S   UNL     1      15.421   2.806  12.841  1.00  0.00     0.124 S 
ATOM     77  O   UNL     1      14.136   2.272  12.402  1.00  0.00    -0.237 OA
ATOM     78  O   UNL     1      16.302   1.875  13.531  1.00  0.00    -0.237 OA
ATOM     79  O   UNL     1      15.362   4.154  13.416  1.00  0.00    -0.744 OA
ENDBRANCH  72  76
ENDBRANCH  55  69
BRANCH  56  80
ATOM     80  C   UNL     1      16.438  -5.279   2.345  1.00  0.00     0.023 A 
ATOM     81  C   UNL     1      17.121  -6.497   2.484  1.00  0.00     0.031 A 
ATOM     82  C   UNL     1      15.696  -5.070   1.168  1.00  0.00     0.131 A 
ATOM     83  C   UNL     1      17.081  -7.445   1.448  1.00  0.00     0.055 A 
ATOM     84  C   UNL     1      15.618  -6.036   0.163  1.00  0.00     0.041 A 
ATOM     85  F   UNL     1      15.018  -3.926   0.988  1.00  0.00    -0.206 F 
ATOM     86  C   UNL     1      16.322  -7.228   0.296  1.00  0.00     0.022 A 
BRANCH  83  87
ATOM     87  S   UNL     1      18.093  -8.942   1.600  1.00  0.00     0.124 S 
ATOM     88  O   UNL     1      19.433  -8.383   1.739  1.00  0.00    -0.237 OA
ATOM     89  O   UNL     1      17.532  -9.568   2.792  1.00  0.00    -0.237 OA
ATOM     90  O   UNL     1      17.840  -9.652   0.348  1.00  0.00    -0.744 OA
ENDBRANCH  83  87
ENDBRANCH  56  80
BRANCH  68  91
ATOM     91  C   UNL     1      21.616  -1.317   4.837  1.00  0.00     0.023 A 
ATOM     92  C   UNL     1      22.132  -0.948   3.583  1.00  0.00     0.031 A 
ATOM     93  C   UNL     1      22.525  -1.685   5.844  1.00  0.00     0.131 A 
ATOM     94  C   UNL     1      23.514  -1.008   3.351  1.00  0.00     0.055 A 
ATOM     95  C   UNL     1      23.903  -1.685   5.627  1.00  0.00     0.041 A 
ATOM     96  F   UNL     1      22.087  -2.050   7.060  1.00  0.00    -0.206 F 
ATOM     97  C   UNL     1      24.404  -1.357   4.370  1.00  0.00     0.022 A 
BRANCH  94  98
ATOM     98  S   UNL     1      24.130  -0.710   1.671  1.00  0.00     0.124 S 
ATOM     99  O   UNL     1      23.432  -1.738   0.906  1.00  0.00    -0.237 OA
ATOM    100  O   UNL     1      23.709   0.665   1.423  1.00  0.00    -0.237 OA
ATOM    101  O   UNL     1      25.573  -0.903   1.795  1.00  0.00    -0.744 OA
ENDBRANCH  94  98
ENDBRANCH  68  91
ENDBRANCH  42  43
ENDBRANCH  34  37
ENDBRANCH  32  33
ENDBRANCH  31  32
ENDBRANCH   1  31
TORSDOF 18
