REMARK SMILES C[C@@H]1CCC[C@H]1NC(=O)c1csc(/C=C/C(=O)NCCCCCCNC(=O)c2ccc(-c3c4nc(c(-c5cc(S(=O)(=O)[O-])ccc5F)c5ccc([nH]5)c(-c5cc(S(=O)(=O)[O-])ccc5F)c5nc(c(-c6cc(S(=O)(=O)[O-])ccc6F)c6ccc3[nH]6)C=C5)C=C4)cc2)c1
REMARK SMILES IDX 21 1 20 2 19 3 18 4 16 5 17 6 15 8 14 9 13 10 10 11 11 12
REMARK SMILES IDX 91 13 12 14 8 15 7 16 9 18 6 19 1 20 2 21 3 22 4 23 5 24
REMARK SMILES IDX 22 25 23 26 24 27 25 28 26 29 27 31 28 32 29 33 90 34 30 35
REMARK SMILES IDX 89 36 31 37 32 38 33 39 83 40 34 41 88 42 82 43 84 44 35 45
REMARK SMILES IDX 87 46 81 47 80 48 36 50 68 51 48 52 67 53 49 54 52 55 66 56
REMARK SMILES IDX 85 57 50 58 51 59 65 61 86 62 53 63 37 64 38 65 46 66 39 67
REMARK SMILES IDX 45 68 47 69 44 70 40 71 41 72 42 73 43 74 69 75 70 76 78 77
REMARK SMILES IDX 71 78 77 79 79 80 76 81 72 82 73 83 74 84 75 85 54 86 55 87
REMARK SMILES IDX 63 88 56 89 62 90 64 91 61 92 57 93 58 94 59 95 60 96
REMARK H PARENT 18 7 7 17 25 30 84 49 52 60
REMARK Flexibility Score: inf
ROOT
ATOM      1  C   UNL     1       6.285   8.045   5.423  1.00  0.00     0.002 C 
ENDROOT
BRANCH   1   2
ATOM      2  C   UNL     1       5.237   7.199   4.689  1.00  0.00     0.021 C 
BRANCH   2   3
ATOM      3  C   UNL     1       4.036   8.013   4.206  1.00  0.00     0.116 C 
BRANCH   3   4
ATOM      4  N   UNL     1       4.382   8.747   3.000  1.00  0.00    -0.353 N 
ATOM      5  C   UNL     1       3.920   8.651   1.726  1.00  0.00     0.244 C 
ATOM      6  O   UNL     1       4.335   9.426   0.868  1.00  0.00    -0.270 OA
ATOM      7  H   UNL     1       5.073   9.436   3.130  1.00  0.00     0.163 HD
BRANCH   5   8
ATOM      8  C   UNL     1       2.841   7.703   1.382  1.00  0.00     0.072 C 
ATOM      9  C   UNL     1       2.825   6.414   1.750  1.00  0.00     0.024 C 
BRANCH   9  10
ATOM     10  C   UNL     1       1.723   5.550   1.488  1.00  0.00     0.028 A 
ATOM     11  C   UNL     1       0.175   3.787   1.751  1.00  0.00     0.051 A 
ATOM     12  C   UNL     1      -0.207   4.322   0.537  1.00  0.00     0.079 A 
ATOM     13  C   UNL     1       1.253   4.544   2.314  1.00  0.00     0.033 A 
ATOM     14  S   UNL     1       0.794   5.613   0.042  1.00  0.00    -0.144 S 
BRANCH  11  15
ATOM     15  C   UNL     1      -0.458   2.655   2.411  1.00  0.00     0.252 C 
ATOM     16  N   UNL     1      -0.579   1.471   1.731  1.00  0.00    -0.349 N 
ATOM     17  H   UNL     1      -1.067   0.761   2.208  1.00  0.00     0.164 HD
ATOM     18  O   UNL     1      -0.838   2.721   3.576  1.00  0.00    -0.269 OA
BRANCH  16  19
ATOM     19  C   UNL     1      -0.092   1.105   0.405  1.00  0.00     0.085 C 
ATOM     20  C   UNL     1       1.780  -0.156  -0.743  1.00  0.00     0.010 C 
ATOM     21  C   UNL     1       0.839  -0.114   0.463  1.00  0.00     0.008 C 
ATOM     22  C   UNL     1      -0.130  -1.295   0.467  1.00  0.00     0.005 C 
ATOM     23  C   UNL     1      -1.300  -0.864  -0.412  1.00  0.00     0.002 C 
ATOM     24  C   UNL     1      -1.261   0.663  -0.479  1.00  0.00     0.025 C 
ENDBRANCH  16  19
ENDBRANCH  11  15
ENDBRANCH   9  10
ENDBRANCH   5   8
ENDBRANCH   3   4
ENDBRANCH   2   3
ENDBRANCH   1   2
BRANCH   1  25
ATOM     25  C   UNL     1       5.776   8.731   6.698  1.00  0.00     0.002 C 
BRANCH  25  26
ATOM     26  C   UNL     1       5.133   7.791   7.722  1.00  0.00     0.021 C 
BRANCH  26  27
ATOM     27  C   UNL     1       6.070   6.711   8.252  1.00  0.00     0.116 C 
BRANCH  27  28
ATOM     28  N   UNL     1       7.183   7.287   8.986  1.00  0.00    -0.352 N 
ATOM     29  C   UNL     1       7.608   7.026  10.263  1.00  0.00     0.251 C 
ATOM     30  H   UNL     1       7.707   7.962   8.496  1.00  0.00     0.163 HD
ATOM     31  O   UNL     1       8.396   7.795  10.806  1.00  0.00    -0.269 OA
BRANCH  29  32
ATOM     32  C   UNL     1       7.114   5.830  10.980  1.00  0.00     0.039 A 
ATOM     33  C   UNL     1       6.836   5.927  12.345  1.00  0.00     0.014 A 
ATOM     34  C   UNL     1       6.968   4.605  10.321  1.00  0.00     0.014 A 
ATOM     35  C   UNL     1       6.395   4.802  13.044  1.00  0.00     0.010 A 
ATOM     36  C   UNL     1       6.449   3.506  11.000  1.00  0.00     0.010 A 
ATOM     37  C   UNL     1       6.187   3.584  12.375  1.00  0.00    -0.014 A 
BRANCH  37  38
ATOM     38  C   UNL     1       5.762   2.369  13.117  1.00  0.00     0.031 A 
ATOM     39  C   UNL     1       6.684   1.179  13.193  1.00  0.00     0.074 A 
ATOM     40  C   UNL     1       4.547   2.325  13.696  1.00  0.00     0.049 A 
ATOM     41  N   UNL     1       6.493   0.014  13.757  1.00  0.00    -0.248 NA
ATOM     42  C   UNL     1       7.983   1.308  12.514  1.00  0.00     0.031 C 
ATOM     43  C   UNL     1       3.553   3.400  13.658  1.00  0.00     0.029 A 
ATOM     44  N   UNL     1       3.939   1.340  14.432  1.00  0.00    -0.354 N 
ATOM     45  C   UNL     1       7.639  -0.729  13.493  1.00  0.00     0.074 A 
ATOM     46  C   UNL     1       8.484   0.091  12.652  1.00  0.00     0.031 C 
ATOM     47  C   UNL     1       2.477   3.029  14.369  1.00  0.00     0.029 A 
ATOM     48  C   UNL     1       2.682   1.677  14.878  1.00  0.00     0.049 A 
ATOM     49  H   UNL     1       4.363   0.472  14.624  1.00  0.00     0.167 HD
ATOM     50  C   UNL     1       7.971  -1.968  13.935  1.00  0.00     0.034 A 
ATOM     51  C   UNL     1       1.798   0.974  15.612  1.00  0.00     0.034 A 
ATOM     52  C   UNL     1       7.120  -2.765  14.785  1.00  0.00     0.049 A 
ATOM     53  C   UNL     1       2.183  -0.408  16.080  1.00  0.00     0.074 A 
ATOM     54  C   UNL     1       7.366  -4.016  15.324  1.00  0.00     0.029 A 
ATOM     55  N   UNL     1       5.854  -2.390  15.220  1.00  0.00    -0.354 N 
ATOM     56  N   UNL     1       3.290  -1.080  15.859  1.00  0.00    -0.248 NA
ATOM     57  C   UNL     1       1.206  -1.114  16.917  1.00  0.00     0.031 C 
ATOM     58  C   UNL     1       6.225  -4.425  16.024  1.00  0.00     0.029 A 
ATOM     59  C   UNL     1       5.299  -3.394  15.998  1.00  0.00     0.049 A 
ATOM     60  H   UNL     1       5.416  -1.535  15.006  1.00  0.00     0.167 HD
ATOM     61  C   UNL     1       3.154  -2.275  16.562  1.00  0.00     0.074 A 
ATOM     62  C   UNL     1       1.871  -2.215  17.231  1.00  0.00     0.031 C 
ATOM     63  C   UNL     1       4.012  -3.325  16.651  1.00  0.00     0.034 A 
BRANCH  50  64
ATOM     64  C   UNL     1       9.299  -2.533  13.483  1.00  0.00     0.023 A 
ATOM     65  C   UNL     1      10.518  -1.907  13.804  1.00  0.00     0.031 A 
ATOM     66  C   UNL     1       9.349  -3.693  12.689  1.00  0.00     0.131 A 
ATOM     67  C   UNL     1      11.720  -2.390  13.264  1.00  0.00     0.055 A 
ATOM     68  C   UNL     1      10.558  -4.221  12.230  1.00  0.00     0.041 A 
ATOM     69  F   UNL     1       8.221  -4.324  12.329  1.00  0.00    -0.206 F 
ATOM     70  C   UNL     1      11.752  -3.559  12.502  1.00  0.00     0.022 A 
BRANCH  67  71
ATOM     71  S   UNL     1      13.215  -1.378  13.437  1.00  0.00     0.124 S 
ATOM     72  O   UNL     1      12.807  -0.137  12.783  1.00  0.00    -0.237 OA
ATOM     73  O   UNL     1      13.386  -1.312  14.883  1.00  0.00    -0.237 OA
ATOM     74  O   UNL     1      14.233  -2.145  12.721  1.00  0.00    -0.744 OA
ENDBRANCH  67  71
ENDBRANCH  50  64
BRANCH  51  75
ATOM     75  C   UNL     1       0.467   1.552  15.959  1.00  0.00     0.023 A 
ATOM     76  C   UNL     1       0.108   1.792  17.295  1.00  0.00     0.031 A 
ATOM     77  C   UNL     1      -0.488   1.822  14.962  1.00  0.00     0.131 A 
ATOM     78  C   UNL     1      -1.190   2.230  17.604  1.00  0.00     0.055 A 
ATOM     79  C   UNL     1      -1.757   2.315  15.270  1.00  0.00     0.041 A 
ATOM     80  F   UNL     1      -0.196   1.616  13.668  1.00  0.00    -0.206 F 
ATOM     81  C   UNL     1      -2.120   2.506  16.600  1.00  0.00     0.022 A 
BRANCH  78  82
ATOM     82  S   UNL     1      -1.677   2.338  19.348  1.00  0.00     0.124 S 
ATOM     83  O   UNL     1      -1.442   0.974  19.806  1.00  0.00    -0.237 OA
ATOM     84  O   UNL     1      -0.759   3.353  19.856  1.00  0.00    -0.237 OA
ATOM     85  O   UNL     1      -3.079   2.744  19.285  1.00  0.00    -0.744 OA
ENDBRANCH  78  82
ENDBRANCH  51  75
BRANCH  63  86
ATOM     86  C   UNL     1       3.599  -4.468  17.551  1.00  0.00     0.023 A 
ATOM     87  C   UNL     1       2.457  -5.244  17.288  1.00  0.00     0.031 A 
ATOM     88  C   UNL     1       4.338  -4.754  18.713  1.00  0.00     0.131 A 
ATOM     89  C   UNL     1       2.038  -6.208  18.217  1.00  0.00     0.055 A 
ATOM     90  C   UNL     1       3.959  -5.768  19.595  1.00  0.00     0.041 A 
ATOM     91  F   UNL     1       5.437  -4.046  19.018  1.00  0.00    -0.206 F 
ATOM     92  C   UNL     1       2.792  -6.487  19.360  1.00  0.00     0.022 A 
BRANCH  89  93
ATOM     93  S   UNL     1       0.419  -6.993  17.983  1.00  0.00     0.124 S 
ATOM     94  O   UNL     1      -0.468  -5.837  17.896  1.00  0.00    -0.237 OA
ATOM     95  O   UNL     1       0.613  -7.742  16.746  1.00  0.00    -0.237 OA
ATOM     96  O   UNL     1       0.257  -7.810  19.184  1.00  0.00    -0.744 OA
ENDBRANCH  89  93
ENDBRANCH  63  86
ENDBRANCH  37  38
ENDBRANCH  29  32
ENDBRANCH  27  28
ENDBRANCH  26  27
ENDBRANCH  25  26
ENDBRANCH   1  25
TORSDOF 19
