REMARK SMILES CC1=C(C)C[C@@H](C(=O)NCCCCCCNC(=O)c2ccc(-c3c4nc(c(-c5cc(S(=O)(=O)[O-])ccc5F)c5ccc([nH]5)c(-c5cc(S(=O)(=O)[O-])ccc5F)c5nc(c(-c6cc(S(=O)(=O)[O-])ccc6F)c6ccc3[nH]6)C=C5)C=C4)cc2)[C@@H](C(=O)N2CCN(c3cccc(C(F)(F)F)c3)CC2)C1
REMARK SMILES IDX 12 1 11 2 10 3 9 4 7 5 8 6 6 8 1 9 2 10 3 11 101 12 4 13
REMARK SMILES IDX 5 14 82 15 83 16 84 17 85 18 86 19 100 20 87 21 99 22 88 23
REMARK SMILES IDX 89 24 90 25 98 26 91 27 93 28 92 29 94 30 95 31 96 32 97 33
REMARK SMILES IDX 13 34 14 35 15 36 16 37 17 38 18 40 19 41 20 42 81 43 21 44
REMARK SMILES IDX 80 45 22 46 23 47 24 48 74 49 25 50 79 51 73 52 75 53 26 54
REMARK SMILES IDX 78 55 72 56 71 57 27 59 59 60 39 61 58 62 40 63 43 64 57 65
REMARK SMILES IDX 76 66 41 67 42 68 56 70 77 71 44 72 28 73 29 74 37 75 30 76
REMARK SMILES IDX 36 77 38 78 35 79 31 80 32 81 33 82 34 83 60 84 61 85 69 86
REMARK SMILES IDX 62 87 68 88 70 89 67 90 63 91 64 92 65 93 66 94 45 95 46 96
REMARK SMILES IDX 54 97 47 98 53 99 55 100 52 101 48 102 49 103 50 104 51 105
REMARK H PARENT 9 7 16 39 75 58 43 69
REMARK Flexibility Score: inf
ROOT
ATOM      1  C   UNL     1      -4.147   3.231   0.231  1.00  0.00     0.002 C 
ENDROOT
BRANCH   1   2
ATOM      2  C   UNL     1      -2.670   2.872   0.068  1.00  0.00     0.021 C 
BRANCH   2   3
ATOM      3  C   UNL     1      -2.356   1.977  -1.124  1.00  0.00     0.116 C 
BRANCH   3   4
ATOM      4  N   UNL     1      -2.624   2.637  -2.381  1.00  0.00    -0.356 N 
ATOM      5  C   UNL     1      -1.821   2.870  -3.442  1.00  0.00     0.224 C 
ATOM      6  O   UNL     1      -2.320   3.457  -4.410  1.00  0.00    -0.275 OA
ATOM      7  H   UNL     1      -3.544   2.973  -2.480  1.00  0.00     0.163 HD
BRANCH   5   8
ATOM      8  C   UNL     1      -0.368   2.408  -3.511  1.00  0.00     0.095 C 
ATOM      9  C   UNL     1       1.453  -0.071  -0.299  1.00  0.00     0.039 C 
ATOM     10  C   UNL     1       0.949   0.648  -1.531  1.00  0.00    -0.074 C 
ATOM     11  C   UNL     1       0.261   0.078  -2.537  1.00  0.00    -0.074 C 
ATOM     12  C   UNL     1       1.244   2.132  -1.488  1.00  0.00     0.045 C 
ATOM     13  C   UNL     1      -0.082  -1.387  -2.644  1.00  0.00     0.039 C 
ATOM     14  C   UNL     1      -0.254   0.889  -3.695  1.00  0.00     0.045 C 
ATOM     15  C   UNL     1       0.643   3.078  -2.570  1.00  0.00     0.095 C 
BRANCH  15  16
ATOM     16  C   UNL     1       0.209   4.401  -1.893  1.00  0.00     0.226 C 
ATOM     17  O   UNL     1       0.203   4.484  -0.660  1.00  0.00    -0.275 OA
ATOM     18  N   UNL     1      -0.069   5.533  -2.632  1.00  0.00    -0.339 N 
ATOM     19  C   UNL     1      -0.188   6.814  -1.915  1.00  0.00     0.141 C 
ATOM     20  C   UNL     1      -0.154   5.693  -4.091  1.00  0.00     0.141 C 
ATOM     21  C   UNL     1       0.961   7.745  -2.337  1.00  0.00     0.138 C 
ATOM     22  C   UNL     1       0.849   6.732  -4.636  1.00  0.00     0.138 C 
ATOM     23  N   UNL     1       0.913   7.928  -3.793  1.00  0.00    -0.368 N 
BRANCH  23  24
ATOM     24  C   UNL     1       0.837   9.199  -4.308  1.00  0.00     0.037 A 
ATOM     25  C   UNL     1       1.888  10.104  -4.129  1.00  0.00     0.026 A 
ATOM     26  C   UNL     1      -0.316   9.641  -4.963  1.00  0.00     0.039 A 
ATOM     27  C   UNL     1       1.800  11.416  -4.594  1.00  0.00     0.003 A 
ATOM     28  C   UNL     1      -0.439  10.968  -5.408  1.00  0.00     0.058 A 
ATOM     29  C   UNL     1       0.637  11.849  -5.226  1.00  0.00     0.013 A 
BRANCH  28  30
ATOM     30  C   UNL     1      -1.714  11.459  -6.043  1.00  0.00     0.416 C 
ATOM     31  F   UNL     1      -2.266  12.502  -5.363  1.00  0.00    -0.166 F 
ATOM     32  F   UNL     1      -1.522  11.908  -7.316  1.00  0.00    -0.166 F 
ATOM     33  F   UNL     1      -2.690  10.512  -6.127  1.00  0.00    -0.166 F 
ENDBRANCH  28  30
ENDBRANCH  23  24
ENDBRANCH  15  16
ENDBRANCH   5   8
ENDBRANCH   3   4
ENDBRANCH   2   3
ENDBRANCH   1   2
BRANCH   1  34
ATOM     34  C   UNL     1      -5.103   2.040   0.327  1.00  0.00     0.002 C 
BRANCH  34  35
ATOM     35  C   UNL     1      -4.755   1.000   1.396  1.00  0.00     0.021 C 
BRANCH  35  36
ATOM     36  C   UNL     1      -4.531   1.553   2.800  1.00  0.00     0.116 C 
BRANCH  36  37
ATOM     37  N   UNL     1      -5.668   2.314   3.282  1.00  0.00    -0.352 N 
ATOM     38  C   UNL     1      -6.319   2.245   4.486  1.00  0.00     0.251 C 
ATOM     39  H   UNL     1      -6.024   2.979   2.650  1.00  0.00     0.163 HD
ATOM     40  O   UNL     1      -7.370   2.862   4.638  1.00  0.00    -0.269 OA
BRANCH  38  41
ATOM     41  C   UNL     1      -5.776   1.415   5.583  1.00  0.00     0.039 A 
ATOM     42  C   UNL     1      -6.664   0.630   6.323  1.00  0.00     0.014 A 
ATOM     43  C   UNL     1      -4.415   1.427   5.905  1.00  0.00     0.014 A 
ATOM     44  C   UNL     1      -6.183  -0.168   7.361  1.00  0.00     0.010 A 
ATOM     45  C   UNL     1      -3.927   0.581   6.900  1.00  0.00     0.010 A 
ATOM     46  C   UNL     1      -4.809  -0.214   7.647  1.00  0.00    -0.014 A 
BRANCH  46  47
ATOM     47  C   UNL     1      -4.303  -1.088   8.734  1.00  0.00     0.031 A 
ATOM     48  C   UNL     1      -3.711  -0.493   9.981  1.00  0.00     0.074 A 
ATOM     49  C   UNL     1      -4.353  -2.425   8.580  1.00  0.00     0.049 A 
ATOM     50  N   UNL     1      -3.270  -1.094  11.057  1.00  0.00    -0.248 NA
ATOM     51  C   UNL     1      -3.565   0.969  10.005  1.00  0.00     0.031 C 
ATOM     52  C   UNL     1      -4.825  -3.117   7.379  1.00  0.00     0.029 A 
ATOM     53  N   UNL     1      -4.001  -3.438   9.433  1.00  0.00    -0.354 N 
ATOM     54  C   UNL     1      -2.792  -0.084  11.886  1.00  0.00     0.074 A 
ATOM     55  C   UNL     1      -2.930   1.156  11.151  1.00  0.00     0.031 C 
ATOM     56  C   UNL     1      -4.752  -4.443   7.580  1.00  0.00     0.029 A 
ATOM     57  C   UNL     1      -4.217  -4.693   8.914  1.00  0.00     0.049 A 
ATOM     58  H   UNL     1      -3.630  -3.283  10.331  1.00  0.00     0.167 HD
ATOM     59  C   UNL     1      -2.310  -0.180  13.152  1.00  0.00     0.034 A 
ATOM     60  C   UNL     1      -4.015  -5.909   9.457  1.00  0.00     0.034 A 
ATOM     61  C   UNL     1      -2.177  -1.430  13.864  1.00  0.00     0.049 A 
ATOM     62  C   UNL     1      -3.527  -5.997  10.877  1.00  0.00     0.074 A 
ATOM     63  C   UNL     1      -1.761  -1.647  15.166  1.00  0.00     0.029 A 
ATOM     64  N   UNL     1      -2.446  -2.684  13.324  1.00  0.00    -0.354 N 
ATOM     65  N   UNL     1      -3.168  -5.030  11.689  1.00  0.00    -0.248 NA
ATOM     66  C   UNL     1      -3.451  -7.340  11.463  1.00  0.00     0.031 C 
ATOM     67  C   UNL     1      -1.720  -3.029  15.393  1.00  0.00     0.029 A 
ATOM     68  C   UNL     1      -2.180  -3.676  14.257  1.00  0.00     0.049 A 
ATOM     69  H   UNL     1      -2.778  -2.844  12.412  1.00  0.00     0.167 HD
ATOM     70  C   UNL     1      -2.834  -5.647  12.890  1.00  0.00     0.074 A 
ATOM     71  C   UNL     1      -3.065  -7.067  12.701  1.00  0.00     0.031 C 
ATOM     72  C   UNL     1      -2.379  -5.093  14.044  1.00  0.00     0.034 A 
BRANCH  59  73
ATOM     73  C   UNL     1      -1.870   1.105  13.818  1.00  0.00     0.023 A 
ATOM     74  C   UNL     1      -2.766   2.169  14.033  1.00  0.00     0.031 A 
ATOM     75  C   UNL     1      -0.526   1.300  14.184  1.00  0.00     0.131 A 
ATOM     76  C   UNL     1      -2.293   3.407  14.494  1.00  0.00     0.055 A 
ATOM     77  C   UNL     1      -0.079   2.506  14.731  1.00  0.00     0.041 A 
ATOM     78  F   UNL     1       0.383   0.333  13.990  1.00  0.00    -0.206 F 
ATOM     79  C   UNL     1      -0.959   3.576  14.868  1.00  0.00     0.022 A 
BRANCH  76  80
ATOM     80  S   UNL     1      -3.405   4.839  14.422  1.00  0.00     0.124 S 
ATOM     81  O   UNL     1      -3.779   4.852  13.010  1.00  0.00    -0.237 OA
ATOM     82  O   UNL     1      -4.457   4.468  15.361  1.00  0.00    -0.237 OA
ATOM     83  O   UNL     1      -2.557   5.953  14.843  1.00  0.00    -0.744 OA
ENDBRANCH  76  80
ENDBRANCH  59  73
BRANCH  60  84
ATOM     84  C   UNL     1      -4.292  -7.131   8.655  1.00  0.00     0.023 A 
ATOM     85  C   UNL     1      -5.378  -7.969   8.952  1.00  0.00     0.031 A 
ATOM     86  C   UNL     1      -3.471  -7.470   7.565  1.00  0.00     0.131 A 
ATOM     87  C   UNL     1      -5.597  -9.124   8.185  1.00  0.00     0.055 A 
ATOM     88  C   UNL     1      -3.715  -8.598   6.782  1.00  0.00     0.041 A 
ATOM     89  F   UNL     1      -2.431  -6.689   7.232  1.00  0.00    -0.206 F 
ATOM     90  C   UNL     1      -4.779  -9.438   7.096  1.00  0.00     0.022 A 
BRANCH  87  91
ATOM     91  S   UNL     1      -6.952 -10.235   8.651  1.00  0.00     0.124 S 
ATOM     92  O   UNL     1      -6.555 -10.643   9.994  1.00  0.00    -0.237 OA
ATOM     93  O   UNL     1      -8.111  -9.353   8.565  1.00  0.00    -0.237 OA
ATOM     94  O   UNL     1      -6.896 -11.285   7.636  1.00  0.00    -0.744 OA
ENDBRANCH  87  91
ENDBRANCH  60  84
BRANCH  72  95
ATOM     95  C   UNL     1      -2.118  -6.040  15.191  1.00  0.00     0.023 A 
ATOM     96  C   UNL     1      -1.107  -7.015  15.124  1.00  0.00     0.031 A 
ATOM     97  C   UNL     1      -2.920  -5.998  16.345  1.00  0.00     0.131 A 
ATOM     98  C   UNL     1      -0.971  -7.954  16.157  1.00  0.00     0.055 A 
ATOM     99  C   UNL     1      -2.738  -6.895  17.399  1.00  0.00     0.041 A 
ATOM    100  F   UNL     1      -3.902  -5.090  16.462  1.00  0.00    -0.206 F 
ATOM    101  C   UNL     1      -1.771  -7.891  17.301  1.00  0.00     0.022 A 
BRANCH  98 102
ATOM    102  S   UNL     1       0.183  -9.336  15.931  1.00  0.00     0.124 S 
ATOM    103  O   UNL     1      -0.274  -9.910  14.669  1.00  0.00    -0.237 OA
ATOM    104  O   UNL     1       1.475  -8.659  15.894  1.00  0.00    -0.237 OA
ATOM    105  O   UNL     1      -0.046 -10.171  17.109  1.00  0.00    -0.744 OA
ENDBRANCH  98 102
ENDBRANCH  72  95
ENDBRANCH  46  47
ENDBRANCH  38  41
ENDBRANCH  36  37
ENDBRANCH  35  36
ENDBRANCH  34  35
ENDBRANCH   1  34
TORSDOF 19
