REMARK SMILES CCCC[C@H](CC)C(=O)N1[C@H](C(=O)NCCCCCCNC(=O)c2ccc(-c3c4nc(c(-c5cc(S(=O)(=O)[O-])ccc5F)c5ccc([nH]5)c(-c5cc(S(=O)(=O)[O-])ccc5F)c5nc(c(-c6cc(S(=O)(=O)[O-])ccc6F)c6ccc3[nH]6)C=C5)C=C4)cc2)COC12CCCCC2
REMARK SMILES IDX 16 1 15 2 14 3 12 4 13 5 11 7 10 8 89 9 87 10 88 11 90 12
REMARK SMILES IDX 94 13 91 14 93 15 92 16 8 17 9 18 5 19 4 20 3 21 2 22 1 23
REMARK SMILES IDX 6 24 7 25 17 26 18 27 19 28 20 29 21 30 22 31 23 33 24 34
REMARK SMILES IDX 25 35 86 36 26 37 85 38 27 39 28 40 29 41 79 42 30 43 84 44
REMARK SMILES IDX 78 45 80 46 31 47 83 48 77 49 76 50 32 52 64 53 44 54 63 55
REMARK SMILES IDX 45 56 48 57 62 58 81 59 46 60 47 61 61 63 82 64 49 65 33 66
REMARK SMILES IDX 34 67 42 68 35 69 41 70 43 71 40 72 36 73 37 74 38 75 39 76
REMARK SMILES IDX 65 77 66 78 74 79 67 80 73 81 75 82 72 83 68 84 69 85 70 86
REMARK SMILES IDX 71 87 50 88 51 89 59 90 52 91 58 92 60 93 57 94 53 95 54 96
REMARK SMILES IDX 55 97 56 98
REMARK H PARENT 14 6 21 32 80 51 48 62
REMARK Flexibility Score: inf
ROOT
ATOM      1  C   UNL     1      -5.628   4.976   1.830  1.00  0.00     0.021 C 
ENDROOT
BRANCH   1   2
ATOM      2  C   UNL     1      -4.278   4.860   1.135  1.00  0.00     0.116 C 
BRANCH   2   3
ATOM      3  N   UNL     1      -3.925   6.014   0.331  1.00  0.00    -0.354 N 
ATOM      4  C   UNL     1      -2.696   6.616   0.211  1.00  0.00     0.245 C 
ATOM      5  O   UNL     1      -2.552   7.446  -0.691  1.00  0.00    -0.273 OA
ATOM      6  H   UNL     1      -4.656   6.416  -0.191  1.00  0.00     0.163 HD
BRANCH   4   7
ATOM      7  C   UNL     1      -1.593   6.327   1.266  1.00  0.00     0.203 C 
ATOM      8  N   UNL     1      -0.727   5.137   1.255  1.00  0.00    -0.299 N 
ATOM      9  C   UNL     1       0.665   5.514   1.538  1.00  0.00     0.144 C 
ATOM     10  C   UNL     1      -0.578   7.461   1.222  1.00  0.00     0.198 C 
ATOM     11  O   UNL     1       0.627   6.942   1.795  1.00  0.00    -0.353 OA
ATOM     12  C   UNL     1       1.241   4.946   2.846  1.00  0.00     0.059 C 
ATOM     13  C   UNL     1       1.538   5.304   0.284  1.00  0.00     0.059 C 
ATOM     14  C   UNL     1       2.766   4.875   2.956  1.00  0.00     0.005 C 
ATOM     15  C   UNL     1       3.028   5.476   0.548  1.00  0.00     0.005 C 
ATOM     16  C   UNL     1       3.477   4.539   1.655  1.00  0.00     0.000 C 
BRANCH   8  17
ATOM     17  C   UNL     1      -1.188   3.931   0.790  1.00  0.00     0.228 C 
ATOM     18  O   UNL     1      -1.925   3.920  -0.204  1.00  0.00    -0.274 OA
BRANCH  17  19
ATOM     19  C   UNL     1      -0.902   2.569   1.463  1.00  0.00     0.078 C 
BRANCH  19  20
ATOM     20  C   UNL     1      -1.690   2.282   2.774  1.00  0.00     0.013 C 
BRANCH  20  21
ATOM     21  C   UNL     1      -1.275   2.842   4.143  1.00  0.00     0.001 C 
BRANCH  21  22
ATOM     22  C   UNL     1      -1.715   4.275   4.450  1.00  0.00    -0.003 C 
ATOM     23  C   UNL     1      -3.210   4.451   4.676  1.00  0.00     0.004 C 
ENDBRANCH  21  22
ENDBRANCH  20  21
ENDBRANCH  19  20
BRANCH  19  24
ATOM     24  C   UNL     1       0.519   2.018   1.285  1.00  0.00     0.010 C 
ATOM     25  C   UNL     1       0.713   0.582   1.747  1.00  0.00     0.005 C 
ENDBRANCH  19  24
ENDBRANCH  17  19
ENDBRANCH   8  17
ENDBRANCH   4   7
ENDBRANCH   2   3
ENDBRANCH   1   2
BRANCH   1  26
ATOM     26  C   UNL     1      -6.842   4.966   0.898  1.00  0.00     0.002 C 
BRANCH  26  27
ATOM     27  C   UNL     1      -6.945   3.768  -0.052  1.00  0.00     0.002 C 
BRANCH  27  28
ATOM     28  C   UNL     1      -6.899   2.385   0.604  1.00  0.00     0.021 C 
BRANCH  28  29
ATOM     29  C   UNL     1      -7.957   2.134   1.675  1.00  0.00     0.116 C 
BRANCH  29  30
ATOM     30  N   UNL     1      -9.309   2.279   1.159  1.00  0.00    -0.352 N 
ATOM     31  C   UNL     1     -10.351   1.385   1.154  1.00  0.00     0.251 C 
ATOM     32  H   UNL     1      -9.507   3.152   0.751  1.00  0.00     0.163 HD
ATOM     33  O   UNL     1     -11.350   1.626   0.484  1.00  0.00    -0.269 OA
BRANCH  31  34
ATOM     34  C   UNL     1     -10.264   0.131   1.935  1.00  0.00     0.039 A 
ATOM     35  C   UNL     1     -10.718  -1.058   1.357  1.00  0.00     0.014 A 
ATOM     36  C   UNL     1      -9.764   0.126   3.241  1.00  0.00     0.014 A 
ATOM     37  C   UNL     1     -10.618  -2.258   2.065  1.00  0.00     0.010 A 
ATOM     38  C   UNL     1      -9.600  -1.081   3.917  1.00  0.00     0.010 A 
ATOM     39  C   UNL     1     -10.029  -2.286   3.339  1.00  0.00    -0.014 A 
BRANCH  39  40
ATOM     40  C   UNL     1      -9.858  -3.563   4.080  1.00  0.00     0.031 A 
ATOM     41  C   UNL     1     -10.567  -3.781   5.388  1.00  0.00     0.074 A 
ATOM     42  C   UNL     1      -9.008  -4.497   3.609  1.00  0.00     0.049 A 
ATOM     43  N   UNL     1     -10.486  -4.790   6.219  1.00  0.00    -0.248 NA
ATOM     44  C   UNL     1     -11.457  -2.702   5.837  1.00  0.00     0.031 C 
ATOM     45  C   UNL     1      -8.222  -4.377   2.380  1.00  0.00     0.029 A 
ATOM     46  N   UNL     1      -8.648  -5.721   4.115  1.00  0.00    -0.354 N 
ATOM     47  C   UNL     1     -11.304  -4.462   7.295  1.00  0.00     0.074 A 
ATOM     48  C   UNL     1     -11.811  -3.129   7.039  1.00  0.00     0.031 C 
ATOM     49  C   UNL     1      -7.481  -5.485   2.223  1.00  0.00     0.029 A 
ATOM     50  C   UNL     1      -7.703  -6.374   3.358  1.00  0.00     0.049 A 
ATOM     51  H   UNL     1      -9.030  -6.096   4.942  1.00  0.00     0.167 HD
ATOM     52  C   UNL     1     -11.622  -5.211   8.381  1.00  0.00     0.034 A 
ATOM     53  C   UNL     1      -7.070  -7.546   3.564  1.00  0.00     0.034 A 
ATOM     54  C   UNL     1     -11.103  -6.538   8.616  1.00  0.00     0.049 A 
ATOM     55  C   UNL     1      -7.421  -8.359   4.782  1.00  0.00     0.074 A 
ATOM     56  C   UNL     1     -11.404  -7.414   9.644  1.00  0.00     0.029 A 
ATOM     57  N   UNL     1     -10.159  -7.177   7.818  1.00  0.00    -0.354 N 
ATOM     58  N   UNL     1      -8.251  -8.068   5.758  1.00  0.00    -0.248 NA
ATOM     59  C   UNL     1      -6.763  -9.664   4.919  1.00  0.00     0.031 C 
ATOM     60  C   UNL     1     -10.588  -8.544   9.513  1.00  0.00     0.029 A 
ATOM     61  C   UNL     1      -9.838  -8.416   8.354  1.00  0.00     0.049 A 
ATOM     62  H   UNL     1      -9.775  -6.804   6.992  1.00  0.00     0.167 HD
ATOM     63  C   UNL     1      -8.230  -9.165   6.615  1.00  0.00     0.074 A 
ATOM     64  C   UNL     1      -7.318 -10.128   6.029  1.00  0.00     0.031 C 
ATOM     65  C   UNL     1      -8.907  -9.360   7.776  1.00  0.00     0.034 A 
BRANCH  52  66
ATOM     66  C   UNL     1     -12.545  -4.586   9.405  1.00  0.00     0.023 A 
ATOM     67  C   UNL     1     -13.844  -4.162   9.069  1.00  0.00     0.031 A 
ATOM     68  C   UNL     1     -12.104  -4.355  10.720  1.00  0.00     0.131 A 
ATOM     69  C   UNL     1     -14.608  -3.435   9.994  1.00  0.00     0.055 A 
ATOM     70  C   UNL     1     -12.910  -3.719  11.668  1.00  0.00     0.041 A 
ATOM     71  F   UNL     1     -10.870  -4.718  11.103  1.00  0.00    -0.206 F 
ATOM     72  C   UNL     1     -14.162  -3.234  11.301  1.00  0.00     0.022 A 
BRANCH  69  73
ATOM     73  S   UNL     1     -16.103  -2.592   9.404  1.00  0.00     0.124 S 
ATOM     74  O   UNL     1     -15.571  -1.776   8.315  1.00  0.00    -0.237 OA
ATOM     75  O   UNL     1     -16.958  -3.706   9.011  1.00  0.00    -0.237 OA
ATOM     76  O   UNL     1     -16.555  -1.838  10.572  1.00  0.00    -0.744 OA
ENDBRANCH  69  73
ENDBRANCH  52  66
BRANCH  53  77
ATOM     77  C   UNL     1      -6.025  -8.003   2.604  1.00  0.00     0.023 A 
ATOM     78  C   UNL     1      -6.215  -9.137   1.800  1.00  0.00     0.031 A 
ATOM     79  C   UNL     1      -4.813  -7.299   2.478  1.00  0.00     0.131 A 
ATOM     80  C   UNL     1      -5.197  -9.553   0.927  1.00  0.00     0.055 A 
ATOM     81  C   UNL     1      -3.824  -7.689   1.575  1.00  0.00     0.041 A 
ATOM     82  F   UNL     1      -4.585  -6.202   3.219  1.00  0.00    -0.206 F 
ATOM     83  C   UNL     1      -4.010  -8.828   0.798  1.00  0.00     0.022 A 
BRANCH  80  84
ATOM     84  S   UNL     1      -5.422 -11.093  -0.004  1.00  0.00     0.124 S 
ATOM     85  O   UNL     1      -5.577 -12.069   1.069  1.00  0.00    -0.237 OA
ATOM     86  O   UNL     1      -6.620 -10.803  -0.785  1.00  0.00    -0.237 OA
ATOM     87  O   UNL     1      -4.188 -11.206  -0.778  1.00  0.00    -0.744 OA
ENDBRANCH  80  84
ENDBRANCH  53  77
BRANCH  65  88
ATOM     88  C   UNL     1      -8.708 -10.686   8.472  1.00  0.00     0.023 A 
ATOM     89  C   UNL     1      -7.470 -11.052   9.030  1.00  0.00     0.031 A 
ATOM     90  C   UNL     1      -9.772 -11.600   8.570  1.00  0.00     0.131 A 
ATOM     91  C   UNL     1      -7.313 -12.320   9.611  1.00  0.00     0.055 A 
ATOM     92  C   UNL     1      -9.627 -12.834   9.206  1.00  0.00     0.041 A 
ATOM     93  F   UNL     1     -10.976 -11.306   8.052  1.00  0.00    -0.206 F 
ATOM     94  C   UNL     1      -8.388 -13.205   9.719  1.00  0.00     0.022 A 
BRANCH  91  95
ATOM     95  S   UNL     1      -5.656 -12.838  10.138  1.00  0.00     0.124 S 
ATOM     96  O   UNL     1      -4.896 -12.733   8.896  1.00  0.00    -0.237 OA
ATOM     97  O   UNL     1      -5.334 -11.856  11.168  1.00  0.00    -0.237 OA
ATOM     98  O   UNL     1      -5.862 -14.201  10.625  1.00  0.00    -0.744 OA
ENDBRANCH  91  95
ENDBRANCH  65  88
ENDBRANCH  39  40
ENDBRANCH  31  34
ENDBRANCH  29  30
ENDBRANCH  28  29
ENDBRANCH  27  28
ENDBRANCH  26  27
ENDBRANCH   1  26
TORSDOF 22
