REMARK SMILES O=C(/C=C/c1ccc(O)c(O)c1)NCCCCCCNC(=O)c1ccc(-c2c3nc(c(-c4cc(S(=O)(=O)[O-])ccc4F)c4ccc([nH]4)c(-c4cc(S(=O)(=O)[O-])ccc4F)c4nc(c(-c5cc(S(=O)(=O)[O-])ccc5F)c5ccc2[nH]5)C=C4)C=C3)cc1
REMARK SMILES IDX 17 1 16 2 15 3 14 4 13 5 1 6 2 7 3 9 4 10 5 11 6 12 12 13
REMARK SMILES IDX 7 14 10 15 8 16 11 17 9 19 18 21 19 22 20 23 21 24 22 26
REMARK SMILES IDX 23 27 24 28 85 29 25 30 84 31 26 32 27 33 28 34 78 35 29 36
REMARK SMILES IDX 83 37 77 38 79 39 30 40 82 41 76 42 75 43 31 45 63 46 43 47
REMARK SMILES IDX 62 48 44 49 47 50 61 51 80 52 45 53 46 54 60 56 81 57 48 58
REMARK SMILES IDX 32 59 33 60 41 61 34 62 40 63 42 64 39 65 35 66 36 67 37 68
REMARK SMILES IDX 38 69 64 70 65 71 73 72 66 73 72 74 74 75 71 76 67 77 68 78
REMARK SMILES IDX 69 79 70 80 49 81 50 82 58 83 51 84 57 85 59 86 56 87 52 88
REMARK SMILES IDX 53 89 54 90 55 91
REMARK H PARENT 13 8 11 18 9 20 20 25 79 44 47 55
REMARK Flexibility Score: inf
ROOT
ATOM      1  C   UNL     1       4.553  -1.480   4.058  1.00  0.00     0.002 C 
ENDROOT
BRANCH   1   2
ATOM      2  C   UNL     1       4.092  -2.325   2.866  1.00  0.00     0.002 C 
BRANCH   2   3
ATOM      3  C   UNL     1       2.593  -2.251   2.546  1.00  0.00     0.021 C 
BRANCH   3   4
ATOM      4  C   UNL     1       2.069  -0.842   2.266  1.00  0.00     0.116 C 
BRANCH   4   5
ATOM      5  N   UNL     1       2.749  -0.236   1.138  1.00  0.00    -0.353 N 
ATOM      6  O   UNL     1       0.928  -0.158  -0.259  1.00  0.00    -0.270 OA
ATOM      7  C   UNL     1       2.125   0.007  -0.054  1.00  0.00     0.243 C 
ATOM      8  H   UNL     1       3.697   0.011   1.235  1.00  0.00     0.163 HD
BRANCH   7   9
ATOM      9  C   UNL     1       2.978   0.536  -1.151  1.00  0.00     0.072 C 
ATOM     10  C   UNL     1       4.317   0.470  -1.216  1.00  0.00     0.014 C 
BRANCH  10  11
ATOM     11  C   UNL     1       5.093   0.941  -2.373  1.00  0.00    -0.022 A 
ATOM     12  C   UNL     1       4.748   2.101  -3.089  1.00  0.00     0.012 A 
ATOM     13  C   UNL     1       6.241   0.229  -2.747  1.00  0.00     0.058 A 
ATOM     14  C   UNL     1       5.515   2.528  -4.179  1.00  0.00     0.051 A 
ATOM     15  C   UNL     1       6.997   0.659  -3.829  1.00  0.00     0.157 A 
ATOM     16  C   UNL     1       6.638   1.798  -4.544  1.00  0.00     0.157 A 
BRANCH  15  17
ATOM     17  O   UNL     1       8.106  -0.051  -4.191  1.00  0.00    -0.504 OA
ATOM     18  H   UNL     1       8.624   0.229  -4.919  1.00  0.00     0.293 HD
ENDBRANCH  15  17
BRANCH  16  19
ATOM     19  O   UNL     1       7.426   2.162  -5.600  1.00  0.00    -0.504 OA
ATOM     20  H   UNL     1       7.213   2.924  -6.103  1.00  0.00     0.293 HD
ENDBRANCH  16  19
ENDBRANCH  10  11
ENDBRANCH   7   9
ENDBRANCH   4   5
ENDBRANCH   3   4
ENDBRANCH   2   3
ENDBRANCH   1   2
BRANCH   1  21
ATOM     21  C   UNL     1       3.860  -1.793   5.386  1.00  0.00     0.021 C 
BRANCH  21  22
ATOM     22  C   UNL     1       4.011  -3.234   5.866  1.00  0.00     0.116 C 
BRANCH  22  23
ATOM     23  N   UNL     1       5.395  -3.583   6.145  1.00  0.00    -0.352 N 
ATOM     24  C   UNL     1       5.943  -4.140   7.274  1.00  0.00     0.251 C 
ATOM     25  H   UNL     1       6.031  -3.392   5.418  1.00  0.00     0.163 HD
ATOM     26  O   UNL     1       7.167  -4.184   7.393  1.00  0.00    -0.269 OA
BRANCH  24  27
ATOM     27  C   UNL     1       5.070  -4.657   8.352  1.00  0.00     0.039 A 
ATOM     28  C   UNL     1       5.408  -4.391   9.682  1.00  0.00     0.014 A 
ATOM     29  C   UNL     1       3.928  -5.408   8.060  1.00  0.00     0.014 A 
ATOM     30  C   UNL     1       4.570  -4.828  10.712  1.00  0.00     0.010 A 
ATOM     31  C   UNL     1       3.054  -5.772   9.082  1.00  0.00     0.010 A 
ATOM     32  C   UNL     1       3.367  -5.492  10.421  1.00  0.00    -0.014 A 
BRANCH  32  33
ATOM     33  C   UNL     1       2.438  -5.912  11.506  1.00  0.00     0.031 A 
ATOM     34  C   UNL     1       2.141  -7.373  11.723  1.00  0.00     0.074 A 
ATOM     35  C   UNL     1       1.833  -4.980  12.270  1.00  0.00     0.049 A 
ATOM     36  N   UNL     1       1.319  -7.934  12.573  1.00  0.00    -0.248 NA
ATOM     37  C   UNL     1       2.842  -8.326  10.850  1.00  0.00     0.031 C 
ATOM     38  C   UNL     1       2.011  -3.533  12.135  1.00  0.00     0.029 A 
ATOM     39  N   UNL     1       0.942  -5.107  13.307  1.00  0.00    -0.354 N 
ATOM     40  C   UNL     1       1.404  -9.302  12.339  1.00  0.00     0.074 A 
ATOM     41  C   UNL     1       2.298  -9.477  11.214  1.00  0.00     0.031 C 
ATOM     42  C   UNL     1       1.277  -2.910  13.071  1.00  0.00     0.029 A 
ATOM     43  C   UNL     1       0.535  -3.904  13.839  1.00  0.00     0.049 A 
ATOM     44  H   UNL     1       0.623  -5.977  13.639  1.00  0.00     0.167 HD
ATOM     45  C   UNL     1       0.818 -10.321  13.016  1.00  0.00     0.034 A 
ATOM     46  C   UNL     1      -0.345  -3.632  14.824  1.00  0.00     0.034 A 
ATOM     47  C   UNL     1      -0.074 -10.132  14.135  1.00  0.00     0.049 A 
ATOM     48  C   UNL     1      -1.024  -4.781  15.531  1.00  0.00     0.074 A 
ATOM     49  C   UNL     1      -0.707 -11.093  14.905  1.00  0.00     0.029 A 
ATOM     50  N   UNL     1      -0.467  -8.899  14.642  1.00  0.00    -0.354 N 
ATOM     51  N   UNL     1      -0.900  -6.072  15.320  1.00  0.00    -0.248 NA
ATOM     52  C   UNL     1      -1.948  -4.436  16.619  1.00  0.00     0.031 C 
ATOM     53  C   UNL     1      -1.534 -10.443  15.828  1.00  0.00     0.029 A 
ATOM     54  C   UNL     1      -1.350  -9.076  15.696  1.00  0.00     0.049 A 
ATOM     55  H   UNL     1      -0.162  -8.027  14.302  1.00  0.00     0.167 HD
ATOM     56  C   UNL     1      -1.700  -6.690  16.279  1.00  0.00     0.074 A 
ATOM     57  C   UNL     1      -2.284  -5.632  17.076  1.00  0.00     0.031 C 
ATOM     58  C   UNL     1      -1.928  -8.013  16.485  1.00  0.00     0.034 A 
BRANCH  45  59
ATOM     59  C   UNL     1       1.115 -11.727  12.549  1.00  0.00     0.023 A 
ATOM     60  C   UNL     1       2.422 -12.248  12.570  1.00  0.00     0.031 A 
ATOM     61  C   UNL     1       0.089 -12.553  12.055  1.00  0.00     0.131 A 
ATOM     62  C   UNL     1       2.681 -13.518  12.035  1.00  0.00     0.055 A 
ATOM     63  C   UNL     1       0.340 -13.851  11.606  1.00  0.00     0.041 A 
ATOM     64  F   UNL     1      -1.175 -12.107  11.988  1.00  0.00    -0.206 F 
ATOM     65  C   UNL     1       1.645 -14.336  11.579  1.00  0.00     0.022 A 
BRANCH  62  66
ATOM     66  S   UNL     1       4.407 -14.024  11.804  1.00  0.00     0.124 S 
ATOM     67  O   UNL     1       4.906 -12.970  10.923  1.00  0.00    -0.237 OA
ATOM     68  O   UNL     1       4.924 -14.015  13.167  1.00  0.00    -0.237 OA
ATOM     69  O   UNL     1       4.298 -15.343  11.185  1.00  0.00    -0.744 OA
ENDBRANCH  62  66
ENDBRANCH  45  59
BRANCH  46  70
ATOM     70  C   UNL     1      -0.657  -2.220  15.200  1.00  0.00     0.023 A 
ATOM     71  C   UNL     1      -0.397  -1.739  16.494  1.00  0.00     0.031 A 
ATOM     72  C   UNL     1      -1.286  -1.351  14.291  1.00  0.00     0.131 A 
ATOM     73  C   UNL     1      -0.825  -0.454  16.862  1.00  0.00     0.055 A 
ATOM     74  C   UNL     1      -1.647  -0.049  14.642  1.00  0.00     0.041 A 
ATOM     75  F   UNL     1      -1.558  -1.756  13.040  1.00  0.00    -0.206 F 
ATOM     76  C   UNL     1      -1.434   0.400  15.941  1.00  0.00     0.022 A 
BRANCH  73  77
ATOM     77  S   UNL     1      -0.683   0.041  18.602  1.00  0.00     0.124 S 
ATOM     78  O   UNL     1      -1.427  -1.019  19.272  1.00  0.00    -0.237 OA
ATOM     79  O   UNL     1       0.762   0.036  18.801  1.00  0.00    -0.237 OA
ATOM     80  O   UNL     1      -1.311   1.360  18.632  1.00  0.00    -0.744 OA
ENDBRANCH  73  77
ENDBRANCH  46  70
BRANCH  58  81
ATOM     81  C   UNL     1      -2.801  -8.386  17.661  1.00  0.00     0.023 A 
ATOM     82  C   UNL     1      -4.159  -8.026  17.727  1.00  0.00     0.031 A 
ATOM     83  C   UNL     1      -2.254  -9.095  18.747  1.00  0.00     0.131 A 
ATOM     84  C   UNL     1      -4.903  -8.313  18.881  1.00  0.00     0.055 A 
ATOM     85  C   UNL     1      -3.019  -9.442  19.861  1.00  0.00     0.041 A 
ATOM     86  F   UNL     1      -0.963  -9.463  18.742  1.00  0.00    -0.206 F 
ATOM     87  C   UNL     1      -4.348  -9.036  19.940  1.00  0.00     0.022 A 
BRANCH  84  88
ATOM     88  S   UNL     1      -6.576  -7.627  19.031  1.00  0.00     0.124 S 
ATOM     89  O   UNL     1      -6.333  -6.197  18.873  1.00  0.00    -0.237 OA
ATOM     90  O   UNL     1      -7.280  -8.279  17.931  1.00  0.00    -0.237 OA
ATOM     91  O   UNL     1      -6.998  -8.041  20.368  1.00  0.00    -0.744 OA
ENDBRANCH  84  88
ENDBRANCH  58  81
ENDBRANCH  32  33
ENDBRANCH  24  27
ENDBRANCH  22  23
ENDBRANCH  21  22
ENDBRANCH   1  21
TORSDOF 19
