REMARK SMILES COc1ccc(-c2c(C)n[nH]c2C)c(C(=O)NCCCCCCNC(=O)c2ccc(-c3c4nc(c(-c5cc(S(=O)(=O)[O-])ccc5F)c5ccc([nH]5)c(-c5cc(S(=O)(=O)[O-])ccc5F)c5nc(c(-c6cc(S(=O)(=O)[O-])ccc6F)c6ccc3[nH]6)C=C5)C=C4)cc2)c1
REMARK SMILES IDX 21 1 20 2 19 3 18 4 17 5 15 6 16 7 14 9 3 10 4 11 90 12 5 13
REMARK SMILES IDX 6 14 2 15 1 16 7 17 8 18 12 19 9 20 10 21 11 22 13 23 22 25
REMARK SMILES IDX 23 26 24 27 25 28 26 30 27 31 28 32 89 33 29 34 88 35 30 36
REMARK SMILES IDX 31 37 32 38 82 39 33 40 87 41 81 42 83 43 34 44 86 45 80 46
REMARK SMILES IDX 79 47 35 49 67 50 47 51 66 52 48 53 51 54 65 55 84 56 49 57
REMARK SMILES IDX 50 58 64 60 85 61 52 62 36 63 37 64 45 65 38 66 44 67 46 68
REMARK SMILES IDX 43 69 39 70 40 71 41 72 42 73 68 74 69 75 77 76 70 77 76 78
REMARK SMILES IDX 78 79 75 80 71 81 72 82 73 83 74 84 53 85 54 86 62 87 55 88
REMARK SMILES IDX 61 89 63 90 60 91 56 92 57 93 58 94 59 95
REMARK H PARENT 17 8 11 24 24 29 83 48 51 59
REMARK Flexibility Score: inf
ROOT
ATOM      1  C   UNL     1       7.357   0.077  -0.934  1.00  0.00     0.002 C 
ENDROOT
BRANCH   1   2
ATOM      2  C   UNL     1       7.100  -1.392  -1.274  1.00  0.00     0.002 C 
BRANCH   2   3
ATOM      3  C   UNL     1       5.673  -1.902  -1.077  1.00  0.00     0.021 C 
BRANCH   3   4
ATOM      4  C   UNL     1       4.556  -1.099  -1.734  1.00  0.00     0.116 C 
BRANCH   4   5
ATOM      5  N   UNL     1       4.664  -0.960  -3.178  1.00  0.00    -0.352 N 
ATOM      6  C   UNL     1       3.698  -0.937  -4.168  1.00  0.00     0.252 C 
ATOM      7  O   UNL     1       4.061  -0.663  -5.309  1.00  0.00    -0.269 OA
ATOM      8  H   UNL     1       5.586  -0.865  -3.508  1.00  0.00     0.163 HD
BRANCH   6   9
ATOM      9  C   UNL     1       2.269  -1.262  -3.868  1.00  0.00     0.051 A 
ATOM     10  C   UNL     1       0.431  -1.176  -2.262  1.00  0.00     0.119 A 
ATOM     11  C   UNL     1      -0.304  -2.042  -3.064  1.00  0.00     0.047 A 
ATOM     12  C   UNL     1       1.688  -0.753  -2.692  1.00  0.00     0.060 A 
ATOM     13  C   UNL     1       0.197  -2.446  -4.302  1.00  0.00     0.013 A 
ATOM     14  C   UNL     1       1.474  -2.042  -4.730  1.00  0.00    -0.002 A 
BRANCH  10  15
ATOM     15  O   UNL     1      -0.172  -0.819  -1.089  1.00  0.00    -0.497 OA
ATOM     16  C   UNL     1       0.607  -0.066  -0.164  1.00  0.00     0.278 C 
ENDBRANCH  10  15
BRANCH  14  17
ATOM     17  C   UNL     1       1.809  -2.325  -6.115  1.00  0.00     0.026 A 
ATOM     18  C   UNL     1       1.258  -1.728  -7.286  1.00  0.00     0.067 A 
ATOM     19  C   UNL     1       2.700  -3.268  -6.583  1.00  0.00     0.040 A 
ATOM     20  C   UNL     1       0.240  -0.650  -7.362  1.00  0.00     0.069 C 
ATOM     21  N   UNL     1       1.766  -2.263  -8.402  1.00  0.00    -0.180 NA
ATOM     22  N   UNL     1       2.673  -3.141  -7.947  1.00  0.00    -0.282 N 
ATOM     23  C   UNL     1       3.591  -4.239  -5.913  1.00  0.00     0.067 C 
ATOM     24  H   UNL     1       3.269  -3.650  -8.543  1.00  0.00     0.190 HD
ENDBRANCH  14  17
ENDBRANCH   6   9
ENDBRANCH   4   5
ENDBRANCH   3   4
ENDBRANCH   2   3
ENDBRANCH   1   2
BRANCH   1  25
ATOM     25  C   UNL     1       6.919   0.541   0.457  1.00  0.00     0.021 C 
BRANCH  25  26
ATOM     26  C   UNL     1       7.458  -0.271   1.630  1.00  0.00     0.116 C 
BRANCH  26  27
ATOM     27  N   UNL     1       8.908  -0.260   1.700  1.00  0.00    -0.352 N 
ATOM     28  C   UNL     1       9.732   0.067   2.751  1.00  0.00     0.251 C 
ATOM     29  H   UNL     1       9.370  -0.527   0.873  1.00  0.00     0.163 HD
ATOM     30  O   UNL     1      10.937   0.185   2.557  1.00  0.00    -0.269 OA
BRANCH  28  31
ATOM     31  C   UNL     1       9.167   0.304   4.100  1.00  0.00     0.039 A 
ATOM     32  C   UNL     1       9.650   1.378   4.853  1.00  0.00     0.014 A 
ATOM     33  C   UNL     1       8.180  -0.530   4.631  1.00  0.00     0.014 A 
ATOM     34  C   UNL     1       9.102   1.648   6.109  1.00  0.00     0.010 A 
ATOM     35  C   UNL     1       7.579  -0.212   5.848  1.00  0.00     0.010 A 
ATOM     36  C   UNL     1       8.037   0.877   6.605  1.00  0.00    -0.014 A 
BRANCH  36  37
ATOM     37  C   UNL     1       7.403   1.194   7.913  1.00  0.00     0.031 A 
ATOM     38  C   UNL     1       7.469   0.209   9.049  1.00  0.00     0.074 A 
ATOM     39  C   UNL     1       6.733   2.354   8.065  1.00  0.00     0.049 A 
ATOM     40  N   UNL     1       6.954   0.291  10.249  1.00  0.00    -0.248 NA
ATOM     41  C   UNL     1       8.185  -1.047   8.787  1.00  0.00     0.031 C 
ATOM     42  C   UNL     1       6.572   3.377   7.030  1.00  0.00     0.029 A 
ATOM     43  N   UNL     1       6.067   2.871   9.148  1.00  0.00    -0.354 N 
ATOM     44  C   UNL     1       7.281  -0.903  10.885  1.00  0.00     0.074 A 
ATOM     45  C   UNL     1       7.965  -1.720   9.905  1.00  0.00     0.031 C 
ATOM     46  C   UNL     1       5.896   4.418   7.543  1.00  0.00     0.029 A 
ATOM     47  C   UNL     1       5.529   4.117   8.923  1.00  0.00     0.049 A 
ATOM     48  H   UNL     1       5.983   2.395  10.006  1.00  0.00     0.167 HD
ATOM     49  C   UNL     1       7.059  -1.272  12.173  1.00  0.00     0.034 A 
ATOM     50  C   UNL     1       4.820   4.925   9.736  1.00  0.00     0.034 A 
ATOM     51  C   UNL     1       6.367  -0.446  13.134  1.00  0.00     0.049 A 
ATOM     52  C   UNL     1       4.528   4.468  11.143  1.00  0.00     0.074 A 
ATOM     53  C   UNL     1       6.116  -0.702  14.471  1.00  0.00     0.029 A 
ATOM     54  N   UNL     1       5.801   0.794  12.859  1.00  0.00    -0.354 N 
ATOM     55  N   UNL     1       4.884   3.356  11.744  1.00  0.00    -0.248 NA
ATOM     56  C   UNL     1       3.745   5.383  11.982  1.00  0.00     0.031 C 
ATOM     57  C   UNL     1       5.332   0.340  14.980  1.00  0.00     0.029 A 
ATOM     58  C   UNL     1       5.170   1.294  13.989  1.00  0.00     0.049 A 
ATOM     59  H   UNL     1       5.842   1.251  11.988  1.00  0.00     0.167 HD
ATOM     60  C   UNL     1       4.401   3.458  13.046  1.00  0.00     0.074 A 
ATOM     61  C   UNL     1       3.742   4.745  13.142  1.00  0.00     0.031 C 
ATOM     62  C   UNL     1       4.498   2.572  14.071  1.00  0.00     0.034 A 
BRANCH  49  63
ATOM     63  C   UNL     1       7.546  -2.642  12.591  1.00  0.00     0.023 A 
ATOM     64  C   UNL     1       8.905  -2.997  12.511  1.00  0.00     0.031 A 
ATOM     65  C   UNL     1       6.639  -3.628  13.019  1.00  0.00     0.131 A 
ATOM     66  C   UNL     1       9.301  -4.322  12.747  1.00  0.00     0.055 A 
ATOM     67  C   UNL     1       7.055  -4.919  13.352  1.00  0.00     0.041 A 
ATOM     68  F   UNL     1       5.325  -3.362  13.098  1.00  0.00    -0.206 F 
ATOM     69  C   UNL     1       8.390  -5.279  13.195  1.00  0.00     0.022 A 
BRANCH  66  70
ATOM     70  S   UNL     1      10.981  -4.817  12.271  1.00  0.00     0.124 S 
ATOM     71  O   UNL     1      11.004  -4.454  10.855  1.00  0.00    -0.237 OA
ATOM     72  O   UNL     1      11.811  -4.006  13.153  1.00  0.00    -0.237 OA
ATOM     73  O   UNL     1      11.002  -6.254  12.536  1.00  0.00    -0.744 OA
ENDBRANCH  66  70
ENDBRANCH  49  63
BRANCH  50  74
ATOM     74  C   UNL     1       4.344   6.253   9.254  1.00  0.00     0.023 A 
ATOM     75  C   UNL     1       4.808   7.439   9.845  1.00  0.00     0.031 A 
ATOM     76  C   UNL     1       3.391   6.359   8.225  1.00  0.00     0.131 A 
ATOM     77  C   UNL     1       4.285   8.676   9.438  1.00  0.00     0.055 A 
ATOM     78  C   UNL     1       2.916   7.596   7.784  1.00  0.00     0.041 A 
ATOM     79  F   UNL     1       2.915   5.257   7.623  1.00  0.00    -0.206 F 
ATOM     80  C   UNL     1       3.354   8.764   8.401  1.00  0.00     0.022 A 
BRANCH  77  81
ATOM     81  S   UNL     1       4.778  10.167  10.346  1.00  0.00     0.124 S 
ATOM     82  O   UNL     1       4.342   9.846  11.700  1.00  0.00    -0.237 OA
ATOM     83  O   UNL     1       6.220  10.193  10.124  1.00  0.00    -0.237 OA
ATOM     84  O   UNL     1       4.028  11.231   9.683  1.00  0.00    -0.744 OA
ENDBRANCH  77  81
ENDBRANCH  50  74
BRANCH  62  85
ATOM     85  C   UNL     1       3.914   2.994  15.400  1.00  0.00     0.023 A 
ATOM     86  C   UNL     1       2.536   3.221  15.568  1.00  0.00     0.031 A 
ATOM     87  C   UNL     1       4.755   3.202  16.508  1.00  0.00     0.131 A 
ATOM     88  C   UNL     1       2.050   3.708  16.791  1.00  0.00     0.055 A 
ATOM     89  C   UNL     1       4.256   3.617  17.744  1.00  0.00     0.041 A 
ATOM     90  F   UNL     1       6.080   3.008  16.408  1.00  0.00    -0.206 F 
ATOM     91  C   UNL     1       2.899   3.889  17.886  1.00  0.00     0.022 A 
BRANCH  88  92
ATOM     92  S   UNL     1       0.312   4.218  16.895  1.00  0.00     0.124 S 
ATOM     93  O   UNL     1       0.225   5.217  15.835  1.00  0.00    -0.237 OA
ATOM     94  O   UNL     1      -0.395   2.966  16.650  1.00  0.00    -0.237 OA
ATOM     95  O   UNL     1       0.190   4.743  18.254  1.00  0.00    -0.744 OA
ENDBRANCH  88  92
ENDBRANCH  62  85
ENDBRANCH  36  37
ENDBRANCH  28  31
ENDBRANCH  26  27
ENDBRANCH  25  26
ENDBRANCH   1  25
TORSDOF 18
