REMARK SMILES CC1(C)CSC[C@H]([NH2+][C@H](C(=O)NCCCCCCNC(=O)c2ccc(-c3c4nc(c(-c5cc(S(=O)(=O)[O-])ccc5F)c5ccc([nH]5)c(-c5cc(S(=O)(=O)[O-])ccc5F)c5nc(c(-c6cc(S(=O)(=O)[O-])ccc6F)c6ccc3[nH]6)C=C5)C=C4)cc2)c2ccccc2)C1
REMARK SMILES IDX 16 1 15 2 14 3 13 4 12 5 10 6 11 7 9 9 8 10 7 13 1 14 2 15
REMARK SMILES IDX 3 16 4 17 91 18 5 19 6 20 85 21 86 22 90 23 87 24 89 25
REMARK SMILES IDX 88 26 17 27 18 28 19 29 20 30 21 32 22 33 23 34 84 35 24 36
REMARK SMILES IDX 83 37 25 38 26 39 27 40 77 41 28 42 82 43 76 44 78 45 29 46
REMARK SMILES IDX 81 47 75 48 74 49 30 51 62 52 42 53 61 54 43 55 46 56 60 57
REMARK SMILES IDX 79 58 44 59 45 60 59 62 80 63 47 64 31 65 32 66 40 67 33 68
REMARK SMILES IDX 39 69 41 70 38 71 34 72 35 73 36 74 37 75 63 76 64 77 72 78
REMARK SMILES IDX 65 79 71 80 73 81 70 82 66 83 67 84 68 85 69 86 48 87 49 88
REMARK SMILES IDX 57 89 50 90 56 91 58 92 55 93 51 94 52 95 53 96 54 97
REMARK H PARENT 12 8 8 11 8 12 19 31 78 50 46 61
REMARK Flexibility Score: inf
ROOT
ATOM      1  C   UNL     1       8.198   2.952   9.754  1.00  0.00     0.002 C 
ENDROOT
BRANCH   1   2
ATOM      2  C   UNL     1       8.118   2.848   8.228  1.00  0.00     0.002 C 
BRANCH   2   3
ATOM      3  C   UNL     1       6.725   2.532   7.689  1.00  0.00     0.021 C 
BRANCH   3   4
ATOM      4  C   UNL     1       5.710   3.670   7.876  1.00  0.00     0.116 C 
BRANCH   4   5
ATOM      5  N   UNL     1       5.628   4.546   6.713  1.00  0.00    -0.351 N 
ATOM      6  C   UNL     1       4.939   4.306   5.536  1.00  0.00     0.283 C 
ATOM      7  O   UNL     1       4.869   5.200   4.691  1.00  0.00    -0.268 OA
ATOM      8  H   UNL     1       6.115   5.400   6.771  1.00  0.00     0.163 HD
BRANCH   6   9
ATOM      9  C   UNL     1       4.273   2.920   5.380  1.00  0.00     0.304 C 
BRANCH   9  10
ATOM     10  N   UNL     1       2.830   2.989   5.747  1.00  0.00    -0.329 N 
ATOM     11  H   UNL     1       2.731   3.552   6.592  1.00  0.00     0.347 HD
ATOM     12  H   UNL     1       2.325   3.408   4.966  1.00  0.00     0.347 HD
BRANCH  10  13
ATOM     13  C   UNL     1       2.257   1.642   5.997  1.00  0.00     0.193 C 
ATOM     14  C   UNL     1       0.080  -0.452   5.039  1.00  0.00     0.012 C 
ATOM     15  C   UNL     1       0.005   0.377   6.340  1.00  0.00    -0.021 C 
ATOM     16  C   UNL     1      -1.485   0.638   6.641  1.00  0.00     0.012 C 
ATOM     17  C   UNL     1       0.571  -0.421   7.536  1.00  0.00     0.076 C 
ATOM     18  C   UNL     1       0.724   1.747   6.157  1.00  0.00     0.073 C 
ATOM     19  S   UNL     1       2.346  -0.740   7.440  1.00  0.00    -0.155 SA
ATOM     20  C   UNL     1       2.878   0.975   7.245  1.00  0.00     0.134 C 
ENDBRANCH  10  13
ENDBRANCH   9  10
BRANCH   9  21
ATOM     21  C   UNL     1       4.537   2.177   4.082  1.00  0.00     0.019 A 
ATOM     22  C   UNL     1       4.126   2.648   2.831  1.00  0.00     0.010 A 
ATOM     23  C   UNL     1       5.077   0.875   4.171  1.00  0.00     0.010 A 
ATOM     24  C   UNL     1       4.197   1.810   1.713  1.00  0.00     0.001 A 
ATOM     25  C   UNL     1       5.133   0.041   3.061  1.00  0.00     0.001 A 
ATOM     26  C   UNL     1       4.679   0.504   1.833  1.00  0.00     0.000 A 
ENDBRANCH   9  21
ENDBRANCH   6   9
ENDBRANCH   4   5
ENDBRANCH   3   4
ENDBRANCH   2   3
ENDBRANCH   1   2
BRANCH   1  27
ATOM     27  C   UNL     1       7.845   1.671  10.520  1.00  0.00     0.021 C 
BRANCH  27  28
ATOM     28  C   UNL     1       8.727   0.463  10.204  1.00  0.00     0.116 C 
BRANCH  28  29
ATOM     29  N   UNL     1      10.133   0.739  10.460  1.00  0.00    -0.352 N 
ATOM     30  C   UNL     1      10.984   0.171  11.368  1.00  0.00     0.251 C 
ATOM     31  H   UNL     1      10.531   1.440   9.896  1.00  0.00     0.163 HD
ATOM     32  O   UNL     1      12.063   0.726  11.617  1.00  0.00    -0.269 OA
BRANCH  30  33
ATOM     33  C   UNL     1      10.628  -1.087  12.053  1.00  0.00     0.039 A 
ATOM     34  C   UNL     1      10.897  -1.221  13.419  1.00  0.00     0.014 A 
ATOM     35  C   UNL     1      10.063  -2.152  11.345  1.00  0.00     0.014 A 
ATOM     36  C   UNL     1      10.546  -2.398  14.084  1.00  0.00     0.010 A 
ATOM     37  C   UNL     1       9.656  -3.300  12.022  1.00  0.00     0.010 A 
ATOM     38  C   UNL     1       9.894  -3.436  13.398  1.00  0.00    -0.014 A 
BRANCH  38  39
ATOM     39  C   UNL     1       9.447  -4.667  14.102  1.00  0.00     0.031 A 
ATOM     40  C   UNL     1      10.046  -6.001  13.744  1.00  0.00     0.074 A 
ATOM     41  C   UNL     1       8.450  -4.589  15.007  1.00  0.00     0.049 A 
ATOM     42  N   UNL     1       9.721  -7.194  14.171  1.00  0.00    -0.248 NA
ATOM     43  C   UNL     1      11.136  -5.993  12.756  1.00  0.00     0.031 C 
ATOM     44  C   UNL     1       7.765  -3.356  15.404  1.00  0.00     0.029 A 
ATOM     45  N   UNL     1       7.822  -5.565  15.741  1.00  0.00    -0.354 N 
ATOM     46  C   UNL     1      10.547  -8.081  13.488  1.00  0.00     0.074 A 
ATOM     47  C   UNL     1      11.362  -7.289  12.591  1.00  0.00     0.031 C 
ATOM     48  C   UNL     1       6.820  -3.650  16.311  1.00  0.00     0.029 A 
ATOM     49  C   UNL     1       6.796  -5.093  16.528  1.00  0.00     0.049 A 
ATOM     50  H   UNL     1       8.083  -6.514  15.709  1.00  0.00     0.167 HD
ATOM     51  C   UNL     1      10.625  -9.429  13.610  1.00  0.00     0.034 A 
ATOM     52  C   UNL     1       5.919  -5.749  17.314  1.00  0.00     0.034 A 
ATOM     53  C   UNL     1       9.824 -10.199  14.530  1.00  0.00     0.049 A 
ATOM     54  C   UNL     1       6.029  -7.250  17.429  1.00  0.00     0.074 A 
ATOM     55  C   UNL     1       9.883 -11.557  14.793  1.00  0.00     0.029 A 
ATOM     56  N   UNL     1       8.811  -9.684  15.328  1.00  0.00    -0.354 N 
ATOM     57  N   UNL     1       6.867  -8.065  16.829  1.00  0.00    -0.248 NA
ATOM     58  C   UNL     1       5.087  -7.918  18.336  1.00  0.00     0.031 C 
ATOM     59  C   UNL     1       8.861 -11.874  15.693  1.00  0.00     0.029 A 
ATOM     60  C   UNL     1       8.214 -10.704  16.055  1.00  0.00     0.049 A 
ATOM     61  H   UNL     1       8.553  -8.735  15.371  1.00  0.00     0.167 HD
ATOM     62  C   UNL     1       6.570  -9.336  17.313  1.00  0.00     0.074 A 
ATOM     63  C   UNL     1       5.493  -9.177  18.266  1.00  0.00     0.031 C 
ATOM     64  C   UNL     1       7.136 -10.529  16.998  1.00  0.00     0.034 A 
BRANCH  51  65
ATOM     65  C   UNL     1      11.588 -10.165  12.710  1.00  0.00     0.023 A 
ATOM     66  C   UNL     1      12.979  -9.990  12.806  1.00  0.00     0.031 A 
ATOM     67  C   UNL     1      11.102 -11.071  11.750  1.00  0.00     0.131 A 
ATOM     68  C   UNL     1      13.832 -10.672  11.924  1.00  0.00     0.055 A 
ATOM     69  C   UNL     1      11.960 -11.800  10.924  1.00  0.00     0.041 A 
ATOM     70  F   UNL     1       9.782 -11.264  11.599  1.00  0.00    -0.206 F 
ATOM     71  C   UNL     1      13.334 -11.595  11.001  1.00  0.00     0.022 A 
BRANCH  68  72
ATOM     72  S   UNL     1      15.598 -10.260  11.929  1.00  0.00     0.124 S 
ATOM     73  O   UNL     1      15.571  -8.843  11.574  1.00  0.00    -0.237 OA
ATOM     74  O   UNL     1      15.991 -10.567  13.300  1.00  0.00    -0.237 OA
ATOM     75  O   UNL     1      16.160 -11.141  10.907  1.00  0.00    -0.744 OA
ENDBRANCH  68  72
ENDBRANCH  51  65
BRANCH  52  76
ATOM     76  C   UNL     1       4.838  -5.011  18.032  1.00  0.00     0.023 A 
ATOM     77  C   UNL     1       4.769  -5.007  19.434  1.00  0.00     0.031 A 
ATOM     78  C   UNL     1       3.816  -4.356  17.322  1.00  0.00     0.131 A 
ATOM     79  C   UNL     1       3.670  -4.418  20.080  1.00  0.00     0.055 A 
ATOM     80  C   UNL     1       2.757  -3.717  17.971  1.00  0.00     0.041 A 
ATOM     81  F   UNL     1       3.832  -4.324  15.980  1.00  0.00    -0.206 F 
ATOM     82  C   UNL     1       2.671  -3.762  19.358  1.00  0.00     0.022 A 
BRANCH  79  83
ATOM     83  S   UNL     1       3.505  -4.627  21.874  1.00  0.00     0.124 S 
ATOM     84  O   UNL     1       3.562  -6.078  22.011  1.00  0.00    -0.237 OA
ATOM     85  O   UNL     1       4.661  -3.889  22.371  1.00  0.00    -0.237 OA
ATOM     86  O   UNL     1       2.208  -4.022  22.169  1.00  0.00    -0.744 OA
ENDBRANCH  79  83
ENDBRANCH  52  76
BRANCH  64  87
ATOM     87  C   UNL     1       6.627 -11.745  17.734  1.00  0.00     0.023 A 
ATOM     88  C   UNL     1       5.319 -12.226  17.552  1.00  0.00     0.031 A 
ATOM     89  C   UNL     1       7.462 -12.423  18.640  1.00  0.00     0.131 A 
ATOM     90  C   UNL     1       4.865 -13.317  18.308  1.00  0.00     0.055 A 
ATOM     91  C   UNL     1       7.025 -13.546  19.342  1.00  0.00     0.041 A 
ATOM     92  F   UNL     1       8.720 -12.005  18.854  1.00  0.00    -0.206 F 
ATOM     93  C   UNL     1       5.715 -13.991  19.189  1.00  0.00     0.022 A 
BRANCH  90  94
ATOM     94  S   UNL     1       3.117 -13.787  18.195  1.00  0.00     0.124 S 
ATOM     95  O   UNL     1       2.445 -12.559  18.605  1.00  0.00    -0.237 OA
ATOM     96  O   UNL     1       2.981 -14.149  16.788  1.00  0.00    -0.237 OA
ATOM     97  O   UNL     1       3.000 -14.901  19.135  1.00  0.00    -0.744 OA
ENDBRANCH  90  94
ENDBRANCH  64  87
ENDBRANCH  38  39
ENDBRANCH  30  33
ENDBRANCH  28  29
ENDBRANCH  27  28
ENDBRANCH   1  27
TORSDOF 19
