REMARK SMILES CO[C@@H]1C[C@@H](C(=O)NCCCCCCNC(=O)c2ccc(-c3c4nc(c(-c5cc(S(=O)(=O)[O-])ccc5F)c5ccc([nH]5)c(-c5cc(S(=O)(=O)[O-])ccc5F)c5nc(c(-c6cc(S(=O)(=O)[O-])ccc6F)c6ccc3[nH]6)C=C5)C=C4)cc2)N(S(=O)(=O)c2ccc(Cl)cc2F)C1
REMARK SMILES IDX 12 1 11 2 10 3 9 4 8 5 6 6 7 7 5 9 3 10 4 11 93 12 81 13
REMARK SMILES IDX 2 14 1 15 82 16 83 17 84 18 85 19 86 20 91 21 87 22 90 23
REMARK SMILES IDX 92 24 88 25 89 26 13 27 14 28 15 29 16 30 17 32 18 33 19 34
REMARK SMILES IDX 80 35 20 36 79 37 21 38 22 39 23 40 73 41 24 42 78 43 72 44
REMARK SMILES IDX 74 45 25 46 77 47 71 48 70 49 26 51 58 52 38 53 57 54 39 55
REMARK SMILES IDX 42 56 56 57 75 58 40 59 41 60 55 62 76 63 43 64 27 65 28 66
REMARK SMILES IDX 36 67 29 68 35 69 37 70 34 71 30 72 31 73 32 74 33 75 59 76
REMARK SMILES IDX 60 77 68 78 61 79 67 80 69 81 66 82 62 83 63 84 64 85 65 86
REMARK SMILES IDX 44 87 45 88 53 89 46 90 52 91 54 92 51 93 47 94 48 95 49 96
REMARK SMILES IDX 50 97
REMARK H PARENT 8 8 15 31 74 50 42 61
REMARK Flexibility Score: inf
ROOT
ATOM      1  C   UNL     1       5.377   7.205  -3.354  1.00  0.00     0.002 C 
ENDROOT
BRANCH   1   2
ATOM      2  C   UNL     1       4.385   6.915  -2.229  1.00  0.00     0.002 C 
BRANCH   2   3
ATOM      3  C   UNL     1       3.253   5.953  -2.603  1.00  0.00     0.021 C 
BRANCH   3   4
ATOM      4  C   UNL     1       3.559   4.470  -2.453  1.00  0.00     0.116 C 
BRANCH   4   5
ATOM      5  N   UNL     1       3.789   4.140  -1.062  1.00  0.00    -0.355 N 
ATOM      6  C   UNL     1       3.078   3.441  -0.150  1.00  0.00     0.238 C 
ATOM      7  O   UNL     1       3.537   3.473   1.001  1.00  0.00    -0.273 OA
ATOM      8  H   UNL     1       4.635   4.497  -0.709  1.00  0.00     0.163 HD
BRANCH   6   9
ATOM      9  C   UNL     1       1.859   2.593  -0.453  1.00  0.00     0.165 C 
ATOM     10  C   UNL     1       0.794   0.874  -1.779  1.00  0.00     0.135 C 
ATOM     11  C   UNL     1       2.149   1.481  -1.465  1.00  0.00     0.064 C 
ATOM     12  C   UNL     1      -0.215   1.997  -1.540  1.00  0.00     0.135 C 
ATOM     13  N   UNL     1       0.459   3.029  -0.670  1.00  0.00    -0.183 NA
BRANCH  10  14
ATOM     14  O   UNL     1       0.504  -0.347  -1.100  1.00  0.00    -0.380 OA
ATOM     15  C   UNL     1       0.504  -0.328   0.317  1.00  0.00     0.195 C 
ENDBRANCH  10  14
BRANCH  13  16
ATOM     16  S   UNL     1      -0.090   4.577  -1.026  1.00  0.00     0.246 S 
ATOM     17  O   UNL     1       0.400   4.861  -2.363  1.00  0.00    -0.207 OA
ATOM     18  O   UNL     1      -1.515   4.579  -0.778  1.00  0.00    -0.207 OA
BRANCH  16  19
ATOM     19  C   UNL     1       0.580   5.812   0.026  1.00  0.00     0.118 A 
ATOM     20  C   UNL     1       0.610   7.129  -0.467  1.00  0.00     0.026 A 
ATOM     21  C   UNL     1       1.129   5.529   1.261  1.00  0.00     0.144 A 
ATOM     22  C   UNL     1       1.293   8.125   0.230  1.00  0.00     0.022 A 
ATOM     23  C   UNL     1       1.832   6.515   1.955  1.00  0.00     0.061 A 
ATOM     24  F   UNL     1       1.016   4.315   1.812  1.00  0.00    -0.205 F 
ATOM     25  C   UNL     1       1.930   7.803   1.426  1.00  0.00     0.044 A 
ATOM     26  Cl  UNL     1       2.851   9.002   2.245  1.00  0.00    -0.084 Cl
ENDBRANCH  16  19
ENDBRANCH  13  16
ENDBRANCH   6   9
ENDBRANCH   4   5
ENDBRANCH   3   4
ENDBRANCH   2   3
ENDBRANCH   1   2
BRANCH   1  27
ATOM     27  C   UNL     1       4.751   7.645  -4.681  1.00  0.00     0.021 C 
BRANCH  27  28
ATOM     28  C   UNL     1       3.662   8.711  -4.567  1.00  0.00     0.116 C 
BRANCH  28  29
ATOM     29  N   UNL     1       4.193   9.994  -4.141  1.00  0.00    -0.352 N 
ATOM     30  C   UNL     1       4.338  11.145  -4.876  1.00  0.00     0.251 C 
ATOM     31  H   UNL     1       4.488  10.045  -3.203  1.00  0.00     0.163 HD
ATOM     32  O   UNL     1       4.988  12.086  -4.433  1.00  0.00    -0.269 OA
BRANCH  30  33
ATOM     33  C   UNL     1       3.723  11.222  -6.217  1.00  0.00     0.039 A 
ATOM     34  C   UNL     1       4.522  11.552  -7.314  1.00  0.00     0.014 A 
ATOM     35  C   UNL     1       2.364  10.940  -6.388  1.00  0.00     0.014 A 
ATOM     36  C   UNL     1       3.969  11.542  -8.596  1.00  0.00     0.010 A 
ATOM     37  C   UNL     1       1.830  10.874  -7.672  1.00  0.00     0.010 A 
ATOM     38  C   UNL     1       2.626  11.177  -8.788  1.00  0.00    -0.014 A 
BRANCH  38  39
ATOM     39  C   UNL     1       2.027  11.130 -10.146  1.00  0.00     0.031 A 
ATOM     40  C   UNL     1       0.952  12.111 -10.521  1.00  0.00     0.074 A 
ATOM     41  C   UNL     1       2.401  10.168 -11.012  1.00  0.00     0.049 A 
ATOM     42  N   UNL     1       0.238  12.182 -11.615  1.00  0.00    -0.248 NA
ATOM     43  C   UNL     1       0.615  13.128  -9.514  1.00  0.00     0.031 C 
ATOM     44  C   UNL     1       3.404   9.135 -10.749  1.00  0.00     0.029 A 
ATOM     45  N   UNL     1       1.968   9.894 -12.285  1.00  0.00    -0.354 N 
ATOM     46  C   UNL     1      -0.645  13.239 -11.422  1.00  0.00     0.074 A 
ATOM     47  C   UNL     1      -0.410  13.742 -10.084  1.00  0.00     0.031 C 
ATOM     48  C   UNL     1       3.517   8.347 -11.831  1.00  0.00     0.029 A 
ATOM     49  C   UNL     1       2.573   8.796 -12.850  1.00  0.00     0.049 A 
ATOM     50  H   UNL     1       1.288  10.433 -12.750  1.00  0.00     0.167 HD
ATOM     51  C   UNL     1      -1.554  13.755 -12.287  1.00  0.00     0.034 A 
ATOM     52  C   UNL     1       2.380   8.212 -14.049  1.00  0.00     0.034 A 
ATOM     53  C   UNL     1      -1.766  13.255 -13.623  1.00  0.00     0.049 A 
ATOM     54  C   UNL     1       1.367   8.803 -14.996  1.00  0.00     0.074 A 
ATOM     55  C   UNL     1      -2.620  13.734 -14.601  1.00  0.00     0.029 A 
ATOM     56  N   UNL     1      -1.117  12.155 -14.169  1.00  0.00    -0.354 N 
ATOM     57  N   UNL     1       0.568   9.828 -14.814  1.00  0.00    -0.248 NA
ATOM     58  C   UNL     1       1.240   8.163 -16.311  1.00  0.00     0.031 C 
ATOM     59  C   UNL     1      -2.524  12.896 -15.719  1.00  0.00     0.029 A 
ATOM     60  C   UNL     1      -1.567  11.929 -15.461  1.00  0.00     0.049 A 
ATOM     61  H   UNL     1      -0.436  11.615 -13.707  1.00  0.00     0.167 HD
ATOM     62  C   UNL     1      -0.139   9.971 -16.004  1.00  0.00     0.074 A 
ATOM     63  C   UNL     1       0.336   8.934 -16.898  1.00  0.00     0.031 C 
ATOM     64  C   UNL     1      -1.091  10.882 -16.332  1.00  0.00     0.034 A 
BRANCH  51  65
ATOM     65  C   UNL     1      -2.400  14.903 -11.790  1.00  0.00     0.023 A 
ATOM     66  C   UNL     1      -1.829  16.140 -11.440  1.00  0.00     0.031 A 
ATOM     67  C   UNL     1      -3.786  14.745 -11.618  1.00  0.00     0.131 A 
ATOM     68  C   UNL     1      -2.624  17.138 -10.858  1.00  0.00     0.055 A 
ATOM     69  C   UNL     1      -4.586  15.772 -11.113  1.00  0.00     0.041 A 
ATOM     70  F   UNL     1      -4.383  13.581 -11.918  1.00  0.00    -0.206 F 
ATOM     71  C   UNL     1      -4.003  16.971 -10.713  1.00  0.00     0.022 A 
BRANCH  68  72
ATOM     72  S   UNL     1      -1.805  18.595 -10.156  1.00  0.00     0.124 S 
ATOM     73  O   UNL     1      -0.936  17.988  -9.150  1.00  0.00    -0.237 OA
ATOM     74  O   UNL     1      -1.134  19.170 -11.316  1.00  0.00    -0.237 OA
ATOM     75  O   UNL     1      -2.911  19.385  -9.619  1.00  0.00    -0.744 OA
ENDBRANCH  68  72
ENDBRANCH  51  65
BRANCH  52  76
ATOM     76  C   UNL     1       3.152   6.997 -14.427  1.00  0.00     0.023 A 
ATOM     77  C   UNL     1       4.114   7.042 -15.448  1.00  0.00     0.031 A 
ATOM     78  C   UNL     1       2.914   5.765 -13.794  1.00  0.00     0.131 A 
ATOM     79  C   UNL     1       4.777   5.868 -15.835  1.00  0.00     0.055 A 
ATOM     80  C   UNL     1       3.605   4.607 -14.156  1.00  0.00     0.041 A 
ATOM     81  F   UNL     1       2.011   5.673 -12.805  1.00  0.00    -0.206 F 
ATOM     82  C   UNL     1       4.535   4.652 -15.190  1.00  0.00     0.022 A 
BRANCH  79  83
ATOM     83  S   UNL     1       5.920   5.939 -17.242  1.00  0.00     0.124 S 
ATOM     84  O   UNL     1       5.049   6.416 -18.310  1.00  0.00    -0.237 OA
ATOM     85  O   UNL     1       6.927   6.881 -16.765  1.00  0.00    -0.237 OA
ATOM     86  O   UNL     1       6.378   4.558 -17.378  1.00  0.00    -0.744 OA
ENDBRANCH  79  83
ENDBRANCH  52  76
BRANCH  64  87
ATOM     87  C   UNL     1      -1.641  10.813 -17.733  1.00  0.00     0.023 A 
ATOM     88  C   UNL     1      -2.472   9.758 -18.148  1.00  0.00     0.031 A 
ATOM     89  C   UNL     1      -1.314  11.810 -18.668  1.00  0.00     0.131 A 
ATOM     90  C   UNL     1      -2.909   9.698 -19.480  1.00  0.00     0.055 A 
ATOM     91  C   UNL     1      -1.791  11.771 -19.979  1.00  0.00     0.041 A 
ATOM     92  F   UNL     1      -0.523  12.838 -18.321  1.00  0.00    -0.206 F 
ATOM     93  C   UNL     1      -2.584  10.704 -20.394  1.00  0.00     0.022 A 
BRANCH  90  94
ATOM     94  S   UNL     1      -3.848   8.245 -20.025  1.00  0.00     0.124 S 
ATOM     95  O   UNL     1      -2.909   7.159 -19.761  1.00  0.00    -0.237 OA
ATOM     96  O   UNL     1      -5.025   8.293 -19.164  1.00  0.00    -0.237 OA
ATOM     97  O   UNL     1      -4.105   8.512 -21.439  1.00  0.00    -0.744 OA
ENDBRANCH  90  94
ENDBRANCH  64  87
ENDBRANCH  38  39
ENDBRANCH  30  33
ENDBRANCH  28  29
ENDBRANCH  27  28
ENDBRANCH   1  27
TORSDOF 19
