REMARK SMILES Cc1ccccc1OCC(=O)c1nc(C)c(C(=O)NCCCCCCNC(=O)c2ccc(-c3c4nc(c(-c5cc(S(=O)(=O)[O-])ccc5F)c5ccc([nH]5)c(-c5cc(S(=O)(=O)[O-])ccc5F)c5nc(c(-c6cc(S(=O)(=O)[O-])ccc6F)c6ccc3[nH]6)C=C5)C=C4)cc2)s1
REMARK SMILES IDX 22 1 21 2 20 3 19 4 17 5 18 6 16 8 12 9 13 10 92 11 14 12
REMARK SMILES IDX 15 13 10 14 11 15 9 16 8 17 7 18 1 19 2 20 3 21 4 22 6 23
REMARK SMILES IDX 5 24 23 25 24 26 25 27 26 28 27 29 28 31 29 32 30 33 91 34
REMARK SMILES IDX 31 35 90 36 32 37 33 38 34 39 84 40 35 41 89 42 83 43 85 44
REMARK SMILES IDX 36 45 88 46 82 47 81 48 37 50 69 51 49 52 68 53 50 54 53 55
REMARK SMILES IDX 67 56 86 57 51 58 52 59 66 61 87 62 54 63 38 64 39 65 47 66
REMARK SMILES IDX 40 67 46 68 48 69 45 70 41 71 42 72 43 73 44 74 70 75 71 76
REMARK SMILES IDX 79 77 72 78 78 79 80 80 77 81 73 82 74 83 75 84 76 85 55 86
REMARK SMILES IDX 56 87 64 88 57 89 63 90 65 91 62 92 58 93 59 94 60 95 61 96
REMARK H PARENT 19 7 26 30 85 49 53 60
REMARK Flexibility Score: inf
ROOT
ATOM      1  C   UNL     1       2.206   4.484   9.637  1.00  0.00     0.002 C 
ENDROOT
BRANCH   1   2
ATOM      2  C   UNL     1       2.747   3.989   8.290  1.00  0.00     0.021 C 
BRANCH   2   3
ATOM      3  C   UNL     1       1.924   2.869   7.649  1.00  0.00     0.116 C 
BRANCH   3   4
ATOM      4  N   UNL     1       0.951   3.403   6.726  1.00  0.00    -0.351 N 
ATOM      5  C   UNL     1       0.862   3.486   5.362  1.00  0.00     0.263 C 
ATOM      6  O   UNL     1      -0.211   3.971   4.978  1.00  0.00    -0.268 OA
ATOM      7  H   UNL     1       0.173   3.799   7.181  1.00  0.00     0.163 HD
BRANCH   5   8
ATOM      8  C   UNL     1       1.877   3.024   4.416  1.00  0.00     0.115 A 
ATOM      9  C   UNL     1       2.844   2.397   2.231  1.00  0.00     0.164 A 
ATOM     10  N   UNL     1       3.742   2.297   3.183  1.00  0.00    -0.237 NA
ATOM     11  S   UNL     1       1.309   2.873   2.768  1.00  0.00    -0.105 S 
ATOM     12  C   UNL     1       3.237   2.720   4.411  1.00  0.00     0.062 A 
ATOM     13  C   UNL     1       4.278   2.815   5.464  1.00  0.00     0.068 C 
BRANCH   9  14
ATOM     14  C   UNL     1       3.192   2.131   0.839  1.00  0.00     0.228 C 
ATOM     15  O   UNL     1       4.288   1.657   0.505  1.00  0.00    -0.288 OA
BRANCH  14  16
ATOM     16  C   UNL     1       2.231   2.546  -0.282  1.00  0.00     0.313 C 
BRANCH  16  17
ATOM     17  O   UNL     1       0.856   2.270  -0.259  1.00  0.00    -0.485 OA
BRANCH  17  18
ATOM     18  C   UNL     1       0.317   1.022  -0.221  1.00  0.00     0.122 A 
ATOM     19  C   UNL     1       2.361  -0.532  -0.580  1.00  0.00     0.048 C 
ATOM     20  C   UNL     1       0.908  -0.243  -0.345  1.00  0.00    -0.009 A 
ATOM     21  C   UNL     1       0.082  -1.383  -0.200  1.00  0.00     0.007 A 
ATOM     22  C   UNL     1      -1.292  -1.280   0.013  1.00  0.00     0.001 A 
ATOM     23  C   UNL     1      -1.075   1.105  -0.019  1.00  0.00     0.047 A 
ATOM     24  C   UNL     1      -1.876  -0.029   0.094  1.00  0.00     0.004 A 
ENDBRANCH  17  18
ENDBRANCH  16  17
ENDBRANCH  14  16
ENDBRANCH   9  14
ENDBRANCH   5   8
ENDBRANCH   3   4
ENDBRANCH   2   3
ENDBRANCH   1   2
BRANCH   1  25
ATOM     25  C   UNL     1       2.103   3.430  10.753  1.00  0.00     0.002 C 
BRANCH  25  26
ATOM     26  C   UNL     1       3.349   2.574  10.979  1.00  0.00     0.021 C 
BRANCH  26  27
ATOM     27  C   UNL     1       4.512   3.344  11.592  1.00  0.00     0.116 C 
BRANCH  27  28
ATOM     28  N   UNL     1       4.644   3.162  13.041  1.00  0.00    -0.352 N 
ATOM     29  C   UNL     1       5.540   3.746  13.909  1.00  0.00     0.251 C 
ATOM     30  H   UNL     1       4.004   2.536  13.450  1.00  0.00     0.163 HD
ATOM     31  O   UNL     1       5.551   3.472  15.096  1.00  0.00    -0.269 OA
BRANCH  29  32
ATOM     32  C   UNL     1       6.431   4.816  13.389  1.00  0.00     0.039 A 
ATOM     33  C   UNL     1       6.382   6.063  14.020  1.00  0.00     0.014 A 
ATOM     34  C   UNL     1       7.107   4.654  12.182  1.00  0.00     0.014 A 
ATOM     35  C   UNL     1       6.813   7.190  13.327  1.00  0.00     0.010 A 
ATOM     36  C   UNL     1       7.457   5.779  11.460  1.00  0.00     0.010 A 
ATOM     37  C   UNL     1       7.249   7.048  12.007  1.00  0.00    -0.014 A 
BRANCH  37  38
ATOM     38  C   UNL     1       7.361   8.180  11.095  1.00  0.00     0.031 A 
ATOM     39  C   UNL     1       8.678   8.758  10.764  1.00  0.00     0.074 A 
ATOM     40  C   UNL     1       6.250   8.759  10.590  1.00  0.00     0.049 A 
ATOM     41  N   UNL     1       8.880  10.020  10.581  1.00  0.00    -0.248 NA
ATOM     42  C   UNL     1       9.889   7.952  10.650  1.00  0.00     0.031 C 
ATOM     43  C   UNL     1       6.183   9.793   9.561  1.00  0.00     0.029 A 
ATOM     44  N   UNL     1       4.952   8.680  11.065  1.00  0.00    -0.354 N 
ATOM     45  C   UNL     1      10.148  10.164  10.076  1.00  0.00     0.074 A 
ATOM     46  C   UNL     1      10.764   8.862  10.206  1.00  0.00     0.031 C 
ATOM     47  C   UNL     1       4.995  10.413   9.645  1.00  0.00     0.029 A 
ATOM     48  C   UNL     1       4.303   9.889  10.811  1.00  0.00     0.049 A 
ATOM     49  H   UNL     1       4.551   7.898  11.510  1.00  0.00     0.167 HD
ATOM     50  C   UNL     1      10.519  11.319   9.457  1.00  0.00     0.034 A 
ATOM     51  C   UNL     1       3.780  10.646  11.819  1.00  0.00     0.034 A 
ATOM     52  C   UNL     1       9.425  12.276   9.374  1.00  0.00     0.049 A 
ATOM     53  C   UNL     1       4.413  12.018  11.941  1.00  0.00     0.074 A 
ATOM     54  C   UNL     1       8.526  12.574   8.363  1.00  0.00     0.029 A 
ATOM     55  N   UNL     1       8.941  12.884  10.525  1.00  0.00    -0.354 N 
ATOM     56  N   UNL     1       5.531  12.364  11.365  1.00  0.00    -0.248 NA
ATOM     57  C   UNL     1       3.850  13.095  12.750  1.00  0.00     0.031 C 
ATOM     58  C   UNL     1       7.463  13.322   8.927  1.00  0.00     0.029 A 
ATOM     59  C   UNL     1       7.734  13.509  10.271  1.00  0.00     0.049 A 
ATOM     60  H   UNL     1       9.394  12.873  11.399  1.00  0.00     0.167 HD
ATOM     61  C   UNL     1       5.864  13.645  11.733  1.00  0.00     0.074 A 
ATOM     62  C   UNL     1       4.760  14.070  12.575  1.00  0.00     0.031 C 
ATOM     63  C   UNL     1       7.032  14.229  11.323  1.00  0.00     0.034 A 
BRANCH  50  64
ATOM     64  C   UNL     1      11.782  11.418   8.646  1.00  0.00     0.023 A 
ATOM     65  C   UNL     1      11.771  12.096   7.412  1.00  0.00     0.031 A 
ATOM     66  C   UNL     1      13.007  10.838   9.025  1.00  0.00     0.131 A 
ATOM     67  C   UNL     1      12.896  12.095   6.571  1.00  0.00     0.055 A 
ATOM     68  C   UNL     1      14.114  10.796   8.168  1.00  0.00     0.041 A 
ATOM     69  F   UNL     1      13.170  10.297  10.243  1.00  0.00    -0.206 F 
ATOM     70  C   UNL     1      14.058  11.414   6.926  1.00  0.00     0.022 A 
BRANCH  67  71
ATOM     71  S   UNL     1      12.813  12.994   4.997  1.00  0.00     0.124 S 
ATOM     72  O   UNL     1      11.673  12.363   4.339  1.00  0.00    -0.237 OA
ATOM     73  O   UNL     1      12.621  14.371   5.439  1.00  0.00    -0.237 OA
ATOM     74  O   UNL     1      14.110  12.718   4.381  1.00  0.00    -0.744 OA
ENDBRANCH  67  71
ENDBRANCH  50  64
BRANCH  51  75
ATOM     75  C   UNL     1       3.257   9.847  12.961  1.00  0.00     0.023 A 
ATOM     76  C   UNL     1       2.153   9.002  12.724  1.00  0.00     0.031 A 
ATOM     77  C   UNL     1       4.019   9.626  14.116  1.00  0.00     0.131 A 
ATOM     78  C   UNL     1       1.910   7.903  13.562  1.00  0.00     0.055 A 
ATOM     79  C   UNL     1       3.757   8.543  14.964  1.00  0.00     0.041 A 
ATOM     80  F   UNL     1       5.100  10.376  14.375  1.00  0.00    -0.206 F 
ATOM     81  C   UNL     1       2.724   7.654  14.668  1.00  0.00     0.022 A 
BRANCH  78  82
ATOM     82  S   UNL     1       0.661   6.679  13.070  1.00  0.00     0.124 S 
ATOM     83  O   UNL     1      -0.557   7.238  13.643  1.00  0.00    -0.237 OA
ATOM     84  O   UNL     1       0.746   6.700  11.612  1.00  0.00    -0.237 OA
ATOM     85  O   UNL     1       1.138   5.444  13.686  1.00  0.00    -0.744 OA
ENDBRANCH  78  82
ENDBRANCH  51  75
BRANCH  63  86
ATOM     86  C   UNL     1       7.593  15.557  11.796  1.00  0.00     0.023 A 
ATOM     87  C   UNL     1       7.172  16.210  12.962  1.00  0.00     0.031 A 
ATOM     88  C   UNL     1       8.658  16.184  11.097  1.00  0.00     0.131 A 
ATOM     89  C   UNL     1       7.731  17.445  13.349  1.00  0.00     0.055 A 
ATOM     90  C   UNL     1       9.266  17.367  11.527  1.00  0.00     0.041 A 
ATOM     91  F   UNL     1       9.163  15.670   9.966  1.00  0.00    -0.206 F 
ATOM     92  C   UNL     1       8.792  18.016  12.654  1.00  0.00     0.022 A 
BRANCH  89  93
ATOM     93  S   UNL     1       6.992  18.321  14.753  1.00  0.00     0.124 S 
ATOM     94  O   UNL     1       5.638  18.576  14.267  1.00  0.00    -0.237 OA
ATOM     95  O   UNL     1       7.105  17.342  15.829  1.00  0.00    -0.237 OA
ATOM     96  O   UNL     1       7.831  19.508  14.901  1.00  0.00    -0.744 OA
ENDBRANCH  89  93
ENDBRANCH  63  86
ENDBRANCH  37  38
ENDBRANCH  29  32
ENDBRANCH  27  28
ENDBRANCH  26  27
ENDBRANCH  25  26
ENDBRANCH   1  25
TORSDOF 20
