REMARK SMILES CC1(C)[C@H](C(=O)Nc2ccc(NC(=O)C[NH+]3CCCCC3)cc2)[C@@H]1C(=O)NCCCCCCNC(=O)c1ccc(-c2c3nc(c(-c4cc(S(=O)(=O)[O-])ccc4F)c4ccc([nH]4)c(-c4cc(S(=O)(=O)[O-])ccc4F)c4nc(c(-c5cc(S(=O)(=O)[O-])ccc5F)c5ccc2[nH]5)C=C4)C=C3)cc1
REMARK SMILES IDX 29 1 28 2 27 3 25 4 26 5 24 7 1 8 2 9 3 10 4 11 5 12 6 13
REMARK SMILES IDX 7 14 8 16 9 17 23 18 10 19 22 20 11 21 12 22 13 23 14 25
REMARK SMILES IDX 15 26 16 27 17 28 21 29 18 31 20 32 19 33 30 34 31 35 32 36
REMARK SMILES IDX 33 37 34 38 35 39 36 41 37 42 38 43 99 44 39 45 98 46 40 47
REMARK SMILES IDX 41 48 42 49 92 50 43 51 97 52 91 53 93 54 44 55 96 56 90 57
REMARK SMILES IDX 89 58 45 60 77 61 57 62 76 63 58 64 61 65 75 66 94 67 59 68
REMARK SMILES IDX 60 69 74 71 95 72 62 73 46 74 47 75 55 76 48 77 54 78 56 79
REMARK SMILES IDX 53 80 49 81 50 82 51 83 52 84 78 85 79 86 87 87 80 88 86 89
REMARK SMILES IDX 88 90 85 91 81 92 82 93 83 94 84 95 63 96 64 97 72 98 65 99
REMARK SMILES IDX 71 100 73 101 70 102 66 103 67 104 68 105 69 106
REMARK H PARENT 27 6 7 15 12 24 16 30 34 40 93 59 61 70
REMARK Flexibility Score: inf
ROOT
ATOM      1  C   UNL     1      -5.250   0.956   0.700  1.00  0.00     0.021 C 
ENDROOT
BRANCH   1   2
ATOM      2  C   UNL     1      -3.808   0.899   0.199  1.00  0.00     0.116 C 
BRANCH   2   3
ATOM      3  N   UNL     1      -2.846   1.173   1.246  1.00  0.00    -0.356 N 
ATOM      4  C   UNL     1      -1.573   0.684   1.386  1.00  0.00     0.224 C 
ATOM      5  O   UNL     1      -0.897   1.015   2.346  1.00  0.00    -0.275 OA
ATOM      6  H   UNL     1      -3.146   1.792   1.951  1.00  0.00     0.163 HD
BRANCH   4   7
ATOM      7  C   UNL     1      -1.113  -0.363   0.446  1.00  0.00     0.098 C 
ATOM      8  C   UNL     1       0.900  -1.921  -0.141  1.00  0.00     0.013 C 
ATOM      9  C   UNL     1       0.346  -0.512  -0.017  1.00  0.00    -0.011 C 
ATOM     10  C   UNL     1       1.409   0.451   0.413  1.00  0.00     0.013 C 
ATOM     11  C   UNL     1      -0.750  -0.175  -1.003  1.00  0.00     0.098 C 
BRANCH  11  12
ATOM     12  C   UNL     1      -1.054   0.976  -1.898  1.00  0.00     0.228 C 
ATOM     13  O   UNL     1      -1.521   0.673  -3.001  1.00  0.00    -0.274 OA
ATOM     14  N   UNL     1      -1.059   2.318  -1.631  1.00  0.00    -0.326 N 
ATOM     15  H   UNL     1      -1.554   2.847  -2.297  1.00  0.00     0.169 HD
BRANCH  14  16
ATOM     16  C   UNL     1      -0.513   3.084  -0.616  1.00  0.00     0.041 A 
ATOM     17  C   UNL     1      -1.377   3.776   0.217  1.00  0.00     0.028 A 
ATOM     18  C   UNL     1       0.853   3.296  -0.511  1.00  0.00     0.028 A 
ATOM     19  C   UNL     1      -0.879   4.485   1.306  1.00  0.00     0.028 A 
ATOM     20  C   UNL     1       1.356   4.052   0.556  1.00  0.00     0.028 A 
ATOM     21  C   UNL     1       0.491   4.639   1.488  1.00  0.00     0.041 A 
BRANCH  21  22
ATOM     22  N   UNL     1       1.069   5.310   2.579  1.00  0.00    -0.321 N 
ATOM     23  C   UNL     1       0.585   6.255   3.445  1.00  0.00     0.279 C 
ATOM     24  H   UNL     1       2.002   5.051   2.755  1.00  0.00     0.170 HD
ATOM     25  O   UNL     1       1.278   6.539   4.431  1.00  0.00    -0.268 OA
BRANCH  23  26
ATOM     26  C   UNL     1      -0.743   6.992   3.205  1.00  0.00     0.363 C 
BRANCH  26  27
ATOM     27  N   UNL     1      -0.825   7.479   1.820  1.00  0.00    -0.327 N 
ATOM     28  C   UNL     1      -2.195   7.711   1.365  1.00  0.00     0.262 C 
ATOM     29  C   UNL     1       0.029   8.645   1.580  1.00  0.00     0.262 C 
ATOM     30  H   UNL     1      -0.459   6.717   1.249  1.00  0.00     0.348 HD
ATOM     31  C   UNL     1      -2.187   7.925  -0.151  1.00  0.00     0.062 C 
ATOM     32  C   UNL     1       0.102   8.941   0.081  1.00  0.00     0.062 C 
ATOM     33  C   UNL     1      -1.286   9.094  -0.536  1.00  0.00     0.012 C 
ENDBRANCH  26  27
ENDBRANCH  23  26
ENDBRANCH  21  22
ENDBRANCH  14  16
ENDBRANCH  11  12
ENDBRANCH   4   7
ENDBRANCH   2   3
ENDBRANCH   1   2
BRANCH   1  34
ATOM     34  C   UNL     1      -5.727   2.313   1.236  1.00  0.00     0.002 C 
BRANCH  34  35
ATOM     35  C   UNL     1      -5.596   3.514   0.296  1.00  0.00     0.002 C 
BRANCH  35  36
ATOM     36  C   UNL     1      -6.173   3.343  -1.108  1.00  0.00     0.021 C 
BRANCH  36  37
ATOM     37  C   UNL     1      -7.642   2.940  -1.164  1.00  0.00     0.116 C 
BRANCH  37  38
ATOM     38  N   UNL     1      -8.519   3.917  -0.543  1.00  0.00    -0.352 N 
ATOM     39  C   UNL     1      -9.688   4.463  -1.018  1.00  0.00     0.251 C 
ATOM     40  H   UNL     1      -8.236   4.234   0.345  1.00  0.00     0.163 HD
ATOM     41  O   UNL     1     -10.219   5.386  -0.406  1.00  0.00    -0.269 OA
BRANCH  39  42
ATOM     42  C   UNL     1     -10.279   3.963  -2.280  1.00  0.00     0.039 A 
ATOM     43  C   UNL     1     -10.741   4.888  -3.221  1.00  0.00     0.014 A 
ATOM     44  C   UNL     1     -10.369   2.594  -2.544  1.00  0.00     0.014 A 
ATOM     45  C   UNL     1     -11.226   4.442  -4.453  1.00  0.00     0.010 A 
ATOM     46  C   UNL     1     -10.783   2.154  -3.799  1.00  0.00     0.010 A 
ATOM     47  C   UNL     1     -11.215   3.073  -4.768  1.00  0.00    -0.014 A 
BRANCH  47  48
ATOM     48  C   UNL     1     -11.651   2.582  -6.102  1.00  0.00     0.031 A 
ATOM     49  C   UNL     1     -12.853   1.685  -6.218  1.00  0.00     0.074 A 
ATOM     50  C   UNL     1     -10.926   2.887  -7.196  1.00  0.00     0.049 A 
ATOM     51  N   UNL     1     -13.337   1.080  -7.272  1.00  0.00    -0.248 NA
ATOM     52  C   UNL     1     -13.588   1.409  -4.975  1.00  0.00     0.031 C 
ATOM     53  C   UNL     1      -9.719   3.717  -7.206  1.00  0.00     0.029 A 
ATOM     54  N   UNL     1     -11.088   2.526  -8.511  1.00  0.00    -0.354 N 
ATOM     55  C   UNL     1     -14.425   0.340  -6.819  1.00  0.00     0.074 A 
ATOM     56  C   UNL     1     -14.487   0.526  -5.384  1.00  0.00     0.031 C 
ATOM     57  C   UNL     1      -9.264   3.818  -8.465  1.00  0.00     0.029 A 
ATOM     58  C   UNL     1     -10.115   3.025  -9.346  1.00  0.00     0.049 A 
ATOM     59  H   UNL     1     -11.832   1.963  -8.826  1.00  0.00     0.167 HD
ATOM     60  C   UNL     1     -15.303  -0.405  -7.535  1.00  0.00     0.034 A 
ATOM     61  C   UNL     1      -9.921   2.850 -10.669  1.00  0.00     0.034 A 
ATOM     62  C   UNL     1     -15.233  -0.571  -8.967  1.00  0.00     0.049 A 
ATOM     63  C   UNL     1     -10.893   1.994 -11.441  1.00  0.00     0.074 A 
ATOM     64  C   UNL     1     -16.099  -1.258  -9.800  1.00  0.00     0.029 A 
ATOM     65  N   UNL     1     -14.233  -0.051  -9.780  1.00  0.00    -0.354 N 
ATOM     66  N   UNL     1     -11.944   1.339 -11.005  1.00  0.00    -0.248 NA
ATOM     67  C   UNL     1     -10.656   1.861 -12.884  1.00  0.00     0.031 C 
ATOM     68  C   UNL     1     -15.589  -1.209 -11.102  1.00  0.00     0.029 A 
ATOM     69  C   UNL     1     -14.444  -0.428 -11.098  1.00  0.00     0.049 A 
ATOM     70  H   UNL     1     -13.483   0.505  -9.466  1.00  0.00     0.167 HD
ATOM     71  C   UNL     1     -12.511   0.742 -12.127  1.00  0.00     0.074 A 
ATOM     72  C   UNL     1     -11.693   1.126 -13.259  1.00  0.00     0.031 C 
ATOM     73  C   UNL     1     -13.612  -0.047 -12.216  1.00  0.00     0.034 A 
BRANCH  60  74
ATOM     74  C   UNL     1     -16.396  -1.115  -6.770  1.00  0.00     0.023 A 
ATOM     75  C   UNL     1     -17.360  -0.406  -6.032  1.00  0.00     0.031 A 
ATOM     76  C   UNL     1     -16.456  -2.519  -6.747  1.00  0.00     0.131 A 
ATOM     77  C   UNL     1     -18.286  -1.099  -5.238  1.00  0.00     0.055 A 
ATOM     78  C   UNL     1     -17.435  -3.204  -6.024  1.00  0.00     0.041 A 
ATOM     79  F   UNL     1     -15.551  -3.253  -7.415  1.00  0.00    -0.206 F 
ATOM     80  C   UNL     1     -18.347  -2.494  -5.249  1.00  0.00     0.022 A 
BRANCH  77  81
ATOM     81  S   UNL     1     -19.305  -0.153  -4.073  1.00  0.00     0.124 S 
ATOM     82  O   UNL     1     -18.286   0.501  -3.255  1.00  0.00    -0.237 OA
ATOM     83  O   UNL     1     -20.070   0.717  -4.957  1.00  0.00    -0.237 OA
ATOM     84  O   UNL     1     -20.081  -1.182  -3.383  1.00  0.00    -0.744 OA
ENDBRANCH  77  81
ENDBRANCH  60  74
BRANCH  61  85
ATOM     85  C   UNL     1      -8.758   3.485 -11.351  1.00  0.00     0.023 A 
ATOM     86  C   UNL     1      -8.947   4.474 -12.330  1.00  0.00     0.031 A 
ATOM     87  C   UNL     1      -7.441   3.087 -11.062  1.00  0.00     0.131 A 
ATOM     88  C   UNL     1      -7.840   4.999 -13.017  1.00  0.00     0.055 A 
ATOM     89  C   UNL     1      -6.340   3.649 -11.711  1.00  0.00     0.041 A 
ATOM     90  F   UNL     1      -7.205   2.149 -10.130  1.00  0.00    -0.206 F 
ATOM     91  C   UNL     1      -6.538   4.603 -12.704  1.00  0.00     0.022 A 
BRANCH  88  92
ATOM     92  S   UNL     1      -8.136   6.154 -14.383  1.00  0.00     0.124 S 
ATOM     93  O   UNL     1      -8.972   5.356 -15.272  1.00  0.00    -0.237 OA
ATOM     94  O   UNL     1      -8.797   7.263 -13.704  1.00  0.00    -0.237 OA
ATOM     95  O   UNL     1      -6.792   6.443 -14.880  1.00  0.00    -0.744 OA
ENDBRANCH  88  92
ENDBRANCH  61  85
BRANCH  73  96
ATOM     96  C   UNL     1     -14.016  -0.507 -13.595  1.00  0.00     0.023 A 
ATOM     97  C   UNL     1     -13.230  -1.407 -14.336  1.00  0.00     0.031 A 
ATOM     98  C   UNL     1     -15.202  -0.028 -14.179  1.00  0.00     0.131 A 
ATOM     99  C   UNL     1     -13.613  -1.760 -15.639  1.00  0.00     0.055 A 
ATOM    100  C   UNL     1     -15.608  -0.428 -15.453  1.00  0.00     0.041 A 
ATOM    101  F   UNL     1     -15.989   0.835 -13.517  1.00  0.00    -0.206 F 
ATOM    102  C   UNL     1     -14.805  -1.289 -16.195  1.00  0.00     0.022 A 
BRANCH  99 103
ATOM    103  S   UNL     1     -12.488  -2.777 -16.634  1.00  0.00     0.124 S 
ATOM    104  O   UNL     1     -11.283  -1.953 -16.666  1.00  0.00    -0.237 OA
ATOM    105  O   UNL     1     -12.399  -4.004 -15.850  1.00  0.00    -0.237 OA
ATOM    106  O   UNL     1     -13.183  -2.908 -17.913  1.00  0.00    -0.744 OA
ENDBRANCH  99 103
ENDBRANCH  73  96
ENDBRANCH  47  48
ENDBRANCH  39  42
ENDBRANCH  37  38
ENDBRANCH  36  37
ENDBRANCH  35  36
ENDBRANCH  34  35
ENDBRANCH   1  34
TORSDOF 21
