REMARK SMILES O=C(NCCCCCCNC(=O)[C@H]1[C@H]2CC[C@H](CC2)[C@@H]1C(=O)Nc1sc2c(c1C(=O)N1CCCCC1)CCCC2)c1ccc(-c2c3nc(c(-c4cc(S(=O)(=O)[O-])ccc4F)c4ccc([nH]4)c(-c4cc(S(=O)(=O)[O-])ccc4F)c4nc(c(-c5cc(S(=O)(=O)[O-])ccc5F)c5ccc2[nH]5)C=C4)C=C3)cc1
REMARK SMILES IDX 6 1 5 2 4 3 3 4 1 5 2 6 41 8 42 9 103 10 43 11 102 12 44 13
REMARK SMILES IDX 45 14 46 15 96 16 47 17 101 18 95 19 97 20 48 21 100 22
REMARK SMILES IDX 94 23 93 24 49 26 81 27 61 28 80 29 62 30 65 31 79 32 98 33
REMARK SMILES IDX 63 34 64 35 78 37 99 38 66 39 50 40 51 41 59 42 52 43 58 44
REMARK SMILES IDX 60 45 57 46 53 47 54 48 55 49 56 50 82 51 83 52 91 53 84 54
REMARK SMILES IDX 90 55 92 56 89 57 85 58 86 59 87 60 88 61 67 62 68 63 76 64
REMARK SMILES IDX 69 65 75 66 77 67 74 68 70 69 71 70 72 71 73 72 7 73 8 74
REMARK SMILES IDX 9 75 10 76 11 77 12 79 13 80 14 81 20 82 15 83 19 84 17 85
REMARK SMILES IDX 16 86 18 87 21 88 22 89 23 90 24 92 25 93 28 94 26 95 27 96
REMARK SMILES IDX 40 97 37 98 39 99 38 100 29 101 30 102 31 103 32 104 36 105
REMARK SMILES IDX 33 106 35 107 34 108
REMARK H PARENT 3 7 97 25 65 36 10 78 23 91
REMARK Flexibility Score: inf
ROOT
ATOM      1  C   UNL     1       3.755   1.372  -3.784  1.00  0.00     0.002 C 
ENDROOT
BRANCH   1   2
ATOM      2  C   UNL     1       4.352   0.334  -2.834  1.00  0.00     0.021 C 
BRANCH   2   3
ATOM      3  C   UNL     1       4.245   0.672  -1.353  1.00  0.00     0.116 C 
BRANCH   3   4
ATOM      4  N   UNL     1       2.869   0.740  -0.890  1.00  0.00    -0.352 N 
ATOM      5  O   UNL     1       1.049   0.110   0.288  1.00  0.00    -0.269 OA
ATOM      6  C   UNL     1       2.265   0.043   0.130  1.00  0.00     0.251 C 
ATOM      7  H   UNL     1       2.289   1.372  -1.373  1.00  0.00     0.163 HD
BRANCH   6   8
ATOM      8  C   UNL     1       3.088  -0.800   1.024  1.00  0.00     0.039 A 
ATOM      9  C   UNL     1       4.291  -0.312   1.540  1.00  0.00     0.014 A 
ATOM     10  C   UNL     1       2.657  -2.090   1.347  1.00  0.00     0.014 A 
ATOM     11  C   UNL     1       5.127  -1.160   2.253  1.00  0.00     0.010 A 
ATOM     12  C   UNL     1       3.457  -2.909   2.151  1.00  0.00     0.010 A 
ATOM     13  C   UNL     1       4.710  -2.459   2.592  1.00  0.00    -0.014 A 
BRANCH  13  14
ATOM     14  C   UNL     1       5.582  -3.274   3.478  1.00  0.00     0.031 A 
ATOM     15  C   UNL     1       6.218  -4.549   3.002  1.00  0.00     0.074 A 
ATOM     16  C   UNL     1       5.844  -2.801   4.714  1.00  0.00     0.049 A 
ATOM     17  N   UNL     1       7.055  -5.334   3.633  1.00  0.00    -0.248 NA
ATOM     18  C   UNL     1       5.867  -5.010   1.652  1.00  0.00     0.031 C 
ATOM     19  C   UNL     1       5.260  -1.582   5.284  1.00  0.00     0.029 A 
ATOM     20  N   UNL     1       6.682  -3.255   5.697  1.00  0.00    -0.354 N 
ATOM     21  C   UNL     1       7.330  -6.383   2.763  1.00  0.00     0.074 A 
ATOM     22  C   UNL     1       6.537  -6.152   1.572  1.00  0.00     0.031 C 
ATOM     23  C   UNL     1       5.806  -1.352   6.485  1.00  0.00     0.029 A 
ATOM     24  C   UNL     1       6.718  -2.442   6.807  1.00  0.00     0.049 A 
ATOM     25  H   UNL     1       7.208  -4.083   5.618  1.00  0.00     0.167 HD
ATOM     26  C   UNL     1       8.173  -7.432   2.939  1.00  0.00     0.034 A 
ATOM     27  C   UNL     1       7.395  -2.565   7.964  1.00  0.00     0.034 A 
ATOM     28  C   UNL     1       8.947  -7.650   4.140  1.00  0.00     0.049 A 
ATOM     29  C   UNL     1       8.309  -3.746   8.136  1.00  0.00     0.074 A 
ATOM     30  C   UNL     1       9.826  -8.681   4.426  1.00  0.00     0.029 A 
ATOM     31  N   UNL     1       8.934  -6.825   5.258  1.00  0.00    -0.354 N 
ATOM     32  N   UNL     1       8.561  -4.722   7.294  1.00  0.00    -0.248 NA
ATOM     33  C   UNL     1       9.035  -3.836   9.406  1.00  0.00     0.031 C 
ATOM     34  C   UNL     1      10.300  -8.510   5.732  1.00  0.00     0.029 A 
ATOM     35  C   UNL     1       9.773  -7.333   6.240  1.00  0.00     0.049 A 
ATOM     36  H   UNL     1       8.404  -5.999   5.343  1.00  0.00     0.167 HD
ATOM     37  C   UNL     1       9.481  -5.543   7.937  1.00  0.00     0.074 A 
ATOM     38  C   UNL     1       9.771  -4.920   9.213  1.00  0.00     0.031 C 
ATOM     39  C   UNL     1      10.029  -6.713   7.518  1.00  0.00     0.034 A 
BRANCH  26  40
ATOM     40  C   UNL     1       8.279  -8.436   1.817  1.00  0.00     0.023 A 
ATOM     41  C   UNL     1       8.818  -8.086   0.567  1.00  0.00     0.031 A 
ATOM     42  C   UNL     1       7.835  -9.759   1.994  1.00  0.00     0.131 A 
ATOM     43  C   UNL     1       8.848  -9.027  -0.474  1.00  0.00     0.055 A 
ATOM     44  C   UNL     1       7.932 -10.711   0.977  1.00  0.00     0.041 A 
ATOM     45  F   UNL     1       7.296 -10.148   3.160  1.00  0.00    -0.206 F 
ATOM     46  C   UNL     1       8.430 -10.345  -0.270  1.00  0.00     0.022 A 
BRANCH  43  47
ATOM     47  S   UNL     1       9.337  -8.470  -2.129  1.00  0.00     0.124 S 
ATOM     48  O   UNL     1       8.326  -7.452  -2.408  1.00  0.00    -0.237 OA
ATOM     49  O   UNL     1      10.691  -7.976  -1.910  1.00  0.00    -0.237 OA
ATOM     50  O   UNL     1       9.236  -9.680  -2.942  1.00  0.00    -0.744 OA
ENDBRANCH  43  47
ENDBRANCH  26  40
BRANCH  27  51
ATOM     51  C   UNL     1       7.202  -1.568   9.056  1.00  0.00     0.023 A 
ATOM     52  C   UNL     1       8.264  -0.777   9.518  1.00  0.00     0.031 A 
ATOM     53  C   UNL     1       5.948  -1.418   9.677  1.00  0.00     0.131 A 
ATOM     54  C   UNL     1       8.065   0.095  10.600  1.00  0.00     0.055 A 
ATOM     55  C   UNL     1       5.740  -0.505  10.710  1.00  0.00     0.041 A 
ATOM     56  F   UNL     1       4.897  -2.147   9.271  1.00  0.00    -0.206 F 
ATOM     57  C   UNL     1       6.807   0.248  11.188  1.00  0.00     0.022 A 
BRANCH  54  58
ATOM     58  S   UNL     1       9.501   0.959  11.293  1.00  0.00     0.124 S 
ATOM     59  O   UNL     1      10.403  -0.149  11.587  1.00  0.00    -0.237 OA
ATOM     60  O   UNL     1       9.892   1.827  10.187  1.00  0.00    -0.237 OA
ATOM     61  O   UNL     1       8.954   1.646  12.460  1.00  0.00    -0.744 OA
ENDBRANCH  54  58
ENDBRANCH  27  51
BRANCH  39  62
ATOM     62  C   UNL     1      11.008  -7.369   8.460  1.00  0.00     0.023 A 
ATOM     63  C   UNL     1      10.599  -7.867   9.710  1.00  0.00     0.031 A 
ATOM     64  C   UNL     1      12.372  -7.445   8.131  1.00  0.00     0.131 A 
ATOM     65  C   UNL     1      11.555  -8.346  10.618  1.00  0.00     0.055 A 
ATOM     66  C   UNL     1      13.310  -7.985   9.012  1.00  0.00     0.041 A 
ATOM     67  F   UNL     1      12.818  -6.982   6.952  1.00  0.00    -0.206 F 
ATOM     68  C   UNL     1      12.906  -8.422  10.271  1.00  0.00     0.022 A 
BRANCH  65  69
ATOM     69  S   UNL     1      11.023  -8.752  12.304  1.00  0.00     0.124 S 
ATOM     70  O   UNL     1      10.425  -7.495  12.743  1.00  0.00    -0.237 OA
ATOM     71  O   UNL     1      10.095  -9.855  12.080  1.00  0.00    -0.237 OA
ATOM     72  O   UNL     1      12.268  -9.115  12.977  1.00  0.00    -0.744 OA
ENDBRANCH  65  69
ENDBRANCH  39  62
ENDBRANCH  13  14
ENDBRANCH   6   8
ENDBRANCH   3   4
ENDBRANCH   2   3
ENDBRANCH   1   2
BRANCH   1  73
ATOM     73  C   UNL     1       4.280   2.803  -3.626  1.00  0.00     0.002 C 
BRANCH  73  74
ATOM     74  C   UNL     1       5.799   2.954  -3.529  1.00  0.00     0.021 C 
BRANCH  74  75
ATOM     75  C   UNL     1       6.588   2.386  -4.706  1.00  0.00     0.116 C 
BRANCH  75  76
ATOM     76  N   UNL     1       6.700   3.328  -5.798  1.00  0.00    -0.356 N 
ATOM     77  C   UNL     1       7.745   3.901  -6.439  1.00  0.00     0.224 C 
ATOM     78  H   UNL     1       5.827   3.615  -6.150  1.00  0.00     0.163 HD
ATOM     79  O   UNL     1       7.429   4.686  -7.345  1.00  0.00    -0.275 OA
BRANCH  77  80
ATOM     80  C   UNL     1       9.232   3.749  -6.082  1.00  0.00     0.094 C 
ATOM     81  C   UNL     1       9.687   4.833  -5.065  1.00  0.00     0.002 C 
ATOM     82  C   UNL     1       9.804   2.350  -5.696  1.00  0.00     0.094 C 
ATOM     83  C   UNL     1       9.259   4.472  -3.637  1.00  0.00     0.005 C 
ATOM     84  C   UNL     1      11.230   4.886  -5.090  1.00  0.00     0.005 C 
ATOM     85  C   UNL     1      10.668   2.535  -4.400  1.00  0.00     0.002 C 
ATOM     86  C   UNL     1       9.828   3.109  -3.247  1.00  0.00     0.005 C 
ATOM     87  C   UNL     1      11.810   3.530  -4.677  1.00  0.00     0.005 C 
BRANCH  82  88
ATOM     88  C   UNL     1      10.629   1.722  -6.854  1.00  0.00     0.229 C 
ATOM     89  O   UNL     1      10.698   2.265  -7.961  1.00  0.00    -0.274 OA
ATOM     90  N   UNL     1      11.366   0.580  -6.677  1.00  0.00    -0.317 N 
ATOM     91  H   UNL     1      11.976   0.351  -7.414  1.00  0.00     0.170 HD
BRANCH  90  92
ATOM     92  C   UNL     1      11.372  -0.291  -5.608  1.00  0.00     0.108 A 
ATOM     93  S   UNL     1       9.885  -0.863  -5.024  1.00  0.00    -0.122 S 
ATOM     94  C   UNL     1      12.480  -0.830  -4.958  1.00  0.00     0.078 A 
ATOM     95  C   UNL     1      10.639  -1.562  -3.682  1.00  0.00     0.011 A 
ATOM     96  C   UNL     1      12.022  -1.560  -3.780  1.00  0.00    -0.019 A 
ATOM     97  C   UNL     1       9.839  -2.118  -2.542  1.00  0.00     0.047 C 
ATOM     98  C   UNL     1      12.849  -2.179  -2.688  1.00  0.00     0.037 C 
ATOM     99  C   UNL     1      10.722  -2.234  -1.295  1.00  0.00     0.006 C 
ATOM    100  C   UNL     1      12.032  -2.941  -1.635  1.00  0.00     0.005 C 
BRANCH  94 101
ATOM    101  C   UNL     1      13.847  -0.462  -5.395  1.00  0.00     0.257 C 
ATOM    102  O   UNL     1      14.041   0.195  -6.422  1.00  0.00    -0.269 OA
ATOM    103  N   UNL     1      14.904  -0.741  -4.535  1.00  0.00    -0.339 N 
ATOM    104  C   UNL     1      15.835   0.348  -4.274  1.00  0.00     0.120 C 
ATOM    105  C   UNL     1      15.537  -2.052  -4.607  1.00  0.00     0.120 C 
ATOM    106  C   UNL     1      16.551   0.126  -2.949  1.00  0.00     0.022 C 
ATOM    107  C   UNL     1      16.306  -2.366  -3.322  1.00  0.00     0.022 C 
ATOM    108  C   UNL     1      17.253  -1.232  -2.924  1.00  0.00     0.004 C 
ENDBRANCH  94 101
ENDBRANCH  90  92
ENDBRANCH  82  88
ENDBRANCH  77  80
ENDBRANCH  75  76
ENDBRANCH  74  75
ENDBRANCH  73  74
ENDBRANCH   1  73
TORSDOF 19
