REMARK SMILES O=C(NCCCCCCNC(=O)c1ccc(-c2c3nc(c(-c4cc(S(=O)(=O)[O-])ccc4F)c4ccc([nH]4)c(-c4cc(S(=O)(=O)[O-])ccc4F)c4nc(c(-c5cc(S(=O)(=O)[O-])ccc5F)c5ccc2[nH]5)C=C4)C=C3)cc1)C1=Cc2cc(C(F)(F)F)ccc2O[C@@H]1C(F)(F)F
REMARK SMILES IDX 7 1 6 2 5 3 4 4 3 5 1 6 2 7 76 9 77 10 89 11 78 12 88 13
REMARK SMILES IDX 79 14 87 15 80 16 86 17 85 18 90 19 91 20 92 21 93 22 81 23
REMARK SMILES IDX 82 24 83 25 84 26 8 27 9 28 10 29 11 30 12 32 13 33 14 34
REMARK SMILES IDX 75 35 15 36 74 37 16 38 17 39 18 40 68 41 19 42 73 43 67 44
REMARK SMILES IDX 69 45 20 46 72 47 66 48 65 49 21 51 53 52 33 53 52 54 34 55
REMARK SMILES IDX 37 56 51 57 70 58 35 59 36 60 50 62 71 63 38 64 22 65 23 66
REMARK SMILES IDX 31 67 24 68 30 69 32 70 29 71 25 72 26 73 27 74 28 75 54 76
REMARK SMILES IDX 55 77 63 78 56 79 62 80 64 81 61 82 57 83 58 84 59 85 60 86
REMARK SMILES IDX 39 87 40 88 48 89 41 90 47 91 49 92 46 93 42 94 43 95 44 96
REMARK SMILES IDX 45 97
REMARK H PARENT 3 8 10 31 69 50 37 61
REMARK Flexibility Score: inf
ROOT
ATOM      1  C   UNL     1       4.575  -3.429   3.240  1.00  0.00     0.002 C 
ENDROOT
BRANCH   1   2
ATOM      2  C   UNL     1       3.913  -2.207   3.889  1.00  0.00     0.002 C 
BRANCH   2   3
ATOM      3  C   UNL     1       4.249  -0.848   3.280  1.00  0.00     0.021 C 
BRANCH   3   4
ATOM      4  C   UNL     1       3.949  -0.690   1.794  1.00  0.00     0.116 C 
BRANCH   4   5
ATOM      5  N   UNL     1       2.649  -0.124   1.475  1.00  0.00    -0.352 N 
ATOM      6  O   UNL     1       1.054   0.813   0.200  1.00  0.00    -0.270 OA
ATOM      7  C   UNL     1       2.247   0.552   0.355  1.00  0.00     0.251 C 
ATOM      8  H   UNL     1       1.957  -0.245   2.165  1.00  0.00     0.163 HD
BRANCH   7   9
ATOM      9  C   UNL     1       3.193   0.909  -0.744  1.00  0.00     0.067 C 
ATOM     10  C   UNL     1       4.387   1.474  -0.495  1.00  0.00     0.025 C 
ATOM     11  C   UNL     1       3.035   0.035  -1.967  1.00  0.00     0.314 C 
ATOM     12  C   UNL     1       5.499   0.523  -0.754  1.00  0.00     0.018 A 
ATOM     13  O   UNL     1       4.062  -0.992  -2.028  1.00  0.00    -0.475 OA
ATOM     14  C   UNL     1       6.697   0.714  -0.055  1.00  0.00     0.025 A 
ATOM     15  C   UNL     1       5.249  -0.697  -1.403  1.00  0.00     0.128 A 
ATOM     16  C   UNL     1       7.594  -0.353   0.107  1.00  0.00     0.056 A 
ATOM     17  C   UNL     1       6.171  -1.735  -1.308  1.00  0.00     0.048 A 
ATOM     18  C   UNL     1       7.327  -1.572  -0.538  1.00  0.00     0.017 A 
BRANCH  11  19
ATOM     19  C   UNL     1       2.987   0.853  -3.267  1.00  0.00     0.429 C 
ATOM     20  F   UNL     1       2.669   0.073  -4.328  1.00  0.00    -0.167 F 
ATOM     21  F   UNL     1       2.052   1.832  -3.208  1.00  0.00    -0.167 F 
ATOM     22  F   UNL     1       4.168   1.452  -3.549  1.00  0.00    -0.167 F 
ENDBRANCH  11  19
BRANCH  16  23
ATOM     23  C   UNL     1       8.781  -0.204   1.031  1.00  0.00     0.416 C 
ATOM     24  F   UNL     1       9.851   0.364   0.423  1.00  0.00    -0.166 F 
ATOM     25  F   UNL     1       8.492   0.579   2.110  1.00  0.00    -0.166 F 
ATOM     26  F   UNL     1       9.200  -1.391   1.548  1.00  0.00    -0.166 F 
ENDBRANCH  16  23
ENDBRANCH   7   9
ENDBRANCH   4   5
ENDBRANCH   3   4
ENDBRANCH   2   3
ENDBRANCH   1   2
BRANCH   1  27
ATOM     27  C   UNL     1       6.093  -3.370   3.038  1.00  0.00     0.021 C 
BRANCH  27  28
ATOM     28  C   UNL     1       6.927  -3.069   4.281  1.00  0.00     0.116 C 
BRANCH  28  29
ATOM     29  N   UNL     1       6.690  -4.013   5.359  1.00  0.00    -0.352 N 
ATOM     30  C   UNL     1       7.577  -4.760   6.094  1.00  0.00     0.251 C 
ATOM     31  H   UNL     1       5.743  -4.136   5.600  1.00  0.00     0.163 HD
ATOM     32  O   UNL     1       7.147  -5.624   6.851  1.00  0.00    -0.269 OA
BRANCH  30  33
ATOM     33  C   UNL     1       9.038  -4.551   5.958  1.00  0.00     0.039 A 
ATOM     34  C   UNL     1       9.876  -5.671   5.941  1.00  0.00     0.014 A 
ATOM     35  C   UNL     1       9.591  -3.270   5.880  1.00  0.00     0.014 A 
ATOM     36  C   UNL     1      11.255  -5.508   5.790  1.00  0.00     0.010 A 
ATOM     37  C   UNL     1      10.958  -3.113   5.652  1.00  0.00     0.010 A 
ATOM     38  C   UNL     1      11.806  -4.230   5.610  1.00  0.00    -0.014 A 
BRANCH  38  39
ATOM     39  C   UNL     1      13.267  -4.048   5.391  1.00  0.00     0.031 A 
ATOM     40  C   UNL     1      14.095  -3.287   6.391  1.00  0.00     0.074 A 
ATOM     41  C   UNL     1      13.839  -4.529   4.269  1.00  0.00     0.049 A 
ATOM     42  N   UNL     1      15.365  -2.972   6.348  1.00  0.00    -0.248 NA
ATOM     43  C   UNL     1      13.393  -2.790   7.583  1.00  0.00     0.031 C 
ATOM     44  C   UNL     1      13.134  -5.251   3.207  1.00  0.00     0.029 A 
ATOM     45  N   UNL     1      15.138  -4.478   3.829  1.00  0.00    -0.354 N 
ATOM     46  C   UNL     1      15.613  -2.237   7.504  1.00  0.00     0.074 A 
ATOM     47  C   UNL     1      14.343  -2.092   8.184  1.00  0.00     0.031 C 
ATOM     48  C   UNL     1      14.012  -5.594   2.252  1.00  0.00     0.029 A 
ATOM     49  C   UNL     1      15.330  -5.076   2.604  1.00  0.00     0.049 A 
ATOM     50  H   UNL     1      15.864  -4.055   4.341  1.00  0.00     0.167 HD
ATOM     51  C   UNL     1      16.793  -1.753   7.968  1.00  0.00     0.034 A 
ATOM     52  C   UNL     1      16.437  -5.180   1.841  1.00  0.00     0.034 A 
ATOM     53  C   UNL     1      18.048  -1.903   7.271  1.00  0.00     0.049 A 
ATOM     54  C   UNL     1      17.730  -4.597   2.353  1.00  0.00     0.074 A 
ATOM     55  C   UNL     1      19.308  -1.486   7.664  1.00  0.00     0.029 A 
ATOM     56  N   UNL     1      18.203  -2.508   6.029  1.00  0.00    -0.354 N 
ATOM     57  N   UNL     1      17.958  -3.946   3.470  1.00  0.00    -0.248 NA
ATOM     58  C   UNL     1      18.917  -4.776   1.507  1.00  0.00     0.031 C 
ATOM     59  C   UNL     1      20.208  -1.768   6.630  1.00  0.00     0.029 A 
ATOM     60  C   UNL     1      19.530  -2.443   5.627  1.00  0.00     0.049 A 
ATOM     61  H   UNL     1      17.477  -2.922   5.509  1.00  0.00     0.167 HD
ATOM     62  C   UNL     1      19.322  -3.661   3.473  1.00  0.00     0.074 A 
ATOM     63  C   UNL     1      19.864  -4.228   2.255  1.00  0.00     0.031 C 
ATOM     64  C   UNL     1      20.058  -2.997   4.401  1.00  0.00     0.034 A 
BRANCH  51  65
ATOM     65  C   UNL     1      16.763  -0.995   9.276  1.00  0.00     0.023 A 
ATOM     66  C   UNL     1      16.331  -1.602  10.470  1.00  0.00     0.031 A 
ATOM     67  C   UNL     1      17.128   0.362   9.329  1.00  0.00     0.131 A 
ATOM     68  C   UNL     1      16.184  -0.836  11.635  1.00  0.00     0.055 A 
ATOM     69  C   UNL     1      17.070   1.096  10.515  1.00  0.00     0.041 A 
ATOM     70  F   UNL     1      17.529   1.006   8.221  1.00  0.00    -0.206 F 
ATOM     71  C   UNL     1      16.577   0.503  11.674  1.00  0.00     0.022 A 
BRANCH  68  72
ATOM     72  S   UNL     1      15.309  -1.568  13.046  1.00  0.00     0.124 S 
ATOM     73  O   UNL     1      14.024  -1.918  12.445  1.00  0.00    -0.237 OA
ATOM     74  O   UNL     1      16.172  -2.686  13.407  1.00  0.00    -0.237 OA
ATOM     75  O   UNL     1      15.256  -0.479  14.019  1.00  0.00    -0.744 OA
ENDBRANCH  68  72
ENDBRANCH  51  65
BRANCH  52  76
ATOM     76  C   UNL     1      16.369  -5.843   0.507  1.00  0.00     0.023 A 
ATOM     77  C   UNL     1      17.073  -7.028   0.244  1.00  0.00     0.031 A 
ATOM     78  C   UNL     1      15.611  -5.282  -0.538  1.00  0.00     0.131 A 
ATOM     79  C   UNL     1      17.039  -7.592  -1.042  1.00  0.00     0.055 A 
ATOM     80  C   UNL     1      15.536  -5.876  -1.798  1.00  0.00     0.041 A 
ATOM     81  F   UNL     1      14.915  -4.151  -0.340  1.00  0.00    -0.206 F 
ATOM     82  C   UNL     1      16.262  -7.033  -2.059  1.00  0.00     0.022 A 
BRANCH  79  83
ATOM     83  S   UNL     1      18.089  -9.029  -1.390  1.00  0.00     0.124 S 
ATOM     84  O   UNL     1      19.417  -8.507  -1.089  1.00  0.00    -0.237 OA
ATOM     85  O   UNL     1      17.563 -10.022  -0.460  1.00  0.00    -0.237 OA
ATOM     86  O   UNL     1      17.831  -9.304  -2.802  1.00  0.00    -0.744 OA
ENDBRANCH  79  83
ENDBRANCH  52  76
BRANCH  64  87
ATOM     87  C   UNL     1      21.544  -2.887   4.149  1.00  0.00     0.023 A 
ATOM     88  C   UNL     1      22.063  -2.149   3.071  1.00  0.00     0.031 A 
ATOM     89  C   UNL     1      22.454  -3.539   5.000  1.00  0.00     0.131 A 
ATOM     90  C   UNL     1      23.447  -2.130   2.837  1.00  0.00     0.055 A 
ATOM     91  C   UNL     1      23.834  -3.461   4.803  1.00  0.00     0.041 A 
ATOM     92  F   UNL     1      22.017  -4.263   6.043  1.00  0.00    -0.206 F 
ATOM     93  C   UNL     1      24.336  -2.764   3.708  1.00  0.00     0.022 A 
BRANCH  90  94
ATOM     94  S   UNL     1      24.064  -1.347   1.322  1.00  0.00     0.124 S 
ATOM     95  O   UNL     1      23.365  -2.100   0.286  1.00  0.00    -0.237 OA
ATOM     96  O   UNL     1      23.647   0.040   1.494  1.00  0.00    -0.237 OA
ATOM     97  O   UNL     1      25.508  -1.572   1.383  1.00  0.00    -0.744 OA
ENDBRANCH  90  94
ENDBRANCH  64  87
ENDBRANCH  38  39
ENDBRANCH  30  33
ENDBRANCH  28  29
ENDBRANCH  27  28
ENDBRANCH   1  27
TORSDOF 18
