REMARK SMILES O=C(NCCCCCCNC(=O)[C@@H]1C=C[C@H](NC(=O)c2ccc(Cl)cc2[N+](=O)[O-])C1)c1ccc(-c2c3nc(c(-c4cc(S(=O)(=O)[O-])ccc4F)c4ccc([nH]4)c(-c4cc(S(=O)(=O)[O-])ccc4F)c4nc(c(-c5cc(S(=O)(=O)[O-])ccc5F)c5ccc2[nH]5)C=C4)C=C3)cc1
REMARK SMILES IDX 6 1 5 2 4 3 3 4 1 5 2 6 31 8 32 9 93 10 33 11 92 12 34 13
REMARK SMILES IDX 35 14 36 15 86 16 37 17 91 18 85 19 87 20 38 21 90 22 84 23
REMARK SMILES IDX 83 24 39 26 71 27 51 28 70 29 52 30 55 31 69 32 88 33 53 34
REMARK SMILES IDX 54 35 68 37 89 38 56 39 40 40 41 41 49 42 42 43 48 44 50 45
REMARK SMILES IDX 47 46 43 47 44 48 45 49 46 50 72 51 73 52 81 53 74 54 80 55
REMARK SMILES IDX 82 56 79 57 75 58 76 59 77 60 78 61 57 62 58 63 66 64 59 65
REMARK SMILES IDX 65 66 67 67 64 68 60 69 61 70 62 71 63 72 7 73 8 74 9 75
REMARK SMILES IDX 10 76 11 77 12 79 13 80 14 81 30 82 15 83 16 84 17 85 18 86
REMARK SMILES IDX 19 88 20 89 21 90 26 91 22 92 25 93 23 94 24 95 27 96 28 97
REMARK SMILES IDX 29 98
REMARK H PARENT 3 7 87 25 55 36 10 78 17 87
REMARK Flexibility Score: inf
ROOT
ATOM      1  C   UNL     1       6.152   7.889  -0.159  1.00  0.00     0.002 C 
ENDROOT
BRANCH   1   2
ATOM      2  C   UNL     1       4.897   8.694   0.164  1.00  0.00     0.021 C 
BRANCH   2   3
ATOM      3  C   UNL     1       4.978  10.167  -0.201  1.00  0.00     0.116 C 
BRANCH   3   4
ATOM      4  N   UNL     1       4.954  10.382  -1.637  1.00  0.00    -0.352 N 
ATOM      5  O   UNL     1       4.124  11.185  -3.575  1.00  0.00    -0.269 OA
ATOM      6  C   UNL     1       4.148  11.237  -2.353  1.00  0.00     0.251 C 
ATOM      7  H   UNL     1       5.594   9.851  -2.163  1.00  0.00     0.163 HD
BRANCH   6   8
ATOM      8  C   UNL     1       3.298  12.207  -1.625  1.00  0.00     0.039 A 
ATOM      9  C   UNL     1       3.833  12.979  -0.588  1.00  0.00     0.014 A 
ATOM     10  C   UNL     1       1.957  12.349  -1.989  1.00  0.00     0.014 A 
ATOM     11  C   UNL     1       3.005  13.819   0.148  1.00  0.00     0.010 A 
ATOM     12  C   UNL     1       1.143  13.249  -1.295  1.00  0.00     0.010 A 
ATOM     13  C   UNL     1       1.660  13.985  -0.218  1.00  0.00    -0.014 A 
BRANCH  13  14
ATOM     14  C   UNL     1       0.848  15.030   0.453  1.00  0.00     0.031 A 
ATOM     15  C   UNL     1      -0.325  14.675   1.320  1.00  0.00     0.074 A 
ATOM     16  C   UNL     1       1.187  16.319   0.248  1.00  0.00     0.049 A 
ATOM     17  N   UNL     1      -1.153  15.471   1.945  1.00  0.00    -0.248 NA
ATOM     18  C   UNL     1      -0.611  13.244   1.507  1.00  0.00     0.031 C 
ATOM     19  C   UNL     1       2.303  16.770  -0.590  1.00  0.00     0.029 A 
ATOM     20  N   UNL     1       0.635  17.483   0.716  1.00  0.00    -0.354 N 
ATOM     21  C   UNL     1      -2.071  14.646   2.584  1.00  0.00     0.074 A 
ATOM     22  C   UNL     1      -1.704  13.283   2.260  1.00  0.00     0.031 C 
ATOM     23  C   UNL     1       2.362  18.108  -0.564  1.00  0.00     0.029 A 
ATOM     24  C   UNL     1       1.251  18.614   0.231  1.00  0.00     0.049 A 
ATOM     25  H   UNL     1      -0.127  17.508   1.337  1.00  0.00     0.167 HD
ATOM     26  C   UNL     1      -3.121  15.003   3.364  1.00  0.00     0.034 A 
ATOM     27  C   UNL     1       0.933  19.915   0.374  1.00  0.00     0.034 A 
ATOM     28  C   UNL     1      -3.458  16.370   3.684  1.00  0.00     0.049 A 
ATOM     29  C   UNL     1      -0.266  20.274   1.207  1.00  0.00     0.074 A 
ATOM     30  C   UNL     1      -4.439  16.836   4.543  1.00  0.00     0.029 A 
ATOM     31  N   UNL     1      -2.843  17.490   3.140  1.00  0.00    -0.354 N 
ATOM     32  N   UNL     1      -1.083  19.478   1.858  1.00  0.00    -0.248 NA
ATOM     33  C   UNL     1      -0.589  21.700   1.322  1.00  0.00     0.031 C 
ATOM     34  C   UNL     1      -4.464  18.233   4.463  1.00  0.00     0.029 A 
ATOM     35  C   UNL     1      -3.458  18.643   3.604  1.00  0.00     0.049 A 
ATOM     36  H   UNL     1      -2.082  17.468   2.516  1.00  0.00     0.167 HD
ATOM     37  C   UNL     1      -2.016  20.312   2.463  1.00  0.00     0.074 A 
ATOM     38  C   UNL     1      -1.642  21.670   2.125  1.00  0.00     0.031 C 
ATOM     39  C   UNL     1      -3.089  19.986   3.228  1.00  0.00     0.034 A 
BRANCH  26  40
ATOM     40  C   UNL     1      -4.013  13.910   3.896  1.00  0.00     0.023 A 
ATOM     41  C   UNL     1      -3.579  13.005   4.878  1.00  0.00     0.031 A 
ATOM     42  C   UNL     1      -5.337  13.801   3.433  1.00  0.00     0.131 A 
ATOM     43  C   UNL     1      -4.452  12.007   5.342  1.00  0.00     0.055 A 
ATOM     44  C   UNL     1      -6.217  12.842   3.938  1.00  0.00     0.041 A 
ATOM     45  F   UNL     1      -5.797  14.630   2.483  1.00  0.00    -0.206 F 
ATOM     46  C   UNL     1      -5.774  11.934   4.894  1.00  0.00     0.022 A 
BRANCH  43  47
ATOM     47  S   UNL     1      -3.814  10.755   6.489  1.00  0.00     0.124 S 
ATOM     48  O   UNL     1      -2.765  10.127   5.690  1.00  0.00    -0.237 OA
ATOM     49  O   UNL     1      -3.359  11.561   7.617  1.00  0.00    -0.237 OA
ATOM     50  O   UNL     1      -4.975   9.909   6.756  1.00  0.00    -0.744 OA
ENDBRANCH  43  47
ENDBRANCH  26  40
BRANCH  27  51
ATOM     51  C   UNL     1       1.714  20.963  -0.341  1.00  0.00     0.023 A 
ATOM     52  C   UNL     1       2.434  21.939   0.363  1.00  0.00     0.031 A 
ATOM     53  C   UNL     1       1.718  21.023  -1.747  1.00  0.00     0.131 A 
ATOM     54  C   UNL     1       3.093  22.960  -0.340  1.00  0.00     0.055 A 
ATOM     55  C   UNL     1       2.421  22.007  -2.442  1.00  0.00     0.041 A 
ATOM     56  F   UNL     1       1.047  20.110  -2.468  1.00  0.00    -0.206 F 
ATOM     57  C   UNL     1       3.102  22.993  -1.736  1.00  0.00     0.022 A 
BRANCH  54  58
ATOM     58  S   UNL     1       3.860  24.305   0.605  1.00  0.00     0.124 S 
ATOM     59  O   UNL     1       2.752  24.756   1.439  1.00  0.00    -0.237 OA
ATOM     60  O   UNL     1       4.941  23.609   1.295  1.00  0.00    -0.237 OA
ATOM     61  O   UNL     1       4.286  25.246  -0.429  1.00  0.00    -0.744 OA
ENDBRANCH  54  58
ENDBRANCH  27  51
BRANCH  39  62
ATOM     62  C   UNL     1      -3.916  21.132   3.744  1.00  0.00     0.023 A 
ATOM     63  C   UNL     1      -4.702  21.911   2.877  1.00  0.00     0.031 A 
ATOM     64  C   UNL     1      -3.894  21.470   5.108  1.00  0.00     0.131 A 
ATOM     65  C   UNL     1      -5.394  23.023   3.375  1.00  0.00     0.055 A 
ATOM     66  C   UNL     1      -4.629  22.545   5.607  1.00  0.00     0.041 A 
ATOM     67  F   UNL     1      -3.156  20.760   5.976  1.00  0.00    -0.206 F 
ATOM     68  C   UNL     1      -5.375  23.336   4.737  1.00  0.00     0.022 A 
BRANCH  65  69
ATOM     69  S   UNL     1      -6.261  24.104   2.205  1.00  0.00     0.124 S 
ATOM     70  O   UNL     1      -5.163  24.597   1.379  1.00  0.00    -0.237 OA
ATOM     71  O   UNL     1      -7.186  23.183   1.552  1.00  0.00    -0.237 OA
ATOM     72  O   UNL     1      -6.890  25.105   3.064  1.00  0.00    -0.744 OA
ENDBRANCH  65  69
ENDBRANCH  39  62
ENDBRANCH  13  14
ENDBRANCH   6   8
ENDBRANCH   3   4
ENDBRANCH   2   3
ENDBRANCH   1   2
BRANCH   1  73
ATOM     73  C   UNL     1       7.437   8.369   0.521  1.00  0.00     0.002 C 
BRANCH  73  74
ATOM     74  C   UNL     1       7.394   8.537   2.047  1.00  0.00     0.021 C 
BRANCH  74  75
ATOM     75  C   UNL     1       6.819   7.358   2.836  1.00  0.00     0.116 C 
BRANCH  75  76
ATOM     76  N   UNL     1       7.449   6.102   2.487  1.00  0.00    -0.356 N 
ATOM     77  C   UNL     1       8.222   5.259   3.219  1.00  0.00     0.227 C 
ATOM     78  H   UNL     1       7.290   5.809   1.561  1.00  0.00     0.163 HD
ATOM     79  O   UNL     1       8.508   4.179   2.694  1.00  0.00    -0.274 OA
BRANCH  77  80
ATOM     80  C   UNL     1       8.651   5.617   4.647  1.00  0.00     0.103 C 
ATOM     81  C   UNL     1       9.460   6.879   4.762  1.00  0.00    -0.016 C 
ATOM     82  C   UNL     1       9.598   4.545   5.243  1.00  0.00     0.047 C 
ATOM     83  C   UNL     1      10.670   6.679   5.290  1.00  0.00    -0.006 C 
ATOM     84  C   UNL     1      10.901   5.254   5.625  1.00  0.00     0.106 C 
BRANCH  84  85
ATOM     85  N   UNL     1      12.138   4.780   5.032  1.00  0.00    -0.346 N 
ATOM     86  C   UNL     1      12.564   4.524   3.760  1.00  0.00     0.258 C 
ATOM     87  H   UNL     1      12.834   4.602   5.705  1.00  0.00     0.164 HD
ATOM     88  O   UNL     1      13.701   4.098   3.564  1.00  0.00    -0.269 OA
BRANCH  86  89
ATOM     89  C   UNL     1      11.726   4.748   2.577  1.00  0.00     0.117 A 
ATOM     90  C   UNL     1      11.486   6.059   2.148  1.00  0.00     0.022 A 
ATOM     91  C   UNL     1      11.364   3.686   1.740  1.00  0.00     0.283 A 
ATOM     92  C   UNL     1      10.823   6.291   0.938  1.00  0.00     0.022 A 
ATOM     93  C   UNL     1      10.708   3.909   0.520  1.00  0.00     0.107 A 
ATOM     94  C   UNL     1      10.429   5.217   0.137  1.00  0.00     0.047 A 
ATOM     95  Cl  UNL     1       9.604   5.510  -1.344  1.00  0.00    -0.084 Cl
BRANCH  91  96
ATOM     96  N   UNL     1      11.662   2.311   2.109  1.00  0.00     0.063 N 
ATOM     97  O   UNL     1      12.106   1.576   1.214  1.00  0.00    -0.258 OA
ATOM     98  O   UNL     1      11.410   1.950   3.266  1.00  0.00    -0.258 OA
ENDBRANCH  91  96
ENDBRANCH  86  89
ENDBRANCH  84  85
ENDBRANCH  77  80
ENDBRANCH  75  76
ENDBRANCH  74  75
ENDBRANCH  73  74
ENDBRANCH   1  73
TORSDOF 19
