REMARK SMILES CCOC(=O)N1CCc2nnc(N3CCC[C@@H]3C(=O)NCCCCCCNC(=O)c3ccc(-c4c5nc(c(-c6cc(S(=O)(=O)[O-])ccc6F)c6ccc([nH]6)c(-c6cc(S(=O)(=O)[O-])ccc6F)c6nc(c(-c7cc(S(=O)(=O)[O-])ccc7F)c7ccc4[nH]7)C=C6)C=C5)cc3)cc2C1
REMARK SMILES IDX 23 1 22 2 21 3 20 4 18 5 19 6 17 8 13 9 14 10 15 11 16 12
REMARK SMILES IDX 12 13 6 14 7 15 95 16 8 17 94 18 9 19 93 20 10 21 11 22 4 23
REMARK SMILES IDX 5 24 3 25 2 26 1 27 24 28 25 29 26 30 27 31 28 32 29 34
REMARK SMILES IDX 30 35 31 36 92 37 32 38 91 39 33 40 34 41 35 42 85 43 36 44
REMARK SMILES IDX 90 45 84 46 86 47 37 48 89 49 83 50 82 51 38 53 70 54 50 55
REMARK SMILES IDX 69 56 51 57 54 58 68 59 87 60 52 61 53 62 67 64 88 65 55 66
REMARK SMILES IDX 39 67 40 68 48 69 41 70 47 71 49 72 46 73 42 74 43 75 44 76
REMARK SMILES IDX 45 77 71 78 72 79 80 80 73 81 79 82 81 83 78 84 74 85 75 86
REMARK SMILES IDX 76 87 77 88 56 89 57 90 65 91 58 92 64 93 66 94 63 95 59 96
REMARK SMILES IDX 60 97 61 98 62 99
REMARK H PARENT 20 7 27 33 86 52 54 63
REMARK Flexibility Score: inf
ROOT
ATOM      1  C   UNL     1       9.267   7.245  -9.009  1.00  0.00     0.002 C 
ENDROOT
BRANCH   1   2
ATOM      2  C   UNL     1       9.866   6.419  -7.867  1.00  0.00     0.021 C 
BRANCH   2   3
ATOM      3  C   UNL     1       8.814   5.880  -6.902  1.00  0.00     0.116 C 
BRANCH   3   4
ATOM      4  N   UNL     1       8.115   4.752  -7.486  1.00  0.00    -0.354 N 
ATOM      5  C   UNL     1       8.101   3.443  -7.109  1.00  0.00     0.242 C 
ATOM      6  O   UNL     1       7.421   2.665  -7.789  1.00  0.00    -0.273 OA
ATOM      7  H   UNL     1       7.567   4.965  -8.275  1.00  0.00     0.163 HD
BRANCH   5   8
ATOM      8  C   UNL     1       8.903   2.916  -5.897  1.00  0.00     0.173 C 
ATOM      9  N   UNL     1       8.639   3.636  -4.658  1.00  0.00    -0.343 N 
ATOM     10  C   UNL     1       9.831   3.999  -3.922  1.00  0.00     0.119 C 
ATOM     11  C   UNL     1      10.957   3.872  -4.947  1.00  0.00     0.024 C 
ATOM     12  C   UNL     1      10.423   2.978  -6.068  1.00  0.00     0.037 C 
BRANCH   9  13
ATOM     13  C   UNL     1       7.386   3.951  -4.211  1.00  0.00     0.152 A 
ATOM     14  N   UNL     1       2.972   2.700  -2.666  1.00  0.00    -0.303 N 
ATOM     15  C   UNL     1       2.428   3.991  -3.072  1.00  0.00     0.130 C 
ATOM     16  C   UNL     1       4.113   2.235  -3.429  1.00  0.00     0.160 C 
ATOM     17  C   UNL     1       3.493   5.080  -2.885  1.00  0.00     0.080 C 
ATOM     18  C   UNL     1       5.135   3.310  -3.632  1.00  0.00    -0.001 A 
ATOM     19  C   UNL     1       4.847   4.644  -3.382  1.00  0.00     0.070 A 
ATOM     20  C   UNL     1       6.409   2.978  -4.099  1.00  0.00     0.056 A 
ATOM     21  N   UNL     1       5.801   5.585  -3.507  1.00  0.00    -0.153 NA
ATOM     22  N   UNL     1       7.081   5.225  -3.893  1.00  0.00    -0.133 NA
BRANCH  14  23
ATOM     23  C   UNL     1       2.603   2.025  -1.526  1.00  0.00     0.410 C 
ATOM     24  O   UNL     1       3.329   1.213  -0.959  1.00  0.00    -0.224 OA
BRANCH  23  25
ATOM     25  O   UNL     1       1.332   2.304  -1.142  1.00  0.00    -0.450 OA
BRANCH  25  26
ATOM     26  C   UNL     1       0.823   1.625   0.021  1.00  0.00     0.231 C 
ATOM     27  C   UNL     1       0.867   0.104  -0.053  1.00  0.00     0.049 C 
ENDBRANCH  25  26
ENDBRANCH  23  25
ENDBRANCH  14  23
ENDBRANCH   9  13
ENDBRANCH   5   8
ENDBRANCH   3   4
ENDBRANCH   2   3
ENDBRANCH   1   2
BRANCH   1  28
ATOM     28  C   UNL     1       8.489   8.487  -8.556  1.00  0.00     0.002 C 
BRANCH  28  29
ATOM     29  C   UNL     1       9.275   9.434  -7.646  1.00  0.00     0.021 C 
BRANCH  29  30
ATOM     30  C   UNL     1      10.551   9.972  -8.283  1.00  0.00     0.116 C 
BRANCH  30  31
ATOM     31  N   UNL     1      10.253  10.805  -9.440  1.00  0.00    -0.352 N 
ATOM     32  C   UNL     1      10.471  12.151  -9.593  1.00  0.00     0.251 C 
ATOM     33  H   UNL     1       9.845  10.344 -10.209  1.00  0.00     0.163 HD
ATOM     34  O   UNL     1       9.958  12.772 -10.517  1.00  0.00    -0.269 OA
BRANCH  32  35
ATOM     35  C   UNL     1      11.335  12.833  -8.613  1.00  0.00     0.039 A 
ATOM     36  C   UNL     1      10.857  13.961  -7.946  1.00  0.00     0.014 A 
ATOM     37  C   UNL     1      12.602  12.312  -8.331  1.00  0.00     0.014 A 
ATOM     38  C   UNL     1      11.646  14.551  -6.959  1.00  0.00     0.010 A 
ATOM     39  C   UNL     1      13.355  12.861  -7.301  1.00  0.00     0.010 A 
ATOM     40  C   UNL     1      12.893  13.998  -6.623  1.00  0.00    -0.014 A 
BRANCH  40  41
ATOM     41  C   UNL     1      13.756  14.639  -5.605  1.00  0.00     0.031 A 
ATOM     42  C   UNL     1      15.034  15.299  -6.034  1.00  0.00     0.074 A 
ATOM     43  C   UNL     1      13.409  14.604  -4.304  1.00  0.00     0.049 A 
ATOM     44  N   UNL     1      15.918  15.927  -5.306  1.00  0.00    -0.248 NA
ATOM     45  C   UNL     1      15.375  15.232  -7.466  1.00  0.00     0.031 C 
ATOM     46  C   UNL     1      12.215  13.949  -3.769  1.00  0.00     0.029 A 
ATOM     47  N   UNL     1      14.029  15.127  -3.197  1.00  0.00    -0.354 N 
ATOM     48  C   UNL     1      16.912  16.331  -6.186  1.00  0.00     0.074 A 
ATOM     49  C   UNL     1      16.561  15.823  -7.492  1.00  0.00     0.031 C 
ATOM     50  C   UNL     1      12.180  14.125  -2.438  1.00  0.00     0.029 A 
ATOM     51  C   UNL     1      13.359  14.882  -2.021  1.00  0.00     0.049 A 
ATOM     52  H   UNL     1      14.874  15.630  -3.241  1.00  0.00     0.167 HD
ATOM     53  C   UNL     1      18.003  17.087  -5.933  1.00  0.00     0.034 A 
ATOM     54  C   UNL     1      13.658  15.233  -0.753  1.00  0.00     0.034 A 
ATOM     55  C   UNL     1      18.332  17.606  -4.633  1.00  0.00     0.049 A 
ATOM     56  C   UNL     1      14.880  16.078  -0.495  1.00  0.00     0.074 A 
ATOM     57  C   UNL     1      19.390  18.427  -4.288  1.00  0.00     0.029 A 
ATOM     58  N   UNL     1      17.616  17.361  -3.472  1.00  0.00    -0.354 N 
ATOM     59  N   UNL     1      15.762  16.532  -1.354  1.00  0.00    -0.248 NA
ATOM     60  C   UNL     1      15.139  16.481   0.894  1.00  0.00     0.031 C 
ATOM     61  C   UNL     1      19.349  18.631  -2.910  1.00  0.00     0.029 A 
ATOM     62  C   UNL     1      18.221  18.002  -2.406  1.00  0.00     0.049 A 
ATOM     63  H   UNL     1      16.799  16.814  -3.415  1.00  0.00     0.167 HD
ATOM     64  C   UNL     1      16.653  17.306  -0.617  1.00  0.00     0.074 A 
ATOM     65  C   UNL     1      16.201  17.265   0.757  1.00  0.00     0.031 C 
ATOM     66  C   UNL     1      17.744  17.990  -1.044  1.00  0.00     0.034 A 
BRANCH  53  67
ATOM     67  C   UNL     1      18.917  17.440  -7.074  1.00  0.00     0.023 A 
ATOM     68  C   UNL     1      20.249  16.992  -7.068  1.00  0.00     0.031 A 
ATOM     69  C   UNL     1      18.514  18.335  -8.082  1.00  0.00     0.131 A 
ATOM     70  C   UNL     1      21.147  17.480  -8.023  1.00  0.00     0.055 A 
ATOM     71  C   UNL     1      19.403  18.785  -9.056  1.00  0.00     0.041 A 
ATOM     72  F   UNL     1      17.248  18.782  -8.130  1.00  0.00    -0.206 F 
ATOM     73  C   UNL     1      20.731  18.369  -9.020  1.00  0.00     0.022 A 
BRANCH  70  74
ATOM     74  S   UNL     1      22.900  17.022  -7.971  1.00  0.00     0.124 S 
ATOM     75  O   UNL     1      23.128  16.544  -9.333  1.00  0.00    -0.237 OA
ATOM     76  O   UNL     1      23.536  18.293  -7.640  1.00  0.00    -0.237 OA
ATOM     77  O   UNL     1      22.962  15.993  -6.938  1.00  0.00    -0.744 OA
ENDBRANCH  70  74
ENDBRANCH  53  67
BRANCH  54  78
ATOM     78  C   UNL     1      12.736  14.835   0.348  1.00  0.00     0.023 A 
ATOM     79  C   UNL     1      12.543  13.480   0.671  1.00  0.00     0.031 A 
ATOM     80  C   UNL     1      11.973  15.795   1.033  1.00  0.00     0.131 A 
ATOM     81  C   UNL     1      11.573  13.121   1.615  1.00  0.00     0.055 A 
ATOM     82  C   UNL     1      11.050  15.437   2.017  1.00  0.00     0.041 A 
ATOM     83  F   UNL     1      12.116  17.099   0.750  1.00  0.00    -0.206 F 
ATOM     84  C   UNL     1      10.837  14.092   2.303  1.00  0.00     0.022 A 
BRANCH  81  85
ATOM     85  S   UNL     1      11.171  11.379   1.915  1.00  0.00     0.124 S 
ATOM     86  O   UNL     1      11.341  11.269   3.361  1.00  0.00    -0.237 OA
ATOM     87  O   UNL     1       9.793  11.309   1.434  1.00  0.00    -0.237 OA
ATOM     88  O   UNL     1      12.149  10.656   1.110  1.00  0.00    -0.744 OA
ENDBRANCH  81  85
ENDBRANCH  54  78
BRANCH  66  89
ATOM     89  C   UNL     1      18.531  18.807  -0.052  1.00  0.00     0.023 A 
ATOM     90  C   UNL     1      18.620  20.203  -0.223  1.00  0.00     0.031 A 
ATOM     91  C   UNL     1      19.325  18.204   0.938  1.00  0.00     0.131 A 
ATOM     92  C   UNL     1      19.521  20.944   0.551  1.00  0.00     0.055 A 
ATOM     93  C   UNL     1      20.185  18.955   1.740  1.00  0.00     0.041 A 
ATOM     94  F   UNL     1      19.284  16.876   1.129  1.00  0.00    -0.206 F 
ATOM     95  C   UNL     1      20.298  20.329   1.538  1.00  0.00     0.022 A 
BRANCH  92  96
ATOM     96  S   UNL     1      19.776  22.714   0.248  1.00  0.00     0.124 S 
ATOM     97  O   UNL     1      19.483  23.291   1.558  1.00  0.00    -0.237 OA
ATOM     98  O   UNL     1      21.180  22.756  -0.152  1.00  0.00    -0.237 OA
ATOM     99  O   UNL     1      18.813  23.035  -0.800  1.00  0.00    -0.744 OA
ENDBRANCH  92  96
ENDBRANCH  66  89
ENDBRANCH  40  41
ENDBRANCH  32  35
ENDBRANCH  30  31
ENDBRANCH  29  30
ENDBRANCH  28  29
ENDBRANCH   1  28
TORSDOF 20
