REMARK SMILES Cc1cc(NC[C@H](C)[NH+](C)C)cc(C(=O)NCCCCCCNC(=O)c2ccc(-c3c4nc(c(-c5cc(S(=O)(=O)[O-])ccc5F)c5ccc([nH]5)c(-c5cc(S(=O)(=O)[O-])ccc5F)c5nc(c(-c6cc(S(=O)(=O)[O-])ccc6F)c6ccc3[nH]6)C=C5)C=C4)cc2)c1N
REMARK SMILES IDX 19 1 18 2 17 3 16 4 14 5 15 6 13 8 1 9 2 10 3 11 89 12 4 13
REMARK SMILES IDX 12 14 90 15 5 18 6 20 7 21 8 22 9 23 10 24 11 25 20 27 21 28
REMARK SMILES IDX 22 29 23 30 24 31 25 33 26 34 27 35 88 36 28 37 87 38 29 39
REMARK SMILES IDX 30 40 31 41 81 42 32 43 86 44 80 45 82 46 33 47 85 48 79 49
REMARK SMILES IDX 78 50 34 52 66 53 46 54 65 55 47 56 50 57 64 58 83 59 48 60
REMARK SMILES IDX 49 61 63 63 84 64 51 65 35 66 36 67 44 68 37 69 43 70 45 71
REMARK SMILES IDX 42 72 38 73 39 74 40 75 41 76 67 77 68 78 76 79 69 80 75 81
REMARK SMILES IDX 77 82 74 83 70 84 71 85 72 86 73 87 52 88 53 89 61 90 54 91
REMARK SMILES IDX 60 92 62 93 59 94 55 95 56 96 57 97 58 98
REMARK H PARENT 16 7 90 16 90 17 5 19 9 26 23 32 82 51 50 62
REMARK Flexibility Score: inf
ROOT
ATOM      1  C   UNL     1      -5.946   6.247  -3.006  1.00  0.00     0.002 C 
ENDROOT
BRANCH   1   2
ATOM      2  C   UNL     1      -5.961   5.587  -1.621  1.00  0.00     0.021 C 
BRANCH   2   3
ATOM      3  C   UNL     1      -4.827   6.082  -0.716  1.00  0.00     0.116 C 
BRANCH   3   4
ATOM      4  N   UNL     1      -5.200   7.351  -0.115  1.00  0.00    -0.352 N 
ATOM      5  C   UNL     1      -5.711   7.710   1.110  1.00  0.00     0.253 C 
ATOM      6  O   UNL     1      -5.985   8.905   1.252  1.00  0.00    -0.269 OA
ATOM      7  H   UNL     1      -5.055   8.119  -0.713  1.00  0.00     0.163 HD
BRANCH   5   8
ATOM      8  C   UNL     1      -5.891   6.759   2.258  1.00  0.00     0.065 A 
ATOM      9  C   UNL     1      -6.074   6.796   6.081  1.00  0.00     0.046 C 
ATOM     10  C   UNL     1      -6.000   6.329   4.652  1.00  0.00    -0.025 A 
ATOM     11  C   UNL     1      -6.006   4.946   4.386  1.00  0.00     0.031 A 
ATOM     12  C   UNL     1      -5.923   7.251   3.585  1.00  0.00     0.047 A 
ATOM     13  C   UNL     1      -5.995   4.454   3.081  1.00  0.00     0.035 A 
ATOM     14  C   UNL     1      -6.058   5.387   2.046  1.00  0.00     0.041 A 
BRANCH  12  15
ATOM     15  N   UNL     1      -5.737   8.611   3.861  1.00  0.00    -0.398 N 
ATOM     16  H   UNL     1      -5.763   8.932   4.792  1.00  0.00     0.156 HD
ATOM     17  H   UNL     1      -5.580   9.246   3.126  1.00  0.00     0.156 HD
ENDBRANCH  12  15
BRANCH  13  18
ATOM     18  N   UNL     1      -5.937   3.087   2.844  1.00  0.00    -0.379 N 
ATOM     19  H   UNL     1      -6.170   2.460   3.566  1.00  0.00     0.160 HD
BRANCH  18  20
ATOM     20  C   UNL     1      -5.534   2.563   1.534  1.00  0.00     0.177 C 
BRANCH  20  21
ATOM     21  C   UNL     1      -5.363   1.017   1.504  1.00  0.00     0.199 C 
ATOM     22  C   UNL     1      -4.465   0.647   0.308  1.00  0.00     0.077 C 
BRANCH  21  23
ATOM     23  N   UNL     1      -6.599   0.198   1.496  1.00  0.00    -0.336 N 
ATOM     24  C   UNL     1      -7.405   0.367   2.701  1.00  0.00     0.332 C 
ATOM     25  C   UNL     1      -7.434   0.356   0.306  1.00  0.00     0.332 C 
ATOM     26  H   UNL     1      -6.242  -0.757   1.474  1.00  0.00     0.347 HD
ENDBRANCH  21  23
ENDBRANCH  20  21
ENDBRANCH  18  20
ENDBRANCH  13  18
ENDBRANCH   5   8
ENDBRANCH   3   4
ENDBRANCH   2   3
ENDBRANCH   1   2
BRANCH   1  27
ATOM     27  C   UNL     1      -4.700   5.934  -3.844  1.00  0.00     0.002 C 
BRANCH  27  28
ATOM     28  C   UNL     1      -4.430   4.442  -4.058  1.00  0.00     0.021 C 
BRANCH  28  29
ATOM     29  C   UNL     1      -5.536   3.714  -4.815  1.00  0.00     0.116 C 
BRANCH  29  30
ATOM     30  N   UNL     1      -5.677   4.227  -6.168  1.00  0.00    -0.352 N 
ATOM     31  C   UNL     1      -5.552   3.565  -7.364  1.00  0.00     0.251 C 
ATOM     32  H   UNL     1      -5.893   5.186  -6.236  1.00  0.00     0.163 HD
ATOM     33  O   UNL     1      -5.428   4.202  -8.404  1.00  0.00    -0.269 OA
BRANCH  31  34
ATOM     34  C   UNL     1      -5.557   2.087  -7.384  1.00  0.00     0.039 A 
ATOM     35  C   UNL     1      -4.639   1.415  -8.194  1.00  0.00     0.014 A 
ATOM     36  C   UNL     1      -6.476   1.368  -6.614  1.00  0.00     0.014 A 
ATOM     37  C   UNL     1      -4.610   0.018  -8.191  1.00  0.00     0.010 A 
ATOM     38  C   UNL     1      -6.396  -0.021  -6.557  1.00  0.00     0.010 A 
ATOM     39  C   UNL     1      -5.467  -0.710  -7.349  1.00  0.00    -0.014 A 
BRANCH  39  40
ATOM     40  C   UNL     1      -5.411  -2.194  -7.293  1.00  0.00     0.031 A 
ATOM     41  C   UNL     1      -6.601  -3.009  -7.724  1.00  0.00     0.074 A 
ATOM     42  C   UNL     1      -4.313  -2.801  -6.801  1.00  0.00     0.049 A 
ATOM     43  N   UNL     1      -6.777  -4.304  -7.679  1.00  0.00    -0.248 NA
ATOM     44  C   UNL     1      -7.756  -2.265  -8.250  1.00  0.00     0.031 C 
ATOM     45  C   UNL     1      -3.112  -2.114  -6.321  1.00  0.00     0.029 A 
ATOM     46  N   UNL     1      -4.027  -4.131  -6.614  1.00  0.00    -0.354 N 
ATOM     47  C   UNL     1      -8.063  -4.530  -8.158  1.00  0.00     0.074 A 
ATOM     48  C   UNL     1      -8.643  -3.232  -8.430  1.00  0.00     0.031 C 
ATOM     49  C   UNL     1      -2.212  -3.026  -5.920  1.00  0.00     0.029 A 
ATOM     50  C   UNL     1      -2.787  -4.360  -6.064  1.00  0.00     0.049 A 
ATOM     51  H   UNL     1      -4.652  -4.854  -6.853  1.00  0.00     0.167 HD
ATOM     52  C   UNL     1      -8.693  -5.712  -8.371  1.00  0.00     0.034 A 
ATOM     53  C   UNL     1      -2.188  -5.511  -5.701  1.00  0.00     0.034 A 
ATOM     54  C   UNL     1      -8.093  -6.997  -8.106  1.00  0.00     0.049 A 
ATOM     55  C   UNL     1      -2.923  -6.811  -5.919  1.00  0.00     0.074 A 
ATOM     56  C   UNL     1      -8.620  -8.256  -8.335  1.00  0.00     0.029 A 
ATOM     57  N   UNL     1      -6.837  -7.190  -7.546  1.00  0.00    -0.354 N 
ATOM     58  N   UNL     1      -4.121  -7.009  -6.421  1.00  0.00    -0.248 NA
ATOM     59  C   UNL     1      -2.222  -8.043  -5.534  1.00  0.00     0.031 C 
ATOM     60  C   UNL     1      -7.718  -9.206  -7.845  1.00  0.00     0.029 A 
ATOM     61  C   UNL     1      -6.587  -8.545  -7.391  1.00  0.00     0.049 A 
ATOM     62  H   UNL     1      -6.214  -6.470  -7.295  1.00  0.00     0.167 HD
ATOM     63  C   UNL     1      -4.298  -8.390  -6.445  1.00  0.00     0.074 A 
ATOM     64  C   UNL     1      -3.079  -8.973  -5.923  1.00  0.00     0.031 C 
ATOM     65  C   UNL     1      -5.368  -9.113  -6.865  1.00  0.00     0.034 A 
BRANCH  52  66
ATOM     66  C   UNL     1     -10.110  -5.667  -8.893  1.00  0.00     0.023 A 
ATOM     67  C   UNL     1     -10.419  -5.127 -10.153  1.00  0.00     0.031 A 
ATOM     68  C   UNL     1     -11.169  -6.169  -8.116  1.00  0.00     0.131 A 
ATOM     69  C   UNL     1     -11.755  -5.041 -10.571  1.00  0.00     0.055 A 
ATOM     70  C   UNL     1     -12.489  -6.156  -8.572  1.00  0.00     0.041 A 
ATOM     71  F   UNL     1     -10.941  -6.677  -6.894  1.00  0.00    -0.206 F 
ATOM     72  C   UNL     1     -12.790  -5.577  -9.802  1.00  0.00     0.022 A 
BRANCH  69  73
ATOM     73  S   UNL     1     -12.135  -4.101 -12.075  1.00  0.00     0.124 S 
ATOM     74  O   UNL     1     -11.618  -2.778 -11.733  1.00  0.00    -0.237 OA
ATOM     75  O   UNL     1     -11.396  -4.830 -13.099  1.00  0.00    -0.237 OA
ATOM     76  O   UNL     1     -13.590  -4.186 -12.174  1.00  0.00    -0.744 OA
ENDBRANCH  69  73
ENDBRANCH  52  66
BRANCH  53  77
ATOM     77  C   UNL     1      -0.831  -5.501  -5.080  1.00  0.00     0.023 A 
ATOM     78  C   UNL     1       0.255  -6.138  -5.702  1.00  0.00     0.031 A 
ATOM     79  C   UNL     1      -0.612  -4.907  -3.823  1.00  0.00     0.131 A 
ATOM     80  C   UNL     1       1.491  -6.220  -5.043  1.00  0.00     0.055 A 
ATOM     81  C   UNL     1       0.637  -4.936  -3.200  1.00  0.00     0.041 A 
ATOM     82  F   UNL     1      -1.612  -4.282  -3.183  1.00  0.00    -0.206 F 
ATOM     83  C   UNL     1       1.694  -5.611  -3.803  1.00  0.00     0.022 A 
BRANCH  80  84
ATOM     84  S   UNL     1       2.802  -7.234  -5.781  1.00  0.00     0.124 S 
ATOM     85  O   UNL     1       2.141  -8.529  -5.901  1.00  0.00    -0.237 OA
ATOM     86  O   UNL     1       3.062  -6.528  -7.030  1.00  0.00    -0.237 OA
ATOM     87  O   UNL     1       3.877  -7.170  -4.794  1.00  0.00    -0.744 OA
ENDBRANCH  80  84
ENDBRANCH  53  77
BRANCH  65  88
ATOM     88  C   UNL     1      -5.241 -10.617  -6.826  1.00  0.00     0.023 A 
ATOM     89  C   UNL     1      -5.127 -11.322  -5.616  1.00  0.00     0.031 A 
ATOM     90  C   UNL     1      -5.227 -11.353  -8.024  1.00  0.00     0.131 A 
ATOM     91  C   UNL     1      -4.944 -12.713  -5.633  1.00  0.00     0.055 A 
ATOM     92  C   UNL     1      -5.113 -12.744  -8.032  1.00  0.00     0.041 A 
ATOM     93  F   UNL     1      -5.330 -10.732  -9.210  1.00  0.00    -0.206 F 
ATOM     94  C   UNL     1      -4.956 -13.430  -6.832  1.00  0.00     0.022 A 
BRANCH  91  95
ATOM     95  S   UNL     1      -4.592 -13.565  -4.071  1.00  0.00     0.124 S 
ATOM     96  O   UNL     1      -3.383 -12.882  -3.619  1.00  0.00    -0.237 OA
ATOM     97  O   UNL     1      -5.799 -13.304  -3.293  1.00  0.00    -0.237 OA
ATOM     98  O   UNL     1      -4.404 -14.957  -4.473  1.00  0.00    -0.744 OA
ENDBRANCH  91  95
ENDBRANCH  65  88
ENDBRANCH  39  40
ENDBRANCH  31  34
ENDBRANCH  29  30
ENDBRANCH  28  29
ENDBRANCH  27  28
ENDBRANCH   1  27
TORSDOF 21
