REMARK SMILES C[N@@H+]1CC2(CC[NH+](Cc3cccc(O)c3)CC2)C[C@H]1C(=O)NCCCCCCNC(=O)c1ccc(-c2c3nc(c(-c4cc(S(=O)(=O)[O-])ccc4F)c4ccc([nH]4)c(-c4cc(S(=O)(=O)[O-])ccc4F)c4nc(c(-c5cc(S(=O)(=O)[O-])ccc5F)c5ccc2[nH]5)C=C4)C=C3)cc1
REMARK SMILES IDX 25 1 24 2 23 3 22 4 20 5 21 6 19 8 1 9 2 10 3 11 4 13 18 14
REMARK SMILES IDX 5 15 17 16 6 17 16 18 7 19 8 21 9 22 10 23 15 24 11 25 13 26
REMARK SMILES IDX 12 27 14 28 26 30 27 31 28 32 29 33 30 34 31 36 32 37 33 38
REMARK SMILES IDX 94 39 34 40 93 41 35 42 36 43 37 44 87 45 38 46 92 47 86 48
REMARK SMILES IDX 88 49 39 50 91 51 85 52 84 53 40 55 72 56 52 57 71 58 53 59
REMARK SMILES IDX 56 60 70 61 89 62 54 63 55 64 69 66 90 67 57 68 41 69 42 70
REMARK SMILES IDX 50 71 43 72 49 73 51 74 48 75 44 76 45 77 46 78 47 79 73 80
REMARK SMILES IDX 74 81 82 82 75 83 81 84 83 85 80 86 76 87 77 88 78 89 79 90
REMARK SMILES IDX 58 91 59 92 67 93 60 94 66 95 68 96 65 97 61 98 62 99 63 100
REMARK SMILES IDX 64 101
REMARK H PARENT 22 7 2 12 7 20 14 29 29 35 88 54 56 65
REMARK Flexibility Score: inf
ROOT
ATOM      1  C   UNL     1      -2.040   5.725  -2.352  1.00  0.00     0.002 C 
ENDROOT
BRANCH   1   2
ATOM      2  C   UNL     1      -1.337   4.421  -1.974  1.00  0.00     0.021 C 
BRANCH   2   3
ATOM      3  C   UNL     1      -0.805   4.406  -0.546  1.00  0.00     0.116 C 
BRANCH   3   4
ATOM      4  N   UNL     1      -1.540   3.610   0.391  1.00  0.00    -0.351 N 
ATOM      5  C   UNL     1      -1.088   2.556   1.132  1.00  0.00     0.278 C 
ATOM      6  O   UNL     1      -1.825   2.193   2.061  1.00  0.00    -0.268 OA
ATOM      7  H   UNL     1      -2.486   3.853   0.516  1.00  0.00     0.163 HD
BRANCH   5   8
ATOM      8  C   UNL     1       0.273   1.822   0.896  1.00  0.00     0.274 C 
ATOM      9  C   UNL     1       0.677  -0.202  -0.332  1.00  0.00     0.333 C 
ATOM     10  N   UNL     1       0.385   1.231  -0.459  1.00  0.00    -0.327 N 
ATOM     11  C   UNL     1       1.462   1.940  -1.188  1.00  0.00     0.270 C 
ATOM     12  H   UNL     1      -0.486   1.332  -0.979  1.00  0.00     0.348 HD
ATOM     13  C   UNL     1       2.377   2.648  -0.164  1.00  0.00     0.036 C 
ATOM     14  C   UNL     1       1.568   2.574   1.166  1.00  0.00     0.089 C 
ATOM     15  C   UNL     1       2.668   4.146  -0.465  1.00  0.00     0.075 C 
ATOM     16  C   UNL     1       3.710   1.859  -0.067  1.00  0.00     0.075 C 
ATOM     17  C   UNL     1       3.772   4.441  -1.464  1.00  0.00     0.263 C 
ATOM     18  C   UNL     1       4.797   2.307  -1.060  1.00  0.00     0.263 C 
ATOM     19  N   UNL     1       5.006   3.744  -1.170  1.00  0.00    -0.331 N 
ATOM     20  H   UNL     1       5.603   3.840  -1.992  1.00  0.00     0.348 HD
BRANCH  19  21
ATOM     21  C   UNL     1       5.914   4.397  -0.213  1.00  0.00     0.299 C 
BRANCH  21  22
ATOM     22  C   UNL     1       5.489   4.434   1.242  1.00  0.00     0.010 A 
ATOM     23  C   UNL     1       5.704   3.324   2.070  1.00  0.00     0.010 A 
ATOM     24  C   UNL     1       4.800   5.537   1.769  1.00  0.00     0.055 A 
ATOM     25  C   UNL     1       5.102   3.245   3.328  1.00  0.00     0.004 A 
ATOM     26  C   UNL     1       4.208   5.453   3.028  1.00  0.00     0.116 A 
ATOM     27  C   UNL     1       4.329   4.303   3.800  1.00  0.00     0.046 A 
BRANCH  26  28
ATOM     28  O   UNL     1       3.462   6.513   3.452  1.00  0.00    -0.508 OA
ATOM     29  H   UNL     1       3.050   6.489   4.294  1.00  0.00     0.293 HD
ENDBRANCH  26  28
ENDBRANCH  21  22
ENDBRANCH  19  21
ENDBRANCH   5   8
ENDBRANCH   3   4
ENDBRANCH   2   3
ENDBRANCH   1   2
BRANCH   1  30
ATOM     30  C   UNL     1      -1.178   6.993  -2.252  1.00  0.00     0.002 C 
BRANCH  30  31
ATOM     31  C   UNL     1       0.096   7.016  -3.103  1.00  0.00     0.021 C 
BRANCH  31  32
ATOM     32  C   UNL     1      -0.116   6.810  -4.602  1.00  0.00     0.116 C 
BRANCH  32  33
ATOM     33  N   UNL     1      -1.093   7.740  -5.149  1.00  0.00    -0.352 N 
ATOM     34  C   UNL     1      -0.975   8.642  -6.170  1.00  0.00     0.251 C 
ATOM     35  H   UNL     1      -1.976   7.718  -4.715  1.00  0.00     0.163 HD
ATOM     36  O   UNL     1      -1.853   9.498  -6.324  1.00  0.00    -0.269 OA
BRANCH  34  37
ATOM     37  C   UNL     1       0.189   8.607  -7.078  1.00  0.00     0.039 A 
ATOM     38  C   UNL     1       0.776   9.812  -7.475  1.00  0.00     0.014 A 
ATOM     39  C   UNL     1       0.682   7.395  -7.569  1.00  0.00     0.014 A 
ATOM     40  C   UNL     1       1.888   9.798  -8.319  1.00  0.00     0.010 A 
ATOM     41  C   UNL     1       1.833   7.378  -8.354  1.00  0.00     0.010 A 
ATOM     42  C   UNL     1       2.446   8.580  -8.741  1.00  0.00    -0.014 A 
BRANCH  42  43
ATOM     43  C   UNL     1       3.667   8.545  -9.588  1.00  0.00     0.031 A 
ATOM     44  C   UNL     1       3.604   7.973 -10.979  1.00  0.00     0.074 A 
ATOM     45  C   UNL     1       4.840   8.974  -9.081  1.00  0.00     0.049 A 
ATOM     46  N   UNL     1       4.572   7.784 -11.840  1.00  0.00    -0.248 NA
ATOM     47  C   UNL     1       2.284   7.532 -11.456  1.00  0.00     0.031 C 
ATOM     48  C   UNL     1       5.029   9.514  -7.731  1.00  0.00     0.029 A 
ATOM     49  N   UNL     1       6.098   9.015  -9.629  1.00  0.00    -0.354 N 
ATOM     50  C   UNL     1       3.982   7.188 -12.950  1.00  0.00     0.074 A 
ATOM     51  C   UNL     1       2.583   7.001 -12.632  1.00  0.00     0.031 C 
ATOM     52  C   UNL     1       6.319   9.847  -7.566  1.00  0.00     0.029 A 
ATOM     53  C   UNL     1       7.061   9.500  -8.773  1.00  0.00     0.049 A 
ATOM     54  H   UNL     1       6.293   8.725 -10.550  1.00  0.00     0.167 HD
ATOM     55  C   UNL     1       4.554   6.845 -14.131  1.00  0.00     0.034 A 
ATOM     56  C   UNL     1       8.393   9.631  -8.935  1.00  0.00     0.034 A 
ATOM     57  C   UNL     1       5.949   7.057 -14.435  1.00  0.00     0.049 A 
ATOM     58  C   UNL     1       9.007   9.224 -10.253  1.00  0.00     0.074 A 
ATOM     59  C   UNL     1       6.617   6.808 -15.622  1.00  0.00     0.029 A 
ATOM     60  N   UNL     1       6.892   7.558 -13.548  1.00  0.00    -0.354 N 
ATOM     61  N   UNL     1       8.422   8.718 -11.315  1.00  0.00    -0.248 NA
ATOM     62  C   UNL     1      10.455   9.418 -10.400  1.00  0.00     0.031 C 
ATOM     63  C   UNL     1       7.973   7.085 -15.428  1.00  0.00     0.029 A 
ATOM     64  C   UNL     1       8.141   7.591 -14.149  1.00  0.00     0.049 A 
ATOM     65  H   UNL     1       6.702   7.848 -12.626  1.00  0.00     0.167 HD
ATOM     66  C   UNL     1       9.428   8.568 -12.266  1.00  0.00     0.074 A 
ATOM     67  C   UNL     1      10.649   9.054 -11.658  1.00  0.00     0.031 C 
ATOM     68  C   UNL     1       9.351   8.076 -13.529  1.00  0.00     0.034 A 
BRANCH  55  69
ATOM     69  C   UNL     1       3.683   6.182 -15.170  1.00  0.00     0.023 A 
ATOM     70  C   UNL     1       2.597   6.848 -15.765  1.00  0.00     0.031 A 
ATOM     71  C   UNL     1       3.950   4.864 -15.581  1.00  0.00     0.131 A 
ATOM     72  C   UNL     1       1.786   6.177 -16.693  1.00  0.00     0.055 A 
ATOM     73  C   UNL     1       3.186   4.228 -16.562  1.00  0.00     0.041 A 
ATOM     74  F   UNL     1       4.960   4.169 -15.034  1.00  0.00    -0.206 F 
ATOM     75  C   UNL     1       2.090   4.881 -17.116  1.00  0.00     0.022 A 
BRANCH  72  76
ATOM     76  S   UNL     1       0.260   6.980 -17.253  1.00  0.00     0.124 S 
ATOM     77  O   UNL     1      -0.461   7.155 -15.994  1.00  0.00    -0.237 OA
ATOM     78  O   UNL     1       0.756   8.199 -17.881  1.00  0.00    -0.237 OA
ATOM     79  O   UNL     1      -0.327   6.002 -18.167  1.00  0.00    -0.744 OA
ENDBRANCH  72  76
ENDBRANCH  55  69
BRANCH  56  80
ATOM     80  C   UNL     1       9.250  10.143  -7.824  1.00  0.00     0.023 A 
ATOM     81  C   UNL     1       9.997  11.323  -7.969  1.00  0.00     0.031 A 
ATOM     82  C   UNL     1       9.388   9.422  -6.624  1.00  0.00     0.131 A 
ATOM     83  C   UNL     1      10.896  11.711  -6.963  1.00  0.00     0.055 A 
ATOM     84  C   UNL     1      10.233   9.849  -5.598  1.00  0.00     0.041 A 
ATOM     85  F   UNL     1       8.697   8.288  -6.429  1.00  0.00    -0.206 F 
ATOM     86  C   UNL     1      11.008  10.991  -5.772  1.00  0.00     0.022 A 
BRANCH  83  87
ATOM     87  S   UNL     1      12.008  13.108  -7.286  1.00  0.00     0.124 S 
ATOM     88  O   UNL     1      12.665  12.684  -8.517  1.00  0.00    -0.237 OA
ATOM     89  O   UNL     1      11.071  14.219  -7.407  1.00  0.00    -0.237 OA
ATOM     90  O   UNL     1      12.864  13.142  -6.101  1.00  0.00    -0.744 OA
ENDBRANCH  83  87
ENDBRANCH  56  80
BRANCH  68  91
ATOM     91  C   UNL     1      10.617   8.092 -14.352  1.00  0.00     0.023 A 
ATOM     92  C   UNL     1      11.731   7.304 -14.016  1.00  0.00     0.031 A 
ATOM     93  C   UNL     1      10.709   8.918 -15.487  1.00  0.00     0.131 A 
ATOM     94  C   UNL     1      12.910   7.403 -14.771  1.00  0.00     0.055 A 
ATOM     95  C   UNL     1      11.860   8.961 -16.273  1.00  0.00     0.041 A 
ATOM     96  F   UNL     1       9.676   9.694 -15.853  1.00  0.00    -0.206 F 
ATOM     97  C   UNL     1      12.974   8.212 -15.909  1.00  0.00     0.022 A 
BRANCH  94  98
ATOM     98  S   UNL     1      14.392   6.534 -14.190  1.00  0.00     0.124 S 
ATOM     99  O   UNL     1      14.574   7.102 -12.858  1.00  0.00    -0.237 OA
ATOM    100  O   UNL     1      13.972   5.137 -14.235  1.00  0.00    -0.237 OA
ATOM    101  O   UNL     1      15.413   6.905 -15.168  1.00  0.00    -0.744 OA
ENDBRANCH  94  98
ENDBRANCH  68  91
ENDBRANCH  42  43
ENDBRANCH  34  37
ENDBRANCH  32  33
ENDBRANCH  31  32
ENDBRANCH  30  31
ENDBRANCH   1  30
TORSDOF 19
