REMARK SMILES CC1(C)S[C@H](c2ccc(-c3cccc([N+](=O)[O-])c3)o2)[NH2+][C@@H]1C(=O)NCCCCCCNC(=O)c1ccc(-c2c3nc(c(-c4cc(S(=O)(=O)[O-])ccc4F)c4ccc([nH]4)c(-c4cc(S(=O)(=O)[O-])ccc4F)c4nc(c(-c5cc(S(=O)(=O)[O-])ccc5F)c5ccc2[nH]5)C=C4)C=C3)cc1
REMARK SMILES IDX 27 1 26 2 25 3 24 4 22 5 23 6 21 8 1 9 2 10 3 11 4 12 5 13
REMARK SMILES IDX 20 14 6 17 7 18 19 19 8 20 9 21 10 22 11 23 18 24 12 25
REMARK SMILES IDX 14 26 13 27 15 28 16 29 17 30 28 31 29 32 30 33 31 34 32 35
REMARK SMILES IDX 33 37 34 38 35 39 96 40 36 41 95 42 37 43 38 44 39 45 89 46
REMARK SMILES IDX 40 47 94 48 88 49 90 50 41 51 93 52 87 53 86 54 42 56 74 57
REMARK SMILES IDX 54 58 73 59 55 60 58 61 72 62 91 63 56 64 57 65 71 67 92 68
REMARK SMILES IDX 59 69 43 70 44 71 52 72 45 73 51 74 53 75 50 76 46 77 47 78
REMARK SMILES IDX 48 79 49 80 75 81 76 82 84 83 77 84 83 85 85 86 82 87 78 88
REMARK SMILES IDX 79 89 80 90 81 91 60 92 61 93 69 94 62 95 68 96 70 97 67 98
REMARK SMILES IDX 63 99 64 100 65 101 66 102
REMARK H PARENT 24 7 20 15 20 16 31 36 90 55 58 66
REMARK Flexibility Score: inf
ROOT
ATOM      1  C   UNL     1      -3.337   3.997  -3.879  1.00  0.00     0.002 C 
ENDROOT
BRANCH   1   2
ATOM      2  C   UNL     1      -2.818   4.208  -2.458  1.00  0.00     0.021 C 
BRANCH   2   3
ATOM      3  C   UNL     1      -2.236   2.962  -1.794  1.00  0.00     0.116 C 
BRANCH   3   4
ATOM      4  N   UNL     1      -1.175   2.342  -2.571  1.00  0.00    -0.351 N 
ATOM      5  C   UNL     1      -0.283   1.384  -2.155  1.00  0.00     0.279 C 
ATOM      6  O   UNL     1       0.457   0.892  -3.006  1.00  0.00    -0.268 OA
ATOM      7  H   UNL     1      -1.086   2.644  -3.504  1.00  0.00     0.163 HD
BRANCH   5   8
ATOM      8  C   UNL     1      -0.191   1.084  -0.639  1.00  0.00     0.289 C 
ATOM      9  C   UNL     1       1.239   0.367   1.324  1.00  0.00     0.030 C 
ATOM     10  C   UNL     1       0.854   0.054  -0.140  1.00  0.00     0.078 C 
ATOM     11  C   UNL     1       2.145  -0.085  -0.947  1.00  0.00     0.030 C 
ATOM     12  S   UNL     1      -0.044  -1.534  -0.164  1.00  0.00    -0.078 SA
ATOM     13  C   UNL     1      -1.677  -0.767  -0.254  1.00  0.00     0.311 C 
ATOM     14  N   UNL     1      -1.529   0.683  -0.105  1.00  0.00    -0.317 N 
ATOM     15  H   UNL     1      -1.595   0.936   0.881  1.00  0.00     0.348 HD
ATOM     16  H   UNL     1      -2.268   1.164  -0.619  1.00  0.00     0.348 HD
BRANCH  13  17
ATOM     17  C   UNL     1      -2.476  -1.255  -1.428  1.00  0.00     0.172 A 
ATOM     18  C   UNL     1      -3.221  -2.413  -1.567  1.00  0.00     0.054 A 
ATOM     19  O   UNL     1      -2.584  -0.508  -2.578  1.00  0.00    -0.454 OA
ATOM     20  C   UNL     1      -3.830  -2.365  -2.837  1.00  0.00     0.051 A 
ATOM     21  C   UNL     1      -3.424  -1.186  -3.425  1.00  0.00     0.134 A 
BRANCH  21  22
ATOM     22  C   UNL     1      -3.798  -0.541  -4.678  1.00  0.00     0.024 A 
ATOM     23  C   UNL     1      -2.849   0.038  -5.533  1.00  0.00     0.012 A 
ATOM     24  C   UNL     1      -5.157  -0.469  -5.029  1.00  0.00     0.097 A 
ATOM     25  C   UNL     1      -3.247   0.680  -6.716  1.00  0.00     0.008 A 
ATOM     26  C   UNL     1      -5.552   0.195  -6.199  1.00  0.00     0.270 A 
ATOM     27  C   UNL     1      -4.601   0.764  -7.054  1.00  0.00     0.085 A 
BRANCH  26  28
ATOM     28  N   UNL     1      -6.981   0.334  -6.503  1.00  0.00     0.062 N 
ATOM     29  O   UNL     1      -7.293   0.629  -7.664  1.00  0.00    -0.258 OA
ATOM     30  O   UNL     1      -7.783   0.126  -5.581  1.00  0.00    -0.258 OA
ENDBRANCH  26  28
ENDBRANCH  21  22
ENDBRANCH  13  17
ENDBRANCH   5   8
ENDBRANCH   3   4
ENDBRANCH   2   3
ENDBRANCH   1   2
BRANCH   1  31
ATOM     31  C   UNL     1      -4.302   2.828  -4.030  1.00  0.00     0.002 C 
BRANCH  31  32
ATOM     32  C   UNL     1      -5.633   2.934  -3.301  1.00  0.00     0.021 C 
BRANCH  32  33
ATOM     33  C   UNL     1      -6.458   4.139  -3.710  1.00  0.00     0.116 C 
BRANCH  33  34
ATOM     34  N   UNL     1      -6.728   4.191  -5.139  1.00  0.00    -0.352 N 
ATOM     35  C   UNL     1      -7.877   4.581  -5.787  1.00  0.00     0.251 C 
ATOM     36  H   UNL     1      -5.986   3.908  -5.722  1.00  0.00     0.163 HD
ATOM     37  O   UNL     1      -7.964   4.459  -7.000  1.00  0.00    -0.269 OA
BRANCH  35  38
ATOM     38  C   UNL     1      -8.998   5.130  -4.993  1.00  0.00     0.039 A 
ATOM     39  C   UNL     1     -10.303   4.733  -5.288  1.00  0.00     0.014 A 
ATOM     40  C   UNL     1      -8.754   6.019  -3.944  1.00  0.00     0.014 A 
ATOM     41  C   UNL     1     -11.355   5.199  -4.497  1.00  0.00     0.010 A 
ATOM     42  C   UNL     1      -9.782   6.380  -3.087  1.00  0.00     0.010 A 
ATOM     43  C   UNL     1     -11.100   6.006  -3.375  1.00  0.00    -0.014 A 
BRANCH  43  44
ATOM     44  C   UNL     1     -12.204   6.526  -2.529  1.00  0.00     0.031 A 
ATOM     45  C   UNL     1     -12.405   8.015  -2.402  1.00  0.00     0.074 A 
ATOM     46  C   UNL     1     -12.989   5.668  -1.848  1.00  0.00     0.049 A 
ATOM     47  N   UNL     1     -13.280   8.676  -1.689  1.00  0.00    -0.248 NA
ATOM     48  C   UNL     1     -11.470   8.876  -3.143  1.00  0.00     0.031 C 
ATOM     49  C   UNL     1     -12.847   4.210  -1.847  1.00  0.00     0.029 A 
ATOM     50  N   UNL     1     -14.065   5.895  -1.029  1.00  0.00    -0.354 N 
ATOM     51  C   UNL     1     -12.989  10.022  -1.885  1.00  0.00     0.074 A 
ATOM     52  C   UNL     1     -11.802  10.080  -2.708  1.00  0.00     0.031 C 
ATOM     53  C   UNL     1     -13.829   3.673  -1.105  1.00  0.00     0.029 A 
ATOM     54  C   UNL     1     -14.641   4.745  -0.541  1.00  0.00     0.049 A 
ATOM     55  H   UNL     1     -14.394   6.797  -0.811  1.00  0.00     0.167 HD
ATOM     56  C   UNL     1     -13.671  11.111  -1.453  1.00  0.00     0.034 A 
ATOM     57  C   UNL     1     -15.706   4.579   0.267  1.00  0.00     0.034 A 
ATOM     58  C   UNL     1     -14.868  11.029  -0.654  1.00  0.00     0.049 A 
ATOM     59  C   UNL     1     -16.449   5.805   0.737  1.00  0.00     0.074 A 
ATOM     60  C   UNL     1     -15.677  12.057  -0.203  1.00  0.00     0.029 A 
ATOM     61  N   UNL     1     -15.427   9.847  -0.182  1.00  0.00    -0.354 N 
ATOM     62  N   UNL     1     -16.199   7.072   0.490  1.00  0.00    -0.248 NA
ATOM     63  C   UNL     1     -17.628   5.576   1.579  1.00  0.00     0.031 C 
ATOM     64  C   UNL     1     -16.680  11.503   0.600  1.00  0.00     0.029 A 
ATOM     65  C   UNL     1     -16.551  10.123   0.581  1.00  0.00     0.049 A 
ATOM     66  H   UNL     1     -15.076   8.946  -0.364  1.00  0.00     0.167 HD
ATOM     67  C   UNL     1     -17.210   7.788   1.125  1.00  0.00     0.074 A 
ATOM     68  C   UNL     1     -18.086   6.809   1.737  1.00  0.00     0.031 C 
ATOM     69  C   UNL     1     -17.401   9.132   1.199  1.00  0.00     0.034 A 
BRANCH  56  70
ATOM     70  C   UNL     1     -13.121  12.470  -1.825  1.00  0.00     0.023 A 
ATOM     71  C   UNL     1     -12.982  12.872  -3.167  1.00  0.00     0.031 A 
ATOM     72  C   UNL     1     -12.693  13.364  -0.828  1.00  0.00     0.131 A 
ATOM     73  C   UNL     1     -12.353  14.087  -3.476  1.00  0.00     0.055 A 
ATOM     74  C   UNL     1     -12.152  14.613  -1.140  1.00  0.00     0.041 A 
ATOM     75  F   UNL     1     -12.775  13.031   0.470  1.00  0.00    -0.206 F 
ATOM     76  C   UNL     1     -11.963  14.974  -2.471  1.00  0.00     0.022 A 
BRANCH  73  77
ATOM     77  S   UNL     1     -11.906  14.418  -5.203  1.00  0.00     0.124 S 
ATOM     78  O   UNL     1     -11.033  13.286  -5.502  1.00  0.00    -0.237 OA
ATOM     79  O   UNL     1     -13.203  14.420  -5.870  1.00  0.00    -0.237 OA
ATOM     80  O   UNL     1     -11.234  15.714  -5.141  1.00  0.00    -0.744 OA
ENDBRANCH  73  77
ENDBRANCH  56  70
BRANCH  57  81
ATOM     81  C   UNL     1     -16.143   3.213   0.679  1.00  0.00     0.023 A 
ATOM     82  C   UNL     1     -17.404   2.714   0.316  1.00  0.00     0.031 A 
ATOM     83  C   UNL     1     -15.323   2.402   1.485  1.00  0.00     0.131 A 
ATOM     84  C   UNL     1     -17.832   1.468   0.801  1.00  0.00     0.055 A 
ATOM     85  C   UNL     1     -15.729   1.138   1.915  1.00  0.00     0.041 A 
ATOM     86  F   UNL     1     -14.106   2.827   1.860  1.00  0.00    -0.206 F 
ATOM     87  C   UNL     1     -16.997   0.671   1.586  1.00  0.00     0.022 A 
BRANCH  84  88
ATOM     88  S   UNL     1     -19.539   0.948   0.474  1.00  0.00     0.124 S 
ATOM     89  O   UNL     1     -20.302   2.048   1.053  1.00  0.00    -0.237 OA
ATOM     90  O   UNL     1     -19.553   0.853  -0.982  1.00  0.00    -0.237 OA
ATOM     91  O   UNL     1     -19.647  -0.327   1.180  1.00  0.00    -0.744 OA
ENDBRANCH  84  88
ENDBRANCH  57  81
BRANCH  69  92
ATOM     92  C   UNL     1     -18.626   9.604   1.945  1.00  0.00     0.023 A 
ATOM     93  C   UNL     1     -18.791   9.361   3.320  1.00  0.00     0.031 A 
ATOM     94  C   UNL     1     -19.660  10.271   1.264  1.00  0.00     0.131 A 
ATOM     95  C   UNL     1     -19.996   9.705   3.951  1.00  0.00     0.055 A 
ATOM     96  C   UNL     1     -20.823  10.682   1.915  1.00  0.00     0.041 A 
ATOM     97  F   UNL     1     -19.559  10.529  -0.050  1.00  0.00    -0.206 F 
ATOM     98  C   UNL     1     -21.005  10.382   3.262  1.00  0.00     0.022 A 
BRANCH  95  99
ATOM     99  S   UNL     1     -20.279   9.130   5.647  1.00  0.00     0.124 S 
ATOM    100  O   UNL     1     -20.098   7.689   5.513  1.00  0.00    -0.237 OA
ATOM    101  O   UNL     1     -19.242   9.836   6.393  1.00  0.00    -0.237 OA
ATOM    102  O   UNL     1     -21.647   9.560   5.931  1.00  0.00    -0.744 OA
ENDBRANCH  95  99
ENDBRANCH  69  92
ENDBRANCH  43  44
ENDBRANCH  35  38
ENDBRANCH  33  34
ENDBRANCH  32  33
ENDBRANCH  31  32
ENDBRANCH   1  31
TORSDOF 19
