REMARK SMILES CC(C)C[NH+]1CC[NH+]([C@H](C)[C@@H](C)C(=O)NCCCCCCNC(=O)c2ccc(-c3c4nc(c(-c5cc(S(=O)(=O)[O-])ccc5F)c5ccc([nH]5)c(-c5cc(S(=O)(=O)[O-])ccc5F)c5nc(c(-c6cc(S(=O)(=O)[O-])ccc6F)c6ccc3[nH]6)C=C5)C=C4)cc2)CC1
REMARK SMILES IDX 18 1 17 2 16 3 15 4 13 5 14 6 11 8 12 9 9 10 10 11 8 12 5 13
REMARK SMILES IDX 6 14 89 15 7 17 88 18 4 20 2 21 1 22 3 23 19 24 20 25 21 26
REMARK SMILES IDX 22 27 23 28 24 30 25 31 26 32 87 33 27 34 86 35 28 36 29 37
REMARK SMILES IDX 30 38 80 39 31 40 85 41 79 42 81 43 32 44 84 45 78 46 77 47
REMARK SMILES IDX 33 49 65 50 45 51 64 52 46 53 49 54 63 55 82 56 47 57 48 58
REMARK SMILES IDX 62 60 83 61 50 62 34 63 35 64 43 65 36 66 42 67 44 68 41 69
REMARK SMILES IDX 37 70 38 71 39 72 40 73 66 74 67 75 75 76 68 77 74 78 76 79
REMARK SMILES IDX 73 80 69 81 70 82 71 83 72 84 51 85 52 86 60 87 53 88 59 89
REMARK SMILES IDX 61 90 58 91 54 92 55 93 56 94 57 95
REMARK H PARENT 15 7 5 16 8 19 22 29 81 48 49 59
REMARK Flexibility Score: inf
ROOT
ATOM      1  C   UNL     1      -3.041  -7.895   1.161  1.00  0.00     0.002 C 
ENDROOT
BRANCH   1   2
ATOM      2  C   UNL     1      -2.219  -6.694   0.684  1.00  0.00     0.021 C 
BRANCH   2   3
ATOM      3  C   UNL     1      -2.488  -6.303  -0.768  1.00  0.00     0.116 C 
BRANCH   3   4
ATOM      4  N   UNL     1      -3.804  -5.714  -0.918  1.00  0.00    -0.356 N 
ATOM      5  C   UNL     1      -4.185  -4.440  -1.202  1.00  0.00     0.228 C 
ATOM      6  O   UNL     1      -5.396  -4.201  -1.243  1.00  0.00    -0.275 OA
ATOM      7  H   UNL     1      -4.550  -6.344  -0.793  1.00  0.00     0.163 HD
BRANCH   5   8
ATOM      8  C   UNL     1      -3.173  -3.353  -1.546  1.00  0.00     0.133 C 
ATOM      9  C   UNL     1      -2.511  -3.682  -2.891  1.00  0.00     0.024 C 
BRANCH   8  10
ATOM     10  C   UNL     1      -2.208  -3.018  -0.371  1.00  0.00     0.193 C 
ATOM     11  C   UNL     1      -1.065  -2.098  -0.842  1.00  0.00     0.076 C 
BRANCH  10  12
ATOM     12  N   UNL     1      -2.926  -2.541   0.840  1.00  0.00    -0.323 N 
ATOM     13  N   UNL     1      -3.252  -0.453   2.982  1.00  0.00    -0.325 N 
ATOM     14  C   UNL     1      -4.293  -0.762   1.985  1.00  0.00     0.324 C 
ATOM     15  C   UNL     1      -2.514  -1.683   3.266  1.00  0.00     0.324 C 
ATOM     16  H   UNL     1      -3.612  -0.188   3.898  1.00  0.00     0.348 HD
ATOM     17  C   UNL     1      -3.699  -1.308   0.667  1.00  0.00     0.324 C 
ATOM     18  C   UNL     1      -2.106  -2.582   2.063  1.00  0.00     0.324 C 
ATOM     19  H   UNL     1      -3.655  -3.240   0.984  1.00  0.00     0.348 HD
BRANCH  13  20
ATOM     20  C   UNL     1      -2.543   0.786   2.639  1.00  0.00     0.265 C 
BRANCH  20  21
ATOM     21  C   UNL     1      -1.038   1.032   2.906  1.00  0.00     0.038 C 
ATOM     22  C   UNL     1      -0.105   0.148   2.085  1.00  0.00     0.013 C 
ATOM     23  C   UNL     1      -0.726   2.493   2.534  1.00  0.00     0.013 C 
ENDBRANCH  20  21
ENDBRANCH  13  20
ENDBRANCH  10  12
ENDBRANCH   8  10
ENDBRANCH   5   8
ENDBRANCH   3   4
ENDBRANCH   2   3
ENDBRANCH   1   2
BRANCH   1  24
ATOM     24  C   UNL     1      -2.903  -9.151   0.294  1.00  0.00     0.002 C 
BRANCH  24  25
ATOM     25  C   UNL     1      -1.462  -9.610   0.051  1.00  0.00     0.021 C 
BRANCH  25  26
ATOM     26  C   UNL     1      -0.683  -9.935   1.320  1.00  0.00     0.116 C 
BRANCH  26  27
ATOM     27  N   UNL     1      -1.286 -11.036   2.052  1.00  0.00    -0.352 N 
ATOM     28  C   UNL     1      -0.727 -12.226   2.437  1.00  0.00     0.251 C 
ATOM     29  H   UNL     1      -2.229 -10.910   2.306  1.00  0.00     0.163 HD
ATOM     30  O   UNL     1      -1.451 -13.141   2.833  1.00  0.00    -0.269 OA
BRANCH  28  31
ATOM     31  C   UNL     1       0.737 -12.411   2.360  1.00  0.00     0.039 A 
ATOM     32  C   UNL     1       1.244 -13.607   1.847  1.00  0.00     0.014 A 
ATOM     33  C   UNL     1       1.607 -11.408   2.798  1.00  0.00     0.014 A 
ATOM     34  C   UNL     1       2.624 -13.775   1.724  1.00  0.00     0.010 A 
ATOM     35  C   UNL     1       2.978 -11.548   2.606  1.00  0.00     0.010 A 
ATOM     36  C   UNL     1       3.502 -12.735   2.073  1.00  0.00    -0.014 A 
BRANCH  36  37
ATOM     37  C   UNL     1       4.971 -12.876   1.894  1.00  0.00     0.031 A 
ATOM     38  C   UNL     1       5.882 -12.850   3.091  1.00  0.00     0.074 A 
ATOM     39  C   UNL     1       5.485 -12.969   0.652  1.00  0.00     0.049 A 
ATOM     40  N   UNL     1       7.189 -12.885   3.139  1.00  0.00    -0.248 NA
ATOM     41  C   UNL     1       5.236 -12.739   4.408  1.00  0.00     0.031 C 
ATOM     42  C   UNL     1       4.704 -12.968  -0.587  1.00  0.00     0.029 A 
ATOM     43  N   UNL     1       6.784 -13.076   0.223  1.00  0.00    -0.354 N 
ATOM     44  C   UNL     1       7.522 -12.790   4.486  1.00  0.00     0.074 A 
ATOM     45  C   UNL     1       6.281 -12.630   5.213  1.00  0.00     0.031 C 
ATOM     46  C   UNL     1       5.537 -13.095  -1.632  1.00  0.00     0.029 A 
ATOM     47  C   UNL     1       6.912 -13.136  -1.146  1.00  0.00     0.049 A 
ATOM     48  H   UNL     1       7.553 -13.106   0.837  1.00  0.00     0.167 HD
ATOM     49  C   UNL     1       8.748 -12.856   5.063  1.00  0.00     0.034 A 
ATOM     50  C   UNL     1       8.012 -13.204  -1.921  1.00  0.00     0.034 A 
ATOM     51  C   UNL     1       9.974 -13.025   4.320  1.00  0.00     0.049 A 
ATOM     52  C   UNL     1       9.367 -13.243  -1.259  1.00  0.00     0.074 A 
ATOM     53  C   UNL     1      11.264 -13.155   4.805  1.00  0.00     0.029 A 
ATOM     54  N   UNL     1      10.066 -13.077   2.935  1.00  0.00    -0.354 N 
ATOM     55  N   UNL     1       9.663 -13.201   0.020  1.00  0.00    -0.248 NA
ATOM     56  C   UNL     1      10.533 -13.349  -2.145  1.00  0.00     0.031 C 
ATOM     57  C   UNL     1      12.140 -13.212   3.715  1.00  0.00     0.029 A 
ATOM     58  C   UNL     1      11.392 -13.203   2.548  1.00  0.00     0.049 A 
ATOM     59  H   UNL     1       9.301 -13.032   2.317  1.00  0.00     0.167 HD
ATOM     60  C   UNL     1      11.049 -13.309   0.091  1.00  0.00     0.074 A 
ATOM     61  C   UNL     1      11.526 -13.432  -1.271  1.00  0.00     0.031 C 
ATOM     62  C   UNL     1      11.855 -13.312   1.184  1.00  0.00     0.034 A 
BRANCH  49  63
ATOM     63  C   UNL     1       8.818 -12.715   6.566  1.00  0.00     0.023 A 
ATOM     64  C   UNL     1       8.192 -13.635   7.425  1.00  0.00     0.031 A 
ATOM     65  C   UNL     1       9.496 -11.630   7.150  1.00  0.00     0.131 A 
ATOM     66  C   UNL     1       8.186 -13.412   8.810  1.00  0.00     0.055 A 
ATOM     67  C   UNL     1       9.561 -11.461   8.535  1.00  0.00     0.041 A 
ATOM     68  F   UNL     1      10.095 -10.705   6.384  1.00  0.00    -0.206 F 
ATOM     69  C   UNL     1       8.889 -12.345   9.374  1.00  0.00     0.022 A 
BRANCH  66  70
ATOM     70  S   UNL     1       7.118 -14.446   9.849  1.00  0.00     0.124 S 
ATOM     71  O   UNL     1       5.804 -14.197   9.260  1.00  0.00    -0.237 OA
ATOM     72  O   UNL     1       7.670 -15.779   9.641  1.00  0.00    -0.237 OA
ATOM     73  O   UNL     1       7.305 -13.894  11.189  1.00  0.00    -0.744 OA
ENDBRANCH  66  70
ENDBRANCH  49  63
BRANCH  50  74
ATOM     74  C   UNL     1       7.888 -13.228  -3.408  1.00  0.00     0.023 A 
ATOM     75  C   UNL     1       8.306 -14.344  -4.151  1.00  0.00     0.031 A 
ATOM     76  C   UNL     1       7.386 -12.118  -4.111  1.00  0.00     0.131 A 
ATOM     77  C   UNL     1       8.259 -14.307  -5.553  1.00  0.00     0.055 A 
ATOM     78  C   UNL     1       7.289 -12.109  -5.503  1.00  0.00     0.041 A 
ATOM     79  F   UNL     1       6.968 -11.027  -3.449  1.00  0.00    -0.206 F 
ATOM     80  C   UNL     1       7.740 -13.204  -6.234  1.00  0.00     0.022 A 
BRANCH  77  81
ATOM     81  S   UNL     1       8.970 -15.694  -6.481  1.00  0.00     0.124 S 
ATOM     82  O   UNL     1      10.346 -15.700  -5.997  1.00  0.00    -0.237 OA
ATOM     83  O   UNL     1       8.133 -16.808  -6.051  1.00  0.00    -0.237 OA
ATOM     84  O   UNL     1       8.801 -15.291  -7.876  1.00  0.00    -0.744 OA
ENDBRANCH  77  81
ENDBRANCH  50  74
BRANCH  62  85
ATOM     85  C   UNL     1      13.335 -13.500   0.945  1.00  0.00     0.023 A 
ATOM     86  C   UNL     1      14.106 -12.537   0.271  1.00  0.00     0.031 A 
ATOM     87  C   UNL     1      13.979 -14.668   1.393  1.00  0.00     0.131 A 
ATOM     88  C   UNL     1      15.463 -12.786   0.012  1.00  0.00     0.055 A 
ATOM     89  C   UNL     1      15.343 -14.879   1.190  1.00  0.00     0.041 A 
ATOM     90  F   UNL     1      13.291 -15.622   2.040  1.00  0.00    -0.206 F 
ATOM     91  C   UNL     1      16.090 -13.941   0.484  1.00  0.00     0.022 A 
BRANCH  88  92
ATOM     92  S   UNL     1      16.377 -11.620  -1.035  1.00  0.00     0.124 S 
ATOM     93  O   UNL     1      15.597 -11.643  -2.268  1.00  0.00    -0.237 OA
ATOM     94  O   UNL     1      16.308 -10.385  -0.261  1.00  0.00    -0.237 OA
ATOM     95  O   UNL     1      17.708 -12.217  -1.132  1.00  0.00    -0.744 OA
ENDBRANCH  88  92
ENDBRANCH  62  85
ENDBRANCH  36  37
ENDBRANCH  28  31
ENDBRANCH  26  27
ENDBRANCH  25  26
ENDBRANCH  24  25
ENDBRANCH   1  24
TORSDOF 20
