REMARK SMILES C[C@H]1[C@H](C(=O)NCCCCCCNC(=O)c2ccc(-c3c4nc(c(-c5cc(S(=O)(=O)[O-])ccc5F)c5ccc([nH]5)c(-c5cc(S(=O)(=O)[O-])ccc5F)c5nc(c(-c6cc(S(=O)(=O)[O-])ccc6F)c6ccc3[nH]6)C=C5)C=C4)cc2)CCN1C(=O)CC[NH2+]C1CC1
REMARK SMILES IDX 8 1 7 2 6 3 4 4 5 5 3 7 1 8 2 9 81 10 79 11 80 12 82 13
REMARK SMILES IDX 83 14 84 15 85 16 86 17 87 20 88 21 89 22 9 23 10 24 11 25
REMARK SMILES IDX 12 26 13 27 14 28 15 30 16 31 17 32 78 33 18 34 77 35 19 36
REMARK SMILES IDX 20 37 21 38 71 39 22 40 76 41 70 42 72 43 23 44 75 45 69 46
REMARK SMILES IDX 68 47 24 49 56 50 36 51 55 52 37 53 40 54 54 55 73 56 38 57
REMARK SMILES IDX 39 58 53 60 74 61 41 62 25 63 26 64 34 65 27 66 33 67 35 68
REMARK SMILES IDX 32 69 28 70 29 71 30 72 31 73 57 74 58 75 66 76 59 77 65 78
REMARK SMILES IDX 67 79 64 80 60 81 61 82 62 83 63 84 42 85 43 86 51 87 44 88
REMARK SMILES IDX 50 89 52 90 49 91 45 92 46 93 47 94 48 95
REMARK H PARENT 6 6 86 18 86 19 13 29 72 48 40 59
REMARK Flexibility Score: inf
ROOT
ATOM      1  C   UNL     1      -0.006   0.166   4.095  1.00  0.00     0.021 C 
ENDROOT
BRANCH   1   2
ATOM      2  C   UNL     1      -1.020   0.541   3.019  1.00  0.00     0.116 C 
BRANCH   2   3
ATOM      3  N   UNL     1      -0.778   1.875   2.508  1.00  0.00    -0.356 N 
ATOM      4  C   UNL     1      -0.616   2.320   1.239  1.00  0.00     0.225 C 
ATOM      5  O   UNL     1      -0.369   3.519   1.082  1.00  0.00    -0.275 OA
ATOM      6  H   UNL     1      -0.723   2.574   3.199  1.00  0.00     0.163 HD
BRANCH   4   7
ATOM      7  C   UNL     1      -0.693   1.399   0.037  1.00  0.00     0.102 C 
ATOM      8  C   UNL     1       1.255   0.571  -1.266  1.00  0.00     0.032 C 
ATOM      9  C   UNL     1       0.446   0.370   0.014  1.00  0.00     0.094 C 
ATOM     10  N   UNL     1      -0.214  -0.933  -0.010  1.00  0.00    -0.339 N 
ATOM     11  C   UNL     1      -1.995   0.610  -0.120  1.00  0.00     0.037 C 
ATOM     12  C   UNL     1      -1.570  -0.802  -0.503  1.00  0.00     0.120 C 
BRANCH  10  13
ATOM     13  C   UNL     1       0.299  -2.175   0.312  1.00  0.00     0.228 C 
ATOM     14  O   UNL     1      -0.309  -3.208   0.026  1.00  0.00    -0.275 OA
BRANCH  13  15
ATOM     15  C   UNL     1       1.609  -2.263   1.084  1.00  0.00     0.161 C 
BRANCH  15  16
ATOM     16  C   UNL     1       2.831  -2.427   0.179  1.00  0.00     0.270 C 
BRANCH  16  17
ATOM     17  N   UNL     1       3.696  -1.241   0.215  1.00  0.00    -0.343 N 
ATOM     18  H   UNL     1       4.155  -1.208   1.126  1.00  0.00     0.346 HD
ATOM     19  H   UNL     1       3.095  -0.434   0.046  1.00  0.00     0.346 HD
BRANCH  17  20
ATOM     20  C   UNL     1       4.732  -1.219  -0.822  1.00  0.00     0.182 C 
ATOM     21  C   UNL     1       4.405  -1.254  -2.291  1.00  0.00     0.071 C 
ATOM     22  C   UNL     1       4.873   0.024  -1.666  1.00  0.00     0.071 C 
ENDBRANCH  17  20
ENDBRANCH  16  17
ENDBRANCH  15  16
ENDBRANCH  13  15
ENDBRANCH  10  13
ENDBRANCH   4   7
ENDBRANCH   2   3
ENDBRANCH   1   2
BRANCH   1  23
ATOM     23  C   UNL     1      -0.116   1.005   5.372  1.00  0.00     0.002 C 
BRANCH  23  24
ATOM     24  C   UNL     1      -1.518   1.062   5.984  1.00  0.00     0.002 C 
BRANCH  24  25
ATOM     25  C   UNL     1      -2.160  -0.303   6.248  1.00  0.00     0.021 C 
BRANCH  25  26
ATOM     26  C   UNL     1      -1.344  -1.213   7.157  1.00  0.00     0.116 C 
BRANCH  26  27
ATOM     27  N   UNL     1      -1.164  -0.629   8.476  1.00  0.00    -0.352 N 
ATOM     28  C   UNL     1      -1.501  -1.147   9.700  1.00  0.00     0.251 C 
ATOM     29  H   UNL     1      -0.742   0.260   8.492  1.00  0.00     0.163 HD
ATOM     30  O   UNL     1      -1.505  -0.419  10.691  1.00  0.00    -0.269 OA
BRANCH  28  31
ATOM     31  C   UNL     1      -1.875  -2.571   9.812  1.00  0.00     0.039 A 
ATOM     32  C   UNL     1      -2.984  -2.923  10.583  1.00  0.00     0.014 A 
ATOM     33  C   UNL     1      -1.135  -3.556   9.150  1.00  0.00     0.014 A 
ATOM     34  C   UNL     1      -3.383  -4.259  10.646  1.00  0.00     0.010 A 
ATOM     35  C   UNL     1      -1.580  -4.874   9.149  1.00  0.00     0.010 A 
ATOM     36  C   UNL     1      -2.705  -5.241   9.903  1.00  0.00    -0.014 A 
BRANCH  36  37
ATOM     37  C   UNL     1      -3.157  -6.657   9.910  1.00  0.00     0.031 A 
ATOM     38  C   UNL     1      -2.260  -7.731  10.461  1.00  0.00     0.074 A 
ATOM     39  C   UNL     1      -4.352  -6.977   9.376  1.00  0.00     0.049 A 
ATOM     40  N   UNL     1      -2.448  -9.025  10.505  1.00  0.00    -0.248 NA
ATOM     41  C   UNL     1      -0.967  -7.294  11.011  1.00  0.00     0.031 C 
ATOM     42  C   UNL     1      -5.292  -6.025   8.780  1.00  0.00     0.029 A 
ATOM     43  N   UNL     1      -4.981  -8.189   9.243  1.00  0.00    -0.354 N 
ATOM     44  C   UNL     1      -1.298  -9.557  11.078  1.00  0.00     0.074 A 
ATOM     45  C   UNL     1      -0.391  -8.450  11.300  1.00  0.00     0.031 C 
ATOM     46  C   UNL     1      -6.388  -6.685   8.375  1.00  0.00     0.029 A 
ATOM     47  C   UNL     1      -6.211  -8.110   8.632  1.00  0.00     0.049 A 
ATOM     48  H   UNL     1      -4.588  -9.036   9.556  1.00  0.00     0.167 HD
ATOM     49  C   UNL     1      -1.033 -10.845  11.411  1.00  0.00     0.034 A 
ATOM     50  C   UNL     1      -7.090  -9.078   8.303  1.00  0.00     0.034 A 
ATOM     51  C   UNL     1      -1.952 -11.934  11.183  1.00  0.00     0.049 A 
ATOM     52  C   UNL     1      -6.753 -10.509   8.641  1.00  0.00     0.074 A 
ATOM     53  C   UNL     1      -1.808 -13.268  11.525  1.00  0.00     0.029 A 
ATOM     54  N   UNL     1      -3.181 -11.820  10.544  1.00  0.00    -0.354 N 
ATOM     55  N   UNL     1      -5.683 -10.990   9.232  1.00  0.00    -0.248 NA
ATOM     56  C   UNL     1      -7.747 -11.526   8.275  1.00  0.00     0.031 C 
ATOM     57  C   UNL     1      -2.909 -13.970  11.023  1.00  0.00     0.029 A 
ATOM     58  C   UNL     1      -3.785 -13.065  10.447  1.00  0.00     0.049 A 
ATOM     59  H   UNL     1      -3.566 -10.978  10.209  1.00  0.00     0.167 HD
ATOM     60  C   UNL     1      -5.892 -12.363   9.335  1.00  0.00     0.074 A 
ATOM     61  C   UNL     1      -7.196 -12.627   8.763  1.00  0.00     0.031 C 
ATOM     62  C   UNL     1      -5.081 -13.318   9.860  1.00  0.00     0.034 A 
BRANCH  49  63
ATOM     63  C   UNL     1       0.314 -11.141  12.028  1.00  0.00     0.023 A 
ATOM     64  C   UNL     1       0.707 -10.572  13.253  1.00  0.00     0.031 A 
ATOM     65  C   UNL     1       1.232 -11.980  11.372  1.00  0.00     0.131 A 
ATOM     66  C   UNL     1       2.006 -10.782  13.740  1.00  0.00     0.055 A 
ATOM     67  C   UNL     1       2.491 -12.257  11.907  1.00  0.00     0.041 A 
ATOM     68  F   UNL     1       0.926 -12.535  10.189  1.00  0.00    -0.206 F 
ATOM     69  C   UNL     1       2.892 -11.643  13.090  1.00  0.00     0.022 A 
BRANCH  66  70
ATOM     70  S   UNL     1       2.573  -9.789  15.149  1.00  0.00     0.124 S 
ATOM     71  O   UNL     1       2.396  -8.430  14.641  1.00  0.00    -0.237 OA
ATOM     72  O   UNL     1       1.661 -10.198  16.211  1.00  0.00    -0.237 OA
ATOM     73  O   UNL     1       3.963 -10.204  15.323  1.00  0.00    -0.744 OA
ENDBRANCH  66  70
ENDBRANCH  49  63
BRANCH  50  74
ATOM     74  C   UNL     1      -8.364  -8.738   7.606  1.00  0.00     0.023 A 
ATOM     75  C   UNL     1      -9.607  -8.983   8.210  1.00  0.00     0.031 A 
ATOM     76  C   UNL     1      -8.359  -8.202   6.305  1.00  0.00     0.131 A 
ATOM     77  C   UNL     1     -10.792  -8.741   7.497  1.00  0.00     0.055 A 
ATOM     78  C   UNL     1      -9.540  -7.907   5.623  1.00  0.00     0.041 A 
ATOM     79  F   UNL     1      -7.198  -7.945   5.681  1.00  0.00    -0.206 F 
ATOM     80  C   UNL     1     -10.767  -8.190   6.214  1.00  0.00     0.022 A 
BRANCH  77  81
ATOM     81  S   UNL     1     -12.369  -9.245   8.238  1.00  0.00     0.124 S 
ATOM     82  O   UNL     1     -12.156 -10.672   8.445  1.00  0.00    -0.237 OA
ATOM     83  O   UNL     1     -12.416  -8.421   9.441  1.00  0.00    -0.237 OA
ATOM     84  O   UNL     1     -13.352  -8.902   7.212  1.00  0.00    -0.744 OA
ENDBRANCH  77  81
ENDBRANCH  50  74
BRANCH  62  85
ATOM     85  C   UNL     1      -5.608 -14.733   9.874  1.00  0.00     0.023 A 
ATOM     86  C   UNL     1      -5.846 -15.448   8.687  1.00  0.00     0.031 A 
ATOM     87  C   UNL     1      -5.884 -15.372  11.096  1.00  0.00     0.131 A 
ATOM     88  C   UNL     1      -6.401 -16.736   8.746  1.00  0.00     0.055 A 
ATOM     89  C   UNL     1      -6.370 -16.679  11.150  1.00  0.00     0.041 A 
ATOM     90  F   UNL     1      -5.680 -14.737  12.261  1.00  0.00    -0.206 F 
ATOM     91  C   UNL     1      -6.645 -17.363   9.970  1.00  0.00     0.022 A 
BRANCH  88  92
ATOM     92  S   UNL     1      -6.895 -17.543   7.199  1.00  0.00     0.124 S 
ATOM     93  O   UNL     1      -7.850 -16.587   6.649  1.00  0.00    -0.237 OA
ATOM     94  O   UNL     1      -5.626 -17.657   6.487  1.00  0.00    -0.237 OA
ATOM     95  O   UNL     1      -7.472 -18.811   7.642  1.00  0.00    -0.744 OA
ENDBRANCH  88  92
ENDBRANCH  62  85
ENDBRANCH  36  37
ENDBRANCH  28  31
ENDBRANCH  26  27
ENDBRANCH  25  26
ENDBRANCH  24  25
ENDBRANCH  23  24
ENDBRANCH   1  23
TORSDOF 21
