REMARK SMILES O=C(C[C@H]1S/C(=[NH+]/N=C/c2cccc(Cl)c2)NC1=O)NCCCCCCNC(=O)c1ccc(-c2c3nc(c(-c4cc(S(=O)(=O)[O-])ccc4F)c4ccc([nH]4)c(-c4cc(S(=O)(=O)[O-])ccc4F)c4nc(c(-c5cc(S(=O)(=O)[O-])ccc5F)c5ccc2[nH]5)C=C4)C=C3)cc1
REMARK SMILES IDX 23 1 22 2 21 3 20 4 1 5 2 6 3 8 4 9 5 10 18 11 6 12 17 13
REMARK SMILES IDX 19 14 7 15 8 18 9 19 10 20 11 21 16 22 12 23 14 24 13 25
REMARK SMILES IDX 15 26 24 27 25 28 26 29 27 30 28 31 29 33 30 34 31 35 92 36
REMARK SMILES IDX 32 37 91 38 33 39 34 40 35 41 85 42 36 43 90 44 84 45 86 46
REMARK SMILES IDX 37 47 89 48 83 49 82 50 38 52 70 53 50 54 69 55 51 56 54 57
REMARK SMILES IDX 68 58 87 59 52 60 53 61 67 63 88 64 55 65 39 66 40 67 48 68
REMARK SMILES IDX 41 69 47 70 49 71 46 72 42 73 43 74 44 75 45 76 71 77 72 78
REMARK SMILES IDX 80 79 73 80 79 81 81 82 78 83 74 84 75 85 76 86 77 87 56 88
REMARK SMILES IDX 57 89 65 90 58 91 64 92 66 93 63 94 59 95 60 96 61 97 62 98
REMARK H PARENT 20 7 17 16 7 17 27 32 86 51 54 62
REMARK Flexibility Score: inf
ROOT
ATOM      1  C   UNL     1       4.100   2.812  -2.362  1.00  0.00     0.002 C 
ENDROOT
BRANCH   1   2
ATOM      2  C   UNL     1       2.599   2.724  -2.054  1.00  0.00     0.021 C 
BRANCH   2   3
ATOM      3  C   UNL     1       2.047   1.304  -1.934  1.00  0.00     0.116 C 
BRANCH   3   4
ATOM      4  N   UNL     1       2.707   0.562  -0.876  1.00  0.00    -0.356 N 
ATOM      5  O   UNL     1       0.792  -0.303   0.049  1.00  0.00    -0.275 OA
ATOM      6  C   UNL     1       2.015  -0.207   0.024  1.00  0.00     0.221 C 
ATOM      7  H   UNL     1       3.688   0.612  -0.802  1.00  0.00     0.163 HD
BRANCH   6   8
ATOM      8  C   UNL     1       2.867  -0.890   1.071  1.00  0.00     0.127 C 
BRANCH   8   9
ATOM      9  C   UNL     1       3.889  -1.898   0.561  1.00  0.00     0.183 C 
ATOM     10  S   UNL     1       4.066  -3.289   1.749  1.00  0.00    -0.020 SA
ATOM     11  C   UNL     1       3.595  -2.557  -0.775  1.00  0.00     0.322 C 
ATOM     12  C   UNL     1       3.687  -4.477   0.544  1.00  0.00     0.337 C 
ATOM     13  N   UNL     1       3.455  -3.904  -0.657  1.00  0.00    -0.202 N 
ATOM     14  O   UNL     1       3.578  -1.972  -1.850  1.00  0.00    -0.246 OA
ATOM     15  N   UNL     1       3.651  -5.745   0.776  1.00  0.00    -0.142 N 
ATOM     16  H   UNL     1       3.189  -4.451  -1.432  1.00  0.00     0.316 HD
ATOM     17  H   UNL     1       3.773  -6.143   1.668  1.00  0.00     0.343 HD
BRANCH  15  18
ATOM     18  N   UNL     1       3.417  -6.492  -0.386  1.00  0.00    -0.093 NA
ATOM     19  C   UNL     1       2.987  -7.679  -0.097  1.00  0.00     0.166 C 
BRANCH  19  20
ATOM     20  C   UNL     1       2.715  -8.679  -1.145  1.00  0.00    -0.002 A 
ATOM     21  C   UNL     1       3.205  -8.503  -2.444  1.00  0.00     0.010 A 
ATOM     22  C   UNL     1       1.971  -9.813  -0.816  1.00  0.00     0.030 A 
ATOM     23  C   UNL     1       2.948  -9.466  -3.420  1.00  0.00     0.002 A 
ATOM     24  C   UNL     1       1.711 -10.764  -1.802  1.00  0.00     0.041 A 
ATOM     25  C   UNL     1       2.197 -10.598  -3.099  1.00  0.00     0.020 A 
ATOM     26  Cl  UNL     1       0.780 -12.159  -1.414  1.00  0.00    -0.084 Cl
ENDBRANCH  19  20
ENDBRANCH  15  18
ENDBRANCH   8   9
ENDBRANCH   6   8
ENDBRANCH   3   4
ENDBRANCH   2   3
ENDBRANCH   1   2
BRANCH   1  27
ATOM     27  C   UNL     1       4.550   2.132  -3.659  1.00  0.00     0.002 C 
BRANCH  27  28
ATOM     28  C   UNL     1       3.867   2.633  -4.934  1.00  0.00     0.021 C 
BRANCH  28  29
ATOM     29  C   UNL     1       3.987   4.132  -5.194  1.00  0.00     0.116 C 
BRANCH  29  30
ATOM     30  N   UNL     1       5.364   4.562  -5.381  1.00  0.00    -0.352 N 
ATOM     31  C   UNL     1       5.911   5.324  -6.387  1.00  0.00     0.251 C 
ATOM     32  H   UNL     1       5.996   4.265  -4.687  1.00  0.00     0.163 HD
ATOM     33  O   UNL     1       7.130   5.456  -6.456  1.00  0.00    -0.269 OA
BRANCH  31  34
ATOM     34  C   UNL     1       5.034   5.951  -7.402  1.00  0.00     0.039 A 
ATOM     35  C   UNL     1       5.377   5.841  -8.752  1.00  0.00     0.014 A 
ATOM     36  C   UNL     1       3.874   6.635  -7.028  1.00  0.00     0.014 A 
ATOM     37  C   UNL     1       4.516   6.346  -9.730  1.00  0.00     0.010 A 
ATOM     38  C   UNL     1       2.986   7.079  -8.005  1.00  0.00     0.010 A 
ATOM     39  C   UNL     1       3.292   6.930  -9.367  1.00  0.00    -0.014 A 
BRANCH  39  40
ATOM     40  C   UNL     1       2.308   7.367 -10.394  1.00  0.00     0.031 A 
ATOM     41  C   UNL     1       1.935   8.818 -10.518  1.00  0.00     0.074 A 
ATOM     42  C   UNL     1       1.688   6.444 -11.156  1.00  0.00     0.049 A 
ATOM     43  N   UNL     1       1.028   9.379 -11.276  1.00  0.00    -0.248 NA
ATOM     44  C   UNL     1       2.660   9.757  -9.651  1.00  0.00     0.031 C 
ATOM     45  C   UNL     1       1.929   5.001 -11.096  1.00  0.00     0.029 A 
ATOM     46  N   UNL     1       0.714   6.577 -12.114  1.00  0.00    -0.354 N 
ATOM     47  C   UNL     1       1.063  10.736 -10.970  1.00  0.00     0.074 A 
ATOM     48  C   UNL     1       2.041  10.897  -9.913  1.00  0.00     0.031 C 
ATOM     49  C   UNL     1       1.130   4.384 -11.981  1.00  0.00     0.029 A 
ATOM     50  C   UNL     1       0.288   5.378 -12.639  1.00  0.00     0.049 A 
ATOM     51  H   UNL     1       0.355   7.448 -12.400  1.00  0.00     0.167 HD
ATOM     52  C   UNL     1       0.363  11.753 -11.533  1.00  0.00     0.034 A 
ATOM     53  C   UNL     1      -0.686   5.105 -13.530  1.00  0.00     0.034 A 
ATOM     54  C   UNL     1      -0.608  11.572 -12.587  1.00  0.00     0.049 A 
ATOM     55  C   UNL     1      -1.474   6.244 -14.123  1.00  0.00     0.074 A 
ATOM     56  C   UNL     1      -1.328  12.536 -13.272  1.00  0.00     0.029 A 
ATOM     57  N   UNL     1      -1.007  10.344 -13.100  1.00  0.00    -0.354 N 
ATOM     58  N   UNL     1      -1.385   7.529 -13.867  1.00  0.00    -0.248 NA
ATOM     59  C   UNL     1      -2.484   5.898 -15.130  1.00  0.00     0.031 C 
ATOM     60  C   UNL     1      -2.210  11.889 -14.145  1.00  0.00     0.029 A 
ATOM     61  C   UNL     1      -1.989  10.524 -14.064  1.00  0.00     0.049 A 
ATOM     62  H   UNL     1      -0.646   9.472 -12.820  1.00  0.00     0.167 HD
ATOM     63  C   UNL     1      -2.316   8.146 -14.700  1.00  0.00     0.074 A 
ATOM     64  C   UNL     1      -2.941   7.093 -15.475  1.00  0.00     0.031 C 
ATOM     65  C   UNL     1      -2.621   9.464 -14.815  1.00  0.00     0.034 A 
BRANCH  52  66
ATOM     66  C   UNL     1       0.607  13.143 -10.992  1.00  0.00     0.023 A 
ATOM     67  C   UNL     1       1.873  13.751 -11.065  1.00  0.00     0.031 A 
ATOM     68  C   UNL     1      -0.426  13.855 -10.356  1.00  0.00     0.131 A 
ATOM     69  C   UNL     1       2.097  14.984 -10.435  1.00  0.00     0.055 A 
ATOM     70  C   UNL     1      -0.218  15.123  -9.808  1.00  0.00     0.041 A 
ATOM     71  F   UNL     1      -1.652  13.322 -10.238  1.00  0.00    -0.206 F 
ATOM     72  C   UNL     1       1.054  15.686  -9.828  1.00  0.00     0.022 A 
BRANCH  69  73
ATOM     73  S   UNL     1       3.805  15.574 -10.276  1.00  0.00     0.124 S 
ATOM     74  O   UNL     1       4.437  14.463  -9.569  1.00  0.00    -0.237 OA
ATOM     75  O   UNL     1       4.206  15.758 -11.665  1.00  0.00    -0.237 OA
ATOM     76  O   UNL     1       3.672  16.803  -9.495  1.00  0.00    -0.744 OA
ENDBRANCH  69  73
ENDBRANCH  52  66
BRANCH  53  77
ATOM     77  C   UNL     1      -0.992   3.692 -13.893  1.00  0.00     0.023 A 
ATOM     78  C   UNL     1      -0.759   3.208 -15.190  1.00  0.00     0.031 A 
ATOM     79  C   UNL     1      -1.543   2.810 -12.947  1.00  0.00     0.131 A 
ATOM     80  C   UNL     1      -1.111   1.888 -15.515  1.00  0.00     0.055 A 
ATOM     81  C   UNL     1      -1.846   1.485 -13.262  1.00  0.00     0.041 A 
ATOM     82  F   UNL     1      -1.778   3.222 -11.691  1.00  0.00    -0.206 F 
ATOM     83  C   UNL     1      -1.640   1.020 -14.557  1.00  0.00     0.022 A 
BRANCH  80  84
ATOM     84  S   UNL     1      -0.926   1.338 -17.234  1.00  0.00     0.124 S 
ATOM     85  O   UNL     1      -1.784   2.281 -17.942  1.00  0.00    -0.237 OA
ATOM     86  O   UNL     1       0.509   1.489 -17.448  1.00  0.00    -0.237 OA
ATOM     87  O   UNL     1      -1.407  -0.042 -17.203  1.00  0.00    -0.744 OA
ENDBRANCH  80  84
ENDBRANCH  53  77
BRANCH  65  88
ATOM     88  C   UNL     1      -3.660   9.838 -15.845  1.00  0.00     0.023 A 
ATOM     89  C   UNL     1      -5.010   9.472 -15.701  1.00  0.00     0.031 A 
ATOM     90  C   UNL     1      -3.289  10.563 -16.991  1.00  0.00     0.131 A 
ATOM     91  C   UNL     1      -5.932   9.791 -16.710  1.00  0.00     0.055 A 
ATOM     92  C   UNL     1      -4.221  10.928 -17.964  1.00  0.00     0.041 A 
ATOM     93  F   UNL     1      -2.013  10.935 -17.182  1.00  0.00    -0.206 F 
ATOM     94  C   UNL     1      -5.549  10.531 -17.832  1.00  0.00     0.022 A 
BRANCH  91  95
ATOM     95  S   UNL     1      -7.626   9.157 -16.578  1.00  0.00     0.124 S 
ATOM     96  O   UNL     1      -7.408   7.715 -16.547  1.00  0.00    -0.237 OA
ATOM     97  O   UNL     1      -8.089   9.759 -15.332  1.00  0.00    -0.237 OA
ATOM     98  O   UNL     1      -8.276   9.660 -17.787  1.00  0.00    -0.744 OA
ENDBRANCH  91  95
ENDBRANCH  65  88
ENDBRANCH  39  40
ENDBRANCH  31  34
ENDBRANCH  29  30
ENDBRANCH  28  29
ENDBRANCH  27  28
ENDBRANCH   1  27
TORSDOF 19
