REMARK SMILES Nc1ccc(O)c(C(=O)NCCCCCCNC(=O)c2ccc(-c3c4nc(c(-c5cc(S(=O)(=O)[O-])ccc5F)c5ccc([nH]5)c(-c5cc(S(=O)(=O)[O-])ccc5F)c5nc(c(-c6cc(S(=O)(=O)[O-])ccc6F)c6ccc3[nH]6)C=C5)C=C4)cc2)c1
REMARK SMILES IDX 14 1 13 2 12 3 11 4 10 5 8 6 9 7 7 9 2 10 3 11 83 12 4 13
REMARK SMILES IDX 5 14 1 15 6 18 15 20 16 21 17 22 18 23 19 25 20 26 21 27
REMARK SMILES IDX 82 28 22 29 81 30 23 31 24 32 25 33 75 34 26 35 80 36 74 37
REMARK SMILES IDX 76 38 27 39 79 40 73 41 72 42 28 44 60 45 40 46 59 47 41 48
REMARK SMILES IDX 44 49 58 50 77 51 42 52 43 53 57 55 78 56 45 57 29 58 30 59
REMARK SMILES IDX 38 60 31 61 37 62 39 63 36 64 32 65 33 66 34 67 35 68 61 69
REMARK SMILES IDX 62 70 70 71 63 72 69 73 71 74 68 75 64 76 65 77 66 78 67 79
REMARK SMILES IDX 46 80 47 81 55 82 48 83 54 84 56 85 53 86 49 87 50 88 51 89
REMARK SMILES IDX 52 90
REMARK H PARENT 10 8 1 16 1 17 6 19 17 24 76 43 44 54
REMARK Flexibility Score: inf
ROOT
ATOM      1  C   UNL     1      -1.115  -7.032   0.062  1.00  0.00     0.002 C 
ENDROOT
BRANCH   1   2
ATOM      2  C   UNL     1      -0.624  -6.093  -1.049  1.00  0.00     0.002 C 
BRANCH   2   3
ATOM      3  C   UNL     1      -1.110  -4.640  -0.926  1.00  0.00     0.021 C 
BRANCH   3   4
ATOM      4  C   UNL     1      -0.619  -3.951   0.349  1.00  0.00     0.116 C 
BRANCH   4   5
ATOM      5  N   UNL     1       0.744  -3.490   0.162  1.00  0.00    -0.352 N 
ATOM      6  C   UNL     1       1.313  -2.269  -0.075  1.00  0.00     0.255 C 
ATOM      7  O   UNL     1       2.541  -2.256  -0.218  1.00  0.00    -0.269 OA
ATOM      8  H   UNL     1       1.405  -4.217   0.218  1.00  0.00     0.163 HD
BRANCH   6   9
ATOM      9  C   UNL     1       0.593  -0.962  -0.099  1.00  0.00     0.083 A 
ATOM     10  C   UNL     1      -1.422   0.422  -0.175  1.00  0.00     0.032 A 
ATOM     11  C   UNL     1      -0.645   1.564   0.009  1.00  0.00     0.029 A 
ATOM     12  C   UNL     1      -0.784  -0.820  -0.311  1.00  0.00     0.043 A 
ATOM     13  C   UNL     1       0.738   1.464   0.135  1.00  0.00     0.049 A 
ATOM     14  C   UNL     1       1.347   0.212   0.094  1.00  0.00     0.128 A 
BRANCH  10  15
ATOM     15  N   UNL     1      -2.793   0.532  -0.356  1.00  0.00    -0.399 N 
ATOM     16  H   UNL     1      -3.234   1.407  -0.259  1.00  0.00     0.156 HD
ATOM     17  H   UNL     1      -3.325  -0.265  -0.582  1.00  0.00     0.156 HD
ENDBRANCH  10  15
BRANCH  14  18
ATOM     18  O   UNL     1       2.712   0.222   0.238  1.00  0.00    -0.507 OA
ATOM     19  H   UNL     1       3.164   1.034   0.363  1.00  0.00     0.293 HD
ENDBRANCH  14  18
ENDBRANCH   6   9
ENDBRANCH   4   5
ENDBRANCH   3   4
ENDBRANCH   2   3
ENDBRANCH   1   2
BRANCH   1  20
ATOM     20  C   UNL     1      -2.633  -7.052   0.263  1.00  0.00     0.021 C 
BRANCH  20  21
ATOM     21  C   UNL     1      -3.418  -7.520  -0.959  1.00  0.00     0.116 C 
BRANCH  21  22
ATOM     22  N   UNL     1      -3.122  -8.906  -1.282  1.00  0.00    -0.352 N 
ATOM     23  C   UNL     1      -3.974  -9.979  -1.367  1.00  0.00     0.251 C 
ATOM     24  H   UNL     1      -2.175  -9.104  -1.466  1.00  0.00     0.163 HD
ATOM     25  O   UNL     1      -3.520 -11.117  -1.391  1.00  0.00    -0.269 OA
BRANCH  23  26
ATOM     26  C   UNL     1      -5.435  -9.752  -1.416  1.00  0.00     0.039 A 
ATOM     27  C   UNL     1      -6.275 -10.569  -0.655  1.00  0.00     0.014 A 
ATOM     28  C   UNL     1      -5.975  -8.746  -2.223  1.00  0.00     0.014 A 
ATOM     29  C   UNL     1      -7.653 -10.342  -0.663  1.00  0.00     0.010 A 
ATOM     30  C   UNL     1      -7.340  -8.475  -2.173  1.00  0.00     0.010 A 
ATOM     31  C   UNL     1      -8.194  -9.273  -1.398  1.00  0.00    -0.014 A 
BRANCH  31  32
ATOM     32  C   UNL     1      -9.652  -8.982  -1.373  1.00  0.00     0.031 A 
ATOM     33  C   UNL     1     -10.464  -9.096  -2.635  1.00  0.00     0.074 A 
ATOM     34  C   UNL     1     -10.228  -8.561  -0.229  1.00  0.00     0.049 A 
ATOM     35  N   UNL     1     -11.726  -8.815  -2.835  1.00  0.00    -0.248 NA
ATOM     36  C   UNL     1      -9.755  -9.560  -3.838  1.00  0.00     0.031 C 
ATOM     37  C   UNL     1      -9.534  -8.381   1.049  1.00  0.00     0.029 A 
ATOM     38  N   UNL     1     -11.523  -8.201   0.046  1.00  0.00    -0.354 N 
ATOM     39  C   UNL     1     -11.960  -9.055  -4.185  1.00  0.00     0.074 A 
ATOM     40  C   UNL     1     -10.693  -9.447  -4.766  1.00  0.00     0.031 C 
ATOM     41  C   UNL     1     -10.417  -7.973   1.975  1.00  0.00     0.029 A 
ATOM     42  C   UNL     1     -11.726  -7.810   1.350  1.00  0.00     0.049 A 
ATOM     43  H   UNL     1     -12.241  -8.220  -0.628  1.00  0.00     0.167 HD
ATOM     44  C   UNL     1     -13.127  -8.975  -4.871  1.00  0.00     0.034 A 
ATOM     45  C   UNL     1     -12.836  -7.360   1.968  1.00  0.00     0.034 A 
ATOM     46  C   UNL     1     -14.383  -8.597  -4.271  1.00  0.00     0.049 A 
ATOM     47  C   UNL     1     -14.115  -7.251   1.174  1.00  0.00     0.074 A 
ATOM     48  C   UNL     1     -15.635  -8.540  -4.859  1.00  0.00     0.029 A 
ATOM     49  N   UNL     1     -14.549  -8.202  -2.949  1.00  0.00    -0.354 N 
ATOM     50  N   UNL     1     -14.329  -7.532  -0.091  1.00  0.00    -0.248 NA
ATOM     51  C   UNL     1     -15.302  -6.774   1.894  1.00  0.00     0.031 C 
ATOM     52  C   UNL     1     -16.540  -8.041  -3.917  1.00  0.00     0.029 A 
ATOM     53  C   UNL     1     -15.874  -7.867  -2.715  1.00  0.00     0.049 A 
ATOM     54  H   UNL     1     -13.830  -8.166  -2.277  1.00  0.00     0.167 HD
ATOM     55  C   UNL     1     -15.686  -7.302  -0.305  1.00  0.00     0.074 A 
ATOM     56  C   UNL     1     -16.239  -6.874   0.963  1.00  0.00     0.031 C 
ATOM     57  C   UNL     1     -16.410  -7.436  -1.445  1.00  0.00     0.034 A 
BRANCH  44  58
ATOM     58  C   UNL     1     -13.092  -9.275  -6.351  1.00  0.00     0.023 A 
ATOM     59  C   UNL     1     -12.740 -10.545  -6.842  1.00  0.00     0.031 A 
ATOM     60  C   UNL     1     -13.409  -8.274  -7.287  1.00  0.00     0.131 A 
ATOM     61  C   UNL     1     -12.649 -10.761  -8.226  1.00  0.00     0.055 A 
ATOM     62  C   UNL     1     -13.396  -8.519  -8.661  1.00  0.00     0.041 A 
ATOM     63  F   UNL     1     -13.731  -7.036  -6.880  1.00  0.00    -0.206 F 
ATOM     64  C   UNL     1     -13.000  -9.764  -9.139  1.00  0.00     0.022 A 
BRANCH  61  65
ATOM     65  S   UNL     1     -11.934 -12.320  -8.814  1.00  0.00     0.124 S 
ATOM     66  O   UNL     1     -10.605 -12.283  -8.207  1.00  0.00    -0.237 OA
ATOM     67  O   UNL     1     -12.855 -13.313  -8.274  1.00  0.00    -0.237 OA
ATOM     68  O   UNL     1     -11.951 -12.178 -10.268  1.00  0.00    -0.744 OA
ENDBRANCH  61  65
ENDBRANCH  44  58
BRANCH  45  69
ATOM     69  C   UNL     1     -12.800  -6.965   3.407  1.00  0.00     0.023 A 
ATOM     70  C   UNL     1     -13.578  -7.640   4.360  1.00  0.00     0.031 A 
ATOM     71  C   UNL     1     -12.034  -5.868   3.841  1.00  0.00     0.131 A 
ATOM     72  C   UNL     1     -13.622  -7.177   5.684  1.00  0.00     0.055 A 
ATOM     73  C   UNL     1     -12.031  -5.450   5.173  1.00  0.00     0.041 A 
ATOM     74  F   UNL     1     -11.268  -5.187   2.973  1.00  0.00    -0.206 F 
ATOM     75  C   UNL     1     -12.842  -6.096   6.101  1.00  0.00     0.022 A 
BRANCH  72  76
ATOM     76  S   UNL     1     -14.799  -7.944   6.832  1.00  0.00     0.124 S 
ATOM     77  O   UNL     1     -16.063  -7.749   6.133  1.00  0.00    -0.237 OA
ATOM     78  O   UNL     1     -14.305  -9.315   6.899  1.00  0.00    -0.237 OA
ATOM     79  O   UNL     1     -14.635  -7.163   8.057  1.00  0.00    -0.744 OA
ENDBRANCH  72  76
ENDBRANCH  45  69
BRANCH  57  80
ATOM     80  C   UNL     1     -17.893  -7.166  -1.353  1.00  0.00     0.023 A 
ATOM     81  C   UNL     1     -18.399  -5.883  -1.077  1.00  0.00     0.031 A 
ATOM     82  C   UNL     1     -18.813  -8.214  -1.534  1.00  0.00     0.131 A 
ATOM     83  C   UNL     1     -19.781  -5.694  -0.931  1.00  0.00     0.055 A 
ATOM     84  C   UNL     1     -20.191  -8.006  -1.454  1.00  0.00     0.041 A 
ATOM     85  F   UNL     1     -18.387  -9.460  -1.797  1.00  0.00    -0.206 F 
ATOM     86  C   UNL     1     -20.681  -6.743  -1.137  1.00  0.00     0.022 A 
BRANCH  83  87
ATOM     87  S   UNL     1     -20.384  -4.077  -0.373  1.00  0.00     0.124 S 
ATOM     88  O   UNL     1     -19.697  -3.922   0.905  1.00  0.00    -0.237 OA
ATOM     89  O   UNL     1     -19.942  -3.191  -1.445  1.00  0.00    -0.237 OA
ATOM     90  O   UNL     1     -21.831  -4.263  -0.281  1.00  0.00    -0.744 OA
ENDBRANCH  83  87
ENDBRANCH  57  80
ENDBRANCH  31  32
ENDBRANCH  23  26
ENDBRANCH  21  22
ENDBRANCH  20  21
ENDBRANCH   1  20
TORSDOF 18
