REMARK SMILES O=C(NCCCCCCNC(=O)[C@H]1CCC(=O)N(C2CCCCC2)[C@H]1c1ccccc1)c1ccc(-c2c3nc(c(-c4cc(S(=O)(=O)[O-])ccc4F)c4ccc([nH]4)c(-c4cc(S(=O)(=O)[O-])ccc4F)c4nc(c(-c5cc(S(=O)(=O)[O-])ccc5F)c5ccc2[nH]5)C=C4)C=C3)cc1
REMARK SMILES IDX 5 1 4 2 3 3 1 4 2 5 32 7 33 8 94 9 34 10 93 11 35 12 36 13
REMARK SMILES IDX 37 14 87 15 38 16 92 17 86 18 88 19 39 20 91 21 85 22 84 23
REMARK SMILES IDX 40 25 72 26 52 27 71 28 53 29 56 30 70 31 89 32 54 33 55 34
REMARK SMILES IDX 69 36 90 37 57 38 41 39 42 40 50 41 43 42 49 43 51 44 48 45
REMARK SMILES IDX 44 46 45 47 46 48 47 49 73 50 74 51 82 52 75 53 81 54 83 55
REMARK SMILES IDX 80 56 76 57 77 58 78 59 79 60 58 61 59 62 67 63 60 64 66 65
REMARK SMILES IDX 68 66 65 67 61 68 62 69 63 70 64 71 6 72 7 73 8 74 9 75
REMARK SMILES IDX 10 76 11 77 12 79 13 80 14 81 25 82 15 83 18 84 16 85 17 86
REMARK SMILES IDX 26 87 27 88 31 89 28 90 30 91 29 92 19 93 20 94 24 95 21 96
REMARK SMILES IDX 23 97 22 98
REMARK H PARENT 3 6 88 24 56 35 10 78
REMARK Flexibility Score: inf
ROOT
ATOM      1  C   UNL     1       4.232   3.443   1.038  1.00  0.00     0.021 C 
ENDROOT
BRANCH   1   2
ATOM      2  C   UNL     1       3.853   4.172  -0.243  1.00  0.00     0.116 C 
BRANCH   2   3
ATOM      3  N   UNL     1       3.671   3.258  -1.358  1.00  0.00    -0.352 N 
ATOM      4  O   UNL     1       2.502   2.170  -2.951  1.00  0.00    -0.269 OA
ATOM      5  C   UNL     1       2.579   3.123  -2.178  1.00  0.00     0.251 C 
ATOM      6  H   UNL     1       4.429   2.659  -1.550  1.00  0.00     0.163 HD
BRANCH   5   7
ATOM      7  C   UNL     1       1.497   4.128  -2.116  1.00  0.00     0.039 A 
ATOM      8  C   UNL     1       1.805   5.492  -2.099  1.00  0.00     0.014 A 
ATOM      9  C   UNL     1       0.166   3.705  -2.094  1.00  0.00     0.014 A 
ATOM     10  C   UNL     1       0.788   6.430  -1.963  1.00  0.00     0.010 A 
ATOM     11  C   UNL     1      -0.859   4.653  -2.040  1.00  0.00     0.010 A 
ATOM     12  C   UNL     1      -0.555   6.022  -1.973  1.00  0.00    -0.014 A 
BRANCH  12  13
ATOM     13  C   UNL     1      -1.624   7.047  -2.062  1.00  0.00     0.031 A 
ATOM     14  C   UNL     1      -2.619   7.239  -0.954  1.00  0.00     0.074 A 
ATOM     15  C   UNL     1      -1.689   7.793  -3.184  1.00  0.00     0.049 A 
ATOM     16  N   UNL     1      -3.640   8.054  -0.903  1.00  0.00    -0.248 NA
ATOM     17  C   UNL     1      -2.453   6.408   0.248  1.00  0.00     0.031 C 
ATOM     18  C   UNL     1      -0.770   7.677  -4.322  1.00  0.00     0.029 A 
ATOM     19  N   UNL     1      -2.555   8.786  -3.562  1.00  0.00    -0.354 N 
ATOM     20  C   UNL     1      -4.255   7.823   0.322  1.00  0.00     0.074 A 
ATOM     21  C   UNL     1      -3.495   6.781   0.981  1.00  0.00     0.031 C 
ATOM     22  C   UNL     1      -1.111   8.573  -5.258  1.00  0.00     0.029 A 
ATOM     23  C   UNL     1      -2.317   9.268  -4.829  1.00  0.00     0.049 A 
ATOM     24  H   UNL     1      -3.277   9.122  -2.984  1.00  0.00     0.167 HD
ATOM     25  C   UNL     1      -5.354   8.428   0.836  1.00  0.00     0.034 A 
ATOM     26  C   UNL     1      -3.018  10.134  -5.586  1.00  0.00     0.034 A 
ATOM     27  C   UNL     1      -6.086   9.471   0.158  1.00  0.00     0.049 A 
ATOM     28  C   UNL     1      -4.268  10.740  -5.006  1.00  0.00     0.074 A 
ATOM     29  C   UNL     1      -7.159  10.210   0.626  1.00  0.00     0.029 A 
ATOM     30  N   UNL     1      -5.843   9.905  -1.139  1.00  0.00    -0.354 N 
ATOM     31  N   UNL     1      -4.793  10.562  -3.816  1.00  0.00    -0.248 NA
ATOM     32  C   UNL     1      -5.022  11.658  -5.868  1.00  0.00     0.031 C 
ATOM     33  C   UNL     1      -7.619  11.023  -0.414  1.00  0.00     0.029 A 
ATOM     34  C   UNL     1      -6.784  10.855  -1.507  1.00  0.00     0.049 A 
ATOM     35  H   UNL     1      -5.111   9.584  -1.713  1.00  0.00     0.167 HD
ATOM     36  C   UNL     1      -5.933  11.357  -3.784  1.00  0.00     0.074 A 
ATOM     37  C   UNL     1      -6.001  12.038  -5.060  1.00  0.00     0.031 C 
ATOM     38  C   UNL     1      -6.847  11.508  -2.793  1.00  0.00     0.034 A 
BRANCH  25  39
ATOM     39  C   UNL     1      -5.875   7.952   2.170  1.00  0.00     0.023 A 
ATOM     40  C   UNL     1      -5.167   8.153   3.366  1.00  0.00     0.031 A 
ATOM     41  C   UNL     1      -7.134   7.328   2.244  1.00  0.00     0.131 A 
ATOM     42  C   UNL     1      -5.709   7.705   4.582  1.00  0.00     0.055 A 
ATOM     43  C   UNL     1      -7.695   6.941   3.462  1.00  0.00     0.041 A 
ATOM     44  F   UNL     1      -7.846   7.093   1.131  1.00  0.00    -0.206 F 
ATOM     45  C   UNL     1      -6.978   7.124   4.641  1.00  0.00     0.022 A 
BRANCH  42  46
ATOM     46  S   UNL     1      -4.693   7.814   6.081  1.00  0.00     0.124 S 
ATOM     47  O   UNL     1      -3.534   7.003   5.714  1.00  0.00    -0.237 OA
ATOM     48  O   UNL     1      -4.457   9.248   6.199  1.00  0.00    -0.237 OA
ATOM     49  O   UNL     1      -5.546   7.234   7.117  1.00  0.00    -0.744 OA
ENDBRANCH  42  46
ENDBRANCH  25  39
BRANCH  26  50
ATOM     50  C   UNL     1      -2.606  10.418  -6.991  1.00  0.00     0.023 A 
ATOM     51  C   UNL     1      -2.285  11.720  -7.403  1.00  0.00     0.031 A 
ATOM     52  C   UNL     1      -2.589   9.398  -7.960  1.00  0.00     0.131 A 
ATOM     53  C   UNL     1      -2.019  11.977  -8.757  1.00  0.00     0.055 A 
ATOM     54  C   UNL     1      -2.254   9.647  -9.291  1.00  0.00     0.041 A 
ATOM     55  F   UNL     1      -2.891   8.133  -7.623  1.00  0.00    -0.206 F 
ATOM     56  C   UNL     1      -1.985  10.948  -9.700  1.00  0.00     0.022 A 
BRANCH  53  57
ATOM     57  S   UNL     1      -1.845  13.702  -9.289  1.00  0.00     0.124 S 
ATOM     58  O   UNL     1      -3.082  14.292  -8.789  1.00  0.00    -0.237 OA
ATOM     59  O   UNL     1      -0.620  14.105  -8.607  1.00  0.00    -0.237 OA
ATOM     60  O   UNL     1      -1.745  13.600 -10.743  1.00  0.00    -0.744 OA
ENDBRANCH  53  57
ENDBRANCH  26  50
BRANCH  38  61
ATOM     61  C   UNL     1      -7.983  12.462  -3.056  1.00  0.00     0.023 A 
ATOM     62  C   UNL     1      -8.967  12.182  -4.019  1.00  0.00     0.031 A 
ATOM     63  C   UNL     1      -8.079  13.668  -2.340  1.00  0.00     0.131 A 
ATOM     64  C   UNL     1      -9.978  13.118  -4.276  1.00  0.00     0.055 A 
ATOM     65  C   UNL     1      -9.123  14.568  -2.557  1.00  0.00     0.041 A 
ATOM     66  F   UNL     1      -7.162  13.988  -1.413  1.00  0.00    -0.206 F 
ATOM     67  C   UNL     1     -10.074  14.300  -3.538  1.00  0.00     0.022 A 
BRANCH  64  68
ATOM     68  S   UNL     1     -11.127  12.805  -5.644  1.00  0.00     0.124 S 
ATOM     69  O   UNL     1     -10.228  12.775  -6.793  1.00  0.00    -0.237 OA
ATOM     70  O   UNL     1     -11.723  11.527  -5.267  1.00  0.00    -0.237 OA
ATOM     71  O   UNL     1     -12.036  13.949  -5.596  1.00  0.00    -0.744 OA
ENDBRANCH  64  68
ENDBRANCH  38  61
ENDBRANCH  12  13
ENDBRANCH   5   7
ENDBRANCH   2   3
ENDBRANCH   1   2
BRANCH   1  72
ATOM     72  C   UNL     1       5.597   2.756   0.998  1.00  0.00     0.002 C 
BRANCH  72  73
ATOM     73  C   UNL     1       6.779   3.672   0.665  1.00  0.00     0.002 C 
BRANCH  73  74
ATOM     74  C   UNL     1       6.906   4.927   1.539  1.00  0.00     0.021 C 
BRANCH  74  75
ATOM     75  C   UNL     1       6.939   4.658   3.041  1.00  0.00     0.116 C 
BRANCH  75  76
ATOM     76  N   UNL     1       8.072   3.829   3.408  1.00  0.00    -0.356 N 
ATOM     77  C   UNL     1       9.022   4.024   4.365  1.00  0.00     0.225 C 
ATOM     78  H   UNL     1       8.168   2.999   2.887  1.00  0.00     0.163 HD
ATOM     79  O   UNL     1       9.836   3.123   4.564  1.00  0.00    -0.275 OA
BRANCH  77  80
ATOM     80  C   UNL     1       9.027   5.323   5.149  1.00  0.00     0.106 C 
ATOM     81  C   UNL     1       9.751   5.173   6.478  1.00  0.00     0.026 C 
ATOM     82  C   UNL     1       9.617   6.529   4.392  1.00  0.00     0.128 C 
ATOM     83  C   UNL     1       9.455   6.393   7.322  1.00  0.00     0.101 C 
ATOM     84  N   UNL     1       9.509   7.764   5.218  1.00  0.00    -0.332 N 
ATOM     85  C   UNL     1       9.522   7.734   6.612  1.00  0.00     0.223 C 
ATOM     86  O   UNL     1       9.509   8.753   7.306  1.00  0.00    -0.275 OA
BRANCH  82  87
ATOM     87  C   UNL     1      11.033   6.315   3.844  1.00  0.00    -0.025 A 
ATOM     88  C   UNL     1      12.174   6.847   4.466  1.00  0.00     0.006 A 
ATOM     89  C   UNL     1      11.222   5.563   2.670  1.00  0.00     0.006 A 
ATOM     90  C   UNL     1      13.447   6.669   3.919  1.00  0.00     0.000 A 
ATOM     91  C   UNL     1      12.500   5.354   2.143  1.00  0.00     0.000 A 
ATOM     92  C   UNL     1      13.611   5.918   2.760  1.00  0.00     0.000 A 
ENDBRANCH  82  87
BRANCH  84  93
ATOM     93  C   UNL     1       9.447   9.071   4.508  1.00  0.00     0.085 C 
ATOM     94  C   UNL     1       8.089   9.766   4.735  1.00  0.00     0.025 C 
ATOM     95  C   UNL     1      10.644   9.994   4.824  1.00  0.00     0.025 C 
ATOM     96  C   UNL     1       8.023  11.152   4.098  1.00  0.00     0.002 C 
ATOM     97  C   UNL     1      10.516  11.377   4.195  1.00  0.00     0.002 C 
ATOM     98  C   UNL     1       9.186  12.029   4.546  1.00  0.00     0.000 C 
ENDBRANCH  84  93
ENDBRANCH  77  80
ENDBRANCH  75  76
ENDBRANCH  74  75
ENDBRANCH  73  74
ENDBRANCH  72  73
ENDBRANCH   1  72
TORSDOF 18
