REMARK SMILES CC[C@@H](C)Oc1cccc(C(=O)Nc2ccc(Cl)c(C(=O)NCCCCCCNC(=O)c3ccc(-c4c5nc(c(-c6cc(S(=O)(=O)[O-])ccc6F)c6ccc([nH]6)c(-c6cc(S(=O)(=O)[O-])ccc6F)c6nc(c(-c7cc(S(=O)(=O)[O-])ccc7F)c7ccc4[nH]7)C=C6)C=C5)cc3)c2)c1
REMARK SMILES IDX 24 1 23 2 22 3 20 4 21 5 19 7 14 8 15 9 95 10 16 11 17 12
REMARK SMILES IDX 18 13 13 14 11 15 12 16 10 18 6 19 7 20 96 21 8 22 9 23 5 24
REMARK SMILES IDX 3 25 4 26 2 27 1 28 25 29 26 30 27 31 28 32 29 33 30 34
REMARK SMILES IDX 31 36 32 37 33 38 94 39 34 40 93 41 35 42 36 43 37 44 87 45
REMARK SMILES IDX 38 46 92 47 86 48 88 49 39 50 91 51 85 52 84 53 40 55 72 56
REMARK SMILES IDX 52 57 71 58 53 59 56 60 70 61 89 62 54 63 55 64 69 66 90 67
REMARK SMILES IDX 57 68 41 69 42 70 50 71 43 72 49 73 51 74 48 75 44 76 45 77
REMARK SMILES IDX 46 78 47 79 73 80 74 81 82 82 75 83 81 84 83 85 80 86 76 87
REMARK SMILES IDX 77 88 78 89 79 90 58 91 59 92 67 93 60 94 66 95 68 96 65 97
REMARK SMILES IDX 61 98 62 99 63 100 64 101
REMARK H PARENT 22 6 13 17 29 35 88 54 56 65
REMARK Flexibility Score: inf
ROOT
ATOM      1  C   UNL     1      -0.606   6.334  -0.229  1.00  0.00     0.021 C 
ENDROOT
BRANCH   1   2
ATOM      2  C   UNL     1      -0.110   5.044  -0.877  1.00  0.00     0.116 C 
BRANCH   2   3
ATOM      3  N   UNL     1       1.010   4.524  -0.125  1.00  0.00    -0.352 N 
ATOM      4  C   UNL     1       1.133   3.699   0.965  1.00  0.00     0.252 C 
ATOM      5  O   UNL     1       2.232   3.743   1.516  1.00  0.00    -0.269 OA
ATOM      6  H   UNL     1       1.879   4.830  -0.472  1.00  0.00     0.163 HD
BRANCH   4   7
ATOM      7  C   UNL     1       0.072   2.742   1.435  1.00  0.00     0.060 A 
ATOM      8  C   UNL     1      -2.216   1.865   1.311  1.00  0.00     0.042 A 
ATOM      9  C   UNL     1      -1.856   0.767   2.081  1.00  0.00     0.028 A 
ATOM     10  C   UNL     1      -1.286   2.888   1.094  1.00  0.00     0.041 A 
ATOM     11  C   UNL     1      -0.540   0.635   2.516  1.00  0.00     0.023 A 
ATOM     12  C   UNL     1       0.428   1.593   2.175  1.00  0.00     0.053 A 
ATOM     13  Cl  UNL     1       2.037   1.191   2.680  1.00  0.00    -0.083 Cl
BRANCH   8  14
ATOM     14  N   UNL     1      -3.511   1.878   0.768  1.00  0.00    -0.322 N 
ATOM     15  C   UNL     1      -4.009   2.368  -0.426  1.00  0.00     0.255 C 
ATOM     16  O   UNL     1      -5.229   2.498  -0.535  1.00  0.00    -0.269 OA
ATOM     17  H   UNL     1      -4.191   1.461   1.345  1.00  0.00     0.170 HD
BRANCH  15  18
ATOM     18  C   UNL     1      -3.155   2.639  -1.624  1.00  0.00     0.043 A 
ATOM     19  C   UNL     1      -1.097   2.380  -2.895  1.00  0.00     0.120 A 
ATOM     20  C   UNL     1      -1.567   3.319  -3.817  1.00  0.00     0.046 A 
ATOM     21  C   UNL     1      -1.935   1.983  -1.853  1.00  0.00     0.060 A 
ATOM     22  C   UNL     1      -2.841   3.874  -3.686  1.00  0.00     0.005 A 
ATOM     23  C   UNL     1      -3.623   3.554  -2.576  1.00  0.00     0.014 A 
BRANCH  19  24
ATOM     24  O   UNL     1       0.227   2.073  -3.025  1.00  0.00    -0.491 OA
BRANCH  24  25
ATOM     25  C   UNL     1       0.786   0.789  -2.707  1.00  0.00     0.170 C 
ATOM     26  C   UNL     1       0.114  -0.321  -3.503  1.00  0.00     0.053 C 
BRANCH  25  27
ATOM     27  C   UNL     1       0.989   0.536  -1.206  1.00  0.00     0.041 C 
ATOM     28  C   UNL     1       1.622  -0.802  -0.858  1.00  0.00     0.008 C 
ENDBRANCH  25  27
ENDBRANCH  24  25
ENDBRANCH  19  24
ENDBRANCH  15  18
ENDBRANCH   8  14
ENDBRANCH   4   7
ENDBRANCH   2   3
ENDBRANCH   1   2
BRANCH   1  29
ATOM     29  C   UNL     1       0.131   7.561  -0.773  1.00  0.00     0.002 C 
BRANCH  29  30
ATOM     30  C   UNL     1      -0.150   7.848  -2.254  1.00  0.00     0.002 C 
BRANCH  30  31
ATOM     31  C   UNL     1      -1.634   7.992  -2.606  1.00  0.00     0.021 C 
BRANCH  31  32
ATOM     32  C   UNL     1      -2.360   9.067  -1.806  1.00  0.00     0.116 C 
BRANCH  32  33
ATOM     33  N   UNL     1      -1.769  10.378  -2.024  1.00  0.00    -0.352 N 
ATOM     34  C   UNL     1      -2.368  11.527  -2.466  1.00  0.00     0.251 C 
ATOM     35  H   UNL     1      -0.807  10.449  -1.827  1.00  0.00     0.163 HD
ATOM     36  O   UNL     1      -1.675  12.472  -2.849  1.00  0.00    -0.269 OA
BRANCH  34  37
ATOM     37  C   UNL     1      -3.840  11.617  -2.493  1.00  0.00     0.039 A 
ATOM     38  C   UNL     1      -4.469  12.165  -3.612  1.00  0.00     0.014 A 
ATOM     39  C   UNL     1      -4.597  11.159  -1.409  1.00  0.00     0.014 A 
ATOM     40  C   UNL     1      -5.862  12.209  -3.665  1.00  0.00     0.010 A 
ATOM     41  C   UNL     1      -5.984  11.135  -1.496  1.00  0.00     0.010 A 
ATOM     42  C   UNL     1      -6.631  11.667  -2.621  1.00  0.00    -0.014 A 
BRANCH  42  43
ATOM     43  C   UNL     1      -8.115  11.660  -2.684  1.00  0.00     0.031 A 
ATOM     44  C   UNL     1      -8.914  12.445  -1.680  1.00  0.00     0.074 A 
ATOM     45  C   UNL     1      -8.738  10.904  -3.610  1.00  0.00     0.049 A 
ATOM     46  N   UNL     1     -10.211  12.517  -1.528  1.00  0.00    -0.248 NA
ATOM     47  C   UNL     1      -8.150  13.228  -0.697  1.00  0.00     0.031 C 
ATOM     48  C   UNL     1      -8.065  10.074  -4.613  1.00  0.00     0.029 A 
ATOM     49  N   UNL     1     -10.072  10.705  -3.857  1.00  0.00    -0.354 N 
ATOM     50  C   UNL     1     -10.419  13.340  -0.426  1.00  0.00     0.074 A 
ATOM     51  C   UNL     1      -9.112  13.690   0.087  1.00  0.00     0.031 C 
ATOM     52  C   UNL     1      -8.990   9.482  -5.385  1.00  0.00     0.029 A 
ATOM     53  C   UNL     1     -10.319   9.846  -4.904  1.00  0.00     0.049 A 
ATOM     54  H   UNL     1     -10.786  11.136  -3.335  1.00  0.00     0.167 HD
ATOM     55  C   UNL     1     -11.592  13.780   0.094  1.00  0.00     0.034 A 
ATOM     56  C   UNL     1     -11.484   9.395  -5.409  1.00  0.00     0.034 A 
ATOM     57  C   UNL     1     -12.885  13.427  -0.442  1.00  0.00     0.049 A 
ATOM     58  C   UNL     1     -12.775   9.871  -4.792  1.00  0.00     0.074 A 
ATOM     59  C   UNL     1     -14.134  13.862  -0.034  1.00  0.00     0.029 A 
ATOM     60  N   UNL     1     -13.097  12.544  -1.494  1.00  0.00    -0.354 N 
ATOM     61  N   UNL     1     -12.956  10.695  -3.785  1.00  0.00    -0.248 NA
ATOM     62  C   UNL     1     -14.018   9.365  -5.386  1.00  0.00     0.031 C 
ATOM     63  C   UNL     1     -15.101  13.185  -0.785  1.00  0.00     0.029 A 
ATOM     64  C   UNL     1     -14.457  12.393  -1.722  1.00  0.00     0.049 A 
ATOM     65  H   UNL     1     -12.386  12.092  -2.004  1.00  0.00     0.167 HD
ATOM     66  C   UNL     1     -14.335  10.832  -3.650  1.00  0.00     0.074 A 
ATOM     67  C   UNL     1     -14.934  10.017  -4.687  1.00  0.00     0.031 C 
ATOM     68  C   UNL     1     -15.042  11.568  -2.754  1.00  0.00     0.034 A 
BRANCH  55  69
ATOM     69  C   UNL     1     -11.525  14.661   1.320  1.00  0.00     0.023 A 
ATOM     70  C   UNL     1     -10.890  15.915   1.298  1.00  0.00     0.031 A 
ATOM     71  C   UNL     1     -12.084  14.230   2.536  1.00  0.00     0.131 A 
ATOM     72  C   UNL     1     -10.760  16.657   2.482  1.00  0.00     0.055 A 
ATOM     73  C   UNL     1     -12.028  15.013   3.692  1.00  0.00     0.041 A 
ATOM     74  F   UNL     1     -12.685  13.033   2.627  1.00  0.00    -0.206 F 
ATOM     75  C   UNL     1     -11.349  16.227   3.673  1.00  0.00     0.022 A 
BRANCH  72  76
ATOM     76  S   UNL     1      -9.682  18.116   2.478  1.00  0.00     0.124 S 
ATOM     77  O   UNL     1      -8.406  17.538   2.062  1.00  0.00    -0.237 OA
ATOM     78  O   UNL     1     -10.335  18.987   1.508  1.00  0.00    -0.237 OA
ATOM     79  O   UNL     1      -9.726  18.579   3.863  1.00  0.00    -0.744 OA
ENDBRANCH  72  76
ENDBRANCH  55  69
BRANCH  56  80
ATOM     80  C   UNL     1     -11.493   8.438  -6.553  1.00  0.00     0.023 A 
ATOM     81  C   UNL     1     -12.060   8.795  -7.787  1.00  0.00     0.031 A 
ATOM     82  C   UNL     1     -10.977   7.137  -6.417  1.00  0.00     0.131 A 
ATOM     83  C   UNL     1     -12.143   7.847  -8.819  1.00  0.00     0.055 A 
ATOM     84  C   UNL     1     -11.011   6.216  -7.466  1.00  0.00     0.041 A 
ATOM     85  F   UNL     1     -10.421   6.744  -5.260  1.00  0.00    -0.206 F 
ATOM     86  C   UNL     1     -11.610   6.565  -8.672  1.00  0.00     0.022 A 
BRANCH  83  87
ATOM     87  S   UNL     1     -13.045   8.288 -10.330  1.00  0.00     0.124 S 
ATOM     88  O   UNL     1     -14.364   8.619  -9.802  1.00  0.00    -0.237 OA
ATOM     89  O   UNL     1     -12.257   9.406 -10.838  1.00  0.00    -0.237 OA
ATOM     90  O   UNL     1     -12.981   7.068 -11.132  1.00  0.00    -0.744 OA
ENDBRANCH  83  87
ENDBRANCH  56  80
BRANCH  68  91
ATOM     91  C   UNL     1     -16.545  11.561  -2.895  1.00  0.00     0.023 A 
ATOM     92  C   UNL     1     -17.307  10.399  -2.679  1.00  0.00     0.031 A 
ATOM     93  C   UNL     1     -17.224  12.737  -3.262  1.00  0.00     0.131 A 
ATOM     94  C   UNL     1     -18.694  10.424  -2.889  1.00  0.00     0.055 A 
ATOM     95  C   UNL     1     -18.612  12.772  -3.404  1.00  0.00     0.041 A 
ATOM     96  F   UNL     1     -16.548  13.876  -3.485  1.00  0.00    -0.206 F 
ATOM     97  C   UNL     1     -19.353  11.607  -3.231  1.00  0.00     0.022 A 
BRANCH  94  98
ATOM     98  S   UNL     1     -19.615   8.864  -2.808  1.00  0.00     0.124 S 
ATOM     99  O   UNL     1     -18.945   8.062  -3.826  1.00  0.00    -0.237 OA
ATOM    100  O   UNL     1     -19.402   8.447  -1.425  1.00  0.00    -0.237 OA
ATOM    101  O   UNL     1     -20.985   9.257  -3.131  1.00  0.00    -0.744 OA
ENDBRANCH  94  98
ENDBRANCH  68  91
ENDBRANCH  42  43
ENDBRANCH  34  37
ENDBRANCH  32  33
ENDBRANCH  31  32
ENDBRANCH  30  31
ENDBRANCH  29  30
ENDBRANCH   1  29
TORSDOF 21
