REMARK SMILES Cc1c(C(=O)NCCCCCCNC(=O)c2ccc(-c3c4nc(c(-c5cc(S(=O)(=O)[O-])ccc5F)c5ccc([nH]5)c(-c5cc(S(=O)(=O)[O-])ccc5F)c5nc(c(-c6cc(S(=O)(=O)[O-])ccc6F)c6ccc3[nH]6)C=C5)C=C4)cc2)nnn1-c1cccc2c1CC[N@@H+](C)C2
REMARK SMILES IDX 10 1 9 2 8 3 7 4 6 5 4 6 5 7 3 9 1 10 2 11 81 12 79 13 80 14
REMARK SMILES IDX 82 15 83 16 87 17 84 18 86 19 88 20 85 21 92 22 89 23 90 24
REMARK SMILES IDX 91 25 11 27 12 28 13 29 14 30 15 32 16 33 17 34 78 35 18 36
REMARK SMILES IDX 77 37 19 38 20 39 21 40 71 41 22 42 76 43 70 44 72 45 23 46
REMARK SMILES IDX 75 47 69 48 68 49 24 51 56 52 36 53 55 54 37 55 40 56 54 57
REMARK SMILES IDX 73 58 38 59 39 60 53 62 74 63 41 64 25 65 26 66 34 67 27 68
REMARK SMILES IDX 33 69 35 70 32 71 28 72 29 73 30 74 31 75 57 76 58 77 66 78
REMARK SMILES IDX 59 79 65 80 67 81 64 82 60 83 61 84 62 85 63 86 42 87 43 88
REMARK SMILES IDX 51 89 44 90 50 91 52 92 49 93 45 94 46 95 47 96 48 97
REMARK H PARENT 6 8 90 26 13 31 72 50 40 61
REMARK Flexibility Score: inf
ROOT
ATOM      1  C   UNL     1       0.554  -5.213   0.857  1.00  0.00     0.002 C 
ENDROOT
BRANCH   1   2
ATOM      2  C   UNL     1      -0.736  -4.417   0.592  1.00  0.00     0.002 C 
BRANCH   2   3
ATOM      3  C   UNL     1      -0.557  -2.902   0.443  1.00  0.00     0.021 C 
BRANCH   3   4
ATOM      4  C   UNL     1       0.487  -2.520  -0.607  1.00  0.00     0.116 C 
BRANCH   4   5
ATOM      5  N   UNL     1      -0.139  -2.230  -1.867  1.00  0.00    -0.351 N 
ATOM      6  C   UNL     1      -0.033  -1.191  -2.749  1.00  0.00     0.273 C 
ATOM      7  O   UNL     1      -0.630  -1.364  -3.817  1.00  0.00    -0.267 OA
ATOM      8  H   UNL     1      -0.776  -2.923  -2.155  1.00  0.00     0.163 HD
BRANCH   6   9
ATOM      9  C   UNL     1       0.749   0.029  -2.521  1.00  0.00     0.173 A 
ATOM     10  C   UNL     1       1.067   0.623   0.071  1.00  0.00     0.069 C 
ATOM     11  C   UNL     1       1.167   0.757  -1.407  1.00  0.00     0.075 A 
ATOM     12  N   UNL     1       1.738   1.900  -1.952  1.00  0.00    -0.217 N 
ATOM     13  N   UNL     1       1.128   0.735  -3.652  1.00  0.00    -0.124 NA
ATOM     14  N   UNL     1       1.714   1.860  -3.293  1.00  0.00    -0.061 NA
BRANCH  12  15
ATOM     15  C   UNL     1       1.855   3.137  -1.294  1.00  0.00     0.071 A 
ATOM     16  C   UNL     1       0.692   3.920  -1.226  1.00  0.00     0.029 A 
ATOM     17  C   UNL     1       3.046   3.529  -0.672  1.00  0.00    -0.008 A 
ATOM     18  C   UNL     1       0.691   5.090  -0.478  1.00  0.00     0.003 A 
ATOM     19  C   UNL     1       3.033   4.742   0.045  1.00  0.00     0.012 A 
ATOM     20  C   UNL     1       4.347   2.760  -0.782  1.00  0.00     0.099 C 
ATOM     21  C   UNL     1       1.853   5.491   0.173  1.00  0.00     0.010 A 
ATOM     22  C   UNL     1       4.341   5.300   0.556  1.00  0.00     0.299 C 
ATOM     23  C   UNL     1       5.623   3.608  -0.530  1.00  0.00     0.267 C 
ATOM     24  N   UNL     1       5.428   5.063  -0.413  1.00  0.00    -0.333 N 
ATOM     25  C   UNL     1       5.135   5.679  -1.719  1.00  0.00     0.333 C 
ATOM     26  H   UNL     1       6.288   5.501  -0.083  1.00  0.00     0.348 HD
ENDBRANCH  12  15
ENDBRANCH   6   9
ENDBRANCH   4   5
ENDBRANCH   3   4
ENDBRANCH   2   3
ENDBRANCH   1   2
BRANCH   1  27
ATOM     27  C   UNL     1       1.485  -4.666   1.951  1.00  0.00     0.021 C 
BRANCH  27  28
ATOM     28  C   UNL     1       0.890  -4.753   3.346  1.00  0.00     0.116 C 
BRANCH  28  29
ATOM     29  N   UNL     1       0.685  -6.142   3.775  1.00  0.00    -0.352 N 
ATOM     30  C   UNL     1       0.101  -6.638   4.934  1.00  0.00     0.251 C 
ATOM     31  H   UNL     1       1.011  -6.826   3.146  1.00  0.00     0.163 HD
ATOM     32  O   UNL     1       0.353  -7.765   5.318  1.00  0.00    -0.269 OA
BRANCH  30  33
ATOM     33  C   UNL     1      -0.838  -5.771   5.675  1.00  0.00     0.039 A 
ATOM     34  C   UNL     1      -1.003  -5.817   7.063  1.00  0.00     0.014 A 
ATOM     35  C   UNL     1      -1.556  -4.861   4.918  1.00  0.00     0.014 A 
ATOM     36  C   UNL     1      -1.898  -4.921   7.652  1.00  0.00     0.010 A 
ATOM     37  C   UNL     1      -2.115  -3.785   5.525  1.00  0.00     0.010 A 
ATOM     38  C   UNL     1      -2.460  -3.916   6.854  1.00  0.00    -0.014 A 
BRANCH  38  39
ATOM     39  C   UNL     1      -3.362  -2.886   7.336  1.00  0.00     0.031 A 
ATOM     40  C   UNL     1      -2.712  -1.954   8.278  1.00  0.00     0.074 A 
ATOM     41  C   UNL     1      -4.535  -2.616   6.717  1.00  0.00     0.049 A 
ATOM     42  N   UNL     1      -2.835  -1.946   9.561  1.00  0.00    -0.248 NA
ATOM     43  C   UNL     1      -1.617  -1.103   7.782  1.00  0.00     0.031 C 
ATOM     44  C   UNL     1      -5.127  -3.263   5.537  1.00  0.00     0.029 A 
ATOM     45  N   UNL     1      -5.403  -1.598   6.947  1.00  0.00    -0.354 N 
ATOM     46  C   UNL     1      -2.071  -0.871   9.988  1.00  0.00     0.074 A 
ATOM     47  C   UNL     1      -1.131  -0.627   8.931  1.00  0.00     0.031 C 
ATOM     48  C   UNL     1      -6.110  -2.480   5.035  1.00  0.00     0.029 A 
ATOM     49  C   UNL     1      -6.309  -1.344   5.918  1.00  0.00     0.049 A 
ATOM     50  H   UNL     1      -5.394  -1.077   7.782  1.00  0.00     0.167 HD
ATOM     51  C   UNL     1      -2.499  -0.075  11.008  1.00  0.00     0.034 A 
ATOM     52  C   UNL     1      -7.107  -0.243   5.791  1.00  0.00     0.034 A 
ATOM     53  C   UNL     1      -3.636  -0.682  11.680  1.00  0.00     0.049 A 
ATOM     54  C   UNL     1      -7.244   0.317   7.169  1.00  0.00     0.074 A 
ATOM     55  C   UNL     1      -3.863  -1.918  12.260  1.00  0.00     0.029 A 
ATOM     56  N   UNL     1      -4.892  -0.165  11.422  1.00  0.00    -0.354 N 
ATOM     57  N   UNL     1      -7.818  -0.338   8.146  1.00  0.00    -0.248 NA
ATOM     58  C   UNL     1      -6.272   1.318   7.593  1.00  0.00     0.031 C 
ATOM     59  C   UNL     1      -5.166  -2.292  11.814  1.00  0.00     0.029 A 
ATOM     60  C   UNL     1      -5.717  -1.220  11.108  1.00  0.00     0.049 A 
ATOM     61  H   UNL     1      -5.149   0.784  11.456  1.00  0.00     0.167 HD
ATOM     62  C   UNL     1      -6.982  -0.166   9.242  1.00  0.00     0.074 A 
ATOM     63  C   UNL     1      -6.089   0.933   8.862  1.00  0.00     0.031 C 
ATOM     64  C   UNL     1      -6.861  -1.123  10.214  1.00  0.00     0.034 A 
BRANCH  51  65
ATOM     65  C   UNL     1      -2.186   1.399  11.157  1.00  0.00     0.023 A 
ATOM     66  C   UNL     1      -2.732   2.040  12.283  1.00  0.00     0.031 A 
ATOM     67  C   UNL     1      -1.643   2.255  10.172  1.00  0.00     0.131 A 
ATOM     68  C   UNL     1      -2.845   3.438  12.337  1.00  0.00     0.055 A 
ATOM     69  C   UNL     1      -1.693   3.649  10.264  1.00  0.00     0.041 A 
ATOM     70  F   UNL     1      -1.111   1.817   9.027  1.00  0.00    -0.206 F 
ATOM     71  C   UNL     1      -2.331   4.250  11.333  1.00  0.00     0.022 A 
BRANCH  68  72
ATOM     72  S   UNL     1      -3.852   4.155  13.657  1.00  0.00     0.124 S 
ATOM     73  O   UNL     1      -5.111   3.439  13.482  1.00  0.00    -0.237 OA
ATOM     74  O   UNL     1      -3.075   3.814  14.843  1.00  0.00    -0.237 OA
ATOM     75  O   UNL     1      -3.887   5.576  13.319  1.00  0.00    -0.744 OA
ENDBRANCH  68  72
ENDBRANCH  51  65
BRANCH  52  76
ATOM     76  C   UNL     1      -7.397   0.518   4.527  1.00  0.00     0.023 A 
ATOM     77  C   UNL     1      -8.384   1.530   4.427  1.00  0.00     0.031 A 
ATOM     78  C   UNL     1      -6.519   0.406   3.421  1.00  0.00     0.131 A 
ATOM     79  C   UNL     1      -8.459   2.356   3.270  1.00  0.00     0.055 A 
ATOM     80  C   UNL     1      -6.600   1.218   2.286  1.00  0.00     0.041 A 
ATOM     81  F   UNL     1      -5.484  -0.447   3.433  1.00  0.00    -0.206 F 
ATOM     82  C   UNL     1      -7.565   2.204   2.209  1.00  0.00     0.022 A 
BRANCH  79  83
ATOM     83  S   UNL     1      -9.669   3.721   3.152  1.00  0.00     0.124 S 
ATOM     84  O   UNL     1     -10.923   3.006   2.947  1.00  0.00    -0.237 OA
ATOM     85  O   UNL     1      -9.508   4.400   4.432  1.00  0.00    -0.237 OA
ATOM     86  O   UNL     1      -9.205   4.490   1.994  1.00  0.00    -0.744 OA
ENDBRANCH  79  83
ENDBRANCH  52  76
BRANCH  64  87
ATOM     87  C   UNL     1      -7.847  -2.282  10.252  1.00  0.00     0.023 A 
ATOM     88  C   UNL     1      -8.105  -3.178   9.188  1.00  0.00     0.031 A 
ATOM     89  C   UNL     1      -8.434  -2.575  11.498  1.00  0.00     0.131 A 
ATOM     90  C   UNL     1      -8.924  -4.309   9.398  1.00  0.00     0.055 A 
ATOM     91  C   UNL     1      -9.220  -3.707  11.708  1.00  0.00     0.041 A 
ATOM     92  F   UNL     1      -8.212  -1.780  12.558  1.00  0.00    -0.206 F 
ATOM     93  C   UNL     1      -9.472  -4.577  10.656  1.00  0.00     0.022 A 
BRANCH  90  94
ATOM     94  S   UNL     1      -9.318  -5.452   8.031  1.00  0.00     0.124 S 
ATOM     95  O   UNL     1      -9.676  -4.561   6.934  1.00  0.00    -0.237 OA
ATOM     96  O   UNL     1      -8.072  -6.196   7.871  1.00  0.00    -0.237 OA
ATOM     97  O   UNL     1     -10.432  -6.243   8.560  1.00  0.00    -0.744 OA
ENDBRANCH  90  94
ENDBRANCH  64  87
ENDBRANCH  38  39
ENDBRANCH  30  33
ENDBRANCH  28  29
ENDBRANCH  27  28
ENDBRANCH   1  27
TORSDOF 17
