REMARK SMILES CC[C@@](C)([NH2+]CC(=O)N[C@@H](C)c1ccc(F)cc1)C(=O)NCCCCCCNC(=O)c1ccc(-c2c3nc(c(-c4cc(S(=O)(=O)[O-])ccc4F)c4ccc([nH]4)c(-c4cc(S(=O)(=O)[O-])ccc4F)c4nc(c(-c5cc(S(=O)(=O)[O-])ccc5F)c5ccc2[nH]5)C=C4)C=C3)cc1
REMARK SMILES IDX 23 1 22 2 21 3 19 4 20 5 3 7 4 8 2 9 1 10 5 11 6 14 7 15
REMARK SMILES IDX 8 16 9 17 10 19 11 20 12 21 13 22 18 23 14 24 17 25 15 26
REMARK SMILES IDX 16 27 24 28 25 29 26 30 27 31 28 32 29 33 30 35 31 36 32 37
REMARK SMILES IDX 93 38 33 39 92 40 34 41 35 42 36 43 86 44 37 45 91 46 85 47
REMARK SMILES IDX 87 48 38 49 90 50 84 51 83 52 39 54 71 55 51 56 70 57 52 58
REMARK SMILES IDX 55 59 69 60 88 61 53 62 54 63 68 65 89 66 56 67 40 68 41 69
REMARK SMILES IDX 49 70 42 71 48 72 50 73 47 74 43 75 44 76 45 77 46 78 72 79
REMARK SMILES IDX 73 80 81 81 74 82 80 83 82 84 79 85 75 86 76 87 77 88 78 89
REMARK SMILES IDX 57 90 58 91 66 92 59 93 65 94 67 95 64 96 60 97 61 98 62 99
REMARK SMILES IDX 63 100
REMARK H PARENT 21 6 5 12 5 13 9 18 28 34 87 53 55 64
REMARK Flexibility Score: inf
ROOT
ATOM      1  C   UNL     1       3.775  -5.597   1.061  1.00  0.00     0.021 C 
ENDROOT
BRANCH   1   2
ATOM      2  C   UNL     1       3.436  -4.125   1.322  1.00  0.00     0.116 C 
BRANCH   2   3
ATOM      3  N   UNL     1       3.038  -3.377   0.129  1.00  0.00    -0.351 N 
ATOM      4  C   UNL     1       2.256  -2.235   0.221  1.00  0.00     0.281 C 
ATOM      5  O   UNL     1       2.842  -1.152   0.311  1.00  0.00    -0.268 OA
ATOM      6  H   UNL     1       3.332  -3.691  -0.756  1.00  0.00     0.163 HD
BRANCH   4   7
ATOM      7  C   UNL     1       0.672  -2.330   0.007  1.00  0.00     0.172 C 
ATOM      8  C   UNL     1      -0.344  -1.532   0.848  1.00  0.00     0.090 C 
BRANCH   7   9
ATOM      9  C   UNL     1       0.497  -1.717  -1.439  1.00  0.00     0.075 C 
ATOM     10  C   UNL     1       0.590  -0.170  -1.471  1.00  0.00     0.011 C 
ENDBRANCH   7   9
BRANCH   7  11
ATOM     11  N   UNL     1       0.242  -3.725   0.078  1.00  0.00    -0.326 N 
ATOM     12  H   UNL     1       0.844  -4.242  -0.564  1.00  0.00     0.347 HD
ATOM     13  H   UNL     1      -0.754  -3.651  -0.124  1.00  0.00     0.347 HD
BRANCH  11  14
ATOM     14  C   UNL     1       0.243  -4.487   1.350  1.00  0.00     0.362 C 
BRANCH  14  15
ATOM     15  C   UNL     1       0.082  -3.957   2.811  1.00  0.00     0.275 C 
ATOM     16  O   UNL     1      -0.766  -4.542   3.512  1.00  0.00    -0.268 OA
ATOM     17  N   UNL     1       0.834  -3.090   3.548  1.00  0.00    -0.345 N 
ATOM     18  H   UNL     1       0.905  -3.385   4.484  1.00  0.00     0.164 HD
BRANCH  17  19
ATOM     19  C   UNL     1       1.568  -1.835   3.327  1.00  0.00     0.109 C 
ATOM     20  C   UNL     1       0.712  -0.641   3.792  1.00  0.00     0.036 C 
BRANCH  19  21
ATOM     21  C   UNL     1       2.957  -1.739   3.950  1.00  0.00    -0.026 A 
ATOM     22  C   UNL     1       3.707  -0.550   3.783  1.00  0.00     0.009 A 
ATOM     23  C   UNL     1       3.545  -2.789   4.667  1.00  0.00     0.009 A 
ATOM     24  C   UNL     1       4.975  -0.402   4.349  1.00  0.00     0.039 A 
ATOM     25  C   UNL     1       4.825  -2.647   5.216  1.00  0.00     0.039 A 
ATOM     26  C   UNL     1       5.524  -1.456   5.060  1.00  0.00     0.123 A 
ATOM     27  F   UNL     1       6.746  -1.326   5.593  1.00  0.00    -0.207 F 
ENDBRANCH  19  21
ENDBRANCH  17  19
ENDBRANCH  14  15
ENDBRANCH  11  14
ENDBRANCH   7  11
ENDBRANCH   4   7
ENDBRANCH   2   3
ENDBRANCH   1   2
BRANCH   1  28
ATOM     28  C   UNL     1       5.171  -6.001   1.551  1.00  0.00     0.002 C 
BRANCH  28  29
ATOM     29  C   UNL     1       5.447  -5.772   3.042  1.00  0.00     0.002 C 
BRANCH  29  30
ATOM     30  C   UNL     1       4.535  -6.520   4.019  1.00  0.00     0.021 C 
BRANCH  30  31
ATOM     31  C   UNL     1       4.561  -8.040   3.892  1.00  0.00     0.116 C 
BRANCH  31  32
ATOM     32  N   UNL     1       5.909  -8.577   4.019  1.00  0.00    -0.352 N 
ATOM     33  C   UNL     1       6.375  -9.585   4.813  1.00  0.00     0.251 C 
ATOM     34  H   UNL     1       6.586  -8.149   3.447  1.00  0.00     0.163 HD
ATOM     35  O   UNL     1       7.603  -9.739   4.933  1.00  0.00    -0.269 OA
BRANCH  33  36
ATOM     36  C   UNL     1       5.448 -10.482   5.526  1.00  0.00     0.039 A 
ATOM     37  C   UNL     1       5.768 -10.904   6.820  1.00  0.00     0.014 A 
ATOM     38  C   UNL     1       4.285 -10.950   4.904  1.00  0.00     0.014 A 
ATOM     39  C   UNL     1       4.909 -11.770   7.499  1.00  0.00     0.010 A 
ATOM     40  C   UNL     1       3.393 -11.750   5.610  1.00  0.00     0.010 A 
ATOM     41  C   UNL     1       3.708 -12.187   6.905  1.00  0.00    -0.014 A 
BRANCH  41  42
ATOM     42  C   UNL     1       2.793 -13.124   7.601  1.00  0.00     0.031 A 
ATOM     43  C   UNL     1       2.551 -14.494   7.030  1.00  0.00     0.074 A 
ATOM     44  C   UNL     1       2.150 -12.725   8.714  1.00  0.00     0.049 A 
ATOM     45  N   UNL     1       1.743 -15.433   7.448  1.00  0.00    -0.248 NA
ATOM     46  C   UNL     1       3.293 -14.842   5.808  1.00  0.00     0.031 C 
ATOM     47  C   UNL     1       2.280 -11.406   9.337  1.00  0.00     0.029 A 
ATOM     48  N   UNL     1       1.260 -13.387   9.520  1.00  0.00    -0.354 N 
ATOM     49  C   UNL     1       1.862 -16.471   6.530  1.00  0.00     0.074 A 
ATOM     50  C   UNL     1       2.775 -16.021   5.502  1.00  0.00     0.031 C 
ATOM     51  C   UNL     1       1.528 -11.370  10.448  1.00  0.00     0.029 A 
ATOM     52  C   UNL     1       0.829 -12.643  10.593  1.00  0.00     0.049 A 
ATOM     53  H   UNL     1       0.957 -14.308   9.347  1.00  0.00     0.167 HD
ATOM     54  C   UNL     1       1.282 -17.695   6.557  1.00  0.00     0.034 A 
ATOM     55  C   UNL     1      -0.036 -12.949  11.578  1.00  0.00     0.034 A 
ATOM     56  C   UNL     1       0.405 -18.136   7.611  1.00  0.00     0.049 A 
ATOM     57  C   UNL     1      -0.685 -14.305  11.584  1.00  0.00     0.074 A 
ATOM     58  C   UNL     1      -0.168 -19.383   7.788  1.00  0.00     0.029 A 
ATOM     59  N   UNL     1      -0.032 -17.343   8.664  1.00  0.00    -0.354 N 
ATOM     60  N   UNL     1      -0.533 -15.291  10.731  1.00  0.00    -0.248 NA
ATOM     61  C   UNL     1      -1.623 -14.591  12.677  1.00  0.00     0.031 C 
ATOM     62  C   UNL     1      -1.003 -19.323   8.908  1.00  0.00     0.029 A 
ATOM     63  C   UNL     1      -0.901 -18.060   9.470  1.00  0.00     0.049 A 
ATOM     64  H   UNL     1       0.236 -16.407   8.815  1.00  0.00     0.167 HD
ATOM     65  C   UNL     1      -1.353 -16.318  11.186  1.00  0.00     0.074 A 
ATOM     66  C   UNL     1      -1.991 -15.835  12.395  1.00  0.00     0.031 C 
ATOM     67  C   UNL     1      -1.553 -17.550  10.653  1.00  0.00     0.034 A 
BRANCH  54  68
ATOM     68  C   UNL     1       1.564 -18.626   5.405  1.00  0.00     0.023 A 
ATOM     69  C   UNL     1       2.856 -19.118   5.151  1.00  0.00     0.031 A 
ATOM     70  C   UNL     1       0.529 -19.012   4.535  1.00  0.00     0.131 A 
ATOM     71  C   UNL     1       3.094 -19.908   4.017  1.00  0.00     0.055 A 
ATOM     72  C   UNL     1       0.758 -19.861   3.451  1.00  0.00     0.041 A 
ATOM     73  F   UNL     1      -0.721 -18.559   4.717  1.00  0.00    -0.206 F 
ATOM     74  C   UNL     1       2.050 -20.304   3.178  1.00  0.00     0.022 A 
BRANCH  71  75
ATOM     75  S   UNL     1       4.808 -20.311   3.583  1.00  0.00     0.124 S 
ATOM     76  O   UNL     1       5.370 -18.984   3.343  1.00  0.00    -0.237 OA
ATOM     77  O   UNL     1       5.284 -20.998   4.782  1.00  0.00    -0.237 OA
ATOM     78  O   UNL     1       4.675 -21.150   2.397  1.00  0.00    -0.744 OA
ENDBRANCH  71  75
ENDBRANCH  54  68
BRANCH  55  79
ATOM     79  C   UNL     1      -0.330 -11.938  12.629  1.00  0.00     0.023 A 
ATOM     80  C   UNL     1       0.199 -12.068  13.921  1.00  0.00     0.031 A 
ATOM     81  C   UNL     1      -1.087 -10.792  12.330  1.00  0.00     0.131 A 
ATOM     82  C   UNL     1      -0.037 -11.064  14.873  1.00  0.00     0.055 A 
ATOM     83  C   UNL     1      -1.296  -9.783  13.272  1.00  0.00     0.041 A 
ATOM     84  F   UNL     1      -1.597 -10.618  11.101  1.00  0.00    -0.206 F 
ATOM     85  C   UNL     1      -0.769  -9.916  14.553  1.00  0.00     0.022 A 
BRANCH  82  86
ATOM     86  S   UNL     1       0.645 -11.263  16.543  1.00  0.00     0.124 S 
ATOM     87  O   UNL     1      -0.140 -12.381  17.052  1.00  0.00    -0.237 OA
ATOM     88  O   UNL     1       2.052 -11.537  16.270  1.00  0.00    -0.237 OA
ATOM     89  O   UNL     1       0.379  -9.972  17.174  1.00  0.00    -0.744 OA
ENDBRANCH  82  86
ENDBRANCH  55  79
BRANCH  67  90
ATOM     90  C   UNL     1      -2.505 -18.469  11.369  1.00  0.00     0.023 A 
ATOM     91  C   UNL     1      -3.893 -18.263  11.318  1.00  0.00     0.031 A 
ATOM     92  C   UNL     1      -2.021 -19.602  12.047  1.00  0.00     0.131 A 
ATOM     93  C   UNL     1      -4.754 -19.172  11.949  1.00  0.00     0.055 A 
ATOM     94  C   UNL     1      -2.884 -20.526  12.636  1.00  0.00     0.041 A 
ATOM     95  F   UNL     1      -0.702 -19.843  12.119  1.00  0.00    -0.206 F 
ATOM     96  C   UNL     1      -4.259 -20.312  12.590  1.00  0.00     0.022 A 
BRANCH  93  97
ATOM     97  S   UNL     1      -6.536 -18.840  11.935  1.00  0.00     0.124 S 
ATOM     98  O   UNL     1      -6.624 -17.634  12.752  1.00  0.00    -0.237 OA
ATOM     99  O   UNL     1      -6.817 -18.670  10.514  1.00  0.00    -0.237 OA
ATOM    100  O   UNL     1      -7.113 -20.041  12.539  1.00  0.00    -0.744 OA
ENDBRANCH  93  97
ENDBRANCH  67  90
ENDBRANCH  41  42
ENDBRANCH  33  36
ENDBRANCH  31  32
ENDBRANCH  30  31
ENDBRANCH  29  30
ENDBRANCH  28  29
ENDBRANCH   1  28
TORSDOF 22
