REMARK SMILES C[C@H](CC(=O)NCCCCCCNC(=O)c1ccc(-c2c3nc(c(-c4cc(S(=O)(=O)[O-])ccc4F)c4ccc([nH]4)c(-c4cc(S(=O)(=O)[O-])ccc4F)c4nc(c(-c5cc(S(=O)(=O)[O-])ccc5F)c5ccc2[nH]5)C=C4)C=C3)cc1)NC(=O)[C@H]1CC(=O)N(C2CC2)C1
REMARK SMILES IDX 9 1 8 2 7 3 6 4 4 5 5 6 3 8 2 9 1 10 79 11 80 12 81 14 82 15
REMARK SMILES IDX 83 16 90 17 84 18 86 19 85 20 87 21 88 22 89 23 10 24 11 25
REMARK SMILES IDX 12 26 13 27 14 28 15 30 16 31 17 32 78 33 18 34 77 35 19 36
REMARK SMILES IDX 20 37 21 38 71 39 22 40 76 41 70 42 72 43 23 44 75 45 69 46
REMARK SMILES IDX 68 47 24 49 56 50 36 51 55 52 37 53 40 54 54 55 73 56 38 57
REMARK SMILES IDX 39 58 53 60 74 61 41 62 25 63 26 64 34 65 27 66 33 67 35 68
REMARK SMILES IDX 32 69 28 70 29 71 30 72 31 73 57 74 58 75 66 76 59 77 65 78
REMARK SMILES IDX 67 79 64 80 60 81 61 82 62 83 63 84 42 85 43 86 51 87 44 88
REMARK SMILES IDX 50 89 52 90 49 91 45 92 46 93 47 94 48 95
REMARK H PARENT 6 7 79 13 13 29 72 48 40 59
REMARK Flexibility Score: inf
ROOT
ATOM      1  C   UNL     1       5.171  -7.762  -1.897  1.00  0.00     0.002 C 
ENDROOT
BRANCH   1   2
ATOM      2  C   UNL     1       4.439  -6.455  -1.600  1.00  0.00     0.021 C 
BRANCH   2   3
ATOM      3  C   UNL     1       4.123  -5.621  -2.842  1.00  0.00     0.116 C 
BRANCH   3   4
ATOM      4  N   UNL     1       2.845  -6.016  -3.393  1.00  0.00    -0.356 N 
ATOM      5  C   UNL     1       1.659  -5.353  -3.377  1.00  0.00     0.222 C 
ATOM      6  O   UNL     1       0.654  -5.938  -3.782  1.00  0.00    -0.275 OA
ATOM      7  H   UNL     1       2.833  -6.891  -3.845  1.00  0.00     0.163 HD
BRANCH   5   8
ATOM      8  C   UNL     1       1.581  -3.923  -2.883  1.00  0.00     0.124 C 
BRANCH   8   9
ATOM      9  C   UNL     1       1.282  -3.826  -1.383  1.00  0.00     0.088 C 
ATOM     10  C   UNL     1       2.527  -3.785  -0.499  1.00  0.00     0.031 C 
BRANCH   9  11
ATOM     11  N   UNL     1       0.540  -2.599  -1.088  1.00  0.00    -0.353 N 
ATOM     12  C   UNL     1      -0.555  -2.405  -0.308  1.00  0.00     0.225 C 
ATOM     13  H   UNL     1       0.889  -1.787  -1.522  1.00  0.00     0.163 HD
ATOM     14  O   UNL     1      -0.792  -1.254   0.064  1.00  0.00    -0.275 OA
BRANCH  12  15
ATOM     15  C   UNL     1      -1.492  -3.530   0.075  1.00  0.00     0.107 C 
ATOM     16  C   UNL     1      -2.002  -4.336  -1.112  1.00  0.00     0.115 C 
ATOM     17  C   UNL     1      -0.933  -4.540   1.057  1.00  0.00     0.133 C 
ATOM     18  C   UNL     1      -2.150  -5.732  -0.574  1.00  0.00     0.223 C 
ATOM     19  N   UNL     1      -1.558  -5.789   0.685  1.00  0.00    -0.339 N 
ATOM     20  O   UNL     1      -2.724  -6.626  -1.180  1.00  0.00    -0.275 OA
BRANCH  19  21
ATOM     21  C   UNL     1      -1.610  -6.881   1.613  1.00  0.00     0.085 C 
ATOM     22  C   UNL     1      -2.230  -8.220   1.315  1.00  0.00     0.027 C 
ATOM     23  C   UNL     1      -0.742  -8.099   1.451  1.00  0.00     0.027 C 
ENDBRANCH  19  21
ENDBRANCH  12  15
ENDBRANCH   9  11
ENDBRANCH   8   9
ENDBRANCH   5   8
ENDBRANCH   3   4
ENDBRANCH   2   3
ENDBRANCH   1   2
BRANCH   1  24
ATOM     24  C   UNL     1       6.551  -7.586  -2.537  1.00  0.00     0.002 C 
BRANCH  24  25
ATOM     25  C   UNL     1       7.488  -6.627  -1.798  1.00  0.00     0.021 C 
BRANCH  25  26
ATOM     26  C   UNL     1       7.725  -6.979  -0.332  1.00  0.00     0.116 C 
BRANCH  26  27
ATOM     27  N   UNL     1       8.307  -8.303  -0.190  1.00  0.00    -0.352 N 
ATOM     28  C   UNL     1       9.546  -8.657   0.281  1.00  0.00     0.251 C 
ATOM     29  H   UNL     1       7.732  -9.051  -0.471  1.00  0.00     0.163 HD
ATOM     30  O   UNL     1       9.982  -9.784   0.073  1.00  0.00    -0.269 OA
BRANCH  28  31
ATOM     31  C   UNL     1      10.349  -7.665   1.026  1.00  0.00     0.039 A 
ATOM     32  C   UNL     1      11.701  -7.511   0.715  1.00  0.00     0.014 A 
ATOM     33  C   UNL     1       9.759  -6.887   2.027  1.00  0.00     0.014 A 
ATOM     34  C   UNL     1      12.448  -6.527   1.367  1.00  0.00     0.010 A 
ATOM     35  C   UNL     1      10.485  -5.859   2.620  1.00  0.00     0.010 A 
ATOM     36  C   UNL     1      11.837  -5.668   2.295  1.00  0.00    -0.014 A 
BRANCH  36  37
ATOM     37  C   UNL     1      12.592  -4.557   2.931  1.00  0.00     0.031 A 
ATOM     38  C   UNL     1      12.803  -4.544   4.420  1.00  0.00     0.074 A 
ATOM     39  C   UNL     1      13.029  -3.531   2.174  1.00  0.00     0.049 A 
ATOM     40  N   UNL     1      13.356  -3.626   5.169  1.00  0.00    -0.248 NA
ATOM     41  C   UNL     1      12.298  -5.706   5.168  1.00  0.00     0.031 C 
ATOM     42  C   UNL     1      12.855  -3.420   0.723  1.00  0.00     0.029 A 
ATOM     43  N   UNL     1      13.699  -2.383   2.514  1.00  0.00    -0.354 N 
ATOM     44  C   UNL     1      13.261  -4.093   6.476  1.00  0.00     0.074 A 
ATOM     45  C   UNL     1      12.538  -5.346   6.420  1.00  0.00     0.031 C 
ATOM     46  C   UNL     1      13.427  -2.283   0.298  1.00  0.00     0.029 A 
ATOM     47  C   UNL     1      13.956  -1.554   1.446  1.00  0.00     0.049 A 
ATOM     48  H   UNL     1      13.971  -2.172   3.437  1.00  0.00     0.167 HD
ATOM     49  C   UNL     1      13.750  -3.538   7.612  1.00  0.00     0.034 A 
ATOM     50  C   UNL     1      14.534  -0.337   1.399  1.00  0.00     0.034 A 
ATOM     51  C   UNL     1      14.472  -2.289   7.645  1.00  0.00     0.049 A 
ATOM     52  C   UNL     1      15.022   0.284   2.684  1.00  0.00     0.074 A 
ATOM     53  C   UNL     1      15.058  -1.663   8.732  1.00  0.00     0.029 A 
ATOM     54  N   UNL     1      14.697  -1.468   6.547  1.00  0.00    -0.354 N 
ATOM     55  N   UNL     1      14.970  -0.195   3.905  1.00  0.00    -0.248 NA
ATOM     56  C   UNL     1      15.653   1.607   2.583  1.00  0.00     0.031 C 
ATOM     57  C   UNL     1      15.562  -0.429   8.307  1.00  0.00     0.029 A 
ATOM     58  C   UNL     1      15.373  -0.323   6.939  1.00  0.00     0.049 A 
ATOM     59  H   UNL     1      14.417  -1.671   5.625  1.00  0.00     0.167 HD
ATOM     60  C   UNL     1      15.588   0.756   4.713  1.00  0.00     0.074 A 
ATOM     61  C   UNL     1      16.020   1.826   3.837  1.00  0.00     0.031 C 
ATOM     62  C   UNL     1      15.786   0.744   6.056  1.00  0.00     0.034 A 
BRANCH  49  63
ATOM     63  C   UNL     1      13.493  -4.264   8.911  1.00  0.00     0.023 A 
ATOM     64  C   UNL     1      13.996  -5.556   9.148  1.00  0.00     0.031 A 
ATOM     65  C   UNL     1      12.721  -3.665   9.922  1.00  0.00     0.131 A 
ATOM     66  C   UNL     1      13.660  -6.233  10.330  1.00  0.00     0.055 A 
ATOM     67  C   UNL     1      12.463  -4.311  11.133  1.00  0.00     0.041 A 
ATOM     68  F   UNL     1      12.194  -2.443   9.747  1.00  0.00    -0.206 F 
ATOM     69  C   UNL     1      12.920  -5.609  11.337  1.00  0.00     0.022 A 
BRANCH  66  70
ATOM     70  S   UNL     1      14.076  -7.993  10.466  1.00  0.00     0.124 S 
ATOM     71  O   UNL     1      13.381  -8.550   9.308  1.00  0.00    -0.237 OA
ATOM     72  O   UNL     1      15.532  -7.980  10.392  1.00  0.00    -0.237 OA
ATOM     73  O   UNL     1      13.519  -8.378  11.761  1.00  0.00    -0.744 OA
ENDBRANCH  66  70
ENDBRANCH  49  63
BRANCH  50  74
ATOM     74  C   UNL     1      14.664   0.390   0.102  1.00  0.00     0.023 A 
ATOM     75  C   UNL     1      15.926   0.712  -0.422  1.00  0.00     0.031 A 
ATOM     76  C   UNL     1      13.528   0.815  -0.609  1.00  0.00     0.131 A 
ATOM     77  C   UNL     1      16.021   1.481  -1.593  1.00  0.00     0.055 A 
ATOM     78  C   UNL     1      13.629   1.527  -1.806  1.00  0.00     0.041 A 
ATOM     79  F   UNL     1      12.296   0.534  -0.154  1.00  0.00    -0.206 F 
ATOM     80  C   UNL     1      14.882   1.877  -2.296  1.00  0.00     0.022 A 
BRANCH  77  81
ATOM     81  S   UNL     1      17.660   2.044  -2.128  1.00  0.00     0.124 S 
ATOM     82  O   UNL     1      18.117   2.783  -0.956  1.00  0.00    -0.237 OA
ATOM     83  O   UNL     1      18.340   0.782  -2.398  1.00  0.00    -0.237 OA
ATOM     84  O   UNL     1      17.370   2.859  -3.307  1.00  0.00    -0.744 OA
ENDBRANCH  77  81
ENDBRANCH  50  74
BRANCH  62  85
ATOM     85  C   UNL     1      16.538   1.909   6.652  1.00  0.00     0.023 A 
ATOM     86  C   UNL     1      16.005   3.210   6.659  1.00  0.00     0.031 A 
ATOM     87  C   UNL     1      17.807   1.712   7.226  1.00  0.00     0.131 A 
ATOM     88  C   UNL     1      16.759   4.271   7.181  1.00  0.00     0.055 A 
ATOM     89  C   UNL     1      18.524   2.760   7.803  1.00  0.00     0.041 A 
ATOM     90  F   UNL     1      18.368   0.492   7.243  1.00  0.00    -0.206 F 
ATOM     91  C   UNL     1      18.006   4.052   7.772  1.00  0.00     0.022 A 
BRANCH  88  92
ATOM     92  S   UNL     1      16.127   5.961   6.999  1.00  0.00     0.124 S 
ATOM     93  O   UNL     1      16.014   6.087   5.549  1.00  0.00    -0.237 OA
ATOM     94  O   UNL     1      14.867   5.905   7.734  1.00  0.00    -0.237 OA
ATOM     95  O   UNL     1      17.166   6.785   7.614  1.00  0.00    -0.744 OA
ENDBRANCH  88  92
ENDBRANCH  62  85
ENDBRANCH  36  37
ENDBRANCH  28  31
ENDBRANCH  26  27
ENDBRANCH  25  26
ENDBRANCH  24  25
ENDBRANCH   1  24
TORSDOF 20
