REMARK SMILES CC[C@H](O)C[C@@H](Cc1ccccc1OC)C(=O)NCCCCCCNC(=O)c1ccc(-c2c3nc(c(-c4cc(S(=O)(=O)[O-])ccc4F)c4ccc([nH]4)c(-c4cc(S(=O)(=O)[O-])ccc4F)c4nc(c(-c5cc(S(=O)(=O)[O-])ccc5F)c5ccc2[nH]5)C=C4)C=C3)cc1
REMARK SMILES IDX 21 1 20 2 19 3 18 4 16 5 17 6 6 8 5 9 3 10 2 11 1 12 4 13
REMARK SMILES IDX 7 15 8 16 9 17 13 18 10 19 12 20 11 21 14 22 15 23 22 24
REMARK SMILES IDX 23 25 24 26 25 27 26 28 27 30 28 31 29 32 90 33 30 34 89 35
REMARK SMILES IDX 31 36 32 37 33 38 83 39 34 40 88 41 82 42 84 43 35 44 87 45
REMARK SMILES IDX 81 46 80 47 36 49 68 50 48 51 67 52 49 53 52 54 66 55 85 56
REMARK SMILES IDX 50 57 51 58 65 60 86 61 53 62 37 63 38 64 46 65 39 66 45 67
REMARK SMILES IDX 47 68 44 69 40 70 41 71 42 72 43 73 69 74 70 75 78 76 71 77
REMARK SMILES IDX 77 78 79 79 76 80 72 81 73 82 74 83 75 84 54 85 55 86 63 87
REMARK SMILES IDX 56 88 62 89 64 90 61 91 57 92 58 93 59 94 60 95
REMARK H PARENT 18 7 4 14 25 29 84 48 52 59
REMARK Flexibility Score: inf
ROOT
ATOM      1  C   UNL     1       0.181  -2.889  -8.790  1.00  0.00     0.002 C 
ENDROOT
BRANCH   1   2
ATOM      2  C   UNL     1       0.237  -2.817  -7.263  1.00  0.00     0.021 C 
BRANCH   2   3
ATOM      3  C   UNL     1       1.126  -1.712  -6.710  1.00  0.00     0.116 C 
BRANCH   3   4
ATOM      4  N   UNL     1       0.479  -0.422  -6.636  1.00  0.00    -0.356 N 
ATOM      5  C   UNL     1       0.533   0.528  -5.663  1.00  0.00     0.223 C 
ATOM      6  O   UNL     1       0.101   1.650  -5.952  1.00  0.00    -0.275 OA
ATOM      7  H   UNL     1      -0.089  -0.196  -7.408  1.00  0.00     0.163 HD
BRANCH   5   8
ATOM      8  C   UNL     1       1.078   0.263  -4.254  1.00  0.00     0.085 C 
BRANCH   8   9
ATOM      9  C   UNL     1       0.393  -0.915  -3.539  1.00  0.00     0.045 C 
BRANCH   9  10
ATOM     10  C   UNL     1       0.647  -0.983  -2.025  1.00  0.00     0.115 C 
BRANCH  10  11
ATOM     11  C   UNL     1       0.025  -2.266  -1.454  1.00  0.00     0.028 C 
ATOM     12  C   UNL     1      -0.103  -2.275   0.060  1.00  0.00     0.006 C 
ENDBRANCH  10  11
BRANCH  10  13
ATOM     13  O   UNL     1       0.095   0.176  -1.416  1.00  0.00    -0.393 OA
ATOM     14  H   UNL     1      -0.859   0.211  -1.592  1.00  0.00     0.210 HD
ENDBRANCH  10  13
ENDBRANCH   9  10
ENDBRANCH   8   9
BRANCH   8  15
ATOM     15  C   UNL     1       2.611   0.384  -4.146  1.00  0.00     0.053 C 
BRANCH  15  16
ATOM     16  C   UNL     1       3.499  -0.653  -4.795  1.00  0.00    -0.005 A 
ATOM     17  C   UNL     1       3.599  -1.928  -4.202  1.00  0.00     0.007 A 
ATOM     18  C   UNL     1       4.213  -0.429  -5.987  1.00  0.00     0.122 A 
ATOM     19  C   UNL     1       4.310  -2.964  -4.813  1.00  0.00     0.001 A 
ATOM     20  C   UNL     1       4.935  -1.468  -6.590  1.00  0.00     0.047 A 
ATOM     21  C   UNL     1       4.978  -2.735  -6.009  1.00  0.00     0.004 A 
BRANCH  18  22
ATOM     22  O   UNL     1       4.124   0.721  -6.726  1.00  0.00    -0.496 OA
ATOM     23  C   UNL     1       4.687   1.870  -6.097  1.00  0.00     0.278 C 
ENDBRANCH  18  22
ENDBRANCH  15  16
ENDBRANCH   8  15
ENDBRANCH   5   8
ENDBRANCH   3   4
ENDBRANCH   2   3
ENDBRANCH   1   2
BRANCH   1  24
ATOM     24  C   UNL     1       1.533  -2.979  -9.510  1.00  0.00     0.002 C 
BRANCH  24  25
ATOM     25  C   UNL     1       2.504  -4.051  -9.002  1.00  0.00     0.021 C 
BRANCH  25  26
ATOM     26  C   UNL     1       1.980  -5.484  -9.014  1.00  0.00     0.116 C 
BRANCH  26  27
ATOM     27  N   UNL     1       1.548  -5.907 -10.334  1.00  0.00    -0.352 N 
ATOM     28  C   UNL     1       1.912  -6.990 -11.088  1.00  0.00     0.251 C 
ATOM     29  H   UNL     1       0.883  -5.316 -10.757  1.00  0.00     0.163 HD
ATOM     30  O   UNL     1       1.538  -7.045 -12.263  1.00  0.00    -0.269 OA
BRANCH  28  31
ATOM     31  C   UNL     1       2.757  -8.074 -10.535  1.00  0.00     0.039 A 
ATOM     32  C   UNL     1       3.723  -8.651 -11.366  1.00  0.00     0.014 A 
ATOM     33  C   UNL     1       2.581  -8.565  -9.238  1.00  0.00     0.014 A 
ATOM     34  C   UNL     1       4.542  -9.675 -10.883  1.00  0.00     0.010 A 
ATOM     35  C   UNL     1       3.445  -9.541  -8.734  1.00  0.00     0.010 A 
ATOM     36  C   UNL     1       4.433 -10.109  -9.552  1.00  0.00    -0.014 A 
BRANCH  36  37
ATOM     37  C   UNL     1       5.357 -11.145  -9.016  1.00  0.00     0.031 A 
ATOM     38  C   UNL     1       4.838 -12.490  -8.585  1.00  0.00     0.074 A 
ATOM     39  C   UNL     1       6.668 -10.857  -8.891  1.00  0.00     0.049 A 
ATOM     40  N   UNL     1       5.493 -13.510  -8.089  1.00  0.00    -0.248 NA
ATOM     41  C   UNL     1       3.389 -12.708  -8.702  1.00  0.00     0.031 C 
ATOM     42  C   UNL     1       7.285  -9.573  -9.232  1.00  0.00     0.029 A 
ATOM     43  N   UNL     1       7.719 -11.620  -8.446  1.00  0.00    -0.354 N 
ATOM     44  C   UNL     1       4.538 -14.489  -7.832  1.00  0.00     0.074 A 
ATOM     45  C   UNL     1       3.253 -13.913  -8.168  1.00  0.00     0.031 C 
ATOM     46  C   UNL     1       8.608  -9.648  -9.014  1.00  0.00     0.029 A 
ATOM     47  C   UNL     1       8.930 -10.967  -8.480  1.00  0.00     0.049 A 
ATOM     48  H   UNL     1       7.616 -12.547  -8.131  1.00  0.00     0.167 HD
ATOM     49  C   UNL     1       4.719 -15.755  -7.379  1.00  0.00     0.034 A 
ATOM     50  C   UNL     1      10.161 -11.381  -8.120  1.00  0.00     0.034 A 
ATOM     51  C   UNL     1       6.010 -16.317  -7.055  1.00  0.00     0.049 A 
ATOM     52  C   UNL     1      10.335 -12.787  -7.605  1.00  0.00     0.074 A 
ATOM     53  C   UNL     1       6.312 -17.605  -6.646  1.00  0.00     0.029 A 
ATOM     54  N   UNL     1       7.213 -15.624  -7.092  1.00  0.00    -0.354 N 
ATOM     55  N   UNL     1       9.428 -13.719  -7.426  1.00  0.00    -0.248 NA
ATOM     56  C   UNL     1      11.701 -13.199  -7.259  1.00  0.00     0.031 C 
ATOM     57  C   UNL     1       7.683 -17.670  -6.370  1.00  0.00     0.029 A 
ATOM     58  C   UNL     1       8.253 -16.446  -6.680  1.00  0.00     0.049 A 
ATOM     59  H   UNL     1       7.314 -14.685  -7.371  1.00  0.00     0.167 HD
ATOM     60  C   UNL     1      10.120 -14.836  -6.966  1.00  0.00     0.074 A 
ATOM     61  C   UNL     1      11.520 -14.467  -6.921  1.00  0.00     0.031 C 
ATOM     62  C   UNL     1       9.643 -16.058  -6.615  1.00  0.00     0.034 A 
BRANCH  49  63
ATOM     63  C   UNL     1       3.486 -16.608  -7.185  1.00  0.00     0.023 A 
ATOM     64  C   UNL     1       2.653 -16.960  -8.262  1.00  0.00     0.031 A 
ATOM     65  C   UNL     1       3.125 -17.060  -5.903  1.00  0.00     0.131 A 
ATOM     66  C   UNL     1       1.466 -17.671  -8.029  1.00  0.00     0.055 A 
ATOM     67  C   UNL     1       1.985 -17.839  -5.689  1.00  0.00     0.041 A 
ATOM     68  F   UNL     1       3.869 -16.742  -4.832  1.00  0.00    -0.206 F 
ATOM     69  C   UNL     1       1.139 -18.135  -6.754  1.00  0.00     0.022 A 
BRANCH  66  70
ATOM     70  S   UNL     1       0.285 -17.856  -9.393  1.00  0.00     0.124 S 
ATOM     71  O   UNL     1       0.009 -16.463  -9.736  1.00  0.00    -0.237 OA
ATOM     72  O   UNL     1       1.052 -18.616 -10.374  1.00  0.00    -0.237 OA
ATOM     73  O   UNL     1      -0.833 -18.573  -8.784  1.00  0.00    -0.744 OA
ENDBRANCH  66  70
ENDBRANCH  49  63
BRANCH  50  74
ATOM     74  C   UNL     1      11.328 -10.458  -8.225  1.00  0.00     0.023 A 
ATOM     75  C   UNL     1      12.386 -10.726  -9.107  1.00  0.00     0.031 A 
ATOM     76  C   UNL     1      11.418  -9.313  -7.413  1.00  0.00     0.131 A 
ATOM     77  C   UNL     1      13.511  -9.885  -9.125  1.00  0.00     0.055 A 
ATOM     78  C   UNL     1      12.514  -8.451  -7.473  1.00  0.00     0.041 A 
ATOM     79  F   UNL     1      10.430  -9.008  -6.557  1.00  0.00    -0.206 F 
ATOM     80  C   UNL     1      13.576  -8.743  -8.324  1.00  0.00     0.022 A 
BRANCH  77  81
ATOM     81  S   UNL     1      14.928 -10.353 -10.155  1.00  0.00     0.124 S 
ATOM     82  O   UNL     1      15.257 -11.672  -9.627  1.00  0.00    -0.237 OA
ATOM     83  O   UNL     1      14.351 -10.324 -11.495  1.00  0.00    -0.237 OA
ATOM     84  O   UNL     1      15.909  -9.306  -9.879  1.00  0.00    -0.744 OA
ENDBRANCH  77  81
ENDBRANCH  50  74
BRANCH  62  85
ATOM     85  C   UNL     1      10.659 -17.085  -6.176  1.00  0.00     0.023 A 
ATOM     86  C   UNL     1      11.408 -16.925  -4.997  1.00  0.00     0.031 A 
ATOM     87  C   UNL     1      10.905 -18.223  -6.965  1.00  0.00     0.131 A 
ATOM     88  C   UNL     1      12.411 -17.851  -4.673  1.00  0.00     0.055 A 
ATOM     89  C   UNL     1      11.860 -19.175  -6.604  1.00  0.00     0.041 A 
ATOM     90  F   UNL     1      10.222 -18.427  -8.103  1.00  0.00    -0.206 F 
ATOM     91  C   UNL     1      12.630 -18.983  -5.461  1.00  0.00     0.022 A 
BRANCH  88  92
ATOM     92  S   UNL     1      13.498 -17.499  -3.265  1.00  0.00     0.124 S 
ATOM     93  O   UNL     1      14.065 -16.205  -3.635  1.00  0.00    -0.237 OA
ATOM     94  O   UNL     1      12.564 -17.488  -2.144  1.00  0.00    -0.237 OA
ATOM     95  O   UNL     1      14.443 -18.614  -3.273  1.00  0.00    -0.744 OA
ENDBRANCH  88  92
ENDBRANCH  62  85
ENDBRANCH  36  37
ENDBRANCH  28  31
ENDBRANCH  26  27
ENDBRANCH  25  26
ENDBRANCH  24  25
ENDBRANCH   1  24
TORSDOF 23
