REMARK SMILES O=C(CCCCc1nc(C[C@H]2CCCO2)no1)NCCCCCCNC(=O)c1ccc(-c2c3nc(c(-c4cc(S(=O)(=O)[O-])ccc4F)c4ccc([nH]4)c(-c4cc(S(=O)(=O)[O-])ccc4F)c4nc(c(-c5cc(S(=O)(=O)[O-])ccc5F)c5ccc2[nH]5)C=C4)C=C3)cc1
REMARK SMILES IDX 20 1 19 2 18 3 1 4 2 5 3 7 4 8 5 9 6 10 7 11 8 12 17 13 9 14
REMARK SMILES IDX 16 15 10 16 11 17 12 18 15 19 13 20 14 21 21 22 22 23 23 24
REMARK SMILES IDX 24 25 25 26 26 27 27 29 28 30 29 31 90 32 30 33 89 34 31 35
REMARK SMILES IDX 32 36 33 37 83 38 34 39 88 40 82 41 84 42 35 43 87 44 81 45
REMARK SMILES IDX 80 46 36 48 68 49 48 50 67 51 49 52 52 53 66 54 85 55 50 56
REMARK SMILES IDX 51 57 65 59 86 60 53 61 37 62 38 63 46 64 39 65 45 66 47 67
REMARK SMILES IDX 44 68 40 69 41 70 42 71 43 72 69 73 70 74 78 75 71 76 77 77
REMARK SMILES IDX 79 78 76 79 72 80 73 81 74 82 75 83 54 84 55 85 63 86 56 87
REMARK SMILES IDX 62 88 64 89 61 90 57 91 58 92 59 93 60 94
REMARK H PARENT 18 6 25 28 84 47 52 58
REMARK Flexibility Score: inf
ROOT
ATOM      1  C   UNL     1      11.293 -12.161   0.961  1.00  0.00     0.021 C 
ENDROOT
BRANCH   1   2
ATOM      2  C   UNL     1      11.651 -10.742   1.404  1.00  0.00     0.116 C 
BRANCH   2   3
ATOM      3  N   UNL     1      10.908  -9.763   0.639  1.00  0.00    -0.356 N 
ATOM      4  O   UNL     1      10.578  -8.234   2.320  1.00  0.00    -0.275 OA
ATOM      5  C   UNL     1      10.438  -8.582   1.154  1.00  0.00     0.219 C 
ATOM      6  H   UNL     1      10.729  -9.957  -0.309  1.00  0.00     0.163 HD
BRANCH   5   7
ATOM      7  C   UNL     1       9.705  -7.733   0.133  1.00  0.00     0.100 C 
BRANCH   7   8
ATOM      8  C   UNL     1      10.643  -7.001  -0.829  1.00  0.00     0.010 C 
BRANCH   8   9
ATOM      9  C   UNL     1      11.333  -7.849  -1.911  1.00  0.00     0.010 C 
BRANCH   9  10
ATOM     10  C   UNL     1      10.412  -8.695  -2.795  1.00  0.00     0.100 C 
BRANCH  10  11
ATOM     11  C   UNL     1       9.464  -7.869  -3.572  1.00  0.00     0.226 A 
ATOM     12  N   UNL     1       8.260  -7.454  -3.251  1.00  0.00    -0.196 NA
ATOM     13  O   UNL     1       9.875  -7.453  -4.803  1.00  0.00    -0.339 OA
ATOM     14  C   UNL     1       7.903  -6.737  -4.363  1.00  0.00     0.174 A 
ATOM     15  N   UNL     1       8.825  -6.707  -5.335  1.00  0.00    -0.062 NA
BRANCH  14  16
ATOM     16  C   UNL     1       6.588  -6.069  -4.493  1.00  0.00     0.113 C 
BRANCH  16  17
ATOM     17  C   UNL     1       6.609  -4.589  -4.094  1.00  0.00     0.126 C 
ATOM     18  C   UNL     1       7.425  -3.680  -5.007  1.00  0.00     0.035 C 
ATOM     19  O   UNL     1       5.252  -4.091  -4.178  1.00  0.00    -0.378 OA
ATOM     20  C   UNL     1       6.434  -3.324  -6.085  1.00  0.00     0.031 C 
ATOM     21  C   UNL     1       5.154  -3.190  -5.292  1.00  0.00     0.160 C 
ENDBRANCH  16  17
ENDBRANCH  14  16
ENDBRANCH  10  11
ENDBRANCH   9  10
ENDBRANCH   8   9
ENDBRANCH   7   8
ENDBRANCH   5   7
ENDBRANCH   2   3
ENDBRANCH   1   2
BRANCH   1  22
ATOM     22  C   UNL     1      11.584 -12.474  -0.516  1.00  0.00     0.002 C 
BRANCH  22  23
ATOM     23  C   UNL     1      13.050 -12.342  -0.938  1.00  0.00     0.002 C 
BRANCH  23  24
ATOM     24  C   UNL     1      14.028 -13.227  -0.163  1.00  0.00     0.021 C 
BRANCH  24  25
ATOM     25  C   UNL     1      13.705 -14.719  -0.180  1.00  0.00     0.116 C 
BRANCH  25  26
ATOM     26  N   UNL     1      13.739 -15.280  -1.520  1.00  0.00    -0.352 N 
ATOM     27  C   UNL     1      14.375 -16.407  -1.980  1.00  0.00     0.251 C 
ATOM     28  H   UNL     1      13.232 -14.779  -2.199  1.00  0.00     0.163 HD
ATOM     29  O   UNL     1      14.428 -16.616  -3.192  1.00  0.00    -0.269 OA
BRANCH  27  30
ATOM     30  C   UNL     1      15.020 -17.346  -1.033  1.00  0.00     0.039 A 
ATOM     31  C   UNL     1      16.272 -17.873  -1.360  1.00  0.00     0.014 A 
ATOM     32  C   UNL     1      14.401 -17.714   0.165  1.00  0.00     0.014 A 
ATOM     33  C   UNL     1      16.927 -18.715  -0.459  1.00  0.00     0.010 A 
ATOM     34  C   UNL     1      15.090 -18.491   1.097  1.00  0.00     0.010 A 
ATOM     35  C   UNL     1      16.362 -19.001   0.796  1.00  0.00    -0.014 A 
BRANCH  35  36
ATOM     36  C   UNL     1      17.112 -19.805   1.799  1.00  0.00     0.031 A 
ATOM     37  C   UNL     1      16.591 -21.138   2.266  1.00  0.00     0.074 A 
ATOM     38  C   UNL     1      18.255 -19.311   2.315  1.00  0.00     0.049 A 
ATOM     39  N   UNL     1      17.124 -21.983   3.112  1.00  0.00    -0.248 NA
ATOM     40  C   UNL     1      15.290 -21.562   1.733  1.00  0.00     0.031 C 
ATOM     41  C   UNL     1      18.835 -18.007   1.982  1.00  0.00     0.029 A 
ATOM     42  N   UNL     1      19.140 -19.844   3.218  1.00  0.00    -0.354 N 
ATOM     43  C   UNL     1      16.220 -23.036   3.220  1.00  0.00     0.074 A 
ATOM     44  C   UNL     1      15.078 -22.686   2.401  1.00  0.00     0.031 C 
ATOM     45  C   UNL     1      20.003 -17.867   2.628  1.00  0.00     0.029 A 
ATOM     46  C   UNL     1      20.234 -19.044   3.458  1.00  0.00     0.049 A 
ATOM     47  H   UNL     1      19.006 -20.717   3.652  1.00  0.00     0.167 HD
ATOM     48  C   UNL     1      16.342 -24.194   3.918  1.00  0.00     0.034 A 
ATOM     49  C   UNL     1      21.304 -19.237   4.254  1.00  0.00     0.034 A 
ATOM     50  C   UNL     1      17.491 -24.524   4.729  1.00  0.00     0.049 A 
ATOM     51  C   UNL     1      21.404 -20.519   5.038  1.00  0.00     0.074 A 
ATOM     52  C   UNL     1      17.751 -25.696   5.420  1.00  0.00     0.029 A 
ATOM     53  N   UNL     1      18.565 -23.677   4.978  1.00  0.00    -0.354 N 
ATOM     54  N   UNL     1      20.579 -21.540   5.068  1.00  0.00    -0.248 NA
ATOM     55  C   UNL     1      22.591 -20.676   5.888  1.00  0.00     0.031 C 
ATOM     56  C   UNL     1      18.932 -25.525   6.152  1.00  0.00     0.029 A 
ATOM     57  C   UNL     1      19.463 -24.281   5.848  1.00  0.00     0.049 A 
ATOM     58  H   UNL     1      18.674 -22.778   4.592  1.00  0.00     0.167 HD
ATOM     59  C   UNL     1      21.163 -22.474   5.920  1.00  0.00     0.074 A 
ATOM     60  C   UNL     1      22.422 -21.903   6.356  1.00  0.00     0.031 C 
ATOM     61  C   UNL     1      20.701 -23.692   6.306  1.00  0.00     0.034 A 
BRANCH  48  62
ATOM     62  C   UNL     1      15.183 -25.165   3.863  1.00  0.00     0.023 A 
ATOM     63  C   UNL     1      14.750 -25.739   2.654  1.00  0.00     0.031 A 
ATOM     64  C   UNL     1      14.477 -25.499   5.033  1.00  0.00     0.131 A 
ATOM     65  C   UNL     1      13.596 -26.538   2.628  1.00  0.00     0.055 A 
ATOM     66  C   UNL     1      13.385 -26.369   5.014  1.00  0.00     0.041 A 
ATOM     67  F   UNL     1      14.825 -24.970   6.216  1.00  0.00    -0.206 F 
ATOM     68  C   UNL     1      12.926 -26.880   3.804  1.00  0.00     0.022 A 
BRANCH  65  69
ATOM     69  S   UNL     1      12.886 -26.982   1.018  1.00  0.00     0.124 S 
ATOM     70  O   UNL     1      12.687 -25.668   0.410  1.00  0.00    -0.237 OA
ATOM     71  O   UNL     1      13.934 -27.807   0.428  1.00  0.00    -0.237 OA
ATOM     72  O   UNL     1      11.656 -27.690   1.369  1.00  0.00    -0.744 OA
ENDBRANCH  65  69
ENDBRANCH  48  62
BRANCH  49  73
ATOM     73  C   UNL     1      22.374 -18.202   4.346  1.00  0.00     0.023 A 
ATOM     74  C   UNL     1      23.681 -18.476   3.913  1.00  0.00     0.031 A 
ATOM     75  C   UNL     1      22.116 -16.936   4.902  1.00  0.00     0.131 A 
ATOM     76  C   UNL     1      24.691 -17.517   4.084  1.00  0.00     0.055 A 
ATOM     77  C   UNL     1      23.111 -15.965   5.018  1.00  0.00     0.041 A 
ATOM     78  F   UNL     1      20.883 -16.620   5.328  1.00  0.00    -0.206 F 
ATOM     79  C   UNL     1      24.412 -16.257   4.619  1.00  0.00     0.022 A 
BRANCH  76  80
ATOM     80  S   UNL     1      26.398 -17.969   3.668  1.00  0.00     0.124 S 
ATOM     81  O   UNL     1      26.626 -19.109   4.548  1.00  0.00    -0.237 OA
ATOM     82  O   UNL     1      26.294 -18.267   2.244  1.00  0.00    -0.237 OA
ATOM     83  O   UNL     1      27.158 -16.764   3.996  1.00  0.00    -0.744 OA
ENDBRANCH  76  80
ENDBRANCH  49  73
BRANCH  61  84
ATOM     84  C   UNL     1      21.590 -24.492   7.233  1.00  0.00     0.023 A 
ATOM     85  C   UNL     1      21.915 -24.032   8.522  1.00  0.00     0.031 A 
ATOM     86  C   UNL     1      22.163 -25.702   6.803  1.00  0.00     0.131 A 
ATOM     87  C   UNL     1      22.855 -24.728   9.298  1.00  0.00     0.055 A 
ATOM     88  C   UNL     1      23.035 -26.433   7.613  1.00  0.00     0.041 A 
ATOM     89  F   UNL     1      21.896 -26.191   5.582  1.00  0.00    -0.206 F 
ATOM     90  C   UNL     1      23.402 -25.936   8.860  1.00  0.00     0.022 A 
BRANCH  87  91
ATOM     91  S   UNL     1      23.461 -23.957  10.825  1.00  0.00     0.124 S 
ATOM     92  O   UNL     1      23.960 -22.675  10.338  1.00  0.00    -0.237 OA
ATOM     93  O   UNL     1      22.256 -23.902  11.646  1.00  0.00    -0.237 OA
ATOM     94  O   UNL     1      24.488 -24.886  11.293  1.00  0.00    -0.744 OA
ENDBRANCH  87  91
ENDBRANCH  61  84
ENDBRANCH  35  36
ENDBRANCH  27  30
ENDBRANCH  25  26
ENDBRANCH  24  25
ENDBRANCH  23  24
ENDBRANCH  22  23
ENDBRANCH   1  22
TORSDOF 22
