REMARK SMILES CC(C)C[N@@H+](C[C@@H](C)C(=O)NCCCCCCNC(=O)c1ccc(-c2c3nc(c(-c4cc(S(=O)(=O)[O-])ccc4F)c4ccc([nH]4)c(-c4cc(S(=O)(=O)[O-])ccc4F)c4nc(c(-c5cc(S(=O)(=O)[O-])ccc5F)c5ccc2[nH]5)C=C4)C=C3)cc1)C1CCCC1
REMARK SMILES IDX 14 1 13 2 12 3 11 4 9 5 10 6 7 8 8 9 6 10 5 11 4 13 2 14
REMARK SMILES IDX 1 15 3 16 84 17 85 18 88 19 86 20 87 21 15 22 16 23 17 24
REMARK SMILES IDX 18 25 19 26 20 28 21 29 22 30 83 31 23 32 82 33 24 34 25 35
REMARK SMILES IDX 26 36 76 37 27 38 81 39 75 40 77 41 28 42 80 43 74 44 73 45
REMARK SMILES IDX 29 47 61 48 41 49 60 50 42 51 45 52 59 53 78 54 43 55 44 56
REMARK SMILES IDX 58 58 79 59 46 60 30 61 31 62 39 63 32 64 38 65 40 66 37 67
REMARK SMILES IDX 33 68 34 69 35 70 36 71 62 72 63 73 71 74 64 75 70 76 72 77
REMARK SMILES IDX 69 78 65 79 66 80 67 81 68 82 47 83 48 84 56 85 49 86 55 87
REMARK SMILES IDX 57 88 54 89 50 90 51 91 52 92 53 93
REMARK H PARENT 11 7 5 12 18 27 77 46 45 57
REMARK Flexibility Score: inf
ROOT
ATOM      1  C   UNL     1      -7.144  -3.474   1.454  1.00  0.00     0.002 C 
ENDROOT
BRANCH   1   2
ATOM      2  C   UNL     1      -5.674  -3.076   1.265  1.00  0.00     0.021 C 
BRANCH   2   3
ATOM      3  C   UNL     1      -5.446  -2.280  -0.023  1.00  0.00     0.116 C 
BRANCH   3   4
ATOM      4  N   UNL     1      -5.993  -0.944   0.137  1.00  0.00    -0.356 N 
ATOM      5  C   UNL     1      -5.377   0.244   0.388  1.00  0.00     0.228 C 
ATOM      6  O   UNL     1      -6.088   1.198   0.716  1.00  0.00    -0.275 OA
ATOM      7  H   UNL     1      -6.972  -0.888   0.050  1.00  0.00     0.163 HD
BRANCH   5   8
ATOM      8  C   UNL     1      -3.885   0.442   0.129  1.00  0.00     0.130 C 
ATOM      9  C   UNL     1      -3.729   0.420  -1.391  1.00  0.00     0.024 C 
BRANCH   8  10
ATOM     10  C   UNL     1      -2.994  -0.439   1.056  1.00  0.00     0.275 C 
BRANCH  10  11
ATOM     11  N   UNL     1      -1.533  -0.575   0.881  1.00  0.00    -0.332 N 
ATOM     12  H   UNL     1      -1.196  -0.902   1.786  1.00  0.00     0.348 HD
BRANCH  11  13
ATOM     13  C   UNL     1      -0.874   0.723   0.683  1.00  0.00     0.265 C 
BRANCH  13  14
ATOM     14  C   UNL     1       0.647   0.849   0.974  1.00  0.00     0.038 C 
ATOM     15  C   UNL     1       1.552   0.284  -0.126  1.00  0.00     0.013 C 
ATOM     16  C   UNL     1       0.985   2.339   1.150  1.00  0.00     0.013 C 
ENDBRANCH  13  14
ENDBRANCH  11  13
BRANCH  11  17
ATOM     17  C   UNL     1      -1.038  -1.718   0.108  1.00  0.00     0.184 C 
ATOM     18  C   UNL     1      -1.481  -3.124   0.547  1.00  0.00     0.065 C 
ATOM     19  C   UNL     1      -1.350  -1.740  -1.384  1.00  0.00     0.065 C 
ATOM     20  C   UNL     1      -1.033  -4.024  -0.607  1.00  0.00     0.006 C 
ATOM     21  C   UNL     1      -1.079  -3.159  -1.863  1.00  0.00     0.006 C 
ENDBRANCH  11  17
ENDBRANCH  10  11
ENDBRANCH   8  10
ENDBRANCH   5   8
ENDBRANCH   3   4
ENDBRANCH   2   3
ENDBRANCH   1   2
BRANCH   1  22
ATOM     22  C   UNL     1      -7.679  -4.410   0.366  1.00  0.00     0.002 C 
BRANCH  22  23
ATOM     23  C   UNL     1      -6.929  -5.739   0.256  1.00  0.00     0.021 C 
BRANCH  23  24
ATOM     24  C   UNL     1      -6.966  -6.575   1.530  1.00  0.00     0.116 C 
BRANCH  24  25
ATOM     25  N   UNL     1      -8.330  -6.926   1.896  1.00  0.00    -0.352 N 
ATOM     26  C   UNL     1      -8.875  -8.166   2.113  1.00  0.00     0.251 C 
ATOM     27  H   UNL     1      -8.948  -6.167   2.003  1.00  0.00     0.163 HD
ATOM     28  O   UNL     1     -10.091  -8.302   2.158  1.00  0.00    -0.269 OA
BRANCH  26  29
ATOM     29  C   UNL     1      -7.978  -9.330   2.271  1.00  0.00     0.039 A 
ATOM     30  C   UNL     1      -8.284 -10.518   1.608  1.00  0.00     0.014 A 
ATOM     31  C   UNL     1      -6.834  -9.238   3.069  1.00  0.00     0.014 A 
ATOM     32  C   UNL     1      -7.409 -11.601   1.701  1.00  0.00     0.010 A 
ATOM     33  C   UNL     1      -5.924 -10.289   3.095  1.00  0.00     0.010 A 
ATOM     34  C   UNL     1      -6.205 -11.484   2.416  1.00  0.00    -0.014 A 
BRANCH  34  35
ATOM     35  C   UNL     1      -5.231 -12.604   2.470  1.00  0.00     0.031 A 
ATOM     36  C   UNL     1      -4.902 -13.254   3.785  1.00  0.00     0.074 A 
ATOM     37  C   UNL     1      -4.605 -12.996   1.342  1.00  0.00     0.049 A 
ATOM     38  N   UNL     1      -4.035 -14.198   4.048  1.00  0.00    -0.248 NA
ATOM     39  C   UNL     1      -5.623 -12.755   4.966  1.00  0.00     0.031 C 
ATOM     40  C   UNL     1      -4.816 -12.414   0.014  1.00  0.00     0.029 A 
ATOM     41  N   UNL     1      -3.662 -13.969   1.130  1.00  0.00    -0.354 N 
ATOM     42  C   UNL     1      -4.099 -14.399   5.423  1.00  0.00     0.074 A 
ATOM     43  C   UNL     1      -5.039 -13.430   5.944  1.00  0.00     0.031 C 
ATOM     44  C   UNL     1      -4.050 -13.062  -0.876  1.00  0.00     0.029 A 
ATOM     45  C   UNL     1      -3.253 -14.067  -0.180  1.00  0.00     0.049 A 
ATOM     46  H   UNL     1      -3.311 -14.544   1.848  1.00  0.00     0.167 HD
ATOM     47  C   UNL     1      -3.451 -15.323   6.176  1.00  0.00     0.034 A 
ATOM     48  C   UNL     1      -2.330 -14.865  -0.753  1.00  0.00     0.034 A 
ATOM     49  C   UNL     1      -2.520 -16.283   5.635  1.00  0.00     0.049 A 
ATOM     50  C   UNL     1      -1.592 -15.857   0.111  1.00  0.00     0.074 A 
ATOM     51  C   UNL     1      -1.846 -17.295   6.296  1.00  0.00     0.029 A 
ATOM     52  N   UNL     1      -2.120 -16.345   4.305  1.00  0.00    -0.354 N 
ATOM     53  N   UNL     1      -1.702 -16.070   1.402  1.00  0.00    -0.248 NA
ATOM     54  C   UNL     1      -0.616 -16.723  -0.562  1.00  0.00     0.031 C 
ATOM     55  C   UNL     1      -0.981 -17.913   5.387  1.00  0.00     0.029 A 
ATOM     56  C   UNL     1      -1.181 -17.351   4.136  1.00  0.00     0.049 A 
ATOM     57  H   UNL     1      -2.455 -15.759   3.588  1.00  0.00     0.167 HD
ATOM     58  C   UNL     1      -0.831 -17.119   1.688  1.00  0.00     0.074 A 
ATOM     59  C   UNL     1      -0.218 -17.502   0.433  1.00  0.00     0.031 C 
ATOM     60  C   UNL     1      -0.567 -17.716   2.879  1.00  0.00     0.034 A 
BRANCH  47  61
ATOM     61  C   UNL     1      -3.710 -15.313   7.665  1.00  0.00     0.023 A 
ATOM     62  C   UNL     1      -4.993 -15.539   8.195  1.00  0.00     0.031 A 
ATOM     63  C   UNL     1      -2.667 -15.045   8.569  1.00  0.00     0.131 A 
ATOM     64  C   UNL     1      -5.215 -15.413   9.575  1.00  0.00     0.055 A 
ATOM     65  C   UNL     1      -2.876 -15.010   9.949  1.00  0.00     0.041 A 
ATOM     66  F   UNL     1      -1.424 -14.797   8.125  1.00  0.00    -0.206 F 
ATOM     67  C   UNL     1      -4.160 -15.178  10.458  1.00  0.00     0.022 A 
BRANCH  64  68
ATOM     68  S   UNL     1      -6.926 -15.401  10.178  1.00  0.00     0.124 S 
ATOM     69  O   UNL     1      -7.495 -14.283   9.428  1.00  0.00    -0.237 OA
ATOM     70  O   UNL     1      -7.401 -16.728   9.805  1.00  0.00    -0.237 OA
ATOM     71  O   UNL     1      -6.782 -15.169  11.613  1.00  0.00    -0.744 OA
ENDBRANCH  64  68
ENDBRANCH  47  61
BRANCH  48  72
ATOM     72  C   UNL     1      -2.039 -14.756  -2.212  1.00  0.00     0.023 A 
ATOM     73  C   UNL     1      -2.286 -15.830  -3.082  1.00  0.00     0.031 A 
ATOM     74  C   UNL     1      -1.470 -13.589  -2.752  1.00  0.00     0.131 A 
ATOM     75  C   UNL     1      -1.920 -15.734  -4.434  1.00  0.00     0.055 A 
ATOM     76  C   UNL     1      -1.163 -13.476  -4.110  1.00  0.00     0.041 A 
ATOM     77  F   UNL     1      -1.215 -12.530  -1.967  1.00  0.00    -0.206 F 
ATOM     78  C   UNL     1      -1.375 -14.559  -4.957  1.00  0.00     0.022 A 
BRANCH  75  79
ATOM     79  S   UNL     1      -2.081 -17.204  -5.484  1.00  0.00     0.124 S 
ATOM     80  O   UNL     1      -1.247 -18.167  -4.774  1.00  0.00    -0.237 OA
ATOM     81  O   UNL     1      -3.519 -17.448  -5.446  1.00  0.00    -0.237 OA
ATOM     82  O   UNL     1      -1.561 -16.759  -6.775  1.00  0.00    -0.744 OA
ENDBRANCH  75  79
ENDBRANCH  48  72
BRANCH  60  83
ATOM     83  C   UNL     1       0.394 -18.881   2.867  1.00  0.00     0.023 A 
ATOM     84  C   UNL     1       1.751 -18.724   2.536  1.00  0.00     0.031 A 
ATOM     85  C   UNL     1      -0.062 -20.174   3.186  1.00  0.00     0.131 A 
ATOM     86  C   UNL     1       2.590 -19.847   2.474  1.00  0.00     0.055 A 
ATOM     87  C   UNL     1       0.793 -21.276   3.190  1.00  0.00     0.041 A 
ATOM     88  F   UNL     1      -1.349 -20.386   3.505  1.00  0.00    -0.206 F 
ATOM     89  C   UNL     1       2.125 -21.118   2.819  1.00  0.00     0.022 A 
BRANCH  86  90
ATOM     90  S   UNL     1       4.276 -19.640   1.837  1.00  0.00     0.124 S 
ATOM     91  O   UNL     1       4.032 -19.087   0.508  1.00  0.00    -0.237 OA
ATOM     92  O   UNL     1       4.867 -18.726   2.808  1.00  0.00    -0.237 OA
ATOM     93  O   UNL     1       4.818 -20.997   1.854  1.00  0.00    -0.744 OA
ENDBRANCH  86  90
ENDBRANCH  60  83
ENDBRANCH  34  35
ENDBRANCH  26  29
ENDBRANCH  24  25
ENDBRANCH  23  24
ENDBRANCH  22  23
ENDBRANCH   1  22
TORSDOF 21
