REMARK SMILES Cc1ccccc1OC1(C(=O)NCCCCCCNC(=O)c2ccc(-c3c4nc(c(-c5cc(S(=O)(=O)[O-])ccc5F)c5ccc([nH]5)c(-c5cc(S(=O)(=O)[O-])ccc5F)c5nc(c(-c6cc(S(=O)(=O)[O-])ccc6F)c6ccc3[nH]6)C=C5)C=C4)cc2)CCN(C(=O)[C@H]2CCCCO2)CC1
REMARK SMILES IDX 16 1 15 2 14 3 13 4 12 5 10 6 11 7 9 9 85 10 97 11 86 12
REMARK SMILES IDX 96 13 87 14 88 15 89 16 8 17 7 18 1 19 2 20 3 21 4 22 6 23
REMARK SMILES IDX 5 24 90 25 91 26 95 27 92 28 94 29 93 30 17 31 18 32 19 33
REMARK SMILES IDX 20 34 21 36 22 37 23 38 84 39 24 40 83 41 25 42 26 43 27 44
REMARK SMILES IDX 77 45 28 46 82 47 76 48 78 49 29 50 81 51 75 52 74 53 30 55
REMARK SMILES IDX 62 56 42 57 61 58 43 59 46 60 60 61 79 62 44 63 45 64 59 66
REMARK SMILES IDX 80 67 47 68 31 69 32 70 40 71 33 72 39 73 41 74 38 75 34 76
REMARK SMILES IDX 35 77 36 78 37 79 63 80 64 81 72 82 65 83 71 84 73 85 70 86
REMARK SMILES IDX 66 87 67 88 68 89 69 90 48 91 49 92 57 93 50 94 56 95 58 96
REMARK SMILES IDX 55 97 51 98 52 99 53 100 54 101
REMARK H PARENT 12 8 19 35 78 54 46 65
REMARK Flexibility Score: inf
ROOT
ATOM      1  C   UNL     1       9.418  -2.988  -5.341  1.00  0.00     0.002 C 
ENDROOT
BRANCH   1   2
ATOM      2  C   UNL     1       9.796  -4.133  -4.384  1.00  0.00     0.002 C 
BRANCH   2   3
ATOM      3  C   UNL     1       8.981  -4.242  -3.091  1.00  0.00     0.021 C 
BRANCH   3   4
ATOM      4  C   UNL     1       7.468  -4.300  -3.284  1.00  0.00     0.116 C 
BRANCH   4   5
ATOM      5  N   UNL     1       6.964  -5.636  -3.503  1.00  0.00    -0.353 N 
ATOM      6  C   UNL     1       6.048  -6.396  -2.833  1.00  0.00     0.264 C 
ATOM      7  O   UNL     1       5.716  -7.436  -3.418  1.00  0.00    -0.270 OA
ATOM      8  H   UNL     1       7.356  -6.085  -4.286  1.00  0.00     0.163 HD
BRANCH   6   9
ATOM      9  C   UNL     1       5.438  -5.995  -1.425  1.00  0.00     0.190 C 
ATOM     10  C   UNL     1       6.572  -5.957  -0.402  1.00  0.00     0.080 C 
ATOM     11  C   UNL     1       4.550  -4.759  -1.607  1.00  0.00     0.080 C 
ATOM     12  C   UNL     1       6.985  -4.582   0.099  1.00  0.00     0.124 C 
ATOM     13  C   UNL     1       4.978  -3.467  -0.914  1.00  0.00     0.124 C 
ATOM     14  N   UNL     1       5.904  -3.601   0.203  1.00  0.00    -0.340 N 
ATOM     15  C   UNL     1       5.997  -2.673   1.252  1.00  0.00     0.251 C 
ATOM     16  O   UNL     1       6.910  -2.746   2.081  1.00  0.00    -0.272 OA
BRANCH   9  17
ATOM     17  O   UNL     1       4.612  -7.173  -1.175  1.00  0.00    -0.477 OA
BRANCH  17  18
ATOM     18  C   UNL     1       3.658  -7.478  -0.256  1.00  0.00     0.123 A 
ATOM     19  C   UNL     1       4.039  -5.847   1.722  1.00  0.00     0.048 C 
ATOM     20  C   UNL     1       3.341  -6.948   1.001  1.00  0.00    -0.009 A 
ATOM     21  C   UNL     1       2.303  -7.541   1.765  1.00  0.00     0.007 A 
ATOM     22  C   UNL     1       1.578  -8.632   1.304  1.00  0.00     0.001 A 
ATOM     23  C   UNL     1       2.908  -8.588  -0.698  1.00  0.00     0.047 A 
ATOM     24  C   UNL     1       1.883  -9.159   0.062  1.00  0.00     0.004 A 
ENDBRANCH  17  18
ENDBRANCH   9  17
BRANCH  15  25
ATOM     25  C   UNL     1       4.905  -1.581   1.389  1.00  0.00     0.207 C 
ATOM     26  C   UNL     1       3.699  -2.186   2.123  1.00  0.00     0.042 C 
ATOM     27  O   UNL     1       5.449  -0.477   2.123  1.00  0.00    -0.368 OA
ATOM     28  C   UNL     1       2.690  -1.132   2.562  1.00  0.00     0.006 C 
ATOM     29  C   UNL     1       4.510   0.551   2.403  1.00  0.00     0.161 C 
ATOM     30  C   UNL     1       3.390   0.014   3.277  1.00  0.00     0.029 C 
ENDBRANCH  15  25
ENDBRANCH   6   9
ENDBRANCH   4   5
ENDBRANCH   3   4
ENDBRANCH   2   3
ENDBRANCH   1   2
BRANCH   1  31
ATOM     31  C   UNL     1       9.289  -1.600  -4.713  1.00  0.00     0.021 C 
BRANCH  31  32
ATOM     32  C   UNL     1      10.600  -1.024  -4.190  1.00  0.00     0.116 C 
BRANCH  32  33
ATOM     33  N   UNL     1      11.239  -0.074  -5.094  1.00  0.00    -0.352 N 
ATOM     34  C   UNL     1      12.409   0.646  -4.910  1.00  0.00     0.251 C 
ATOM     35  H   UNL     1      10.777   0.076  -5.950  1.00  0.00     0.163 HD
ATOM     36  O   UNL     1      12.794   1.458  -5.736  1.00  0.00    -0.269 OA
BRANCH  34  37
ATOM     37  C   UNL     1      13.265   0.319  -3.743  1.00  0.00     0.039 A 
ATOM     38  C   UNL     1      14.596  -0.030  -4.001  1.00  0.00     0.014 A 
ATOM     39  C   UNL     1      12.720   0.129  -2.476  1.00  0.00     0.014 A 
ATOM     40  C   UNL     1      15.297  -0.788  -3.066  1.00  0.00     0.010 A 
ATOM     41  C   UNL     1      13.378  -0.699  -1.587  1.00  0.00     0.010 A 
ATOM     42  C   UNL     1      14.639  -1.212  -1.911  1.00  0.00    -0.014 A 
BRANCH  42  43
ATOM     43  C   UNL     1      15.141  -2.283  -1.056  1.00  0.00     0.031 A 
ATOM     44  C   UNL     1      15.749  -1.980   0.254  1.00  0.00     0.074 A 
ATOM     45  C   UNL     1      15.014  -3.567  -1.457  1.00  0.00     0.049 A 
ATOM     46  N   UNL     1      16.554  -2.766   0.885  1.00  0.00    -0.248 NA
ATOM     47  C   UNL     1      15.521  -0.716   0.942  1.00  0.00     0.031 C 
ATOM     48  C   UNL     1      15.250  -4.775  -0.672  1.00  0.00     0.029 A 
ATOM     49  N   UNL     1      14.902  -4.021  -2.770  1.00  0.00    -0.354 N 
ATOM     50  C   UNL     1      16.767  -2.241   2.137  1.00  0.00     0.074 A 
ATOM     51  C   UNL     1      16.127  -0.946   2.111  1.00  0.00     0.031 C 
ATOM     52  C   UNL     1      15.546  -5.780  -1.511  1.00  0.00     0.029 A 
ATOM     53  C   UNL     1      15.640  -5.220  -2.847  1.00  0.00     0.049 A 
ATOM     54  H   UNL     1      14.404  -3.589  -3.501  1.00  0.00     0.167 HD
ATOM     55  C   UNL     1      17.379  -2.999   3.092  1.00  0.00     0.034 A 
ATOM     56  C   UNL     1      16.724  -5.302  -3.673  1.00  0.00     0.034 A 
ATOM     57  C   UNL     1      17.827  -4.284   2.561  1.00  0.00     0.049 A 
ATOM     58  C   UNL     1      18.038  -5.524  -2.947  1.00  0.00     0.074 A 
ATOM     59  C   UNL     1      17.307  -5.568   2.555  1.00  0.00     0.029 A 
ATOM     60  N   UNL     1      18.873  -4.292   1.657  1.00  0.00    -0.354 N 
ATOM     61  N   UNL     1      18.168  -5.585  -1.649  1.00  0.00    -0.248 NA
ATOM     62  C   UNL     1      19.325  -5.605  -3.639  1.00  0.00     0.031 C 
ATOM     63  C   UNL     1      18.019  -6.326   1.577  1.00  0.00     0.029 A 
ATOM     64  C   UNL     1      18.986  -5.511   1.017  1.00  0.00     0.049 A 
ATOM     65  H   UNL     1      19.465  -3.523   1.490  1.00  0.00     0.167 HD
ATOM     66  C   UNL     1      19.498  -5.651  -1.331  1.00  0.00     0.074 A 
ATOM     67  C   UNL     1      20.185  -5.663  -2.610  1.00  0.00     0.031 C 
ATOM     68  C   UNL     1      19.965  -5.651  -0.048  1.00  0.00     0.034 A 
BRANCH  55  69
ATOM     69  C   UNL     1      17.385  -2.666   4.563  1.00  0.00     0.023 A 
ATOM     70  C   UNL     1      17.410  -3.716   5.503  1.00  0.00     0.031 A 
ATOM     71  C   UNL     1      17.339  -1.367   5.106  1.00  0.00     0.131 A 
ATOM     72  C   UNL     1      17.290  -3.468   6.883  1.00  0.00     0.055 A 
ATOM     73  C   UNL     1      17.148  -1.121   6.472  1.00  0.00     0.041 A 
ATOM     74  F   UNL     1      17.535  -0.280   4.347  1.00  0.00    -0.206 F 
ATOM     75  C   UNL     1      17.110  -2.176   7.370  1.00  0.00     0.022 A 
BRANCH  72  76
ATOM     76  S   UNL     1      17.391  -4.859   8.042  1.00  0.00     0.124 S 
ATOM     77  O   UNL     1      16.309  -5.725   7.586  1.00  0.00    -0.237 OA
ATOM     78  O   UNL     1      18.748  -5.346   7.817  1.00  0.00    -0.237 OA
ATOM     79  O   UNL     1      17.172  -4.232   9.345  1.00  0.00    -0.744 OA
ENDBRANCH  72  76
ENDBRANCH  55  69
BRANCH  56  80
ATOM     80  C   UNL     1      16.543  -4.521  -4.933  1.00  0.00     0.023 A 
ATOM     81  C   UNL     1      15.403  -4.820  -5.714  1.00  0.00     0.031 A 
ATOM     82  C   UNL     1      17.185  -3.296  -5.156  1.00  0.00     0.131 A 
ATOM     83  C   UNL     1      14.834  -3.839  -6.537  1.00  0.00     0.055 A 
ATOM     84  C   UNL     1      16.659  -2.351  -6.045  1.00  0.00     0.041 A 
ATOM     85  F   UNL     1      18.251  -2.936  -4.426  1.00  0.00    -0.206 F 
ATOM     86  C   UNL     1      15.452  -2.599  -6.700  1.00  0.00     0.022 A 
BRANCH  83  87
ATOM     87  S   UNL     1      13.137  -4.084  -7.143  1.00  0.00     0.124 S 
ATOM     88  O   UNL     1      13.361  -4.718  -8.437  1.00  0.00    -0.237 OA
ATOM     89  O   UNL     1      12.541  -4.933  -6.114  1.00  0.00    -0.237 OA
ATOM     90  O   UNL     1      12.596  -2.728  -7.190  1.00  0.00    -0.744 OA
ENDBRANCH  83  87
ENDBRANCH  56  80
BRANCH  68  91
ATOM     91  C   UNL     1      21.428  -5.765   0.265  1.00  0.00     0.023 A 
ATOM     92  C   UNL     1      22.242  -6.691  -0.406  1.00  0.00     0.031 A 
ATOM     93  C   UNL     1      22.041  -4.998   1.277  1.00  0.00     0.131 A 
ATOM     94  C   UNL     1      23.615  -6.771  -0.126  1.00  0.00     0.055 A 
ATOM     95  C   UNL     1      23.388  -5.148   1.618  1.00  0.00     0.041 A 
ATOM     96  F   UNL     1      21.370  -4.043   1.937  1.00  0.00    -0.206 F 
ATOM     97  C   UNL     1      24.189  -6.028   0.904  1.00  0.00     0.022 A 
BRANCH  94  98
ATOM     98  S   UNL     1      24.654  -7.783  -1.210  1.00  0.00     0.124 S 
ATOM     99  O   UNL     1      24.021  -9.095  -1.127  1.00  0.00    -0.237 OA
ATOM    100  O   UNL     1      24.509  -7.088  -2.487  1.00  0.00    -0.237 OA
ATOM    101  O   UNL     1      25.980  -7.690  -0.603  1.00  0.00    -0.744 OA
ENDBRANCH  94  98
ENDBRANCH  68  91
ENDBRANCH  42  43
ENDBRANCH  34  37
ENDBRANCH  32  33
ENDBRANCH  31  32
ENDBRANCH   1  31
TORSDOF 19
