REMARK SMILES COc1cccc([C@H]2CC(c3ccc(S(C)(=O)=O)cc3)=NN2c2ccc(C(=O)NCCCCCCNC(=O)c3ccc(-c4c5nc(c(-c6cc(S(=O)(=O)[O-])ccc6F)c6ccc([nH]6)c(-c6cc(S(=O)(=O)[O-])ccc6F)c6nc(c(-c7cc(S(=O)(=O)[O-])ccc7F)c7ccc4[nH]7)C=C6)C=C5)cc3)cc2)c1
REMARK SMILES IDX 32 1 31 2 30 3 29 4 27 5 28 6 26 8 23 9 24 10 103 11 25 12
REMARK SMILES IDX 102 13 22 14 8 15 9 16 10 17 21 18 7 19 3 20 4 21 104 22
REMARK SMILES IDX 5 23 6 24 2 25 1 26 11 27 12 28 20 29 13 30 19 31 14 32
REMARK SMILES IDX 15 33 16 34 17 35 18 36 33 37 34 38 35 39 36 40 37 41 38 43
REMARK SMILES IDX 39 44 40 45 101 46 41 47 100 48 42 49 43 50 44 51 94 52
REMARK SMILES IDX 45 53 99 54 93 55 95 56 46 57 98 58 92 59 91 60 47 62 79 63
REMARK SMILES IDX 59 64 78 65 60 66 63 67 77 68 96 69 61 70 62 71 76 73 97 74
REMARK SMILES IDX 64 75 48 76 49 77 57 78 50 79 56 80 58 81 55 82 51 83 52 84
REMARK SMILES IDX 53 85 54 86 80 87 81 88 89 89 82 90 88 91 90 92 87 93 83 94
REMARK SMILES IDX 84 95 85 96 86 97 65 98 66 99 74 100 67 101 73 102 75 103
REMARK SMILES IDX 72 104 68 105 69 106 70 107 71 108
REMARK H PARENT 29 7 36 42 95 61 63 72
REMARK Flexibility Score: inf
ROOT
ATOM      1  C   UNL     1       5.509  10.681  -4.443  1.00  0.00     0.002 C 
ENDROOT
BRANCH   1   2
ATOM      2  C   UNL     1       5.515   9.681  -3.278  1.00  0.00     0.021 C 
BRANCH   2   3
ATOM      3  C   UNL     1       4.236   8.846  -3.205  1.00  0.00     0.116 C 
BRANCH   3   4
ATOM      4  N   UNL     1       4.279   7.801  -4.209  1.00  0.00    -0.352 N 
ATOM      5  C   UNL     1       4.565   6.464  -4.144  1.00  0.00     0.251 C 
ATOM      6  O   UNL     1       4.566   5.834  -5.203  1.00  0.00    -0.269 OA
ATOM      7  H   UNL     1       4.061   8.115  -5.116  1.00  0.00     0.163 HD
BRANCH   5   8
ATOM      8  C   UNL     1       4.794   5.735  -2.866  1.00  0.00     0.039 A 
ATOM      9  C   UNL     1       5.001   4.205  -0.498  1.00  0.00     0.060 A 
ATOM     10  C   UNL     1       4.579   3.618  -1.694  1.00  0.00     0.029 A 
ATOM     11  C   UNL     1       5.387   5.546  -0.517  1.00  0.00     0.029 A 
ATOM     12  C   UNL     1       4.454   4.376  -2.858  1.00  0.00     0.016 A 
ATOM     13  C   UNL     1       5.328   6.293  -1.702  1.00  0.00     0.016 A 
BRANCH   9  14
ATOM     14  N   UNL     1       5.036   3.453   0.660  1.00  0.00    -0.257 N 
ATOM     15  C   UNL     1       4.207   3.695   1.840  1.00  0.00     0.144 C 
ATOM     16  C   UNL     1       4.697   2.613   2.816  1.00  0.00     0.091 C 
ATOM     17  C   UNL     1       5.818   2.023   2.006  1.00  0.00     0.071 C 
ATOM     18  N   UNL     1       5.978   2.495   0.812  1.00  0.00    -0.176 NA
BRANCH  15  19
ATOM     19  C   UNL     1       2.727   3.583   1.507  1.00  0.00    -0.019 A 
ATOM     20  C   UNL     1       0.854   2.352   0.534  1.00  0.00     0.119 A 
ATOM     21  C   UNL     1       0.030   3.457   0.749  1.00  0.00     0.046 A 
ATOM     22  C   UNL     1       2.197   2.420   0.910  1.00  0.00     0.052 A 
ATOM     23  C   UNL     1       0.532   4.611   1.350  1.00  0.00     0.004 A 
ATOM     24  C   UNL     1       1.873   4.674   1.728  1.00  0.00     0.006 A 
BRANCH  20  25
ATOM     25  O   UNL     1       0.246   1.290  -0.076  1.00  0.00    -0.497 OA
ATOM     26  C   UNL     1       0.949   0.054  -0.050  1.00  0.00     0.278 C 
ENDBRANCH  20  25
ENDBRANCH  15  19
BRANCH  17  27
ATOM     27  C   UNL     1       6.704   0.991   2.549  1.00  0.00    -0.002 A 
ATOM     28  C   UNL     1       8.080   1.243   2.560  1.00  0.00     0.011 A 
ATOM     29  C   UNL     1       6.191  -0.238   2.967  1.00  0.00     0.011 A 
ATOM     30  C   UNL     1       8.958   0.258   3.004  1.00  0.00     0.021 A 
ATOM     31  C   UNL     1       7.072  -1.236   3.386  1.00  0.00     0.021 A 
ATOM     32  C   UNL     1       8.450  -0.985   3.394  1.00  0.00     0.067 A 
BRANCH  32  33
ATOM     33  S   UNL     1       9.583  -2.258   3.899  1.00  0.00     0.175 S 
ATOM     34  C   UNL     1      10.611  -2.516   2.476  1.00  0.00     0.163 C 
ATOM     35  O   UNL     1      10.396  -1.700   4.961  1.00  0.00    -0.224 OA
ATOM     36  O   UNL     1       8.815  -3.473   4.104  1.00  0.00    -0.224 OA
ENDBRANCH  32  33
ENDBRANCH  17  27
ENDBRANCH   9  14
ENDBRANCH   5   8
ENDBRANCH   3   4
ENDBRANCH   2   3
ENDBRANCH   1   2
BRANCH   1  37
ATOM     37  C   UNL     1       4.423  11.760  -4.350  1.00  0.00     0.002 C 
BRANCH  37  38
ATOM     38  C   UNL     1       4.434  12.574  -3.053  1.00  0.00     0.021 C 
BRANCH  38  39
ATOM     39  C   UNL     1       5.726  13.350  -2.812  1.00  0.00     0.116 C 
BRANCH  39  40
ATOM     40  N   UNL     1       5.934  14.361  -3.834  1.00  0.00    -0.352 N 
ATOM     41  C   UNL     1       6.135  15.710  -3.695  1.00  0.00     0.251 C 
ATOM     42  H   UNL     1       5.930  14.029  -4.761  1.00  0.00     0.163 HD
ATOM     43  O   UNL     1       6.023  16.440  -4.676  1.00  0.00    -0.269 OA
BRANCH  41  44
ATOM     44  C   UNL     1       6.477  16.280  -2.373  1.00  0.00     0.039 A 
ATOM     45  C   UNL     1       5.918  17.506  -2.005  1.00  0.00     0.014 A 
ATOM     46  C   UNL     1       7.382  15.640  -1.520  1.00  0.00     0.014 A 
ATOM     47  C   UNL     1       6.245  18.076  -0.773  1.00  0.00     0.010 A 
ATOM     48  C   UNL     1       7.651  16.173  -0.262  1.00  0.00     0.010 A 
ATOM     49  C   UNL     1       7.103  17.407   0.116  1.00  0.00    -0.014 A 
BRANCH  49  50
ATOM     50  C   UNL     1       7.465  18.015   1.423  1.00  0.00     0.031 A 
ATOM     51  C   UNL     1       8.888  18.428   1.694  1.00  0.00     0.074 A 
ATOM     52  C   UNL     1       6.520  18.170   2.370  1.00  0.00     0.049 A 
ATOM     53  N   UNL     1       9.405  18.961   2.772  1.00  0.00    -0.248 NA
ATOM     54  C   UNL     1       9.863  18.179   0.622  1.00  0.00     0.031 C 
ATOM     55  C   UNL     1       5.118  17.765   2.238  1.00  0.00     0.029 A 
ATOM     56  N   UNL     1       6.591  18.711   3.628  1.00  0.00    -0.354 N 
ATOM     57  C   UNL     1      10.765  19.103   2.511  1.00  0.00     0.074 A 
ATOM     58  C   UNL     1      10.999  18.533   1.201  1.00  0.00     0.031 C 
ATOM     59  C   UNL     1       4.457  18.102   3.357  1.00  0.00     0.029 A 
ATOM     60  C   UNL     1       5.390  18.712   4.298  1.00  0.00     0.049 A 
ATOM     61  H   UNL     1       7.424  19.065   4.016  1.00  0.00     0.167 HD
ATOM     62  C   UNL     1      11.723  19.678   3.280  1.00  0.00     0.034 A 
ATOM     63  C   UNL     1       5.077  19.158   5.531  1.00  0.00     0.034 A 
ATOM     64  C   UNL     1      11.467  20.252   4.580  1.00  0.00     0.049 A 
ATOM     65  C   UNL     1       6.156  19.800   6.365  1.00  0.00     0.074 A 
ATOM     66  C   UNL     1      12.350  20.895   5.430  1.00  0.00     0.029 A 
ATOM     67  N   UNL     1      10.234  20.250   5.221  1.00  0.00    -0.354 N 
ATOM     68  N   UNL     1       7.428  19.972   6.084  1.00  0.00    -0.248 NA
ATOM     69  C   UNL     1       5.750  20.330   7.671  1.00  0.00     0.031 C 
ATOM     70  C   UNL     1      11.667  21.225   6.607  1.00  0.00     0.029 A 
ATOM     71  C   UNL     1      10.338  20.860   6.462  1.00  0.00     0.049 A 
ATOM     72  H   UNL     1       9.406  19.870   4.848  1.00  0.00     0.167 HD
ATOM     73  C   UNL     1       7.965  20.662   7.167  1.00  0.00     0.074 A 
ATOM     74  C   UNL     1       6.873  20.891   8.092  1.00  0.00     0.031 C 
ATOM     75  C   UNL     1       9.243  21.071   7.380  1.00  0.00     0.034 A 
BRANCH  62  76
ATOM     76  C   UNL     1      13.135  19.688   2.737  1.00  0.00     0.023 A 
ATOM     77  C   UNL     1      13.464  20.357   1.544  1.00  0.00     0.031 A 
ATOM     78  C   UNL     1      14.159  18.989   3.399  1.00  0.00     0.131 A 
ATOM     79  C   UNL     1      14.755  20.244   1.008  1.00  0.00     0.055 A 
ATOM     80  C   UNL     1      15.466  18.953   2.905  1.00  0.00     0.041 A 
ATOM     81  F   UNL     1      13.906  18.312   4.530  1.00  0.00    -0.206 F 
ATOM     82  C   UNL     1      15.766  19.568   1.694  1.00  0.00     0.022 A 
BRANCH  79  83
ATOM     83  S   UNL     1      15.053  20.860  -0.672  1.00  0.00     0.124 S 
ATOM     84  O   UNL     1      14.095  20.074  -1.447  1.00  0.00    -0.237 OA
ATOM     85  O   UNL     1      14.758  22.282  -0.544  1.00  0.00    -0.237 OA
ATOM     86  O   UNL     1      16.457  20.532  -0.914  1.00  0.00    -0.744 OA
ENDBRANCH  79  83
ENDBRANCH  62  76
BRANCH  63  87
ATOM     87  C   UNL     1       3.686  19.027   6.052  1.00  0.00     0.023 A 
ATOM     88  C   UNL     1       2.907  20.161   6.330  1.00  0.00     0.031 A 
ATOM     89  C   UNL     1       3.130  17.764   6.320  1.00  0.00     0.131 A 
ATOM     90  C   UNL     1       1.637  20.013   6.909  1.00  0.00     0.055 A 
ATOM     91  C   UNL     1       1.845  17.620   6.845  1.00  0.00     0.041 A 
ATOM     92  F   UNL     1       3.828  16.646   6.063  1.00  0.00    -0.206 F 
ATOM     93  C   UNL     1       1.096  18.750   7.157  1.00  0.00     0.022 A 
BRANCH  90  94
ATOM     94  S   UNL     1       0.735  21.503   7.415  1.00  0.00     0.124 S 
ATOM     95  O   UNL     1       1.677  22.122   8.341  1.00  0.00    -0.237 OA
ATOM     96  O   UNL     1       0.543  22.188   6.141  1.00  0.00    -0.237 OA
ATOM     97  O   UNL     1      -0.483  20.972   8.024  1.00  0.00    -0.744 OA
ENDBRANCH  90  94
ENDBRANCH  63  87
BRANCH  75  98
ATOM     98  C   UNL     1       9.505  21.852   8.646  1.00  0.00     0.023 A 
ATOM     99  C   UNL     1       9.348  21.274   9.919  1.00  0.00     0.031 A 
ATOM    100  C   UNL     1       9.874  23.207   8.578  1.00  0.00     0.131 A 
ATOM    101  C   UNL     1       9.481  22.067  11.068  1.00  0.00     0.055 A 
ATOM    102  C   UNL     1      10.075  23.973   9.727  1.00  0.00     0.041 A 
ATOM    103  F   UNL     1      10.038  23.812   7.391  1.00  0.00    -0.206 F 
ATOM    104  C   UNL     1       9.859  23.409  10.981  1.00  0.00     0.022 A 
BRANCH 101 105
ATOM    105  S   UNL     1       9.024  21.354  12.673  1.00  0.00     0.124 S 
ATOM    106  O   UNL     1       7.658  20.902  12.426  1.00  0.00    -0.237 OA
ATOM    107  O   UNL     1      10.022  20.304  12.842  1.00  0.00    -0.237 OA
ATOM    108  O   UNL     1       9.146  22.481  13.596  1.00  0.00    -0.744 OA
ENDBRANCH 101 105
ENDBRANCH  75  98
ENDBRANCH  49  50
ENDBRANCH  41  44
ENDBRANCH  39  40
ENDBRANCH  38  39
ENDBRANCH  37  38
ENDBRANCH   1  37
TORSDOF 21
