REMARK SMILES O=C(NCCCCCCNC(=O)c1ccc(-c2c3nc(c(-c4cc(S(=O)(=O)[O-])ccc4F)c4ccc([nH]4)c(-c4cc(S(=O)(=O)[O-])ccc4F)c4nc(c(-c5cc(S(=O)(=O)[O-])ccc5F)c5ccc2[nH]5)C=C4)C=C3)cc1)C1=Cc2cc(S(F)(F)(F)(F)F)ccc2O[C@@H]1C(F)(F)F
REMARK SMILES IDX 7 1 6 2 5 3 4 4 3 5 1 6 2 7 76 9 77 10 91 11 78 12 90 13
REMARK SMILES IDX 79 14 89 15 80 16 88 17 87 18 92 19 93 20 94 21 95 22 81 23
REMARK SMILES IDX 82 24 83 25 84 26 85 27 86 28 8 29 9 30 10 31 11 32 12 34
REMARK SMILES IDX 13 35 14 36 75 37 15 38 74 39 16 40 17 41 18 42 68 43 19 44
REMARK SMILES IDX 73 45 67 46 69 47 20 48 72 49 66 50 65 51 21 53 53 54 33 55
REMARK SMILES IDX 52 56 34 57 37 58 51 59 70 60 35 61 36 62 50 64 71 65 38 66
REMARK SMILES IDX 22 67 23 68 31 69 24 70 30 71 32 72 29 73 25 74 26 75 27 76
REMARK SMILES IDX 28 77 54 78 55 79 63 80 56 81 62 82 64 83 61 84 57 85 58 86
REMARK SMILES IDX 59 87 60 88 39 89 40 90 48 91 41 92 47 93 49 94 46 95 42 96
REMARK SMILES IDX 43 97 44 98 45 99
REMARK H PARENT 3 8 10 33 69 52 37 63
REMARK Flexibility Score: inf
ROOT
ATOM      1  C   UNL     1       5.053  -3.140  -2.642  1.00  0.00     0.002 C 
ENDROOT
BRANCH   1   2
ATOM      2  C   UNL     1       4.546  -3.412  -1.235  1.00  0.00     0.002 C 
BRANCH   2   3
ATOM      3  C   UNL     1       5.053  -2.330  -0.296  1.00  0.00     0.021 C 
BRANCH   3   4
ATOM      4  C   UNL     1       4.546  -0.975  -0.764  1.00  0.00     0.116 C 
BRANCH   4   5
ATOM      5  N   UNL     1       3.076  -0.975  -0.764  1.00  0.00    -0.352 N 
ATOM      6  O   UNL     1       1.070  -0.013   0.070  1.00  0.00    -0.270 OA
ATOM      7  C   UNL     1       2.341  -0.013   0.070  1.00  0.00     0.251 C 
ATOM      8  H   UNL     1       2.584  -1.619  -1.323  1.00  0.00     0.163 HD
BRANCH   7   9
ATOM      9  C   UNL     1       3.101   0.981   0.932  1.00  0.00     0.067 C 
ATOM     10  C   UNL     1       4.462   0.981   0.932  1.00  0.00     0.025 C 
ATOM     11  C   UNL     1       2.341   1.975   1.795  1.00  0.00     0.314 C 
ATOM     12  C   UNL     1       5.221  -0.013   0.070  1.00  0.00     0.019 A 
ATOM     13  O   UNL     1       3.784   0.353  -1.787  1.00  0.00    -0.475 OA
ATOM     14  C   UNL     1       6.215  -0.721   0.727  1.00  0.00     0.036 A 
ATOM     15  C   UNL     1       4.910  -0.276  -1.194  1.00  0.00     0.128 A 
ATOM     16  C   UNL     1       7.028  -1.499  -0.130  1.00  0.00     0.107 A 
ATOM     17  C   UNL     1       5.669  -1.152  -1.933  1.00  0.00     0.048 A 
ATOM     18  C   UNL     1       6.703  -1.841  -1.363  1.00  0.00     0.028 A 
BRANCH  11  19
ATOM     19  C   UNL     1       2.708   3.391   1.380  1.00  0.00     0.429 C 
ATOM     20  F   UNL     1       2.387   3.575   0.102  1.00  0.00    -0.167 F 
ATOM     21  F   UNL     1       2.043   4.261   2.134  1.00  0.00    -0.167 F 
ATOM     22  F   UNL     1       4.016   3.574   1.539  1.00  0.00    -0.167 F 
ENDBRANCH  11  19
BRANCH  16  23
ATOM     23  S   UNL     1       8.624  -2.065   0.508  1.00  0.00     0.310 S 
ATOM     24  F   UNL     1       8.095  -2.016   2.003  1.00  0.00    -0.094 F 
ATOM     25  F   UNL     1       9.068  -0.565   0.688  1.00  0.00    -0.094 F 
ATOM     26  F   UNL     1       9.985  -2.565   1.071  1.00  0.00    -0.094 F 
ATOM     27  F   UNL     1       8.109  -3.557   0.452  1.00  0.00    -0.094 F 
ATOM     28  F   UNL     1       7.197  -1.571   0.042  1.00  0.00    -0.094 F 
ENDBRANCH  16  23
ENDBRANCH   7   9
ENDBRANCH   4   5
ENDBRANCH   3   4
ENDBRANCH   2   3
ENDBRANCH   1   2
BRANCH   1  29
ATOM     29  C   UNL     1       6.573  -3.140  -2.642  1.00  0.00     0.021 C 
BRANCH  29  30
ATOM     30  C   UNL     1       7.080  -4.495  -2.174  1.00  0.00     0.116 C 
BRANCH  30  31
ATOM     31  N   UNL     1       6.590  -5.542  -3.082  1.00  0.00    -0.352 N 
ATOM     32  C   UNL     1       7.545  -6.386  -3.814  1.00  0.00     0.251 C 
ATOM     33  H   UNL     1       5.622  -5.678  -3.200  1.00  0.00     0.163 HD
ATOM     34  O   UNL     1       7.121  -7.291  -4.599  1.00  0.00    -0.269 OA
BRANCH  32  35
ATOM     35  C   UNL     1       9.039  -6.176  -3.632  1.00  0.00     0.039 A 
ATOM     36  C   UNL     1       9.863  -6.157  -4.745  1.00  0.00     0.014 A 
ATOM     37  C   UNL     1       9.530  -6.015  -2.409  1.00  0.00     0.014 A 
ATOM     38  C   UNL     1      11.242  -6.250  -4.440  1.00  0.00     0.010 A 
ATOM     39  C   UNL     1      10.887  -5.978  -2.199  1.00  0.00     0.010 A 
ATOM     40  C   UNL     1      11.762  -6.014  -3.249  1.00  0.00    -0.014 A 
BRANCH  40  41
ATOM     41  C   UNL     1      13.254  -5.796  -3.057  1.00  0.00     0.031 A 
ATOM     42  C   UNL     1      13.942  -6.676  -2.220  1.00  0.00     0.074 A 
ATOM     43  C   UNL     1      13.848  -4.737  -3.722  1.00  0.00     0.049 A 
ATOM     44  N   UNL     1      15.247  -6.684  -1.943  1.00  0.00    -0.248 NA
ATOM     45  C   UNL     1      13.307  -7.780  -1.485  1.00  0.00     0.031 C 
ATOM     46  C   UNL     1      13.163  -3.849  -4.575  1.00  0.00     0.029 A 
ATOM     47  N   UNL     1      15.170  -4.351  -3.687  1.00  0.00    -0.354 N 
ATOM     48  C   UNL     1      15.537  -7.690  -1.115  1.00  0.00     0.074 A 
ATOM     49  C   UNL     1      14.292  -8.406  -0.804  1.00  0.00     0.031 C 
ATOM     50  C   UNL     1      14.055  -2.936  -5.038  1.00  0.00     0.029 A 
ATOM     51  C   UNL     1      15.314  -3.237  -4.483  1.00  0.00     0.049 A 
ATOM     52  H   UNL     1      15.888  -4.796  -3.181  1.00  0.00     0.167 HD
ATOM     53  C   UNL     1      16.790  -8.039  -0.610  1.00  0.00     0.034 A 
ATOM     54  C   UNL     1      16.468  -2.509  -4.723  1.00  0.00     0.034 A 
ATOM     55  C   UNL     1      17.953  -7.336  -0.885  1.00  0.00     0.049 A 
ATOM     56  C   UNL     1      17.712  -2.823  -4.171  1.00  0.00     0.074 A 
ATOM     57  C   UNL     1      19.225  -7.680  -0.390  1.00  0.00     0.029 A 
ATOM     58  N   UNL     1      18.092  -6.207  -1.661  1.00  0.00    -0.354 N 
ATOM     59  N   UNL     1      18.009  -3.852  -3.375  1.00  0.00    -0.248 NA
ATOM     60  C   UNL     1      18.935  -2.041  -4.392  1.00  0.00     0.031 C 
ATOM     61  C   UNL     1      20.119  -6.765  -0.853  1.00  0.00     0.029 A 
ATOM     62  C   UNL     1      19.418  -5.835  -1.645  1.00  0.00     0.049 A 
ATOM     63  H   UNL     1      17.369  -5.746  -2.144  1.00  0.00     0.167 HD
ATOM     64  C   UNL     1      19.307  -3.835  -3.066  1.00  0.00     0.074 A 
ATOM     65  C   UNL     1      19.920  -2.665  -3.710  1.00  0.00     0.031 C 
ATOM     66  C   UNL     1      20.005  -4.749  -2.276  1.00  0.00     0.034 A 
BRANCH  53  67
ATOM     67  C   UNL     1      16.885  -9.258   0.292  1.00  0.00     0.023 A 
ATOM     68  C   UNL     1      16.475 -10.510  -0.136  1.00  0.00     0.031 A 
ATOM     69  C   UNL     1      17.340  -9.068   1.525  1.00  0.00     0.131 A 
ATOM     70  C   UNL     1      16.310 -11.449   0.909  1.00  0.00     0.055 A 
ATOM     71  C   UNL     1      17.273 -10.073   2.459  1.00  0.00     0.041 A 
ATOM     72  F   UNL     1      17.866  -7.893   1.859  1.00  0.00    -0.206 F 
ATOM     73  C   UNL     1      16.822 -11.319   2.120  1.00  0.00     0.022 A 
BRANCH  70  74
ATOM     74  S   UNL     1      15.331 -12.931   0.564  1.00  0.00     0.124 S 
ATOM     75  O   UNL     1      13.911 -12.522   0.164  1.00  0.00    -0.237 OA
ATOM     76  O   UNL     1      15.977 -13.714  -0.581  1.00  0.00    -0.237 OA
ATOM     77  O   UNL     1      15.269 -13.913   1.962  1.00  0.00    -0.744 OA
ENDBRANCH  70  74
ENDBRANCH  53  67
BRANCH  54  78
ATOM     78  C   UNL     1      16.376  -1.299  -5.639  1.00  0.00     0.023 A 
ATOM     79  C   UNL     1      17.135  -1.329  -6.798  1.00  0.00     0.031 A 
ATOM     80  C   UNL     1      15.584  -0.271  -5.361  1.00  0.00     0.131 A 
ATOM     81  C   UNL     1      17.209  -0.085  -7.467  1.00  0.00     0.055 A 
ATOM     82  C   UNL     1      15.610   0.862  -6.138  1.00  0.00     0.041 A 
ATOM     83  F   UNL     1      14.757  -0.337  -4.322  1.00  0.00    -0.206 F 
ATOM     84  C   UNL     1      16.382   0.924  -7.265  1.00  0.00     0.022 A 
BRANCH  81  85
ATOM     85  S   UNL     1      18.530   0.139  -8.684  1.00  0.00     0.124 S 
ATOM     86  O   UNL     1      19.889  -0.030  -7.999  1.00  0.00    -0.237 OA
ATOM     87  O   UNL     1      18.384  -0.905  -9.793  1.00  0.00    -0.237 OA
ATOM     88  O   UNL     1      18.423   1.707  -9.359  1.00  0.00    -0.744 OA
ENDBRANCH  81  85
ENDBRANCH  54  78
BRANCH  66  89
ATOM     89  C   UNL     1      21.500  -4.542  -2.096  1.00  0.00     0.023 A 
ATOM     90  C   UNL     1      21.960  -3.369  -1.522  1.00  0.00     0.031 A 
ATOM     91  C   UNL     1      22.342  -5.490  -2.494  1.00  0.00     0.131 A 
ATOM     92  C   UNL     1      23.351  -3.163  -1.673  1.00  0.00     0.055 A 
ATOM     93  C   UNL     1      23.698  -5.269  -2.488  1.00  0.00     0.041 A 
ATOM     94  F   UNL     1      21.867  -6.663  -2.902  1.00  0.00    -0.206 F 
ATOM     95  C   UNL     1      24.219  -4.107  -1.989  1.00  0.00     0.022 A 
BRANCH  92  96
ATOM     96  S   UNL     1      23.987  -1.487  -1.417  1.00  0.00     0.124 S 
ATOM     97  O   UNL     1      23.329  -0.533  -2.416  1.00  0.00    -0.237 OA
ATOM     98  O   UNL     1      23.667  -1.033   0.009  1.00  0.00    -0.237 OA
ATOM     99  O   UNL     1      25.681  -1.478  -1.651  1.00  0.00    -0.744 OA
ENDBRANCH  92  96
ENDBRANCH  66  89
ENDBRANCH  40  41
ENDBRANCH  32  35
ENDBRANCH  30  31
ENDBRANCH  29  30
ENDBRANCH   1  29
TORSDOF 18
