REMARK SMILES COc1ccccc1[C@H](C(=O)NCCCCCCNC(=O)c1ccc(-c2c3nc(c(-c4cc(S(=O)(=O)[O-])ccc4F)c4ccc([nH]4)c(-c4cc(S(=O)(=O)[O-])ccc4F)c4nc(c(-c5cc(S(=O)(=O)[O-])ccc5F)c5ccc2[nH]5)C=C4)C=C3)cc1)[NH+](C)C
REMARK SMILES IDX 16 1 15 2 14 3 13 4 12 5 10 6 11 7 9 9 8 10 3 11 4 12 5 13
REMARK SMILES IDX 7 14 6 15 2 16 1 17 85 18 86 19 87 20 17 22 18 23 19 24
REMARK SMILES IDX 20 25 21 27 22 28 23 29 84 30 24 31 83 32 25 33 26 34 27 35
REMARK SMILES IDX 77 36 28 37 82 38 76 39 78 40 29 41 81 42 75 43 74 44 30 46
REMARK SMILES IDX 62 47 42 48 61 49 43 50 46 51 60 52 79 53 44 54 45 55 59 57
REMARK SMILES IDX 80 58 47 59 31 60 32 61 40 62 33 63 39 64 41 65 38 66 34 67
REMARK SMILES IDX 35 68 36 69 37 70 63 71 64 72 72 73 65 74 71 75 73 76 70 77
REMARK SMILES IDX 66 78 67 79 68 80 69 81 48 82 49 83 57 84 50 85 56 86 58 87
REMARK SMILES IDX 55 88 51 89 52 90 53 91 54 92
REMARK H PARENT 12 8 85 21 19 26 78 45 46 56
REMARK Flexibility Score: inf
ROOT
ATOM      1  C   UNL     1      -2.229   0.540  -3.209  1.00  0.00     0.002 C 
ENDROOT
BRANCH   1   2
ATOM      2  C   UNL     1      -0.916   0.645  -3.991  1.00  0.00     0.002 C 
BRANCH   2   3
ATOM      3  C   UNL     1       0.291   1.111  -3.164  1.00  0.00     0.021 C 
BRANCH   3   4
ATOM      4  C   UNL     1       0.614   0.198  -1.979  1.00  0.00     0.116 C 
BRANCH   4   5
ATOM      5  N   UNL     1       1.008  -1.114  -2.455  1.00  0.00    -0.351 N 
ATOM      6  C   UNL     1       2.271  -1.646  -2.506  1.00  0.00     0.283 C 
ATOM      7  O   UNL     1       2.448  -2.613  -3.254  1.00  0.00    -0.268 OA
ATOM      8  H   UNL     1       0.282  -1.693  -2.782  1.00  0.00     0.163 HD
BRANCH   6   9
ATOM      9  C   UNL     1       3.393  -1.021  -1.617  1.00  0.00     0.308 C 
BRANCH   9  10
ATOM     10  C   UNL     1       4.437  -2.070  -1.205  1.00  0.00     0.061 A 
ATOM     11  C   UNL     1       4.026  -3.192  -0.452  1.00  0.00     0.128 A 
ATOM     12  C   UNL     1       4.928  -4.197  -0.081  1.00  0.00     0.047 A 
ATOM     13  C   UNL     1       6.270  -4.095  -0.438  1.00  0.00     0.004 A 
ATOM     14  C   UNL     1       5.804  -1.985  -1.521  1.00  0.00     0.014 A 
ATOM     15  C   UNL     1       6.710  -2.980  -1.143  1.00  0.00     0.001 A 
BRANCH  11  16
ATOM     16  O   UNL     1       2.757  -3.227   0.070  1.00  0.00    -0.496 OA
ATOM     17  C   UNL     1       1.896  -4.134  -0.620  1.00  0.00     0.278 C 
ENDBRANCH  11  16
ENDBRANCH   9  10
BRANCH   9  18
ATOM     18  N   UNL     1       3.833   0.245  -2.260  1.00  0.00    -0.326 N 
ATOM     19  C   UNL     1       4.567   1.138  -1.383  1.00  0.00     0.333 C 
ATOM     20  C   UNL     1       4.330   0.138  -3.621  1.00  0.00     0.333 C 
ATOM     21  H   UNL     1       2.954   0.739  -2.418  1.00  0.00     0.348 HD
ENDBRANCH   9  18
ENDBRANCH   6   9
ENDBRANCH   4   5
ENDBRANCH   3   4
ENDBRANCH   2   3
ENDBRANCH   1   2
BRANCH   1  22
ATOM     22  C   UNL     1      -2.677   1.839  -2.534  1.00  0.00     0.021 C 
BRANCH  22  23
ATOM     23  C   UNL     1      -2.872   3.012  -3.490  1.00  0.00     0.116 C 
BRANCH  23  24
ATOM     24  N   UNL     1      -3.930   2.759  -4.455  1.00  0.00    -0.352 N 
ATOM     25  C   UNL     1      -5.025   3.531  -4.765  1.00  0.00     0.251 C 
ATOM     26  H   UNL     1      -3.851   1.917  -4.957  1.00  0.00     0.163 HD
ATOM     27  O   UNL     1      -5.922   3.066  -5.457  1.00  0.00    -0.269 OA
BRANCH  25  28
ATOM     28  C   UNL     1      -5.122   4.910  -4.236  1.00  0.00     0.039 A 
ATOM     29  C   UNL     1      -6.336   5.343  -3.699  1.00  0.00     0.014 A 
ATOM     30  C   UNL     1      -4.021   5.771  -4.266  1.00  0.00     0.014 A 
ATOM     31  C   UNL     1      -6.427   6.618  -3.134  1.00  0.00     0.010 A 
ATOM     32  C   UNL     1      -4.092   7.011  -3.635  1.00  0.00     0.010 A 
ATOM     33  C   UNL     1      -5.296   7.449  -3.062  1.00  0.00    -0.014 A 
BRANCH  33  34
ATOM     34  C   UNL     1      -5.356   8.775  -2.390  1.00  0.00     0.031 A 
ATOM     35  C   UNL     1      -5.108  10.034  -3.179  1.00  0.00     0.074 A 
ATOM     36  C   UNL     1      -5.578   8.840  -1.061  1.00  0.00     0.049 A 
ATOM     37  N   UNL     1      -5.052  11.273  -2.762  1.00  0.00    -0.248 NA
ATOM     38  C   UNL     1      -4.866   9.879  -4.623  1.00  0.00     0.031 C 
ATOM     39  C   UNL     1      -5.801   7.687  -0.184  1.00  0.00     0.029 A 
ATOM     40  N   UNL     1      -5.647   9.916  -0.210  1.00  0.00    -0.354 N 
ATOM     41  C   UNL     1      -4.752  12.041  -3.882  1.00  0.00     0.074 A 
ATOM     42  C   UNL     1      -4.592  11.123  -4.989  1.00  0.00     0.031 C 
ATOM     43  C   UNL     1      -6.008   8.120   1.070  1.00  0.00     0.029 A 
ATOM     44  C   UNL     1      -5.878   9.573   1.104  1.00  0.00     0.049 A 
ATOM     45  H   UNL     1      -5.540  10.847  -0.511  1.00  0.00     0.167 HD
ATOM     46  C   UNL     1      -4.634  13.387  -3.979  1.00  0.00     0.034 A 
ATOM     47  C   UNL     1      -5.959  10.338   2.212  1.00  0.00     0.034 A 
ATOM     48  C   UNL     1      -4.822  14.291  -2.870  1.00  0.00     0.049 A 
ATOM     49  C   UNL     1      -5.793  11.834   2.074  1.00  0.00     0.074 A 
ATOM     50  C   UNL     1      -4.804  15.675  -2.881  1.00  0.00     0.029 A 
ATOM     51  N   UNL     1      -5.048  13.907  -1.556  1.00  0.00    -0.354 N 
ATOM     52  N   UNL     1      -5.581  12.546   0.990  1.00  0.00    -0.248 NA
ATOM     53  C   UNL     1      -5.888  12.630   3.305  1.00  0.00     0.031 C 
ATOM     54  C   UNL     1      -4.931  16.125  -1.563  1.00  0.00     0.029 A 
ATOM     55  C   UNL     1      -5.126  15.027  -0.742  1.00  0.00     0.049 A 
ATOM     56  H   UNL     1      -5.140  12.977  -1.247  1.00  0.00     0.167 HD
ATOM     57  C   UNL     1      -5.564  13.875   1.409  1.00  0.00     0.074 A 
ATOM     58  C   UNL     1      -5.804  13.865   2.836  1.00  0.00     0.031 C 
ATOM     59  C   UNL     1      -5.370  15.004   0.680  1.00  0.00     0.034 A 
BRANCH  46  60
ATOM     60  C   UNL     1      -4.256  13.973  -5.317  1.00  0.00     0.023 A 
ATOM     61  C   UNL     1      -5.100  13.885  -6.437  1.00  0.00     0.031 A 
ATOM     62  C   UNL     1      -3.038  14.664  -5.463  1.00  0.00     0.131 A 
ATOM     63  C   UNL     1      -4.697  14.438  -7.663  1.00  0.00     0.055 A 
ATOM     64  C   UNL     1      -2.676  15.275  -6.664  1.00  0.00     0.041 A 
ATOM     65  F   UNL     1      -2.181  14.760  -4.434  1.00  0.00    -0.206 F 
ATOM     66  C   UNL     1      -3.504  15.157  -7.776  1.00  0.00     0.022 A 
BRANCH  63  67
ATOM     67  S   UNL     1      -5.704  14.117  -9.136  1.00  0.00     0.124 S 
ATOM     68  O   UNL     1      -5.659  12.659  -9.212  1.00  0.00    -0.237 OA
ATOM     69  O   UNL     1      -6.990  14.699  -8.773  1.00  0.00    -0.237 OA
ATOM     70  O   UNL     1      -4.984  14.812 -10.202  1.00  0.00    -0.744 OA
ENDBRANCH  63  67
ENDBRANCH  46  60
BRANCH  47  71
ATOM     71  C   UNL     1      -6.181   9.729   3.558  1.00  0.00     0.023 A 
ATOM     72  C   UNL     1      -7.296  10.084   4.335  1.00  0.00     0.031 A 
ATOM     73  C   UNL     1      -5.235   8.860   4.130  1.00  0.00     0.131 A 
ATOM     74  C   UNL     1      -7.394   9.643   5.664  1.00  0.00     0.055 A 
ATOM     75  C   UNL     1      -5.377   8.362   5.427  1.00  0.00     0.041 A 
ATOM     76  F   UNL     1      -4.148   8.485   3.437  1.00  0.00    -0.206 F 
ATOM     77  C   UNL     1      -6.450   8.772   6.211  1.00  0.00     0.022 A 
BRANCH  74  78
ATOM     78  S   UNL     1      -8.694  10.349   6.715  1.00  0.00     0.124 S 
ATOM     79  O   UNL     1      -8.439  11.778   6.578  1.00  0.00    -0.237 OA
ATOM     80  O   UNL     1      -9.905   9.848   6.074  1.00  0.00    -0.237 OA
ATOM     81  O   UNL     1      -8.408   9.786   8.033  1.00  0.00    -0.744 OA
ENDBRANCH  74  78
ENDBRANCH  47  71
BRANCH  59  82
ATOM     82  C   UNL     1      -5.476  16.323   1.408  1.00  0.00     0.023 A 
ATOM     83  C   UNL     1      -4.564  16.696   2.410  1.00  0.00     0.031 A 
ATOM     84  C   UNL     1      -6.516  17.218   1.096  1.00  0.00     0.131 A 
ATOM     85  C   UNL     1      -4.745  17.901   3.107  1.00  0.00     0.055 A 
ATOM     86  C   UNL     1      -6.650  18.446   1.743  1.00  0.00     0.041 A 
ATOM     87  F   UNL     1      -7.420  16.913   0.150  1.00  0.00    -0.206 F 
ATOM     88  C   UNL     1      -5.770  18.787   2.766  1.00  0.00     0.022 A 
BRANCH  85  89
ATOM     89  S   UNL     1      -3.684  18.248   4.536  1.00  0.00     0.124 S 
ATOM     90  O   UNL     1      -3.944  17.098   5.394  1.00  0.00    -0.237 OA
ATOM     91  O   UNL     1      -2.356  18.305   3.932  1.00  0.00    -0.237 OA
ATOM     92  O   UNL     1      -4.190  19.524   5.037  1.00  0.00    -0.744 OA
ENDBRANCH  85  89
ENDBRANCH  59  82
ENDBRANCH  33  34
ENDBRANCH  25  28
ENDBRANCH  23  24
ENDBRANCH  22  23
ENDBRANCH   1  22
TORSDOF 19
