REMARK SMILES CC(C)Cc1ccc(S(=O)(=O)Nc2ccc(N3CCC[N@H+](C)CC3)cc2C(=O)NCCCCCCNC(=O)c2ccc(-c3c4nc(c(-c5cc(S(=O)(=O)[O-])ccc5F)c5ccc([nH]5)c(-c5cc(S(=O)(=O)[O-])ccc5F)c5nc(c(-c6cc(S(=O)(=O)[O-])ccc6F)c6ccc3[nH]6)C=C5)C=C4)cc2)cc1
REMARK SMILES IDX 31 1 30 2 29 3 27 4 28 5 26 7 13 8 14 9 15 10 25 11 16 12
REMARK SMILES IDX 12 13 9 15 10 16 11 17 8 18 5 19 6 20 103 21 7 22 102 23
REMARK SMILES IDX 4 24 2 25 1 26 3 27 17 28 18 29 24 31 23 32 21 33 22 34
REMARK SMILES IDX 20 36 19 37 32 39 33 40 34 41 35 42 36 43 37 44 38 46 39 47
REMARK SMILES IDX 40 48 101 49 41 50 100 51 42 52 43 53 44 54 94 55 45 56
REMARK SMILES IDX 99 57 93 58 95 59 46 60 98 61 92 62 91 63 47 65 79 66 59 67
REMARK SMILES IDX 78 68 60 69 63 70 77 71 96 72 61 73 62 74 76 76 97 77 64 78
REMARK SMILES IDX 48 79 49 80 57 81 50 82 56 83 58 84 55 85 51 86 52 87 53 88
REMARK SMILES IDX 54 89 80 90 81 91 89 92 82 93 88 94 90 95 87 96 83 97 84 98
REMARK SMILES IDX 85 99 86 100 65 101 66 102 74 103 67 104 73 105 75 106
REMARK SMILES IDX 72 107 68 108 69 109 70 110 71 111
REMARK H PARENT 29 6 12 14 21 35 36 45 95 64 63 75
REMARK Flexibility Score: 100.00
ROOT
ATOM      1  C   UNL     1      -0.375  -6.304   5.277  1.00  0.00     0.021 C 
ENDROOT
BRANCH   1   2
ATOM      2  C   UNL     1      -0.738  -5.741   3.906  1.00  0.00     0.116 C 
BRANCH   2   3
ATOM      3  N   UNL     1      -0.055  -4.511   3.558  1.00  0.00    -0.352 N 
ATOM      4  C   UNL     1       0.092  -3.881   2.345  1.00  0.00     0.253 C 
ATOM      5  O   UNL     1       0.780  -2.859   2.313  1.00  0.00    -0.269 OA
ATOM      6  H   UNL     1       0.376  -4.052   4.315  1.00  0.00     0.163 HD
BRANCH   4   7
ATOM      7  C   UNL     1      -0.488  -4.392   1.067  1.00  0.00     0.066 A 
ATOM      8  C   UNL     1      -1.772  -4.942   0.919  1.00  0.00     0.062 A 
ATOM      9  C   UNL     1      -2.184  -5.405  -0.333  1.00  0.00     0.030 A 
ATOM     10  C   UNL     1      -1.374  -5.223  -1.454  1.00  0.00     0.028 A 
ATOM     11  C   UNL     1       0.299  -4.189  -0.095  1.00  0.00     0.042 A 
ATOM     12  C   UNL     1      -0.149  -4.551  -1.374  1.00  0.00     0.038 A 
BRANCH   8  13
ATOM     13  N   UNL     1      -2.749  -4.961   1.969  1.00  0.00    -0.279 N 
ATOM     14  H   UNL     1      -2.845  -5.760   2.536  1.00  0.00     0.180 HD
BRANCH  13  15
ATOM     15  S   UNL     1      -3.744  -3.605   2.239  1.00  0.00     0.261 S 
ATOM     16  O   UNL     1      -4.006  -3.590   3.664  1.00  0.00    -0.201 OA
ATOM     17  O   UNL     1      -4.835  -3.730   1.296  1.00  0.00    -0.201 OA
BRANCH  15  18
ATOM     18  C   UNL     1      -2.852  -2.135   1.818  1.00  0.00     0.087 A 
ATOM     19  C   UNL     1      -1.581   0.254   1.106  1.00  0.00    -0.048 A 
ATOM     20  C   UNL     1      -1.864  -0.022   2.451  1.00  0.00     0.005 A 
ATOM     21  C   UNL     1      -1.964  -0.668   0.122  1.00  0.00     0.005 A 
ATOM     22  C   UNL     1      -2.498  -1.216   2.810  1.00  0.00     0.022 A 
ATOM     23  C   UNL     1      -2.621  -1.844   0.472  1.00  0.00     0.022 A 
BRANCH  19  24
ATOM     24  C   UNL     1      -0.857   1.516   0.705  1.00  0.00     0.038 C 
BRANCH  24  25
ATOM     25  C   UNL     1       0.677   1.437   0.838  1.00  0.00    -0.013 C 
ATOM     26  C   UNL     1       1.287   0.280   0.042  1.00  0.00     0.008 C 
ATOM     27  C   UNL     1       1.295   2.758   0.371  1.00  0.00     0.008 C 
ENDBRANCH  24  25
ENDBRANCH  19  24
ENDBRANCH  15  18
ENDBRANCH  13  15
ENDBRANCH   8  13
BRANCH  12  28
ATOM     28  N   UNL     1       0.523  -4.204  -2.533  1.00  0.00    -0.366 N 
BRANCH  28  29
ATOM     29  C   UNL     1      -0.219  -3.530  -3.596  1.00  0.00     0.122 CG0
ATOM     30  G   UNL     1      -0.166  -4.304  -4.908  1.00  0.00     0.000 G0
ENDBRANCH  28  29
BRANCH  28  31
ATOM     31  C   UNL     1       1.972  -4.362  -2.696  1.00  0.00     0.177 C 
BRANCH  31  32
ATOM     32  C   UNL     1       2.275  -5.490  -3.713  1.00  0.00     0.283 C 
BRANCH  32  33
ATOM     33  N   UNL     1       2.236  -5.158  -5.155  1.00  0.00    -0.336 N 
ATOM     34  C   UNL     1       2.175  -6.388  -5.949  1.00  0.00     0.332 C 
ATOM     35  H   UNL     1       3.108  -4.657  -5.330  1.00  0.00     0.347 HD
BRANCH  33  36
ATOM     36  C   UNL     1       1.206  -4.204  -5.576  1.00  0.00     0.263 C 
BRANCH  36  37
ATOM     37  C   UNL     1      -0.166  -4.304  -4.908  1.00  0.00     0.083 CG0
ATOM     38  G   UNL     1      -0.219  -3.530  -3.596  1.00  0.00     0.000 G0
ENDBRANCH  36  37
ENDBRANCH  33  36
ENDBRANCH  32  33
ENDBRANCH  31  32
ENDBRANCH  28  31
ENDBRANCH  12  28
ENDBRANCH   4   7
ENDBRANCH   2   3
ENDBRANCH   1   2
BRANCH   1  39
ATOM     39  C   UNL     1      -0.624  -5.381   6.478  1.00  0.00     0.002 C 
BRANCH  39  40
ATOM     40  C   UNL     1      -1.964  -4.640   6.549  1.00  0.00     0.002 C 
BRANCH  40  41
ATOM     41  C   UNL     1      -3.241  -5.477   6.454  1.00  0.00     0.021 C 
BRANCH  41  42
ATOM     42  C   UNL     1      -3.344  -6.670   7.395  1.00  0.00     0.116 C 
BRANCH  42  43
ATOM     43  N   UNL     1      -3.242  -6.314   8.799  1.00  0.00    -0.352 N 
ATOM     44  C   UNL     1      -3.968  -6.775   9.871  1.00  0.00     0.251 C 
ATOM     45  H   UNL     1      -2.551  -5.646   9.014  1.00  0.00     0.163 HD
ATOM     46  O   UNL     1      -3.794  -6.271  10.978  1.00  0.00    -0.269 OA
BRANCH  44  47
ATOM     47  C   UNL     1      -4.981  -7.844   9.693  1.00  0.00     0.039 A 
ATOM     48  C   UNL     1      -6.210  -7.720  10.350  1.00  0.00     0.014 A 
ATOM     49  C   UNL     1      -4.732  -8.964   8.895  1.00  0.00     0.014 A 
ATOM     50  C   UNL     1      -7.205  -8.683  10.158  1.00  0.00     0.010 A 
ATOM     51  C   UNL     1      -5.751  -9.882   8.644  1.00  0.00     0.010 A 
ATOM     52  C   UNL     1      -6.998  -9.755   9.276  1.00  0.00    -0.014 A 
BRANCH  52  53
ATOM     53  C   UNL     1      -8.061 -10.763   9.016  1.00  0.00     0.031 A 
ATOM     54  C   UNL     1      -7.845 -12.201   9.404  1.00  0.00     0.074 A 
ATOM     55  C   UNL     1      -9.193 -10.398   8.383  1.00  0.00     0.049 A 
ATOM     56  N   UNL     1      -8.606 -13.244   9.190  1.00  0.00    -0.248 NA
ATOM     57  C   UNL     1      -6.585 -12.509  10.097  1.00  0.00     0.031 C 
ATOM     58  C   UNL     1      -9.510  -9.041   7.934  1.00  0.00     0.029 A 
ATOM     59  N   UNL     1     -10.287 -11.135   8.003  1.00  0.00    -0.354 N 
ATOM     60  C   UNL     1      -7.915 -14.332   9.714  1.00  0.00     0.074 A 
ATOM     61  C   UNL     1      -6.642 -13.828  10.184  1.00  0.00     0.031 C 
ATOM     62  C   UNL     1     -10.729  -9.037   7.371  1.00  0.00     0.029 A 
ATOM     63  C   UNL     1     -11.260 -10.397   7.371  1.00  0.00     0.049 A 
ATOM     64  H   UNL     1     -10.367 -12.103   8.167  1.00  0.00     0.167 HD
ATOM     65  C   UNL     1      -8.316 -15.625   9.820  1.00  0.00     0.034 A 
ATOM     66  C   UNL     1     -12.442 -10.774   6.844  1.00  0.00     0.034 A 
ATOM     67  C   UNL     1      -9.591 -16.109   9.346  1.00  0.00     0.049 A 
ATOM     68  C   UNL     1     -12.845 -12.225   6.921  1.00  0.00     0.074 A 
ATOM     69  C   UNL     1     -10.115 -17.387   9.427  1.00  0.00     0.029 A 
ATOM     70  N   UNL     1     -10.542 -15.334   8.692  1.00  0.00    -0.354 N 
ATOM     71  N   UNL     1     -12.195 -13.237   7.448  1.00  0.00    -0.248 NA
ATOM     72  C   UNL     1     -14.145 -12.581   6.339  1.00  0.00     0.031 C 
ATOM     73  C   UNL     1     -11.348 -17.401   8.764  1.00  0.00     0.029 A 
ATOM     74  C   UNL     1     -11.634 -16.114   8.338  1.00  0.00     0.049 A 
ATOM     75  H   UNL     1     -10.454 -14.371   8.506  1.00  0.00     0.167 HD
ATOM     76  C   UNL     1     -13.026 -14.344   7.292  1.00  0.00     0.074 A 
ATOM     77  C   UNL     1     -14.226 -13.871   6.632  1.00  0.00     0.031 C 
ATOM     78  C   UNL     1     -12.820 -15.632   7.669  1.00  0.00     0.034 A 
BRANCH  65  79
ATOM     79  C   UNL     1      -7.344 -16.598  10.450  1.00  0.00     0.023 A 
ATOM     80  C   UNL     1      -6.888 -16.431  11.770  1.00  0.00     0.031 A 
ATOM     81  C   UNL     1      -6.820 -17.671   9.709  1.00  0.00     0.131 A 
ATOM     82  C   UNL     1      -5.869 -17.254  12.271  1.00  0.00     0.055 A 
ATOM     83  C   UNL     1      -5.875 -18.548  10.248  1.00  0.00     0.041 A 
ATOM     84  F   UNL     1      -7.199 -17.875   8.437  1.00  0.00    -0.206 F 
ATOM     85  C   UNL     1      -5.378 -18.329  11.529  1.00  0.00     0.022 A 
BRANCH  82  86
ATOM     86  S   UNL     1      -5.068 -16.783  13.830  1.00  0.00     0.124 S 
ATOM     87  O   UNL     1      -4.593 -15.436  13.521  1.00  0.00    -0.237 OA
ATOM     88  O   UNL     1      -6.164 -16.871  14.787  1.00  0.00    -0.237 OA
ATOM     89  O   UNL     1      -4.016 -17.785  13.990  1.00  0.00    -0.744 OA
ENDBRANCH  82  86
ENDBRANCH  65  79
BRANCH  66  90
ATOM     90  C   UNL     1     -13.337  -9.770   6.199  1.00  0.00     0.023 A 
ATOM     91  C   UNL     1     -14.597  -9.476   6.744  1.00  0.00     0.031 A 
ATOM     92  C   UNL     1     -12.964  -9.117   5.011  1.00  0.00     0.131 A 
ATOM     93  C   UNL     1     -15.457  -8.588   6.081  1.00  0.00     0.055 A 
ATOM     94  C   UNL     1     -13.802  -8.193   4.383  1.00  0.00     0.041 A 
ATOM     95  F   UNL     1     -11.770  -9.360   4.448  1.00  0.00    -0.206 F 
ATOM     96  C   UNL     1     -15.063  -7.934   4.912  1.00  0.00     0.022 A 
BRANCH  93  97
ATOM     97  S   UNL     1     -17.137  -8.362   6.727  1.00  0.00     0.124 S 
ATOM     98  O   UNL     1     -17.661  -9.722   6.672  1.00  0.00    -0.237 OA
ATOM     99  O   UNL     1     -16.880  -7.825   8.059  1.00  0.00    -0.237 OA
ATOM    100  O   UNL     1     -17.740  -7.422   5.784  1.00  0.00    -0.744 OA
ENDBRANCH  93  97
ENDBRANCH  66  90
BRANCH  78 101
ATOM    101  C   UNL     1     -13.945 -16.608   7.418  1.00  0.00     0.023 A 
ATOM    102  C   UNL     1     -14.341 -16.968   6.119  1.00  0.00     0.031 A 
ATOM    103  C   UNL     1     -14.640 -17.175   8.502  1.00  0.00     0.131 A 
ATOM    104  C   UNL     1     -15.437 -17.826   5.934  1.00  0.00     0.055 A 
ATOM    105  C   UNL     1     -15.689 -18.076   8.313  1.00  0.00     0.041 A 
ATOM    106  F   UNL     1     -14.307 -16.864   9.765  1.00  0.00    -0.206 F 
ATOM    107  C   UNL     1     -16.102 -18.395   7.023  1.00  0.00     0.022 A 
BRANCH 104 108
ATOM    108  S   UNL     1     -16.043 -18.116   4.249  1.00  0.00     0.124 S 
ATOM    109  O   UNL     1     -16.366 -16.764   3.805  1.00  0.00    -0.237 OA
ATOM    110  O   UNL     1     -14.892 -18.740   3.606  1.00  0.00    -0.237 OA
ATOM    111  O   UNL     1     -17.194 -18.995   4.445  1.00  0.00    -0.744 OA
ENDBRANCH 104 108
ENDBRANCH  78 101
ENDBRANCH  52  53
ENDBRANCH  44  47
ENDBRANCH  42  43
ENDBRANCH  41  42
ENDBRANCH  40  41
ENDBRANCH  39  40
ENDBRANCH   1  39
TORSDOF 22
