REMARK SMILES Cc1ccc(N2C(=O)C[C@H](Sc3ccccc3C(=O)NCCCCCCNC(=O)c3ccc(-c4c5nc(c(-c6cc(S(=O)(=O)[O-])ccc6F)c6ccc([nH]6)c(-c6cc(S(=O)(=O)[O-])ccc6F)c6nc(c(-c7cc(S(=O)(=O)[O-])ccc7F)c7ccc4[nH]7)C=C6)C=C5)cc3)C2=O)cc1
REMARK SMILES IDX 23 1 22 2 21 3 20 4 18 5 19 6 17 8 12 9 13 10 14 11 16 12
REMARK SMILES IDX 15 13 11 14 10 15 6 16 7 17 93 18 8 19 9 20 94 21 5 22 1 23
REMARK SMILES IDX 2 24 3 25 96 26 4 27 95 28 24 29 25 30 26 31 27 32 28 33
REMARK SMILES IDX 29 35 30 36 31 37 92 38 32 39 91 40 33 41 34 42 35 43 85 44
REMARK SMILES IDX 36 45 90 46 84 47 86 48 37 49 89 50 83 51 82 52 38 54 70 55
REMARK SMILES IDX 50 56 69 57 51 58 54 59 68 60 87 61 52 62 53 63 67 65 88 66
REMARK SMILES IDX 55 67 39 68 40 69 48 70 41 71 47 72 49 73 46 74 42 75 43 76
REMARK SMILES IDX 44 77 45 78 71 79 72 80 80 81 73 82 79 83 81 84 78 85 74 86
REMARK SMILES IDX 75 87 76 88 77 89 56 90 57 91 65 92 58 93 64 94 66 95 63 96
REMARK SMILES IDX 59 97 60 98 61 99 62 100
REMARK H PARENT 20 7 27 34 86 53 54 64
REMARK Flexibility Score: inf
ROOT
ATOM      1  C   UNL     1      -5.203   5.042  -3.571  1.00  0.00     0.002 C 
ENDROOT
BRANCH   1   2
ATOM      2  C   UNL     1      -4.512   5.016  -2.205  1.00  0.00     0.021 C 
BRANCH   2   3
ATOM      3  C   UNL     1      -5.377   4.958  -0.949  1.00  0.00     0.116 C 
BRANCH   3   4
ATOM      4  N   UNL     1      -6.366   3.894  -0.904  1.00  0.00    -0.352 N 
ATOM      5  C   UNL     1      -6.838   3.138   0.148  1.00  0.00     0.252 C 
ATOM      6  O   UNL     1      -7.861   2.478  -0.017  1.00  0.00    -0.269 OA
ATOM      7  H   UNL     1      -6.769   3.676  -1.775  1.00  0.00     0.163 HD
BRANCH   5   8
ATOM      8  C   UNL     1      -6.109   3.065   1.446  1.00  0.00     0.053 A 
ATOM      9  C   UNL     1      -5.854   1.836   2.100  1.00  0.00     0.021 A 
ATOM     10  C   UNL     1      -5.167   1.859   3.330  1.00  0.00     0.016 A 
ATOM     11  C   UNL     1      -4.748   3.060   3.908  1.00  0.00     0.001 A 
ATOM     12  C   UNL     1      -5.742   4.268   2.079  1.00  0.00     0.015 A 
ATOM     13  C   UNL     1      -5.045   4.266   3.287  1.00  0.00     0.001 A 
BRANCH   9  14
ATOM     14  S   UNL     1      -6.567   0.239   1.674  1.00  0.00    -0.111 SA
BRANCH  14  15
ATOM     15  C   UNL     1      -5.444  -0.505   0.445  1.00  0.00     0.151 C 
ATOM     16  N   UNL     1      -3.213   0.047   0.048  1.00  0.00    -0.250 N 
ATOM     17  C   UNL     1      -3.931   0.679  -0.935  1.00  0.00     0.235 C 
ATOM     18  C   UNL     1      -4.020  -0.656   0.915  1.00  0.00     0.247 C 
ATOM     19  O   UNL     1      -3.518   1.431  -1.817  1.00  0.00    -0.274 OA
ATOM     20  C   UNL     1      -5.346   0.201  -0.886  1.00  0.00     0.126 C 
ATOM     21  O   UNL     1      -3.691  -1.288   1.909  1.00  0.00    -0.273 OA
BRANCH  16  22
ATOM     22  C   UNL     1      -1.800   0.057   0.107  1.00  0.00     0.052 A 
ATOM     23  C   UNL     1       2.519   0.003  -0.004  1.00  0.00     0.044 C 
ATOM     24  C   UNL     1       1.021   0.030   0.066  1.00  0.00    -0.051 A 
ATOM     25  C   UNL     1       0.304  -1.148   0.300  1.00  0.00     0.005 A 
ATOM     26  C   UNL     1       0.318   1.218  -0.153  1.00  0.00     0.005 A 
ATOM     27  C   UNL     1      -1.094  -1.130   0.349  1.00  0.00     0.027 A 
ATOM     28  C   UNL     1      -1.080   1.227  -0.153  1.00  0.00     0.027 A 
ENDBRANCH  16  22
ENDBRANCH  14  15
ENDBRANCH   9  14
ENDBRANCH   5   8
ENDBRANCH   3   4
ENDBRANCH   2   3
ENDBRANCH   1   2
BRANCH   1  29
ATOM     29  C   UNL     1      -6.375   6.007  -3.779  1.00  0.00     0.002 C 
BRANCH  29  30
ATOM     30  C   UNL     1      -6.151   7.457  -3.375  1.00  0.00     0.021 C 
BRANCH  30  31
ATOM     31  C   UNL     1      -5.074   8.195  -4.155  1.00  0.00     0.116 C 
BRANCH  31  32
ATOM     32  N   UNL     1      -5.547   8.861  -5.365  1.00  0.00    -0.352 N 
ATOM     33  C   UNL     1      -4.979   9.904  -6.082  1.00  0.00     0.251 C 
ATOM     34  H   UNL     1      -6.397   8.519  -5.726  1.00  0.00     0.163 HD
ATOM     35  O   UNL     1      -5.594  10.487  -6.972  1.00  0.00    -0.269 OA
BRANCH  33  36
ATOM     36  C   UNL     1      -3.530  10.183  -5.920  1.00  0.00     0.039 A 
ATOM     37  C   UNL     1      -2.766  10.132  -7.097  1.00  0.00     0.014 A 
ATOM     38  C   UNL     1      -2.922  10.043  -4.683  1.00  0.00     0.014 A 
ATOM     39  C   UNL     1      -1.491   9.594  -7.048  1.00  0.00     0.010 A 
ATOM     40  C   UNL     1      -1.744   9.347  -4.643  1.00  0.00     0.010 A 
ATOM     41  C   UNL     1      -1.072   9.067  -5.836  1.00  0.00    -0.014 A 
BRANCH  41  42
ATOM     42  C   UNL     1       0.105   8.250  -5.662  1.00  0.00     0.031 A 
ATOM     43  C   UNL     1       1.312   8.930  -5.187  1.00  0.00     0.074 A 
ATOM     44  C   UNL     1      -0.011   6.909  -5.751  1.00  0.00     0.049 A 
ATOM     45  N   UNL     1       2.492   8.437  -5.253  1.00  0.00    -0.248 NA
ATOM     46  C   UNL     1       1.286  10.287  -4.645  1.00  0.00     0.031 C 
ATOM     47  C   UNL     1       0.913   5.886  -5.278  1.00  0.00     0.029 A 
ATOM     48  N   UNL     1      -0.934   6.206  -6.524  1.00  0.00    -0.354 N 
ATOM     49  C   UNL     1       3.304   9.225  -4.471  1.00  0.00     0.074 A 
ATOM     50  C   UNL     1       2.550  10.430  -4.245  1.00  0.00     0.031 C 
ATOM     51  C   UNL     1       0.694   4.753  -5.968  1.00  0.00     0.029 A 
ATOM     52  C   UNL     1      -0.255   5.072  -7.020  1.00  0.00     0.049 A 
ATOM     53  H   UNL     1      -1.873   6.452  -6.691  1.00  0.00     0.167 HD
ATOM     54  C   UNL     1       4.444   8.668  -3.983  1.00  0.00     0.034 A 
ATOM     55  C   UNL     1      -0.008   4.973  -8.364  1.00  0.00     0.034 A 
ATOM     56  C   UNL     1       4.636   7.332  -4.559  1.00  0.00     0.049 A 
ATOM     57  C   UNL     1       1.475   5.032  -8.704  1.00  0.00     0.074 A 
ATOM     58  C   UNL     1       4.420   6.039  -4.113  1.00  0.00     0.029 A 
ATOM     59  N   UNL     1       4.799   7.238  -5.927  1.00  0.00    -0.354 N 
ATOM     60  N   UNL     1       2.414   5.346  -7.850  1.00  0.00    -0.248 NA
ATOM     61  C   UNL     1       2.016   4.783 -10.038  1.00  0.00     0.031 C 
ATOM     62  C   UNL     1       4.416   5.178  -5.254  1.00  0.00     0.029 A 
ATOM     63  C   UNL     1       4.670   5.944  -6.379  1.00  0.00     0.049 A 
ATOM     64  H   UNL     1       4.986   8.007  -6.512  1.00  0.00     0.167 HD
ATOM     65  C   UNL     1       3.635   5.375  -8.474  1.00  0.00     0.074 A 
ATOM     66  C   UNL     1       3.326   5.036  -9.855  1.00  0.00     0.031 C 
ATOM     67  C   UNL     1       4.790   5.699  -7.810  1.00  0.00     0.034 A 
BRANCH  54  68
ATOM     68  C   UNL     1       5.270   9.183  -2.829  1.00  0.00     0.023 A 
ATOM     69  C   UNL     1       6.196   8.292  -2.251  1.00  0.00     0.031 A 
ATOM     70  C   UNL     1       5.189  10.444  -2.206  1.00  0.00     0.131 A 
ATOM     71  C   UNL     1       6.922   8.623  -1.096  1.00  0.00     0.055 A 
ATOM     72  C   UNL     1       5.907  10.775  -1.049  1.00  0.00     0.041 A 
ATOM     73  F   UNL     1       4.438  11.441  -2.681  1.00  0.00    -0.206 F 
ATOM     74  C   UNL     1       6.774   9.859  -0.480  1.00  0.00     0.022 A 
BRANCH  71  75
ATOM     75  S   UNL     1       8.046   7.387  -0.401  1.00  0.00     0.124 S 
ATOM     76  O   UNL     1       7.132   6.300  -0.064  1.00  0.00    -0.237 OA
ATOM     77  O   UNL     1       8.961   7.144  -1.511  1.00  0.00    -0.237 OA
ATOM     78  O   UNL     1       8.635   8.076   0.746  1.00  0.00    -0.744 OA
ENDBRANCH  71  75
ENDBRANCH  54  68
BRANCH  55  79
ATOM     79  C   UNL     1      -1.139   5.557  -9.164  1.00  0.00     0.023 A 
ATOM     80  C   UNL     1      -2.427   5.022  -8.912  1.00  0.00     0.031 A 
ATOM     81  C   UNL     1      -1.067   6.857  -9.683  1.00  0.00     0.131 A 
ATOM     82  C   UNL     1      -3.556   5.859  -8.934  1.00  0.00     0.055 A 
ATOM     83  C   UNL     1      -2.215   7.655  -9.802  1.00  0.00     0.041 A 
ATOM     84  F   UNL     1       0.120   7.429  -9.934  1.00  0.00    -0.206 F 
ATOM     85  C   UNL     1      -3.453   7.181  -9.363  1.00  0.00     0.022 A 
BRANCH  82  86
ATOM     86  S   UNL     1      -5.068   5.295  -8.084  1.00  0.00     0.124 S 
ATOM     87  O   UNL     1      -5.736   4.527  -9.129  1.00  0.00    -0.237 OA
ATOM     88  O   UNL     1      -4.534   4.519  -6.967  1.00  0.00    -0.237 OA
ATOM     89  O   UNL     1      -5.733   6.534  -7.684  1.00  0.00    -0.744 OA
ENDBRANCH  82  86
ENDBRANCH  55  79
BRANCH  67  90
ATOM     90  C   UNL     1       6.152   5.843  -8.459  1.00  0.00     0.023 A 
ATOM     91  C   UNL     1       6.551   5.048  -9.538  1.00  0.00     0.031 A 
ATOM     92  C   UNL     1       7.129   6.755  -7.978  1.00  0.00     0.131 A 
ATOM     93  C   UNL     1       7.802   5.240 -10.151  1.00  0.00     0.055 A 
ATOM     94  C   UNL     1       8.408   6.872  -8.525  1.00  0.00     0.041 A 
ATOM     95  F   UNL     1       6.882   7.619  -6.984  1.00  0.00    -0.206 F 
ATOM     96  C   UNL     1       8.745   6.128  -9.637  1.00  0.00     0.022 A 
BRANCH  93  97
ATOM     97  S   UNL     1       8.136   4.371 -11.701  1.00  0.00     0.124 S 
ATOM     98  O   UNL     1       7.902   2.977 -11.340  1.00  0.00    -0.237 OA
ATOM     99  O   UNL     1       7.146   4.970 -12.592  1.00  0.00    -0.237 OA
ATOM    100  O   UNL     1       9.525   4.715 -11.998  1.00  0.00    -0.744 OA
ENDBRANCH  93  97
ENDBRANCH  67  90
ENDBRANCH  41  42
ENDBRANCH  33  36
ENDBRANCH  31  32
ENDBRANCH  30  31
ENDBRANCH  29  30
ENDBRANCH   1  29
TORSDOF 19
