REMARK SMILES CCCCCCNC(=O)Oc1cccc(-c2ccc([C@@H](C)C(=O)NCCCCCCNC(=O)c3ccc(-c4c5nc(c(-c6cc(S(=O)(=O)[O-])ccc6F)c6ccc([nH]6)c(-c6cc(S(=O)(=O)[O-])ccc6F)c6nc(c(-c7cc(S(=O)(=O)[O-])ccc7F)c7ccc4[nH]7)C=C6)C=C5)cc3)cc2C(F)(F)F)c1
REMARK SMILES IDX 22 1 23 2 24 3 20 5 21 6 19 7 16 8 17 9 98 10 18 11 97 12
REMARK SMILES IDX 15 13 11 14 12 15 103 16 13 17 14 18 10 19 8 20 7 21 9 23
REMARK SMILES IDX 6 24 5 25 4 26 3 27 2 28 1 29 99 30 100 31 101 32 102 33
REMARK SMILES IDX 25 34 26 35 27 36 28 37 29 38 30 39 31 40 32 41 33 43 34 44
REMARK SMILES IDX 35 45 96 46 36 47 95 48 37 49 38 50 39 51 89 52 40 53 94 54
REMARK SMILES IDX 88 55 90 56 41 57 93 58 87 59 86 60 42 62 74 63 54 64 73 65
REMARK SMILES IDX 55 66 58 67 72 68 91 69 56 70 57 71 71 73 92 74 59 75 43 76
REMARK SMILES IDX 44 77 52 78 45 79 51 80 53 81 50 82 46 83 47 84 48 85 49 86
REMARK SMILES IDX 75 87 76 88 84 89 77 90 83 91 85 92 82 93 78 94 79 95 80 96
REMARK SMILES IDX 81 97 60 98 61 99 69 100 62 101 68 102 70 103 67 104 63 105
REMARK SMILES IDX 64 106 65 107 66 108
REMARK H PARENT 24 4 7 22 31 42 90 61 58 72
REMARK Flexibility Score: inf
ROOT
ATOM      1  C   UNL     1      -3.660 -10.854   9.111  1.00  0.00     0.227 C 
ATOM      2  O   UNL     1      -2.696 -10.402   9.742  1.00  0.00    -0.274 OA
ATOM      3  N   UNL     1      -3.538 -12.131   8.659  1.00  0.00    -0.356 N 
ATOM      4  H   UNL     1      -2.721 -12.589   8.961  1.00  0.00     0.163 HD
ENDROOT
BRANCH   1   5
ATOM      5  C   UNL     1      -4.910  -9.986   8.906  1.00  0.00     0.105 C 
ATOM      6  C   UNL     1      -6.191 -10.575   9.496  1.00  0.00     0.023 C 
BRANCH   5   7
ATOM      7  C   UNL     1      -5.050  -9.401   7.508  1.00  0.00    -0.035 A 
ATOM      8  C   UNL     1      -5.174  -8.254   4.880  1.00  0.00    -0.006 A 
ATOM      9  C   UNL     1      -5.625  -9.559   5.157  1.00  0.00     0.009 A 
ATOM     10  C   UNL     1      -4.719  -7.486   5.973  1.00  0.00     0.064 A 
ATOM     11  C   UNL     1      -5.616 -10.096   6.446  1.00  0.00     0.005 A 
ATOM     12  C   UNL     1      -4.610  -8.094   7.252  1.00  0.00     0.018 A 
BRANCH   8  13
ATOM     13  C   UNL     1      -5.229  -7.789   3.477  1.00  0.00    -0.014 A 
ATOM     14  C   UNL     1      -4.241  -6.703   1.543  1.00  0.00     0.133 A 
ATOM     15  C   UNL     1      -5.398  -6.903   0.795  1.00  0.00     0.047 A 
ATOM     16  C   UNL     1      -4.136  -7.162   2.858  1.00  0.00     0.056 A 
ATOM     17  C   UNL     1      -6.471  -7.568   1.373  1.00  0.00     0.004 A 
ATOM     18  C   UNL     1      -6.392  -7.989   2.703  1.00  0.00     0.009 A 
BRANCH  14  19
ATOM     19  O   UNL     1      -3.273  -5.857   0.972  1.00  0.00    -0.410 OA
BRANCH  19  20
ATOM     20  C   UNL     1      -1.921  -6.118   1.121  1.00  0.00     0.412 C 
ATOM     21  N   UNL     1      -1.137  -5.057   0.759  1.00  0.00    -0.321 N 
ATOM     22  H   UNL     1      -0.163  -5.202   0.770  1.00  0.00     0.167 HD
ATOM     23  O   UNL     1      -1.429  -7.163   1.525  1.00  0.00    -0.224 OA
BRANCH  21  24
ATOM     24  C   UNL     1      -1.596  -3.740   0.361  1.00  0.00     0.119 C 
BRANCH  24  25
ATOM     25  C   UNL     1      -1.020  -2.642   1.256  1.00  0.00     0.021 C 
BRANCH  25  26
ATOM     26  C   UNL     1       0.508  -2.513   1.216  1.00  0.00     0.002 C 
BRANCH  26  27
ATOM     27  C   UNL     1       1.110  -2.255  -0.170  1.00  0.00    -0.000 C 
BRANCH  27  28
ATOM     28  C   UNL     1       0.624  -0.982  -0.867  1.00  0.00    -0.003 C 
ATOM     29  C   UNL     1       0.996   0.290  -0.120  1.00  0.00     0.004 C 
ENDBRANCH  27  28
ENDBRANCH  26  27
ENDBRANCH  25  26
ENDBRANCH  24  25
ENDBRANCH  21  24
ENDBRANCH  19  20
ENDBRANCH  14  19
ENDBRANCH   8  13
BRANCH  10  30
ATOM     30  C   UNL     1      -4.369  -6.014   5.913  1.00  0.00     0.417 C 
ATOM     31  F   UNL     1      -4.970  -5.314   6.924  1.00  0.00    -0.166 F 
ATOM     32  F   UNL     1      -3.033  -5.794   6.074  1.00  0.00    -0.166 F 
ATOM     33  F   UNL     1      -4.723  -5.350   4.782  1.00  0.00    -0.166 F 
ENDBRANCH  10  30
ENDBRANCH   5   7
ENDBRANCH   1   5
BRANCH   3  34
ATOM     34  C   UNL     1      -4.391 -12.939   7.813  1.00  0.00     0.116 C 
BRANCH  34  35
ATOM     35  C   UNL     1      -3.880 -12.973   6.371  1.00  0.00     0.021 C 
BRANCH  35  36
ATOM     36  C   UNL     1      -2.909 -14.123   6.088  1.00  0.00     0.002 C 
BRANCH  36  37
ATOM     37  C   UNL     1      -3.511 -15.526   6.240  1.00  0.00     0.002 C 
BRANCH  37  38
ATOM     38  C   UNL     1      -4.772 -15.793   5.410  1.00  0.00     0.021 C 
BRANCH  38  39
ATOM     39  C   UNL     1      -4.581 -15.653   3.902  1.00  0.00     0.116 C 
BRANCH  39  40
ATOM     40  N   UNL     1      -3.607 -16.607   3.396  1.00  0.00    -0.352 N 
ATOM     41  C   UNL     1      -3.771 -17.632   2.499  1.00  0.00     0.251 C 
ATOM     42  H   UNL     1      -2.694 -16.502   3.751  1.00  0.00     0.163 HD
ATOM     43  O   UNL     1      -2.905 -18.498   2.403  1.00  0.00    -0.269 OA
BRANCH  41  44
ATOM     44  C   UNL     1      -4.987 -17.697   1.659  1.00  0.00     0.039 A 
ATOM     45  C   UNL     1      -5.610 -18.932   1.460  1.00  0.00     0.014 A 
ATOM     46  C   UNL     1      -5.494 -16.549   1.043  1.00  0.00     0.014 A 
ATOM     47  C   UNL     1      -6.771 -19.006   0.687  1.00  0.00     0.010 A 
ATOM     48  C   UNL     1      -6.689 -16.613   0.330  1.00  0.00     0.010 A 
ATOM     49  C   UNL     1      -7.338 -17.843   0.140  1.00  0.00    -0.014 A 
BRANCH  49  50
ATOM     50  C   UNL     1      -8.603 -17.895  -0.640  1.00  0.00     0.031 A 
ATOM     51  C   UNL     1      -8.607 -17.517  -2.097  1.00  0.00     0.074 A 
ATOM     52  C   UNL     1      -9.754 -18.222  -0.020  1.00  0.00     0.049 A 
ATOM     53  N   UNL     1      -9.616 -17.419  -2.924  1.00  0.00    -0.248 NA
ATOM     54  C   UNL     1      -7.306 -17.179  -2.696  1.00  0.00     0.031 C 
ATOM     55  C   UNL     1      -9.880 -18.571   1.397  1.00  0.00     0.029 A 
ATOM     56  N   UNL     1     -11.040 -18.304  -0.494  1.00  0.00    -0.354 N 
ATOM     57  C   UNL     1      -9.077 -16.995  -4.134  1.00  0.00     0.074 A 
ATOM     58  C   UNL     1      -7.659 -16.802  -3.916  1.00  0.00     0.031 C 
ATOM     59  C   UNL     1     -11.165 -18.848   1.671  1.00  0.00     0.029 A 
ATOM     60  C   UNL     1     -11.964 -18.649   0.466  1.00  0.00     0.049 A 
ATOM     61  H   UNL     1     -11.278 -18.132  -1.434  1.00  0.00     0.167 HD
ATOM     62  C   UNL     1      -9.704 -16.804  -5.321  1.00  0.00     0.034 A 
ATOM     63  C   UNL     1     -13.304 -18.776   0.388  1.00  0.00     0.034 A 
ATOM     64  C   UNL     1     -11.116 -17.018  -5.525  1.00  0.00     0.049 A 
ATOM     65  C   UNL     1     -13.980 -18.539  -0.940  1.00  0.00     0.074 A 
ATOM     66  C   UNL     1     -11.843 -16.912  -6.699  1.00  0.00     0.029 A 
ATOM     67  N   UNL     1     -12.019 -17.376  -4.532  1.00  0.00    -0.354 N 
ATOM     68  N   UNL     1     -13.446 -18.189  -2.088  1.00  0.00    -0.248 NA
ATOM     69  C   UNL     1     -15.436 -18.725  -0.987  1.00  0.00     0.031 C 
ATOM     70  C   UNL     1     -13.191 -17.135  -6.402  1.00  0.00     0.029 A 
ATOM     71  C   UNL     1     -13.299 -17.461  -5.060  1.00  0.00     0.049 A 
ATOM     72  H   UNL     1     -11.785 -17.544  -3.591  1.00  0.00     0.167 HD
ATOM     73  C   UNL     1     -14.498 -18.149  -2.999  1.00  0.00     0.074 A 
ATOM     74  C   UNL     1     -15.692 -18.526  -2.271  1.00  0.00     0.031 C 
ATOM     75  C   UNL     1     -14.481 -17.833  -4.319  1.00  0.00     0.034 A 
BRANCH  62  76
ATOM     76  C   UNL     1      -8.871 -16.316  -6.483  1.00  0.00     0.023 A 
ATOM     77  C   UNL     1      -7.826 -17.087  -7.021  1.00  0.00     0.031 A 
ATOM     78  C   UNL     1      -9.124 -15.059  -7.060  1.00  0.00     0.131 A 
ATOM     79  C   UNL     1      -7.032 -16.568  -8.055  1.00  0.00     0.055 A 
ATOM     80  C   UNL     1      -8.381 -14.581  -8.142  1.00  0.00     0.041 A 
ATOM     81  F   UNL     1     -10.096 -14.268  -6.577  1.00  0.00    -0.206 F 
ATOM     82  C   UNL     1      -7.319 -15.332  -8.637  1.00  0.00     0.022 A 
BRANCH  79  83
ATOM     83  S   UNL     1      -5.542 -17.478  -8.545  1.00  0.00     0.124 S 
ATOM     84  O   UNL     1      -4.788 -17.502  -7.294  1.00  0.00    -0.237 OA
ATOM     85  O   UNL     1      -6.083 -18.756  -8.989  1.00  0.00    -0.237 OA
ATOM     86  O   UNL     1      -4.962 -16.645  -9.597  1.00  0.00    -0.744 OA
ENDBRANCH  79  83
ENDBRANCH  62  76
BRANCH  63  87
ATOM     87  C   UNL     1     -14.107 -19.125   1.597  1.00  0.00     0.023 A 
ATOM     88  C   UNL     1     -14.852 -20.313   1.653  1.00  0.00     0.031 A 
ATOM     89  C   UNL     1     -14.188 -18.246   2.692  1.00  0.00     0.131 A 
ATOM     90  C   UNL     1     -15.691 -20.563   2.750  1.00  0.00     0.055 A 
ATOM     91  C   UNL     1     -14.976 -18.528   3.809  1.00  0.00     0.041 A 
ATOM     92  F   UNL     1     -13.493 -17.097   2.694  1.00  0.00    -0.206 F 
ATOM     93  C   UNL     1     -15.747 -19.685   3.834  1.00  0.00     0.022 A 
BRANCH  90  94
ATOM     94  S   UNL     1     -16.792 -22.003   2.690  1.00  0.00     0.124 S 
ATOM     95  O   UNL     1     -17.531 -21.759   1.457  1.00  0.00    -0.237 OA
ATOM     96  O   UNL     1     -15.841 -23.109   2.661  1.00  0.00    -0.237 OA
ATOM     97  O   UNL     1     -17.572 -21.886   3.920  1.00  0.00    -0.744 OA
ENDBRANCH  90  94
ENDBRANCH  63  87
BRANCH  75  98
ATOM     98  C   UNL     1     -15.789 -17.933  -5.066  1.00  0.00     0.023 A 
ATOM     99  C   UNL     1     -16.868 -17.076  -4.791  1.00  0.00     0.031 A 
ATOM    100  C   UNL     1     -15.959 -18.911  -6.063  1.00  0.00     0.131 A 
ATOM    101  C   UNL     1     -18.087 -17.250  -5.462  1.00  0.00     0.055 A 
ATOM    102  C   UNL     1     -17.153 -19.038  -6.772  1.00  0.00     0.041 A 
ATOM    103  F   UNL     1     -14.962 -19.759  -6.365  1.00  0.00    -0.206 F 
ATOM    104  C   UNL     1     -18.231 -18.214  -6.464  1.00  0.00     0.022 A 
BRANCH 101 105
ATOM    105  S   UNL     1     -19.516 -16.260  -4.943  1.00  0.00     0.124 S 
ATOM    106  O   UNL     1     -19.641 -16.623  -3.535  1.00  0.00    -0.237 OA
ATOM    107  O   UNL     1     -19.067 -14.898  -5.213  1.00  0.00    -0.237 OA
ATOM    108  O   UNL     1     -20.596 -16.737  -5.806  1.00  0.00    -0.744 OA
ENDBRANCH 101 105
ENDBRANCH  75  98
ENDBRANCH  49  50
ENDBRANCH  41  44
ENDBRANCH  39  40
ENDBRANCH  38  39
ENDBRANCH  37  38
ENDBRANCH  36  37
ENDBRANCH  35  36
ENDBRANCH  34  35
ENDBRANCH   3  34
TORSDOF 26
