REMARK SMILES O=C(NCCCCCCNC(=O)[C@@H]1CC(=O)N(c2ccc(Cl)cc2C(=O)c2ccccc2)C1)c1ccc(-c2c3nc(c(-c4cc(S(=O)(=O)[O-])ccc4F)c4ccc([nH]4)c(-c4cc(S(=O)(=O)[O-])ccc4F)c4nc(c(-c5cc(S(=O)(=O)[O-])ccc5F)c5ccc2[nH]5)C=C4)C=C3)cc1
REMARK SMILES IDX 6 1 5 2 4 3 3 4 1 5 2 6 34 8 35 9 96 10 36 11 95 12 37 13
REMARK SMILES IDX 38 14 39 15 89 16 40 17 94 18 88 19 90 20 41 21 93 22 87 23
REMARK SMILES IDX 86 24 42 26 74 27 54 28 73 29 55 30 58 31 72 32 91 33 56 34
REMARK SMILES IDX 57 35 71 37 92 38 59 39 43 40 44 41 52 42 45 43 51 44 53 45
REMARK SMILES IDX 50 46 46 47 47 48 48 49 49 50 75 51 76 52 84 53 77 54 83 55
REMARK SMILES IDX 85 56 82 57 78 58 79 59 80 60 81 61 60 62 61 63 69 64 62 65
REMARK SMILES IDX 68 66 70 67 67 68 63 69 64 70 65 71 66 72 7 73 8 74 9 75
REMARK SMILES IDX 10 76 11 77 12 79 13 80 14 81 33 82 15 83 17 84 16 85 18 86
REMARK SMILES IDX 19 87 24 88 20 89 23 90 21 91 22 92 25 93 26 94 27 95 28 96
REMARK SMILES IDX 32 97 29 98 31 99 30 100
REMARK H PARENT 3 7 90 25 58 36 10 78
REMARK Flexibility Score: inf
ROOT
ATOM      1  C   UNL     1       4.647   3.166  -2.146  1.00  0.00     0.002 C 
ENDROOT
BRANCH   1   2
ATOM      2  C   UNL     1       4.884   1.663  -2.062  1.00  0.00     0.021 C 
BRANCH   2   3
ATOM      3  C   UNL     1       4.532   1.042  -0.721  1.00  0.00     0.116 C 
BRANCH   3   4
ATOM      4  N   UNL     1       3.100   1.004  -0.465  1.00  0.00    -0.352 N 
ATOM      5  O   UNL     1       1.125   0.001   0.006  1.00  0.00    -0.269 OA
ATOM      6  C   UNL     1       2.348  -0.071  -0.044  1.00  0.00     0.251 C 
ATOM      7  H   UNL     1       2.611   1.847  -0.609  1.00  0.00     0.163 HD
BRANCH   6   8
ATOM      8  C   UNL     1       3.048  -1.324   0.318  1.00  0.00     0.039 A 
ATOM      9  C   UNL     1       4.173  -1.274   1.143  1.00  0.00     0.014 A 
ATOM     10  C   UNL     1       2.620  -2.539  -0.223  1.00  0.00     0.014 A 
ATOM     11  C   UNL     1       4.964  -2.404   1.291  1.00  0.00     0.010 A 
ATOM     12  C   UNL     1       3.357  -3.702   0.027  1.00  0.00     0.010 A 
ATOM     13  C   UNL     1       4.549  -3.640   0.766  1.00  0.00    -0.014 A 
BRANCH  13  14
ATOM     14  C   UNL     1       5.337  -4.856   1.098  1.00  0.00     0.031 A 
ATOM     15  C   UNL     1       6.009  -5.679   0.035  1.00  0.00     0.074 A 
ATOM     16  C   UNL     1       5.468  -5.187   2.399  1.00  0.00     0.049 A 
ATOM     17  N   UNL     1       6.737  -6.759   0.171  1.00  0.00    -0.248 NA
ATOM     18  C   UNL     1       5.841  -5.242  -1.359  1.00  0.00     0.031 C 
ATOM     19  C   UNL     1       4.854  -4.458   3.515  1.00  0.00     0.029 A 
ATOM     20  N   UNL     1       6.168  -6.193   3.012  1.00  0.00    -0.354 N 
ATOM     21  C   UNL     1       7.105  -7.141  -1.115  1.00  0.00     0.074 A 
ATOM     22  C   UNL     1       6.490  -6.191  -2.021  1.00  0.00     0.031 C 
ATOM     23  C   UNL     1       5.253  -5.002   4.671  1.00  0.00     0.029 A 
ATOM     24  C   UNL     1       6.066  -6.175   4.384  1.00  0.00     0.049 A 
ATOM     25  H   UNL     1       6.692  -6.864   2.518  1.00  0.00     0.167 HD
ATOM     26  C   UNL     1       7.888  -8.181  -1.497  1.00  0.00     0.034 A 
ATOM     27  C   UNL     1       6.542  -7.026   5.312  1.00  0.00     0.034 A 
ATOM     28  C   UNL     1       8.486  -9.120  -0.574  1.00  0.00     0.049 A 
ATOM     29  C   UNL     1       7.352  -8.207   4.851  1.00  0.00     0.074 A 
ATOM     30  C   UNL     1       9.312 -10.195  -0.854  1.00  0.00     0.029 A 
ATOM     31  N   UNL     1       8.314  -9.106   0.805  1.00  0.00    -0.354 N 
ATOM     32  N   UNL     1       7.705  -8.540   3.631  1.00  0.00    -0.248 NA
ATOM     33  C   UNL     1       7.829  -9.124   5.891  1.00  0.00     0.031 C 
ATOM     34  C   UNL     1       9.573 -10.875   0.341  1.00  0.00     0.029 A 
ATOM     35  C   UNL     1       8.987 -10.174   1.383  1.00  0.00     0.049 A 
ATOM     36  H   UNL     1       7.790  -8.436   1.301  1.00  0.00     0.167 HD
ATOM     37  C   UNL     1       8.467  -9.696   3.762  1.00  0.00     0.074 A 
ATOM     38  C   UNL     1       8.547  -9.979   5.181  1.00  0.00     0.031 C 
ATOM     39  C   UNL     1       9.046 -10.457   2.798  1.00  0.00     0.034 A 
BRANCH  26  40
ATOM     40  C   UNL     1       8.112  -8.389  -2.977  1.00  0.00     0.023 A 
ATOM     41  C   UNL     1       8.800  -7.449  -3.763  1.00  0.00     0.031 A 
ATOM     42  C   UNL     1       7.641  -9.554  -3.611  1.00  0.00     0.131 A 
ATOM     43  C   UNL     1       8.949  -7.662  -5.143  1.00  0.00     0.055 A 
ATOM     44  C   UNL     1       7.859  -9.796  -4.969  1.00  0.00     0.041 A 
ATOM     45  F   UNL     1       6.958 -10.480  -2.919  1.00  0.00    -0.206 F 
ATOM     46  C   UNL     1       8.507  -8.841  -5.747  1.00  0.00     0.022 A 
BRANCH  43  47
ATOM     47  S   UNL     1       9.618  -6.317  -6.161  1.00  0.00     0.124 S 
ATOM     48  O   UNL     1       8.673  -5.238  -5.885  1.00  0.00    -0.237 OA
ATOM     49  O   UNL     1      10.959  -6.144  -5.614  1.00  0.00    -0.237 OA
ATOM     50  O   UNL     1       9.562  -6.854  -7.519  1.00  0.00    -0.744 OA
ENDBRANCH  43  47
ENDBRANCH  26  40
BRANCH  27  51
ATOM     51  C   UNL     1       6.225  -6.825   6.755  1.00  0.00     0.023 A 
ATOM     52  C   UNL     1       7.243  -6.636   7.700  1.00  0.00     0.031 A 
ATOM     53  C   UNL     1       4.896  -6.871   7.218  1.00  0.00     0.131 A 
ATOM     54  C   UNL     1       6.924  -6.560   9.064  1.00  0.00     0.055 A 
ATOM     55  C   UNL     1       4.578  -6.721   8.567  1.00  0.00     0.041 A 
ATOM     56  F   UNL     1       3.881  -7.049   6.357  1.00  0.00    -0.206 F 
ATOM     57  C   UNL     1       5.598  -6.582   9.502  1.00  0.00     0.022 A 
BRANCH  54  58
ATOM     58  S   UNL     1       8.279  -6.551  10.268  1.00  0.00     0.124 S 
ATOM     59  O   UNL     1       9.000  -7.767   9.909  1.00  0.00    -0.237 OA
ATOM     60  O   UNL     1       8.949  -5.293   9.959  1.00  0.00    -0.237 OA
ATOM     61  O   UNL     1       7.589  -6.590  11.555  1.00  0.00    -0.744 OA
ENDBRANCH  54  58
ENDBRANCH  27  51
BRANCH  39  62
ATOM     62  C   UNL     1       9.850 -11.646   3.266  1.00  0.00     0.023 A 
ATOM     63  C   UNL     1       9.250 -12.726   3.937  1.00  0.00     0.031 A 
ATOM     64  C   UNL     1      11.242 -11.680   3.073  1.00  0.00     0.131 A 
ATOM     65  C   UNL     1      10.047 -13.756   4.456  1.00  0.00     0.055 A 
ATOM     66  C   UNL     1      12.021 -12.745   3.526  1.00  0.00     0.041 A 
ATOM     67  F   UNL     1      11.871 -10.673   2.445  1.00  0.00    -0.206 F 
ATOM     68  C   UNL     1      11.427 -13.783   4.238  1.00  0.00     0.022 A 
BRANCH  65  69
ATOM     69  S   UNL     1       9.273 -14.998   5.528  1.00  0.00     0.124 S 
ATOM     70  O   UNL     1       8.707 -14.171   6.589  1.00  0.00    -0.237 OA
ATOM     71  O   UNL     1       8.311 -15.629   4.630  1.00  0.00    -0.237 OA
ATOM     72  O   UNL     1      10.392 -15.847   5.933  1.00  0.00    -0.744 OA
ENDBRANCH  65  69
ENDBRANCH  39  62
ENDBRANCH  13  14
ENDBRANCH   6   8
ENDBRANCH   3   4
ENDBRANCH   2   3
ENDBRANCH   1   2
BRANCH   1  73
ATOM     73  C   UNL     1       5.315   3.987  -1.039  1.00  0.00     0.002 C 
BRANCH  73  74
ATOM     74  C   UNL     1       6.836   3.790  -0.891  1.00  0.00     0.021 C 
BRANCH  74  75
ATOM     75  C   UNL     1       7.663   4.194  -2.120  1.00  0.00     0.116 C 
BRANCH  75  76
ATOM     76  N   UNL     1       7.445   5.601  -2.393  1.00  0.00    -0.356 N 
ATOM     77  C   UNL     1       8.297   6.649  -2.316  1.00  0.00     0.225 C 
ATOM     78  H   UNL     1       6.532   5.830  -2.681  1.00  0.00     0.163 HD
ATOM     79  O   UNL     1       7.838   7.736  -1.966  1.00  0.00    -0.275 OA
BRANCH  77  80
ATOM     80  C   UNL     1       9.735   6.486  -2.758  1.00  0.00     0.107 C 
ATOM     81  C   UNL     1      10.556   7.667  -2.258  1.00  0.00     0.116 C 
ATOM     82  C   UNL     1       9.828   6.613  -4.277  1.00  0.00     0.139 C 
ATOM     83  C   UNL     1      10.365   8.697  -3.342  1.00  0.00     0.227 C 
ATOM     84  N   UNL     1       9.958   8.036  -4.515  1.00  0.00    -0.311 N 
ATOM     85  O   UNL     1      10.608   9.889  -3.200  1.00  0.00    -0.274 OA
BRANCH  84  86
ATOM     86  C   UNL     1      10.037   8.624  -5.809  1.00  0.00     0.055 A 
ATOM     87  C   UNL     1      11.121   9.502  -6.039  1.00  0.00     0.028 A 
ATOM     88  C   UNL     1       9.179   8.356  -6.895  1.00  0.00     0.048 A 
ATOM     89  C   UNL     1      11.373  10.072  -7.289  1.00  0.00     0.023 A 
ATOM     90  C   UNL     1       9.437   8.949  -8.155  1.00  0.00     0.035 A 
ATOM     91  C   UNL     1      10.526   9.792  -8.346  1.00  0.00     0.041 A 
ATOM     92  Cl  UNL     1      10.830  10.481  -9.891  1.00  0.00    -0.084 Cl
BRANCH  88  93
ATOM     93  C   UNL     1       7.983   7.479  -6.897  1.00  0.00     0.195 C 
ATOM     94  O   UNL     1       7.830   6.747  -7.877  1.00  0.00    -0.289 OA
BRANCH  93  95
ATOM     95  C   UNL     1       6.937   7.453  -5.845  1.00  0.00     0.023 A 
ATOM     96  C   UNL     1       6.168   6.281  -5.742  1.00  0.00     0.012 A 
ATOM     97  C   UNL     1       6.669   8.527  -4.995  1.00  0.00     0.012 A 
ATOM     98  C   UNL     1       5.157   6.173  -4.790  1.00  0.00     0.001 A 
ATOM     99  C   UNL     1       5.652   8.412  -4.038  1.00  0.00     0.001 A 
ATOM    100  C   UNL     1       4.901   7.240  -3.933  1.00  0.00     0.000 A 
ENDBRANCH  93  95
ENDBRANCH  88  93
ENDBRANCH  84  86
ENDBRANCH  77  80
ENDBRANCH  75  76
ENDBRANCH  74  75
ENDBRANCH  73  74
ENDBRANCH   1  73
TORSDOF 19
