REMARK SMILES Cc1c(C(=O)NCCCCCCNC(=O)c2ccc(-c3c4nc(c(-c5cc(S(=O)(=O)[O-])ccc5F)c5ccc([nH]5)c(-c5cc(S(=O)(=O)[O-])ccc5F)c5nc(c(-c6cc(S(=O)(=O)[O-])ccc6F)c6ccc3[nH]6)C=C5)C=C4)cc2)oc2c1/C(=N/NC(=O)C(c1ccccc1)c1ccccc1)CCC2
REMARK SMILES IDX 9 1 8 2 7 3 6 4 4 5 5 6 3 8 1 9 2 10 81 11 79 12 80 13 82 14
REMARK SMILES IDX 102 15 83 16 100 17 101 18 84 19 85 20 86 22 87 23 88 24
REMARK SMILES IDX 89 25 93 26 90 27 92 28 91 29 94 30 95 31 99 32 96 33 98 34
REMARK SMILES IDX 97 35 10 36 11 37 12 38 13 39 14 40 15 42 16 43 17 44 78 45
REMARK SMILES IDX 18 46 77 47 19 48 20 49 21 50 71 51 22 52 76 53 70 54 72 55
REMARK SMILES IDX 23 56 75 57 69 58 68 59 24 61 56 62 36 63 55 64 37 65 40 66
REMARK SMILES IDX 54 67 73 68 38 69 39 70 53 72 74 73 41 74 25 75 26 76 34 77
REMARK SMILES IDX 27 78 33 79 35 80 32 81 28 82 29 83 30 84 31 85 57 86 58 87
REMARK SMILES IDX 66 88 59 89 65 90 67 91 64 92 60 93 61 94 62 95 63 96 42 97
REMARK SMILES IDX 43 98 51 99 44 100 50 101 52 102 49 103 45 104 46 105 47 106
REMARK SMILES IDX 48 107
REMARK H PARENT 6 7 84 21 13 41 72 60 40 71
REMARK Flexibility Score: inf
ROOT
ATOM      1  C   UNL     1      -2.080  -5.354   5.120  1.00  0.00     0.002 C 
ENDROOT
BRANCH   1   2
ATOM      2  C   UNL     1      -1.917  -3.843   4.945  1.00  0.00     0.021 C 
BRANCH   2   3
ATOM      3  C   UNL     1      -0.463  -3.469   4.661  1.00  0.00     0.116 C 
BRANCH   3   4
ATOM      4  N   UNL     1      -0.104  -3.745   3.273  1.00  0.00    -0.349 N 
ATOM      5  C   UNL     1       0.016  -2.888   2.187  1.00  0.00     0.287 C 
ATOM      6  O   UNL     1       0.431  -3.342   1.140  1.00  0.00    -0.266 OA
ATOM      7  H   UNL     1       0.082  -4.691   3.075  1.00  0.00     0.163 HD
BRANCH   5   8
ATOM      8  C   UNL     1      -0.275  -1.487   2.410  1.00  0.00     0.195 A 
ATOM      9  C   UNL     1       0.720  -0.192   0.401  1.00  0.00     0.049 C 
ATOM     10  C   UNL     1       0.065  -0.322   1.729  1.00  0.00     0.010 A 
ATOM     11  C   UNL     1      -0.193   0.723   2.671  1.00  0.00     0.043 A 
ATOM     12  O   UNL     1      -0.947  -1.168   3.545  1.00  0.00    -0.455 OA
ATOM     13  C   UNL     1      -0.727   0.120   3.780  1.00  0.00     0.114 A 
ATOM     14  C   UNL     1       0.076   2.147   2.692  1.00  0.00     0.072 C 
ATOM     15  C   UNL     1      -0.957   0.619   5.146  1.00  0.00     0.076 C 
ATOM     16  N   UNL     1       0.272   2.605   1.484  1.00  0.00    -0.177 NA
ATOM     17  C   UNL     1       0.114   2.659   4.163  1.00  0.00     0.059 C 
ATOM     18  C   UNL     1      -1.004   2.128   5.079  1.00  0.00     0.014 C 
BRANCH  16  19
ATOM     19  N   UNL     1       0.526   3.796   0.847  1.00  0.00    -0.246 N 
ATOM     20  C   UNL     1       0.579   5.121   1.224  1.00  0.00     0.252 C 
ATOM     21  H   UNL     1       0.717   3.672  -0.111  1.00  0.00     0.193 HD
ATOM     22  O   UNL     1       0.794   5.989   0.371  1.00  0.00    -0.272 OA
BRANCH  20  23
ATOM     23  C   UNL     1       0.400   5.480   2.683  1.00  0.00     0.140 C 
BRANCH  23  24
ATOM     24  C   UNL     1      -1.129   5.170   3.075  1.00  0.00    -0.031 A 
ATOM     25  C   UNL     1      -1.773   5.736   4.185  1.00  0.00     0.005 A 
ATOM     26  C   UNL     1      -1.972   4.319   2.292  1.00  0.00     0.005 A 
ATOM     27  C   UNL     1      -3.102   5.366   4.534  1.00  0.00     0.000 A 
ATOM     28  C   UNL     1      -3.243   3.876   2.682  1.00  0.00     0.000 A 
ATOM     29  C   UNL     1      -3.813   4.400   3.819  1.00  0.00     0.000 A 
ENDBRANCH  23  24
BRANCH  23  30
ATOM     30  C   UNL     1       1.732   4.980   3.437  1.00  0.00    -0.031 A 
ATOM     31  C   UNL     1       2.561   3.925   2.935  1.00  0.00     0.005 A 
ATOM     32  C   UNL     1       2.200   5.550   4.626  1.00  0.00     0.005 A 
ATOM     33  C   UNL     1       3.597   3.317   3.653  1.00  0.00     0.000 A 
ATOM     34  C   UNL     1       3.321   5.005   5.309  1.00  0.00     0.000 A 
ATOM     35  C   UNL     1       3.975   3.856   4.859  1.00  0.00     0.000 A 
ENDBRANCH  23  30
ENDBRANCH  20  23
ENDBRANCH  16  19
ENDBRANCH   5   8
ENDBRANCH   3   4
ENDBRANCH   2   3
ENDBRANCH   1   2
BRANCH   1  36
ATOM     36  C   UNL     1      -1.118  -5.985   6.144  1.00  0.00     0.002 C 
BRANCH  36  37
ATOM     37  C   UNL     1      -1.101  -5.337   7.539  1.00  0.00     0.021 C 
BRANCH  37  38
ATOM     38  C   UNL     1      -2.391  -5.569   8.304  1.00  0.00     0.116 C 
BRANCH  38  39
ATOM     39  N   UNL     1      -2.612  -6.997   8.578  1.00  0.00    -0.352 N 
ATOM     40  C   UNL     1      -3.684  -7.633   9.185  1.00  0.00     0.251 C 
ATOM     41  H   UNL     1      -1.886  -7.595   8.285  1.00  0.00     0.163 HD
ATOM     42  O   UNL     1      -3.548  -8.753   9.664  1.00  0.00    -0.269 OA
BRANCH  40  43
ATOM     43  C   UNL     1      -4.982  -6.939   9.233  1.00  0.00     0.039 A 
ATOM     44  C   UNL     1      -5.914  -7.080  10.267  1.00  0.00     0.014 A 
ATOM     45  C   UNL     1      -5.235  -6.068   8.191  1.00  0.00     0.014 A 
ATOM     46  C   UNL     1      -7.090  -6.329  10.201  1.00  0.00     0.010 A 
ATOM     47  C   UNL     1      -6.126  -5.067   8.382  1.00  0.00     0.010 A 
ATOM     48  C   UNL     1      -7.187  -5.337   9.219  1.00  0.00    -0.014 A 
BRANCH  48  49
ATOM     49  C   UNL     1      -8.330  -4.469   9.001  1.00  0.00     0.031 A 
ATOM     50  C   UNL     1      -8.514  -3.469  10.072  1.00  0.00     0.074 A 
ATOM     51  C   UNL     1      -8.911  -4.368   7.780  1.00  0.00     0.049 A 
ATOM     52  N   UNL     1      -9.437  -3.461  10.970  1.00  0.00    -0.248 NA
ATOM     53  C   UNL     1      -7.436  -2.495  10.321  1.00  0.00     0.031 C 
ATOM     54  C   UNL     1      -8.580  -5.081   6.537  1.00  0.00     0.029 A 
ATOM     55  N   UNL     1      -9.861  -3.494   7.357  1.00  0.00    -0.354 N 
ATOM     56  C   UNL     1      -9.206  -2.322  11.731  1.00  0.00     0.074 A 
ATOM     57  C   UNL     1      -7.842  -1.956  11.472  1.00  0.00     0.031 C 
ATOM     58  C   UNL     1      -9.152  -4.454   5.482  1.00  0.00     0.029 A 
ATOM     59  C   UNL     1      -9.992  -3.375   5.973  1.00  0.00     0.049 A 
ATOM     60  H   UNL     1     -10.419  -2.980   7.985  1.00  0.00     0.167 HD
ATOM     61  C   UNL     1     -10.239  -1.627  12.284  1.00  0.00     0.034 A 
ATOM     62  C   UNL     1     -10.704  -2.425   5.298  1.00  0.00     0.034 A 
ATOM     63  C   UNL     1     -11.473  -2.379  12.159  1.00  0.00     0.049 A 
ATOM     64  C   UNL     1     -11.707  -1.901   6.270  1.00  0.00     0.074 A 
ATOM     65  C   UNL     1     -11.883  -3.626  12.591  1.00  0.00     0.029 A 
ATOM     66  N   UNL     1     -12.325  -2.043  11.126  1.00  0.00    -0.354 N 
ATOM     67  N   UNL     1     -12.656  -2.647   6.775  1.00  0.00    -0.248 NA
ATOM     68  C   UNL     1     -11.327  -0.759   7.093  1.00  0.00     0.031 C 
ATOM     69  C   UNL     1     -12.586  -4.179  11.479  1.00  0.00     0.029 A 
ATOM     70  C   UNL     1     -12.680  -3.205  10.480  1.00  0.00     0.049 A 
ATOM     71  H   UNL     1     -12.626  -1.135  10.893  1.00  0.00     0.167 HD
ATOM     72  C   UNL     1     -12.669  -2.352   8.133  1.00  0.00     0.074 A 
ATOM     73  C   UNL     1     -11.892  -1.116   8.254  1.00  0.00     0.031 C 
ATOM     74  C   UNL     1     -13.018  -3.291   9.066  1.00  0.00     0.034 A 
BRANCH  61  75
ATOM     75  C   UNL     1     -10.240  -0.152  12.611  1.00  0.00     0.023 A 
ATOM     76  C   UNL     1     -11.410   0.362  13.203  1.00  0.00     0.031 A 
ATOM     77  C   UNL     1      -9.306   0.811  12.169  1.00  0.00     0.131 A 
ATOM     78  C   UNL     1     -11.659   1.743  13.238  1.00  0.00     0.055 A 
ATOM     79  C   UNL     1      -9.528   2.188  12.268  1.00  0.00     0.041 A 
ATOM     80  F   UNL     1      -8.173   0.495  11.536  1.00  0.00    -0.206 F 
ATOM     81  C   UNL     1     -10.725   2.663  12.774  1.00  0.00     0.022 A 
BRANCH  78  82
ATOM     82  S   UNL     1     -13.306   2.302  13.737  1.00  0.00     0.124 S 
ATOM     83  O   UNL     1     -14.163   1.528  12.846  1.00  0.00    -0.237 OA
ATOM     84  O   UNL     1     -13.334   1.927  15.147  1.00  0.00    -0.237 OA
ATOM     85  O   UNL     1     -13.269   3.738  13.474  1.00  0.00    -0.744 OA
ENDBRANCH  78  82
ENDBRANCH  61  75
BRANCH  62  86
ATOM     86  C   UNL     1     -10.309  -1.732   4.024  1.00  0.00     0.023 A 
ATOM     87  C   UNL     1     -11.195  -0.964   3.229  1.00  0.00     0.031 A 
ATOM     88  C   UNL     1      -8.938  -1.638   3.684  1.00  0.00     0.131 A 
ATOM     89  C   UNL     1     -10.700  -0.167   2.159  1.00  0.00     0.055 A 
ATOM     90  C   UNL     1      -8.457  -0.855   2.630  1.00  0.00     0.041 A 
ATOM     91  F   UNL     1      -7.993  -2.240   4.423  1.00  0.00    -0.206 F 
ATOM     92  C   UNL     1      -9.336  -0.108   1.867  1.00  0.00     0.022 A 
BRANCH  89  93
ATOM     93  S   UNL     1     -11.813   0.893   1.167  1.00  0.00     0.124 S 
ATOM     94  O   UNL     1     -12.561  -0.086   0.387  1.00  0.00    -0.237 OA
ATOM     95  O   UNL     1     -12.558   1.615   2.192  1.00  0.00    -0.237 OA
ATOM     96  O   UNL     1     -10.892   1.723   0.388  1.00  0.00    -0.744 OA
ENDBRANCH  89  93
ENDBRANCH  62  86
BRANCH  74  97
ATOM     97  C   UNL     1     -13.609  -4.613   8.591  1.00  0.00     0.023 A 
ATOM     98  C   UNL     1     -12.982  -5.511   7.692  1.00  0.00     0.031 A 
ATOM     99  C   UNL     1     -14.798  -5.045   9.206  1.00  0.00     0.131 A 
ATOM    100  C   UNL     1     -13.553  -6.777   7.439  1.00  0.00     0.055 A 
ATOM    101  C   UNL     1     -15.343  -6.307   8.975  1.00  0.00     0.041 A 
ATOM    102  F   UNL     1     -15.432  -4.255  10.088  1.00  0.00    -0.206 F 
ATOM    103  C   UNL     1     -14.725  -7.177   8.086  1.00  0.00     0.022 A 
BRANCH 100 104
ATOM    104  S   UNL     1     -12.791  -7.925   6.242  1.00  0.00     0.124 S 
ATOM    105  O   UNL     1     -12.548  -7.086   5.074  1.00  0.00    -0.237 OA
ATOM    106  O   UNL     1     -11.604  -8.388   6.955  1.00  0.00    -0.237 OA
ATOM    107  O   UNL     1     -13.821  -8.948   6.050  1.00  0.00    -0.744 OA
ENDBRANCH 100 104
ENDBRANCH  74  97
ENDBRANCH  48  49
ENDBRANCH  40  43
ENDBRANCH  38  39
ENDBRANCH  37  38
ENDBRANCH  36  37
ENDBRANCH   1  36
TORSDOF 20
