REMARK SMILES CC[C@@](C)(NC(=O)c1cccc(Br)c1C)C(=O)NCCCCCCNC(=O)c1ccc(-c2c3nc(c(-c4cc(S(=O)(=O)[O-])ccc4F)c4ccc([nH]4)c(-c4cc(S(=O)(=O)[O-])ccc4F)c4nc(c(-c5cc(S(=O)(=O)[O-])ccc5F)c5ccc2[nH]5)C=C4)C=C3)cc1
REMARK SMILES IDX 22 1 21 2 20 3 19 4 18 5 16 6 17 7 3 9 4 10 2 11 1 12 5 13
REMARK SMILES IDX 6 14 7 16 8 17 9 18 14 19 10 20 12 21 15 22 11 23 13 24
REMARK SMILES IDX 23 25 24 26 25 27 26 28 27 30 28 31 29 32 90 33 30 34 89 35
REMARK SMILES IDX 31 36 32 37 33 38 83 39 34 40 88 41 82 42 84 43 35 44 87 45
REMARK SMILES IDX 81 46 80 47 36 49 68 50 48 51 67 52 49 53 52 54 66 55 85 56
REMARK SMILES IDX 50 57 51 58 65 60 86 61 53 62 37 63 38 64 46 65 39 66 45 67
REMARK SMILES IDX 47 68 44 69 40 70 41 71 42 72 43 73 69 74 70 75 78 76 71 77
REMARK SMILES IDX 77 78 79 79 76 80 72 81 73 82 74 83 75 84 54 85 55 86 63 87
REMARK SMILES IDX 56 88 62 89 64 90 61 91 57 92 58 93 59 94 60 95
REMARK H PARENT 18 8 5 15 25 29 84 48 52 59
REMARK Flexibility Score: inf
ROOT
ATOM      1  C   UNL     1       5.698   4.267  -5.966  1.00  0.00     0.002 C 
ENDROOT
BRANCH   1   2
ATOM      2  C   UNL     1       5.226   4.319  -4.531  1.00  0.00     0.002 C 
BRANCH   2   3
ATOM      3  C   UNL     1       3.747   4.019  -4.242  1.00  0.00     0.021 C 
BRANCH   3   4
ATOM      4  C   UNL     1       3.009   2.640  -4.205  1.00  0.00     0.116 C 
BRANCH   4   5
ATOM      5  N   UNL     1       3.043   1.810  -2.950  1.00  0.00    -0.354 N 
ATOM      6  C   UNL     1       2.449   1.397  -1.790  1.00  0.00     0.245 C 
ATOM      7  O   UNL     1       3.136   0.469  -1.308  1.00  0.00    -0.272 OA
ATOM      8  H   UNL     1       3.907   1.339  -2.977  1.00  0.00     0.163 HD
BRANCH   6   9
ATOM      9  C   UNL     1       1.031   1.699  -1.014  1.00  0.00     0.116 C 
ATOM     10  C   UNL     1      -0.047   1.158  -1.979  1.00  0.00     0.045 C 
BRANCH   9  11
ATOM     11  C   UNL     1       0.974   0.864   0.334  1.00  0.00     0.035 C 
ATOM     12  C   UNL     1       1.097  -0.656   0.311  1.00  0.00     0.007 C 
ENDBRANCH   9  11
BRANCH   9  13
ATOM     13  N   UNL     1       0.480   3.043  -0.539  1.00  0.00    -0.338 N 
ATOM     14  C   UNL     1       0.964   3.934   0.417  1.00  0.00     0.252 C 
ATOM     15  H   UNL     1      -0.352   3.326  -0.982  1.00  0.00     0.164 HD
ATOM     16  O   UNL     1       0.200   4.501   1.191  1.00  0.00    -0.269 OA
BRANCH  14  17
ATOM     17  C   UNL     1       2.388   4.331   0.367  1.00  0.00     0.043 A 
ATOM     18  C   UNL     1       3.056   5.004   1.395  1.00  0.00     0.014 A 
ATOM     19  C   UNL     1       2.992   4.285  -0.875  1.00  0.00    -0.024 A 
ATOM     20  C   UNL     1       4.399   5.376   1.245  1.00  0.00     0.002 A 
ATOM     21  C   UNL     1       4.403   4.326  -0.901  1.00  0.00     0.021 A 
ATOM     22  C   UNL     1       2.030   4.772  -1.984  1.00  0.00     0.046 C 
ATOM     23  C   UNL     1       5.095   4.961   0.124  1.00  0.00     0.016 A 
ATOM     24  Br  UNL     1       5.484   2.811  -1.458  1.00  0.00    -0.051 Br
ENDBRANCH  14  17
ENDBRANCH   9  13
ENDBRANCH   6   9
ENDBRANCH   4   5
ENDBRANCH   3   4
ENDBRANCH   2   3
ENDBRANCH   1   2
BRANCH   1  25
ATOM     25  C   UNL     1       4.848   5.085  -6.932  1.00  0.00     0.021 C 
BRANCH  25  26
ATOM     26  C   UNL     1       4.667   6.553  -6.542  1.00  0.00     0.116 C 
BRANCH  26  27
ATOM     27  N   UNL     1       5.946   7.250  -6.478  1.00  0.00    -0.352 N 
ATOM     28  C   UNL     1       6.500   8.051  -7.444  1.00  0.00     0.251 C 
ATOM     29  H   UNL     1       6.468   7.133  -5.652  1.00  0.00     0.163 HD
ATOM     30  O   UNL     1       7.712   8.277  -7.462  1.00  0.00    -0.269 OA
BRANCH  28  31
ATOM     31  C   UNL     1       5.604   8.632  -8.455  1.00  0.00     0.039 A 
ATOM     32  C   UNL     1       5.871   8.457  -9.812  1.00  0.00     0.014 A 
ATOM     33  C   UNL     1       4.445   9.290  -8.027  1.00  0.00     0.014 A 
ATOM     34  C   UNL     1       4.938   8.901 -10.749  1.00  0.00     0.010 A 
ATOM     35  C   UNL     1       3.482   9.651  -8.957  1.00  0.00     0.010 A 
ATOM     36  C   UNL     1       3.724   9.471 -10.327  1.00  0.00    -0.014 A 
BRANCH  36  37
ATOM     37  C   UNL     1       2.697   9.908 -11.304  1.00  0.00     0.031 A 
ATOM     38  C   UNL     1       2.316  11.360 -11.378  1.00  0.00     0.074 A 
ATOM     39  C   UNL     1       2.068   8.992 -12.064  1.00  0.00     0.049 A 
ATOM     40  N   UNL     1       1.393  11.938 -12.102  1.00  0.00    -0.248 NA
ATOM     41  C   UNL     1       3.046  12.277 -10.491  1.00  0.00     0.031 C 
ATOM     42  C   UNL     1       2.324   7.550 -12.033  1.00  0.00     0.029 A 
ATOM     43  N   UNL     1       1.077   9.132 -13.002  1.00  0.00    -0.354 N 
ATOM     44  C   UNL     1       1.428  13.283 -11.752  1.00  0.00     0.074 A 
ATOM     45  C   UNL     1       2.405  13.416 -10.693  1.00  0.00     0.031 C 
ATOM     46  C   UNL     1       1.528   6.943 -12.927  1.00  0.00     0.029 A 
ATOM     47  C   UNL     1       0.669   7.941 -13.556  1.00  0.00     0.049 A 
ATOM     48  H   UNL     1       0.694  10.003 -13.255  1.00  0.00     0.167 HD
ATOM     49  C   UNL     1       0.732  14.315 -12.289  1.00  0.00     0.034 A 
ATOM     50  C   UNL     1      -0.301   7.681 -14.455  1.00  0.00     0.034 A 
ATOM     51  C   UNL     1      -0.239  14.152 -13.342  1.00  0.00     0.049 A 
ATOM     52  C   UNL     1      -1.093   8.837 -15.012  1.00  0.00     0.074 A 
ATOM     53  C   UNL     1      -0.969  15.125 -14.001  1.00  0.00     0.029 A 
ATOM     54  N   UNL     1      -0.628  12.931 -13.882  1.00  0.00    -0.354 N 
ATOM     55  N   UNL     1      -1.003  10.115 -14.722  1.00  0.00    -0.248 NA
ATOM     56  C   UNL     1      -2.108   8.519 -16.023  1.00  0.00     0.031 C 
ATOM     57  C   UNL     1      -1.857  14.488 -14.874  1.00  0.00     0.029 A 
ATOM     58  C   UNL     1      -1.618  13.122 -14.833  1.00  0.00     0.049 A 
ATOM     59  H   UNL     1      -0.255  12.056 -13.625  1.00  0.00     0.167 HD
ATOM     60  C   UNL     1      -1.935  10.756 -15.533  1.00  0.00     0.074 A 
ATOM     61  C   UNL     1      -2.560   9.725 -16.336  1.00  0.00     0.031 C 
ATOM     62  C   UNL     1      -2.244  12.077 -15.610  1.00  0.00     0.034 A 
BRANCH  49  63
ATOM     63  C   UNL     1       0.983  15.692 -11.716  1.00  0.00     0.023 A 
ATOM     64  C   UNL     1       2.260  16.282 -11.744  1.00  0.00     0.031 A 
ATOM     65  C   UNL     1      -0.052  16.404 -11.084  1.00  0.00     0.131 A 
ATOM     66  C   UNL     1       2.490  17.491 -11.071  1.00  0.00     0.055 A 
ATOM     67  C   UNL     1       0.163  17.654 -10.501  1.00  0.00     0.041 A 
ATOM     68  F   UNL     1      -1.288  15.886 -11.002  1.00  0.00    -0.206 F 
ATOM     69  C   UNL     1       1.445  18.196 -10.473  1.00  0.00     0.022 A 
BRANCH  66  70
ATOM     70  S   UNL     1       4.206  18.031 -10.831  1.00  0.00     0.124 S 
ATOM     71  O   UNL     1       4.782  16.881 -10.138  1.00  0.00    -0.237 OA
ATOM     72  O   UNL     1       4.662  18.247 -12.199  1.00  0.00    -0.237 OA
ATOM     73  O   UNL     1       4.075  19.238 -10.018  1.00  0.00    -0.744 OA
ENDBRANCH  66  70
ENDBRANCH  49  63
BRANCH  50  74
ATOM     74  C   UNL     1      -0.592   6.276 -14.860  1.00  0.00     0.023 A 
ATOM     75  C   UNL     1      -0.400   5.840 -16.180  1.00  0.00     0.031 A 
ATOM     76  C   UNL     1      -1.088   5.347 -13.926  1.00  0.00     0.131 A 
ATOM     77  C   UNL     1      -0.737   4.524 -16.538  1.00  0.00     0.055 A 
ATOM     78  C   UNL     1      -1.368   4.025 -14.274  1.00  0.00     0.041 A 
ATOM     79  F   UNL     1      -1.288   5.709 -12.648  1.00  0.00    -0.206 F 
ATOM     80  C   UNL     1      -1.204   3.610 -15.591  1.00  0.00     0.022 A 
BRANCH  77  81
ATOM     81  S   UNL     1      -0.634   4.045 -18.285  1.00  0.00     0.124 S 
ATOM     82  O   UNL     1      -1.530   5.010 -18.911  1.00  0.00    -0.237 OA
ATOM     83  O   UNL     1       0.789   4.214 -18.562  1.00  0.00    -0.237 OA
ATOM     84  O   UNL     1      -1.107   2.662 -18.285  1.00  0.00    -0.744 OA
ENDBRANCH  77  81
ENDBRANCH  50  74
BRANCH  62  85
ATOM     85  C   UNL     1      -3.286  12.479 -16.626  1.00  0.00     0.023 A 
ATOM     86  C   UNL     1      -4.628  12.078 -16.509  1.00  0.00     0.031 A 
ATOM     87  C   UNL     1      -2.929  13.280 -17.726  1.00  0.00     0.131 A 
ATOM     88  C   UNL     1      -5.552  12.434 -17.502  1.00  0.00     0.055 A 
ATOM     89  C   UNL     1      -3.868  13.689 -18.673  1.00  0.00     0.041 A 
ATOM     90  F   UNL     1      -1.660  13.688 -17.891  1.00  0.00    -0.206 F 
ATOM     91  C   UNL     1      -5.186  13.255 -18.572  1.00  0.00     0.022 A 
BRANCH  88  92
ATOM     92  S   UNL     1      -7.221  11.728 -17.430  1.00  0.00     0.124 S 
ATOM     93  O   UNL     1      -6.946  10.296 -17.472  1.00  0.00    -0.237 OA
ATOM     94  O   UNL     1      -7.725  12.244 -16.162  1.00  0.00    -0.237 OA
ATOM     95  O   UNL     1      -7.874  12.269 -18.622  1.00  0.00    -0.744 OA
ENDBRANCH  88  92
ENDBRANCH  62  85
ENDBRANCH  36  37
ENDBRANCH  28  31
ENDBRANCH  26  27
ENDBRANCH  25  26
ENDBRANCH   1  25
TORSDOF 19
