REMARK SMILES Cc1ccccc1/[NH+]=C1\S[C@@H](CC(=O)Nc2ccc(C(=O)NCCCCCCNC(=O)c3ccc(-c4c5nc(c(-c6cc(S(=O)(=O)[O-])ccc6F)c6ccc([nH]6)c(-c6cc(S(=O)(=O)[O-])ccc6F)c6nc(c(-c7cc(S(=O)(=O)[O-])ccc7F)c7ccc4[nH]7)C=C6)C=C5)cc3)cc2)C(=O)N1C
REMARK SMILES IDX 25 1 24 2 23 3 22 4 20 5 21 6 19 8 16 9 17 10 96 11 18 12
REMARK SMILES IDX 95 13 15 14 13 15 14 16 12 18 11 19 8 20 9 21 10 23 99 24
REMARK SMILES IDX 97 25 100 26 98 27 7 28 1 29 2 30 3 31 4 32 6 33 5 34 26 35
REMARK SMILES IDX 27 36 28 37 29 38 30 39 31 41 32 42 33 43 94 44 34 45 93 46
REMARK SMILES IDX 35 47 36 48 37 49 87 50 38 51 92 52 86 53 88 54 39 55 91 56
REMARK SMILES IDX 85 57 84 58 40 60 72 61 52 62 71 63 53 64 56 65 70 66 89 67
REMARK SMILES IDX 54 68 55 69 69 71 90 72 57 73 41 74 42 75 50 76 43 77 49 78
REMARK SMILES IDX 51 79 48 80 44 81 45 82 46 83 47 84 73 85 74 86 82 87 75 88
REMARK SMILES IDX 81 89 83 90 80 91 76 92 77 93 78 94 79 95 58 96 59 97 67 98
REMARK SMILES IDX 60 99 66 100 68 101 65 102 61 103 62 104 63 105 64 106
REMARK H PARENT 22 7 15 17 8 22 29 40 88 59 56 70
REMARK Flexibility Score: inf
ROOT
ATOM      1  C   UNL     1       1.097   7.012  -3.276  1.00  0.00     0.002 C 
ENDROOT
BRANCH   1   2
ATOM      2  C   UNL     1       2.049   6.308  -2.293  1.00  0.00     0.021 C 
BRANCH   2   3
ATOM      3  C   UNL     1       3.105   5.404  -2.936  1.00  0.00     0.116 C 
BRANCH   3   4
ATOM      4  N   UNL     1       4.195   6.168  -3.532  1.00  0.00    -0.352 N 
ATOM      5  C   UNL     1       5.543   6.216  -3.263  1.00  0.00     0.251 C 
ATOM      6  O   UNL     1       6.291   6.775  -4.063  1.00  0.00    -0.269 OA
ATOM      7  H   UNL     1       3.912   6.761  -4.265  1.00  0.00     0.163 HD
BRANCH   5   8
ATOM      8  C   UNL     1       6.142   5.579  -2.062  1.00  0.00     0.039 A 
ATOM      9  C   UNL     1       7.301   4.225   0.097  1.00  0.00     0.041 A 
ATOM     10  C   UNL     1       6.070   4.865   0.235  1.00  0.00     0.027 A 
ATOM     11  C   UNL     1       8.040   4.402  -1.065  1.00  0.00     0.027 A 
ATOM     12  C   UNL     1       5.490   5.543  -0.834  1.00  0.00     0.016 A 
ATOM     13  C   UNL     1       7.451   5.067  -2.149  1.00  0.00     0.016 A 
BRANCH   9  14
ATOM     14  N   UNL     1       7.762   3.370   1.105  1.00  0.00    -0.326 N 
ATOM     15  C   UNL     1       7.120   2.229   1.539  1.00  0.00     0.226 C 
ATOM     16  O   UNL     1       7.480   1.652   2.565  1.00  0.00    -0.275 OA
ATOM     17  H   UNL     1       8.615   3.602   1.539  1.00  0.00     0.169 HD
BRANCH  15  18
ATOM     18  C   UNL     1       6.101   1.595   0.604  1.00  0.00     0.128 C 
BRANCH  18  19
ATOM     19  C   UNL     1       4.679   1.537   1.115  1.00  0.00     0.183 C 
ATOM     20  N   UNL     1       1.014   1.841   0.629  1.00  0.00    -0.234 N 
ATOM     21  C   UNL     1       2.276   2.058   0.547  1.00  0.00     0.319 C 
ATOM     22  H   UNL     1       0.501   2.528   1.112  1.00  0.00     0.313 HD
ATOM     23  S   UNL     1       3.532   1.195  -0.276  1.00  0.00    -0.022 SA
ATOM     24  N   UNL     1       2.850   3.078   1.248  1.00  0.00    -0.193 N 
ATOM     25  C   UNL     1       4.108   2.798   1.736  1.00  0.00     0.324 C 
ATOM     26  C   UNL     1       2.130   4.261   1.674  1.00  0.00     0.301 C 
ATOM     27  O   UNL     1       4.649   3.408   2.651  1.00  0.00    -0.245 OA
BRANCH  20  28
ATOM     28  C   UNL     1       0.257   0.771   0.132  1.00  0.00     0.128 A 
ATOM     29  C   UNL     1       1.809  -1.196   0.784  1.00  0.00     0.049 C 
ATOM     30  C   UNL     1       0.532  -0.609   0.253  1.00  0.00    -0.004 A 
ATOM     31  C   UNL     1      -0.452  -1.547  -0.128  1.00  0.00     0.008 A 
ATOM     32  C   UNL     1      -1.720  -1.145  -0.534  1.00  0.00     0.001 A 
ATOM     33  C   UNL     1      -1.030   1.145  -0.297  1.00  0.00     0.052 A 
ATOM     34  C   UNL     1      -2.014   0.207  -0.612  1.00  0.00     0.004 A 
ENDBRANCH  20  28
ENDBRANCH  18  19
ENDBRANCH  15  18
ENDBRANCH   9  14
ENDBRANCH   5   8
ENDBRANCH   3   4
ENDBRANCH   2   3
ENDBRANCH   1   2
BRANCH   1  35
ATOM     35  C   UNL     1       0.277   6.112  -4.218  1.00  0.00     0.002 C 
BRANCH  35  36
ATOM     36  C   UNL     1      -0.535   5.004  -3.546  1.00  0.00     0.021 C 
BRANCH  36  37
ATOM     37  C   UNL     1      -1.772   5.501  -2.802  1.00  0.00     0.116 C 
BRANCH  37  38
ATOM     38  N   UNL     1      -3.012   5.391  -3.566  1.00  0.00    -0.352 N 
ATOM     39  C   UNL     1      -4.307   5.742  -3.211  1.00  0.00     0.251 C 
ATOM     40  H   UNL     1      -2.915   5.009  -4.468  1.00  0.00     0.163 HD
ATOM     41  O   UNL     1      -5.246   5.486  -3.940  1.00  0.00    -0.269 OA
BRANCH  39  42
ATOM     42  C   UNL     1      -4.524   6.529  -1.971  1.00  0.00     0.039 A 
ATOM     43  C   UNL     1      -5.294   7.698  -2.056  1.00  0.00     0.014 A 
ATOM     44  C   UNL     1      -3.823   6.233  -0.808  1.00  0.00     0.014 A 
ATOM     45  C   UNL     1      -5.168   8.675  -1.070  1.00  0.00     0.010 A 
ATOM     46  C   UNL     1      -3.612   7.238   0.109  1.00  0.00     0.010 A 
ATOM     47  C   UNL     1      -4.240   8.479  -0.051  1.00  0.00    -0.014 A 
BRANCH  47  48
ATOM     48  C   UNL     1      -3.754   9.531   0.832  1.00  0.00     0.031 A 
ATOM     49  C   UNL     1      -4.062   9.509   2.275  1.00  0.00     0.074 A 
ATOM     50  C   UNL     1      -2.881  10.447   0.358  1.00  0.00     0.049 A 
ATOM     51  N   UNL     1      -3.910  10.521   3.057  1.00  0.00    -0.248 NA
ATOM     52  C   UNL     1      -4.637   8.353   2.950  1.00  0.00     0.031 C 
ATOM     53  C   UNL     1      -1.980  11.292   1.137  1.00  0.00     0.029 A 
ATOM     54  N   UNL     1      -2.798  10.955  -0.933  1.00  0.00    -0.354 N 
ATOM     55  C   UNL     1      -4.054  10.085   4.352  1.00  0.00     0.074 A 
ATOM     56  C   UNL     1      -4.623   8.765   4.221  1.00  0.00     0.031 C 
ATOM     57  C   UNL     1      -1.608  12.341   0.390  1.00  0.00     0.029 A 
ATOM     58  C   UNL     1      -2.389  12.298  -0.832  1.00  0.00     0.049 A 
ATOM     59  H   UNL     1      -2.989  10.465  -1.766  1.00  0.00     0.167 HD
ATOM     60  C   UNL     1      -3.544  10.850   5.359  1.00  0.00     0.034 A 
ATOM     61  C   UNL     1      -3.179  13.313  -1.292  1.00  0.00     0.034 A 
ATOM     62  C   UNL     1      -3.031  12.132   4.854  1.00  0.00     0.049 A 
ATOM     63  C   UNL     1      -3.607  14.311  -0.231  1.00  0.00     0.074 A 
ATOM     64  C   UNL     1      -1.768  12.674   4.678  1.00  0.00     0.029 A 
ATOM     65  N   UNL     1      -3.907  13.009   4.234  1.00  0.00    -0.354 N 
ATOM     66  N   UNL     1      -3.376  14.175   1.046  1.00  0.00    -0.248 NA
ATOM     67  C   UNL     1      -4.404  15.503  -0.516  1.00  0.00     0.031 C 
ATOM     68  C   UNL     1      -1.905  13.907   3.979  1.00  0.00     0.029 A 
ATOM     69  C   UNL     1      -3.251  14.120   3.745  1.00  0.00     0.049 A 
ATOM     70  H   UNL     1      -4.876  12.858   4.153  1.00  0.00     0.167 HD
ATOM     71  C   UNL     1      -4.027  15.160   1.749  1.00  0.00     0.074 A 
ATOM     72  C   UNL     1      -4.651  15.974   0.720  1.00  0.00     0.031 C 
ATOM     73  C   UNL     1      -4.030  15.180   3.118  1.00  0.00     0.034 A 
BRANCH  60  74
ATOM     74  C   UNL     1      -3.281  10.402   6.788  1.00  0.00     0.023 A 
ATOM     75  C   UNL     1      -2.439  11.201   7.595  1.00  0.00     0.031 A 
ATOM     76  C   UNL     1      -3.738   9.222   7.409  1.00  0.00     0.131 A 
ATOM     77  C   UNL     1      -2.017  10.788   8.872  1.00  0.00     0.055 A 
ATOM     78  C   UNL     1      -3.311   8.803   8.677  1.00  0.00     0.041 A 
ATOM     79  F   UNL     1      -4.645   8.418   6.853  1.00  0.00    -0.206 F 
ATOM     80  C   UNL     1      -2.433   9.578   9.412  1.00  0.00     0.022 A 
BRANCH  77  81
ATOM     81  S   UNL     1      -0.876  11.844   9.804  1.00  0.00     0.124 S 
ATOM     82  O   UNL     1       0.272  11.922   8.906  1.00  0.00    -0.237 OA
ATOM     83  O   UNL     1      -1.654  13.066   9.972  1.00  0.00    -0.237 OA
ATOM     84  O   UNL     1      -0.645  11.086  11.034  1.00  0.00    -0.744 OA
ENDBRANCH  77  81
ENDBRANCH  60  74
BRANCH  61  85
ATOM     85  C   UNL     1      -3.993  12.905  -2.473  1.00  0.00     0.023 A 
ATOM     86  C   UNL     1      -3.297  12.517  -3.638  1.00  0.00     0.031 A 
ATOM     87  C   UNL     1      -5.324  12.485  -2.330  1.00  0.00     0.131 A 
ATOM     88  C   UNL     1      -3.878  11.611  -4.536  1.00  0.00     0.055 A 
ATOM     89  C   UNL     1      -5.918  11.624  -3.261  1.00  0.00     0.041 A 
ATOM     90  F   UNL     1      -6.021  12.788  -1.225  1.00  0.00    -0.206 F 
ATOM     91  C   UNL     1      -5.181  11.149  -4.347  1.00  0.00     0.022 A 
BRANCH  88  92
ATOM     92  S   UNL     1      -2.814  10.854  -5.802  1.00  0.00     0.124 S 
ATOM     93  O   UNL     1      -2.702  11.927  -6.784  1.00  0.00    -0.237 OA
ATOM     94  O   UNL     1      -1.600  10.549  -5.048  1.00  0.00    -0.237 OA
ATOM     95  O   UNL     1      -3.572   9.684  -6.234  1.00  0.00    -0.744 OA
ENDBRANCH  88  92
ENDBRANCH  61  85
BRANCH  73  96
ATOM     96  C   UNL     1      -4.780  16.158   4.008  1.00  0.00     0.023 A 
ATOM     97  C   UNL     1      -5.111  17.465   3.622  1.00  0.00     0.031 A 
ATOM     98  C   UNL     1      -5.140  15.810   5.338  1.00  0.00     0.131 A 
ATOM     99  C   UNL     1      -5.823  18.322   4.489  1.00  0.00     0.055 A 
ATOM    100  C   UNL     1      -5.790  16.682   6.216  1.00  0.00     0.041 A 
ATOM    101  F   UNL     1      -4.905  14.594   5.849  1.00  0.00    -0.206 F 
ATOM    102  C   UNL     1      -6.152  17.944   5.789  1.00  0.00     0.022 A 
BRANCH  99 103
ATOM    103  S   UNL     1      -6.351  19.942   3.872  1.00  0.00     0.124 S 
ATOM    104  O   UNL     1      -5.094  20.536   3.429  1.00  0.00    -0.237 OA
ATOM    105  O   UNL     1      -7.284  19.569   2.812  1.00  0.00    -0.237 OA
ATOM    106  O   UNL     1      -6.962  20.577   5.039  1.00  0.00    -0.744 OA
ENDBRANCH  99 103
ENDBRANCH  73  96
ENDBRANCH  47  48
ENDBRANCH  39  42
ENDBRANCH  37  38
ENDBRANCH  36  37
ENDBRANCH  35  36
ENDBRANCH   1  35
TORSDOF 20
