REMARK SMILES COc1ccc([C@H]2CC(c3ccc(S(C)(=O)=O)cc3)=NN2c2ccc(C(=O)NCCCCCCNC(=O)c3ccc(-c4c5nc(c(-c6cc(S(=O)(=O)[O-])ccc6F)c6ccc([nH]6)c(-c6cc(S(=O)(=O)[O-])ccc6F)c6nc(c(-c7cc(S(=O)(=O)[O-])ccc7F)c7ccc4[nH]7)C=C6)C=C5)cc3)cc2)cc1OC
REMARK SMILES IDX 31 1 30 2 29 3 28 4 26 5 27 6 25 8 22 9 23 10 102 11 24 12
REMARK SMILES IDX 101 13 21 14 7 15 8 16 9 17 20 18 6 19 3 20 4 21 104 22 5 23
REMARK SMILES IDX 103 24 2 25 1 26 105 27 106 28 10 29 11 30 19 31 12 32 18 33
REMARK SMILES IDX 13 34 14 35 15 36 16 37 17 38 32 39 33 40 34 41 35 42 36 43
REMARK SMILES IDX 37 45 38 46 39 47 100 48 40 49 99 50 41 51 42 52 43 53 93 54
REMARK SMILES IDX 44 55 98 56 92 57 94 58 45 59 97 60 91 61 90 62 46 64 78 65
REMARK SMILES IDX 58 66 77 67 59 68 62 69 76 70 95 71 60 72 61 73 75 75 96 76
REMARK SMILES IDX 63 77 47 78 48 79 56 80 49 81 55 82 57 83 54 84 50 85 51 86
REMARK SMILES IDX 52 87 53 88 79 89 80 90 88 91 81 92 87 93 89 94 86 95 82 96
REMARK SMILES IDX 83 97 84 98 85 99 64 100 65 101 73 102 66 103 72 104 74 105
REMARK SMILES IDX 71 106 67 107 68 108 69 109 70 110
REMARK H PARENT 28 7 35 44 94 63 62 74
REMARK Flexibility Score: inf
ROOT
ATOM      1  C   UNL     1       0.591  11.313   6.276  1.00  0.00     0.002 C 
ENDROOT
BRANCH   1   2
ATOM      2  C   UNL     1       0.765   9.808   6.525  1.00  0.00     0.021 C 
BRANCH   2   3
ATOM      3  C   UNL     1       0.774   8.992   5.231  1.00  0.00     0.116 C 
BRANCH   3   4
ATOM      4  N   UNL     1       2.068   9.114   4.592  1.00  0.00    -0.352 N 
ATOM      5  C   UNL     1       3.155   8.284   4.536  1.00  0.00     0.251 C 
ATOM      6  O   UNL     1       4.154   8.700   3.947  1.00  0.00    -0.269 OA
ATOM      7  H   UNL     1       2.189   9.959   4.101  1.00  0.00     0.163 HD
BRANCH   5   8
ATOM      8  C   UNL     1       3.154   6.898   5.080  1.00  0.00     0.039 A 
ATOM      9  C   UNL     1       3.200   4.184   5.867  1.00  0.00     0.060 A 
ATOM     10  C   UNL     1       4.043   4.650   4.854  1.00  0.00     0.029 A 
ATOM     11  C   UNL     1       2.381   5.103   6.523  1.00  0.00     0.029 A 
ATOM     12  C   UNL     1       4.007   5.984   4.448  1.00  0.00     0.016 A 
ATOM     13  C   UNL     1       2.394   6.457   6.166  1.00  0.00     0.016 A 
BRANCH   9  14
ATOM     14  N   UNL     1       3.232   2.853   6.229  1.00  0.00    -0.257 N 
ATOM     15  C   UNL     1       2.119   1.911   6.107  1.00  0.00     0.144 C 
ATOM     16  C   UNL     1       2.676   0.653   6.798  1.00  0.00     0.091 C 
ATOM     17  C   UNL     1       4.027   1.160   7.218  1.00  0.00     0.071 C 
ATOM     18  N   UNL     1       4.310   2.380   6.894  1.00  0.00    -0.176 NA
BRANCH  15  19
ATOM     19  C   UNL     1       1.754   1.669   4.650  1.00  0.00    -0.019 A 
ATOM     20  C   UNL     1       1.130   1.324   1.918  1.00  0.00     0.160 A 
ATOM     21  C   UNL     1       0.134   1.681   2.838  1.00  0.00     0.051 A 
ATOM     22  C   UNL     1       2.446   1.138   2.350  1.00  0.00     0.161 A 
ATOM     23  C   UNL     1       0.441   1.845   4.195  1.00  0.00     0.010 A 
ATOM     24  C   UNL     1       2.738   1.309   3.711  1.00  0.00     0.056 A 
BRANCH  20  25
ATOM     25  O   UNL     1       0.807   1.295   0.587  1.00  0.00    -0.493 OA
ATOM     26  C   UNL     1       0.002   0.167   0.250  1.00  0.00     0.278 C 
ENDBRANCH  20  25
BRANCH  22  27
ATOM     27  O   UNL     1       3.555   0.830   1.610  1.00  0.00    -0.493 OA
ATOM     28  C   UNL     1       3.368   0.335   0.294  1.00  0.00     0.278 C 
ENDBRANCH  22  27
ENDBRANCH  15  19
BRANCH  17  29
ATOM     29  C   UNL     1       4.962   0.338   7.988  1.00  0.00    -0.002 A 
ATOM     30  C   UNL     1       5.421   0.832   9.214  1.00  0.00     0.011 A 
ATOM     31  C   UNL     1       5.450  -0.860   7.465  1.00  0.00     0.011 A 
ATOM     32  C   UNL     1       6.373   0.115   9.936  1.00  0.00     0.021 A 
ATOM     33  C   UNL     1       6.423  -1.567   8.174  1.00  0.00     0.021 A 
ATOM     34  C   UNL     1       6.883  -1.072   9.401  1.00  0.00     0.067 A 
BRANCH  34  35
ATOM     35  S   UNL     1       8.139  -1.954  10.298  1.00  0.00     0.175 S 
ATOM     36  C   UNL     1       9.484  -0.803  10.414  1.00  0.00     0.163 C 
ATOM     37  O   UNL     1       7.616  -2.183  11.635  1.00  0.00    -0.224 OA
ATOM     38  O   UNL     1       8.580  -3.057   9.472  1.00  0.00    -0.224 OA
ENDBRANCH  34  35
ENDBRANCH  17  29
ENDBRANCH   9  14
ENDBRANCH   5   8
ENDBRANCH   3   4
ENDBRANCH   2   3
ENDBRANCH   1   2
BRANCH   1  39
ATOM     39  C   UNL     1      -0.741  11.698   5.620  1.00  0.00     0.002 C 
BRANCH  39  40
ATOM     40  C   UNL     1      -1.986  11.206   6.363  1.00  0.00     0.021 C 
BRANCH  40  41
ATOM     41  C   UNL     1      -2.121  11.757   7.779  1.00  0.00     0.116 C 
BRANCH  41  42
ATOM     42  N   UNL     1      -2.304  13.198   7.769  1.00  0.00    -0.352 N 
ATOM     43  C   UNL     1      -3.307  13.947   8.330  1.00  0.00     0.251 C 
ATOM     44  H   UNL     1      -1.611  13.709   7.291  1.00  0.00     0.163 HD
ATOM     45  O   UNL     1      -3.449  15.119   7.994  1.00  0.00    -0.269 OA
BRANCH  43  46
ATOM     46  C   UNL     1      -4.213  13.336   9.326  1.00  0.00     0.039 A 
ATOM     47  C   UNL     1      -5.574  13.647   9.283  1.00  0.00     0.014 A 
ATOM     48  C   UNL     1      -3.717  12.489  10.322  1.00  0.00     0.014 A 
ATOM     49  C   UNL     1      -6.441  13.086  10.222  1.00  0.00     0.010 A 
ATOM     50  C   UNL     1      -4.595  11.869  11.207  1.00  0.00     0.010 A 
ATOM     51  C   UNL     1      -5.962  12.181  11.182  1.00  0.00    -0.014 A 
BRANCH  51  52
ATOM     52  C   UNL     1      -6.872  11.587  12.194  1.00  0.00     0.031 A 
ATOM     53  C   UNL     1      -6.675  11.896  13.654  1.00  0.00     0.074 A 
ATOM     54  C   UNL     1      -7.839  10.734  11.805  1.00  0.00     0.049 A 
ATOM     55  N   UNL     1      -7.332  11.448  14.694  1.00  0.00    -0.248 NA
ATOM     56  C   UNL     1      -5.565  12.800  13.989  1.00  0.00     0.031 C 
ATOM     57  C   UNL     1      -8.088  10.316  10.424  1.00  0.00     0.029 A 
ATOM     58  N   UNL     1      -8.785  10.060  12.533  1.00  0.00    -0.354 N 
ATOM     59  C   UNL     1      -6.702  11.999  15.806  1.00  0.00     0.074 A 
ATOM     60  C   UNL     1      -5.570  12.754  15.312  1.00  0.00     0.031 C 
ATOM     61  C   UNL     1      -9.133   9.474  10.403  1.00  0.00     0.029 A 
ATOM     62  C   UNL     1      -9.605   9.263  11.769  1.00  0.00     0.049 A 
ATOM     63  H   UNL     1      -8.870  10.139  13.511  1.00  0.00     0.167 HD
ATOM     64  C   UNL     1      -7.052  11.906  17.113  1.00  0.00     0.034 A 
ATOM     65  C   UNL     1     -10.617   8.450  12.128  1.00  0.00     0.034 A 
ATOM     66  C   UNL     1      -8.196  11.159  17.580  1.00  0.00     0.049 A 
ATOM     67  C   UNL     1     -11.000   8.367  13.582  1.00  0.00     0.074 A 
ATOM     68  C   UNL     1      -8.690  11.050  18.868  1.00  0.00     0.029 A 
ATOM     69  N   UNL     1      -9.020  10.381  16.774  1.00  0.00    -0.354 N 
ATOM     70  N   UNL     1     -10.441   8.950  14.619  1.00  0.00    -0.248 NA
ATOM     71  C   UNL     1     -12.162   7.535  13.912  1.00  0.00     0.031 C 
ATOM     72  C   UNL     1      -9.763  10.150  18.852  1.00  0.00     0.029 A 
ATOM     73  C   UNL     1      -9.996   9.762  17.542  1.00  0.00     0.049 A 
ATOM     74  H   UNL     1      -8.925  10.283  15.799  1.00  0.00     0.167 HD
ATOM     75  C   UNL     1     -11.203   8.575  15.722  1.00  0.00     0.074 A 
ATOM     76  C   UNL     1     -12.268   7.729  15.218  1.00  0.00     0.031 C 
ATOM     77  C   UNL     1     -11.041   8.904  17.030  1.00  0.00     0.034 A 
BRANCH  64  78
ATOM     78  C   UNL     1      -6.162  12.603  18.120  1.00  0.00     0.023 A 
ATOM     79  C   UNL     1      -5.940  13.992  18.078  1.00  0.00     0.031 A 
ATOM     80  C   UNL     1      -5.476  11.862  19.099  1.00  0.00     0.131 A 
ATOM     81  C   UNL     1      -4.982  14.577  18.921  1.00  0.00     0.055 A 
ATOM     82  C   UNL     1      -4.597  12.466  20.001  1.00  0.00     0.041 A 
ATOM     83  F   UNL     1      -5.628  10.531  19.181  1.00  0.00    -0.206 F 
ATOM     84  C   UNL     1      -4.328  13.828  19.901  1.00  0.00     0.022 A 
BRANCH  81  85
ATOM     85  S   UNL     1      -4.468  16.285  18.589  1.00  0.00     0.124 S 
ATOM     86  O   UNL     1      -4.031  16.196  17.197  1.00  0.00    -0.237 OA
ATOM     87  O   UNL     1      -5.695  17.035  18.827  1.00  0.00    -0.237 OA
ATOM     88  O   UNL     1      -3.396  16.514  19.556  1.00  0.00    -0.744 OA
ENDBRANCH  81  85
ENDBRANCH  64  78
BRANCH  65  89
ATOM     89  C   UNL     1     -11.334   7.652  11.093  1.00  0.00     0.023 A 
ATOM     90  C   UNL     1     -12.675   7.912  10.773  1.00  0.00     0.031 A 
ATOM     91  C   UNL     1     -10.680   6.612  10.408  1.00  0.00     0.131 A 
ATOM     92  C   UNL     1     -13.331   7.119   9.817  1.00  0.00     0.055 A 
ATOM     93  C   UNL     1     -11.322   5.858   9.426  1.00  0.00     0.041 A 
ATOM     94  F   UNL     1      -9.393   6.331  10.670  1.00  0.00    -0.206 F 
ATOM     95  C   UNL     1     -12.659   6.104   9.132  1.00  0.00     0.022 A 
BRANCH  92  96
ATOM     96  S   UNL     1     -15.097   7.401   9.516  1.00  0.00     0.124 S 
ATOM     97  O   UNL     1     -15.668   7.142  10.833  1.00  0.00    -0.237 OA
ATOM     98  O   UNL     1     -15.111   8.790   9.071  1.00  0.00    -0.237 OA
ATOM     99  O   UNL     1     -15.427   6.417   8.487  1.00  0.00    -0.744 OA
ENDBRANCH  92  96
ENDBRANCH  65  89
BRANCH  77 100
ATOM    100  C   UNL     1     -12.070   8.375  18.001  1.00  0.00     0.023 A 
ATOM    101  C   UNL     1     -12.209   7.000  18.260  1.00  0.00     0.031 A 
ATOM    102  C   UNL     1     -12.938   9.262  18.663  1.00  0.00     0.131 A 
ATOM    103  C   UNL     1     -13.233   6.548  19.106  1.00  0.00     0.055 A 
ATOM    104  C   UNL     1     -13.910   8.811  19.557  1.00  0.00     0.041 A 
ATOM    105  F   UNL     1     -12.854  10.586  18.453  1.00  0.00    -0.206 F 
ATOM    106  C   UNL     1     -14.072   7.446  19.771  1.00  0.00     0.022 A 
BRANCH 103 107
ATOM    107  S   UNL     1     -13.525   4.763  19.242  1.00  0.00     0.124 S 
ATOM    108  O   UNL     1     -13.751   4.386  17.850  1.00  0.00    -0.237 OA
ATOM    109  O   UNL     1     -12.281   4.287  19.837  1.00  0.00    -0.237 OA
ATOM    110  O   UNL     1     -14.700   4.672  20.107  1.00  0.00    -0.744 OA
ENDBRANCH 103 107
ENDBRANCH  77 100
ENDBRANCH  51  52
ENDBRANCH  43  46
ENDBRANCH  41  42
ENDBRANCH  40  41
ENDBRANCH  39  40
ENDBRANCH   1  39
TORSDOF 22
