REMARK SMILES Cc1cc(F)cc(N[C@H](C(=O)NCCCCCCNC(=O)c2ccc(-c3c4nc(c(-c5cc(S(=O)(=O)[O-])ccc5F)c5ccc([nH]5)c(-c5cc(S(=O)(=O)[O-])ccc5F)c5nc(c(-c6cc(S(=O)(=O)[O-])ccc6F)c6ccc3[nH]6)C=C5)C=C4)cc2)c2cc(C)cc(C)c2)c1
REMARK SMILES IDX 16 1 15 2 14 3 13 4 12 5 10 6 11 7 9 9 8 10 7 12 1 13 2 14
REMARK SMILES IDX 3 15 93 16 4 17 5 18 6 19 85 20 86 21 92 22 87 23 90 24
REMARK SMILES IDX 88 25 89 26 91 27 17 28 18 29 19 30 20 31 21 33 22 34 23 35
REMARK SMILES IDX 84 36 24 37 83 38 25 39 26 40 27 41 77 42 28 43 82 44 76 45
REMARK SMILES IDX 78 46 29 47 81 48 75 49 74 50 30 52 62 53 42 54 61 55 43 56
REMARK SMILES IDX 46 57 60 58 79 59 44 60 45 61 59 63 80 64 47 65 31 66 32 67
REMARK SMILES IDX 40 68 33 69 39 70 41 71 38 72 34 73 35 74 36 75 37 76 63 77
REMARK SMILES IDX 64 78 72 79 65 80 71 81 73 82 70 83 66 84 67 85 68 86 69 87
REMARK SMILES IDX 48 88 49 89 57 90 50 91 56 92 58 93 55 94 51 95 52 96 53 97
REMARK SMILES IDX 54 98
REMARK H PARENT 12 8 8 11 19 32 78 51 46 62
REMARK Flexibility Score: inf
ROOT
ATOM      1  C   UNL     1       3.350  -4.357  -3.884  1.00  0.00     0.002 C 
ENDROOT
BRANCH   1   2
ATOM      2  C   UNL     1       2.598  -3.024  -3.832  1.00  0.00     0.002 C 
BRANCH   2   3
ATOM      3  C   UNL     1       1.076  -3.122  -3.678  1.00  0.00     0.021 C 
BRANCH   3   4
ATOM      4  C   UNL     1       0.596  -3.938  -2.483  1.00  0.00     0.116 C 
BRANCH   4   5
ATOM      5  N   UNL     1       1.002  -3.366  -1.219  1.00  0.00    -0.354 N 
ATOM      6  C   UNL     1       0.500  -3.574   0.034  1.00  0.00     0.247 C 
ATOM      7  O   UNL     1       1.068  -2.942   0.936  1.00  0.00    -0.272 OA
ATOM      8  H   UNL     1       1.753  -2.732  -1.269  1.00  0.00     0.163 HD
BRANCH   6   9
ATOM      9  C   UNL     1      -0.778  -4.427   0.304  1.00  0.00     0.200 C 
BRANCH   9  10
ATOM     10  N   UNL     1      -1.060  -5.507  -0.680  1.00  0.00    -0.370 N 
ATOM     11  H   UNL     1      -1.857  -5.343  -1.234  1.00  0.00     0.161 HD
BRANCH  10  12
ATOM     12  C   UNL     1      -0.417  -6.697  -0.963  1.00  0.00     0.038 A 
ATOM     13  C   UNL     1      -0.331  -9.208  -3.879  1.00  0.00     0.044 C 
ATOM     14  C   UNL     1      -0.039  -8.539  -2.569  1.00  0.00    -0.046 A 
ATOM     15  C   UNL     1       0.901  -9.112  -1.715  1.00  0.00     0.042 A 
ATOM     16  C   UNL     1      -0.707  -7.360  -2.173  1.00  0.00     0.029 A 
ATOM     17  C   UNL     1       1.200  -8.474  -0.531  1.00  0.00     0.125 A 
ATOM     18  F   UNL     1       2.106  -9.002   0.303  1.00  0.00    -0.207 F 
ATOM     19  C   UNL     1       0.581  -7.275  -0.188  1.00  0.00     0.065 A 
ENDBRANCH  10  12
ENDBRANCH   9  10
BRANCH   9  20
ATOM     20  C   UNL     1      -0.914  -4.936   1.741  1.00  0.00    -0.016 A 
ATOM     21  C   UNL     1       0.194  -5.464   2.415  1.00  0.00     0.009 A 
ATOM     22  C   UNL     1      -2.172  -5.045   2.354  1.00  0.00     0.009 A 
ATOM     23  C   UNL     1       0.029  -6.349   3.480  1.00  0.00    -0.051 A 
ATOM     24  C   UNL     1      -2.323  -5.761   3.551  1.00  0.00    -0.051 A 
ATOM     25  C   UNL     1       1.134  -7.313   3.803  1.00  0.00     0.044 C 
ATOM     26  C   UNL     1      -1.232  -6.475   4.062  1.00  0.00     0.006 A 
ATOM     27  C   UNL     1      -3.658  -5.870   4.224  1.00  0.00     0.044 C 
ENDBRANCH   9  20
ENDBRANCH   6   9
ENDBRANCH   4   5
ENDBRANCH   3   4
ENDBRANCH   2   3
ENDBRANCH   1   2
BRANCH   1  28
ATOM     28  C   UNL     1       2.857  -5.354  -4.934  1.00  0.00     0.021 C 
BRANCH  28  29
ATOM     29  C   UNL     1       2.756  -4.805  -6.352  1.00  0.00     0.116 C 
BRANCH  29  30
ATOM     30  N   UNL     1       4.032  -4.323  -6.855  1.00  0.00    -0.352 N 
ATOM     31  C   UNL     1       4.657  -4.608  -8.042  1.00  0.00     0.251 C 
ATOM     32  H   UNL     1       4.514  -3.705  -6.260  1.00  0.00     0.163 HD
ATOM     33  O   UNL     1       5.817  -4.243  -8.225  1.00  0.00    -0.269 OA
BRANCH  31  34
ATOM     34  C   UNL     1       3.943  -5.378  -9.083  1.00  0.00     0.039 A 
ATOM     35  C   UNL     1       4.609  -6.423  -9.726  1.00  0.00     0.014 A 
ATOM     36  C   UNL     1       2.618  -5.079  -9.415  1.00  0.00     0.014 A 
ATOM     37  C   UNL     1       3.927  -7.205 -10.661  1.00  0.00     0.010 A 
ATOM     38  C   UNL     1       1.917  -5.909 -10.287  1.00  0.00     0.010 A 
ATOM     39  C   UNL     1       2.566  -6.978 -10.923  1.00  0.00    -0.014 A 
BRANCH  39  40
ATOM     40  C   UNL     1       1.812  -7.847 -11.866  1.00  0.00     0.031 A 
ATOM     41  C   UNL     1       1.225  -7.266 -13.123  1.00  0.00     0.074 A 
ATOM     42  C   UNL     1       1.619  -9.147 -11.566  1.00  0.00     0.049 A 
ATOM     43  N   UNL     1       0.495  -7.846 -14.041  1.00  0.00    -0.248 NA
ATOM     44  C   UNL     1       1.466  -5.835 -13.365  1.00  0.00     0.031 C 
ATOM     45  C   UNL     1       2.109  -9.816 -10.358  1.00  0.00     0.029 A 
ATOM     46  N   UNL     1       0.959 -10.140 -12.248  1.00  0.00    -0.354 N 
ATOM     47  C   UNL     1       0.185  -6.853 -14.964  1.00  0.00     0.074 A 
ATOM     48  C   UNL     1       0.747  -5.620 -14.456  1.00  0.00     0.031 C 
ATOM     49  C   UNL     1       1.763 -11.113 -10.402  1.00  0.00     0.029 A 
ATOM     50  C   UNL     1       0.981 -11.359 -11.610  1.00  0.00     0.049 A 
ATOM     51  H   UNL     1       0.512  -9.993 -13.112  1.00  0.00     0.167 HD
ATOM     52  C   UNL     1      -0.484  -6.965 -16.139  1.00  0.00     0.034 A 
ATOM     53  C   UNL     1       0.425 -12.539 -11.952  1.00  0.00     0.034 A 
ATOM     54  C   UNL     1      -1.032  -8.205 -16.633  1.00  0.00     0.049 A 
ATOM     55  C   UNL     1      -0.350 -12.630 -13.243  1.00  0.00     0.074 A 
ATOM     56  C   UNL     1      -1.685  -8.441 -17.830  1.00  0.00     0.029 A 
ATOM     57  N   UNL     1      -1.003  -9.416 -15.953  1.00  0.00    -0.354 N 
ATOM     58  N   UNL     1      -0.591 -11.691 -14.130  1.00  0.00    -0.248 NA
ATOM     59  C   UNL     1      -0.917 -13.940 -13.586  1.00  0.00     0.031 C 
ATOM     60  C   UNL     1      -2.121  -9.770 -17.838  1.00  0.00     0.029 A 
ATOM     61  C   UNL     1      -1.659 -10.392 -16.689  1.00  0.00     0.049 A 
ATOM     62  H   UNL     1      -0.579  -9.561 -15.076  1.00  0.00     0.167 HD
ATOM     63  C   UNL     1      -1.307 -12.309 -15.152  1.00  0.00     0.074 A 
ATOM     64  C   UNL     1      -1.445 -13.701 -14.777  1.00  0.00     0.031 C 
ATOM     65  C   UNL     1      -1.798 -11.776 -16.300  1.00  0.00     0.034 A 
BRANCH  52  66
ATOM     66  C   UNL     1      -0.682  -5.706 -16.952  1.00  0.00     0.023 A 
ATOM     67  C   UNL     1       0.407  -4.974 -17.460  1.00  0.00     0.031 A 
ATOM     68  C   UNL     1      -1.976  -5.217 -17.206  1.00  0.00     0.131 A 
ATOM     69  C   UNL     1       0.186  -3.758 -18.124  1.00  0.00     0.055 A 
ATOM     70  C   UNL     1      -2.192  -4.052 -17.946  1.00  0.00     0.041 A 
ATOM     71  F   UNL     1      -3.055  -5.856 -16.729  1.00  0.00    -0.206 F 
ATOM     72  C   UNL     1      -1.106  -3.306 -18.396  1.00  0.00     0.022 A 
BRANCH  69  73
ATOM     73  S   UNL     1       1.614  -2.701 -18.488  1.00  0.00     0.124 S 
ATOM     74  O   UNL     1       2.176  -2.495 -17.155  1.00  0.00    -0.237 OA
ATOM     75  O   UNL     1       2.400  -3.532 -19.392  1.00  0.00    -0.237 OA
ATOM     76  O   UNL     1       1.015  -1.513 -19.093  1.00  0.00    -0.744 OA
ENDBRANCH  69  73
ENDBRANCH  52  66
BRANCH  53  77
ATOM     77  C   UNL     1       0.565 -13.729 -11.062  1.00  0.00     0.023 A 
ATOM     78  C   UNL     1       1.231 -14.886 -11.497  1.00  0.00     0.031 A 
ATOM     79  C   UNL     1      -0.008 -13.745  -9.777  1.00  0.00     0.131 A 
ATOM     80  C   UNL     1       1.262 -16.026 -10.679  1.00  0.00     0.055 A 
ATOM     81  C   UNL     1       0.079 -14.860  -8.943  1.00  0.00     0.041 A 
ATOM     82  F   UNL     1      -0.656 -12.665  -9.308  1.00  0.00    -0.206 F 
ATOM     83  C   UNL     1       0.704 -16.016  -9.399  1.00  0.00     0.022 A 
BRANCH  80  84
ATOM     84  S   UNL     1       1.954 -17.561 -11.354  1.00  0.00     0.124 S 
ATOM     85  O   UNL     1       1.123 -17.764 -12.536  1.00  0.00    -0.237 OA
ATOM     86  O   UNL     1       3.341 -17.184 -11.601  1.00  0.00    -0.237 OA
ATOM     87  O   UNL     1       1.753 -18.527 -10.276  1.00  0.00    -0.744 OA
ENDBRANCH  80  84
ENDBRANCH  53  77
BRANCH  65  88
ATOM     88  C   UNL     1      -2.487 -12.718 -17.259  1.00  0.00     0.023 A 
ATOM     89  C   UNL     1      -3.694 -13.362 -16.934  1.00  0.00     0.031 A 
ATOM     90  C   UNL     1      -1.922 -12.976 -18.522  1.00  0.00     0.131 A 
ATOM     91  C   UNL     1      -4.265 -14.273 -17.835  1.00  0.00     0.055 A 
ATOM     92  C   UNL     1      -2.530 -13.830 -19.441  1.00  0.00     0.041 A 
ATOM     93  F   UNL     1      -0.768 -12.393 -18.885  1.00  0.00    -0.206 F 
ATOM     94  C   UNL     1      -3.702 -14.495 -19.095  1.00  0.00     0.022 A 
BRANCH  91  95
ATOM     95  S   UNL     1      -5.703 -15.242 -17.302  1.00  0.00     0.124 S 
ATOM     96  O   UNL     1      -5.187 -15.924 -16.120  1.00  0.00    -0.237 OA
ATOM     97  O   UNL     1      -6.702 -14.207 -17.054  1.00  0.00    -0.237 OA
ATOM     98  O   UNL     1      -5.979 -16.107 -18.447  1.00  0.00    -0.744 OA
ENDBRANCH  91  95
ENDBRANCH  65  88
ENDBRANCH  39  40
ENDBRANCH  31  34
ENDBRANCH  29  30
ENDBRANCH  28  29
ENDBRANCH   1  28
TORSDOF 19
