REMARK SMILES O=C(NCCCCCCNC(=O)[C@@H]1CC[C@]2(CC[NH2+]C2)C1)c1ccc(-c2c3nc(c(-c4cc(S(=O)(=O)[O-])ccc4F)c4ccc([nH]4)c(-c4cc(S(=O)(=O)[O-])ccc4F)c4nc(c(-c5cc(S(=O)(=O)[O-])ccc5F)c5ccc2[nH]5)C=C4)C=C3)cc1
REMARK SMILES IDX 5 1 4 2 3 3 1 4 2 5 22 7 23 8 84 9 24 10 83 11 25 12 26 13
REMARK SMILES IDX 27 14 77 15 28 16 82 17 76 18 78 19 29 20 81 21 75 22 74 23
REMARK SMILES IDX 30 25 62 26 42 27 61 28 43 29 46 30 60 31 79 32 44 33 45 34
REMARK SMILES IDX 59 36 80 37 47 38 31 39 32 40 40 41 33 42 39 43 41 44 38 45
REMARK SMILES IDX 34 46 35 47 36 48 37 49 63 50 64 51 72 52 65 53 71 54 73 55
REMARK SMILES IDX 70 56 66 57 67 58 68 59 69 60 48 61 49 62 57 63 50 64 56 65
REMARK SMILES IDX 58 66 55 67 51 68 52 69 53 70 54 71 6 72 7 73 8 74 9 75
REMARK SMILES IDX 10 76 11 77 12 79 13 80 14 81 21 82 15 83 16 84 17 85 20 86
REMARK SMILES IDX 18 87 19 88
REMARK H PARENT 3 6 78 24 46 35 10 78 19 89 19 90
REMARK Flexibility Score: inf
ROOT
ATOM      1  C   UNL     1       4.541  -1.995   1.636  1.00  0.00     0.021 C 
ENDROOT
BRANCH   1   2
ATOM      2  C   UNL     1       4.409  -1.203   0.342  1.00  0.00     0.116 C 
BRANCH   2   3
ATOM      3  N   UNL     1       3.017  -1.010  -0.033  1.00  0.00    -0.352 N 
ATOM      4  O   UNL     1       1.102   0.155  -0.293  1.00  0.00    -0.269 OA
ATOM      5  C   UNL     1       2.327   0.165  -0.198  1.00  0.00     0.251 C 
ATOM      6  H   UNL     1       2.499  -1.833  -0.188  1.00  0.00     0.163 HD
BRANCH   5   7
ATOM      7  C   UNL     1       3.072   1.440  -0.257  1.00  0.00     0.039 A 
ATOM      8  C   UNL     1       4.230   1.538  -1.034  1.00  0.00     0.014 A 
ATOM      9  C   UNL     1       2.607   2.544   0.460  1.00  0.00     0.014 A 
ATOM     10  C   UNL     1       4.990   2.700  -0.994  1.00  0.00     0.010 A 
ATOM     11  C   UNL     1       3.326   3.742   0.426  1.00  0.00     0.010 A 
ATOM     12  C   UNL     1       4.533   3.824  -0.287  1.00  0.00    -0.014 A 
BRANCH  12  13
ATOM     13  C   UNL     1       5.295   5.094  -0.381  1.00  0.00     0.031 A 
ATOM     14  C   UNL     1       5.946   5.704   0.828  1.00  0.00     0.074 A 
ATOM     15  C   UNL     1       5.411   5.683  -1.588  1.00  0.00     0.049 A 
ATOM     16  N   UNL     1       6.639   6.809   0.920  1.00  0.00    -0.248 NA
ATOM     17  C   UNL     1       5.790   4.985   2.100  1.00  0.00     0.031 C 
ATOM     18  C   UNL     1       4.816   5.174  -2.829  1.00  0.00     0.029 A 
ATOM     19  N   UNL     1       6.072   6.817  -1.981  1.00  0.00    -0.354 N 
ATOM     20  C   UNL     1       6.994   6.929   2.260  1.00  0.00     0.074 A 
ATOM     21  C   UNL     1       6.405   5.798   2.947  1.00  0.00     0.031 C 
ATOM     22  C   UNL     1       5.177   5.967  -3.847  1.00  0.00     0.029 A 
ATOM     23  C   UNL     1       5.957   7.081  -3.326  1.00  0.00     0.049 A 
ATOM     24  H   UNL     1       6.579   7.388  -1.360  1.00  0.00     0.167 HD
ATOM     25  C   UNL     1       7.745   7.891   2.852  1.00  0.00     0.034 A 
ATOM     26  C   UNL     1       6.404   8.120  -4.056  1.00  0.00     0.034 A 
ATOM     27  C   UNL     1       8.316   9.014   2.143  1.00  0.00     0.049 A 
ATOM     28  C   UNL     1       7.184   9.203  -3.362  1.00  0.00     0.074 A 
ATOM     29  C   UNL     1       9.115  10.031   2.638  1.00  0.00     0.029 A 
ATOM     30  N   UNL     1       8.138   9.278   0.789  1.00  0.00    -0.354 N 
ATOM     31  N   UNL     1       7.526   9.292  -2.097  1.00  0.00    -0.248 NA
ATOM     32  C   UNL     1       7.642  10.321  -4.193  1.00  0.00     0.031 C 
ATOM     33  C   UNL     1       9.355  10.945   1.606  1.00  0.00     0.029 A 
ATOM     34  C   UNL     1       8.781  10.458   0.443  1.00  0.00     0.049 A 
ATOM     35  H   UNL     1       7.630   8.709   0.166  1.00  0.00     0.167 HD
ATOM     36  C   UNL     1       8.258  10.469  -1.986  1.00  0.00     0.074 A 
ATOM     37  C   UNL     1       8.327  11.040  -3.317  1.00  0.00     0.031 C 
ATOM     38  C   UNL     1       8.824  11.027  -0.886  1.00  0.00     0.034 A 
BRANCH  25  39
ATOM     39  C   UNL     1       7.951   7.796   4.347  1.00  0.00     0.023 A 
ATOM     40  C   UNL     1       8.640   6.721   4.935  1.00  0.00     0.031 A 
ATOM     41  C   UNL     1       7.435   8.789   5.199  1.00  0.00     0.131 A 
ATOM     42  C   UNL     1       8.735   6.629   6.333  1.00  0.00     0.055 A 
ATOM     43  C   UNL     1       7.603   8.733   6.585  1.00  0.00     0.041 A 
ATOM     44  F   UNL     1       6.749   9.830   4.701  1.00  0.00    -0.206 F 
ATOM     45  C   UNL     1       8.244   7.641   7.161  1.00  0.00     0.022 A 
BRANCH  42  46
ATOM     46  S   UNL     1       9.385   5.098   7.059  1.00  0.00     0.124 S 
ATOM     47  O   UNL     1       8.477   4.097   6.503  1.00  0.00    -0.237 OA
ATOM     48  O   UNL     1      10.753   5.066   6.556  1.00  0.00    -0.237 OA
ATOM     49  O   UNL     1       9.252   5.316   8.498  1.00  0.00    -0.744 OA
ENDBRANCH  42  46
ENDBRANCH  25  39
BRANCH  26  50
ATOM     50  C   UNL     1       6.088   8.205  -5.510  1.00  0.00     0.023 A 
ATOM     51  C   UNL     1       7.106   8.187  -6.475  1.00  0.00     0.031 A 
ATOM     52  C   UNL     1       4.759   8.333  -5.954  1.00  0.00     0.131 A 
ATOM     53  C   UNL     1       6.782   8.337  -7.833  1.00  0.00     0.055 A 
ATOM     54  C   UNL     1       4.438   8.420  -7.309  1.00  0.00     0.041 A 
ATOM     55  F   UNL     1       3.746   8.352  -5.073  1.00  0.00    -0.206 F 
ATOM     56  C   UNL     1       5.455   8.437  -8.257  1.00  0.00     0.022 A 
BRANCH  53  57
ATOM     57  S   UNL     1       8.133   8.489  -9.033  1.00  0.00     0.124 S 
ATOM     58  O   UNL     1       8.862   9.641  -8.515  1.00  0.00    -0.237 OA
ATOM     59  O   UNL     1       8.798   7.197  -8.904  1.00  0.00    -0.237 OA
ATOM     60  O   UNL     1       7.438   8.707 -10.300  1.00  0.00    -0.744 OA
ENDBRANCH  53  57
ENDBRANCH  26  50
BRANCH  38  61
ATOM     61  C   UNL     1       9.600  12.304  -1.095  1.00  0.00     0.023 A 
ATOM     62  C   UNL     1       8.969  13.496  -1.495  1.00  0.00     0.031 A 
ATOM     63  C   UNL     1      10.995  12.321  -0.919  1.00  0.00     0.131 A 
ATOM     64  C   UNL     1       9.739  14.637  -1.766  1.00  0.00     0.055 A 
ATOM     65  C   UNL     1      11.748  13.477  -1.126  1.00  0.00     0.041 A 
ATOM     66  F   UNL     1      11.650  11.211  -0.544  1.00  0.00    -0.206 F 
ATOM     67  C   UNL     1      11.122  14.640  -1.567  1.00  0.00     0.022 A 
BRANCH  64  68
ATOM     68  S   UNL     1       8.922  16.088  -2.484  1.00  0.00     0.124 S 
ATOM     69  O   UNL     1       8.356  15.540  -3.712  1.00  0.00    -0.237 OA
ATOM     70  O   UNL     1       7.963  16.452  -1.446  1.00  0.00    -0.237 OA
ATOM     71  O   UNL     1      10.017  17.038  -2.676  1.00  0.00    -0.744 OA
ENDBRANCH  64  68
ENDBRANCH  38  61
ENDBRANCH  12  13
ENDBRANCH   5   7
ENDBRANCH   2   3
ENDBRANCH   1   2
BRANCH   1  72
ATOM     72  C   UNL     1       4.025  -3.433   1.548  1.00  0.00     0.002 C 
BRANCH  72  73
ATOM     73  C   UNL     1       4.699  -4.300   0.478  1.00  0.00     0.002 C 
BRANCH  73  74
ATOM     74  C   UNL     1       6.233  -4.293   0.504  1.00  0.00     0.021 C 
BRANCH  74  75
ATOM     75  C   UNL     1       6.830  -4.741   1.836  1.00  0.00     0.116 C 
BRANCH  75  76
ATOM     76  N   UNL     1       6.789  -6.181   1.965  1.00  0.00    -0.356 N 
ATOM     77  C   UNL     1       7.717  -7.159   1.961  1.00  0.00     0.223 C 
ATOM     78  H   UNL     1       5.875  -6.526   2.083  1.00  0.00     0.163 HD
ATOM     79  O   UNL     1       7.265  -8.312   2.037  1.00  0.00    -0.275 OA
BRANCH  77  80
ATOM     80  C   UNL     1       9.232  -6.987   1.847  1.00  0.00     0.079 C 
ATOM     81  C   UNL     1       9.957  -5.670   2.038  1.00  0.00     0.014 C 
ATOM     82  C   UNL     1       9.754  -7.494   0.496  1.00  0.00     0.026 C 
ATOM     83  C   UNL     1      10.076  -5.060   0.646  1.00  0.00     0.014 C 
ATOM     84  C   UNL     1      10.121  -6.240  -0.338  1.00  0.00     0.026 C 
ATOM     85  C   UNL     1       9.173  -6.062  -1.544  1.00  0.00     0.074 C 
ATOM     86  C   UNL     1      11.500  -6.379  -1.003  1.00  0.00     0.267 C 
ATOM     87  C   UNL     1      10.047  -6.244  -2.778  1.00  0.00     0.261 C 
ATOM     88  N   UNL     1      11.215  -6.991  -2.305  1.00  0.00    -0.346 N 
ATOM     89  H   UNL     1      12.004  -6.878  -2.942  1.00  0.00     0.346 HD
ATOM     90  H   UNL     1      11.050  -7.996  -2.247  1.00  0.00     0.346 HD
ENDBRANCH  77  80
ENDBRANCH  75  76
ENDBRANCH  74  75
ENDBRANCH  73  74
ENDBRANCH  72  73
ENDBRANCH   1  72
TORSDOF 16
