REMARK SMILES Cc1noc(-c2ccc(CCl)cc2)c1C(=O)NCCCCCCNC(=O)c1ccc(-c2c3nc(c(-c4cc(S(=O)(=O)[O-])ccc4F)c4ccc([nH]4)c(-c4cc(S(=O)(=O)[O-])ccc4F)c4nc(c(-c5cc(S(=O)(=O)[O-])ccc5F)c5ccc2[nH]5)C=C4)C=C3)cc1
REMARK SMILES IDX 21 1 20 2 19 3 18 4 17 5 15 6 16 7 14 9 1 10 2 11 3 12 4 13
REMARK SMILES IDX 5 14 6 15 7 16 13 17 8 18 12 19 9 20 10 21 11 22 22 23 23 24
REMARK SMILES IDX 24 25 25 26 26 28 27 29 28 30 89 31 29 32 88 33 30 34 31 35
REMARK SMILES IDX 32 36 82 37 33 38 87 39 81 40 83 41 34 42 86 43 80 44 79 45
REMARK SMILES IDX 35 47 67 48 47 49 66 50 48 51 51 52 65 53 84 54 49 55 50 56
REMARK SMILES IDX 64 58 85 59 52 60 36 61 37 62 45 63 38 64 44 65 46 66 43 67
REMARK SMILES IDX 39 68 40 69 41 70 42 71 68 72 69 73 77 74 70 75 76 76 78 77
REMARK SMILES IDX 75 78 71 79 72 80 73 81 74 82 53 83 54 84 62 85 55 86 61 87
REMARK SMILES IDX 63 88 60 89 56 90 57 91 58 92 59 93
REMARK H PARENT 17 8 24 27 83 46 51 57
REMARK Flexibility Score: inf
ROOT
ATOM      1  C   UNL     1       5.336  -3.902  -0.014  1.00  0.00     0.002 C 
ENDROOT
BRANCH   1   2
ATOM      2  C   UNL     1       4.462  -3.935   1.242  1.00  0.00     0.002 C 
BRANCH   2   3
ATOM      3  C   UNL     1       3.730  -2.642   1.601  1.00  0.00     0.021 C 
BRANCH   3   4
ATOM      4  C   UNL     1       2.885  -1.999   0.509  1.00  0.00     0.116 C 
BRANCH   4   5
ATOM      5  N   UNL     1       1.738  -2.768   0.108  1.00  0.00    -0.352 N 
ATOM      6  C   UNL     1       0.455  -2.402  -0.211  1.00  0.00     0.257 C 
ATOM      7  O   UNL     1      -0.281  -3.340  -0.530  1.00  0.00    -0.269 OA
ATOM      8  H   UNL     1       1.903  -3.737   0.052  1.00  0.00     0.163 HD
BRANCH   6   9
ATOM      9  C   UNL     1      -0.049  -1.032  -0.147  1.00  0.00     0.110 A 
ATOM     10  C   UNL     1       1.880   0.791  -0.525  1.00  0.00     0.071 C 
ATOM     11  C   UNL     1       0.508   0.289  -0.262  1.00  0.00     0.094 A 
ATOM     12  N   UNL     1      -0.434   1.235  -0.144  1.00  0.00    -0.084 NA
ATOM     13  O   UNL     1      -1.626   0.575  -0.029  1.00  0.00    -0.355 OA
ATOM     14  C   UNL     1      -1.411  -0.762  -0.047  1.00  0.00     0.179 A 
BRANCH  14  15
ATOM     15  C   UNL     1      -2.634  -1.546   0.021  1.00  0.00     0.021 A 
ATOM     16  C   UNL     1      -3.595  -1.418  -0.989  1.00  0.00     0.012 A 
ATOM     17  C   UNL     1      -2.875  -2.425   1.081  1.00  0.00     0.012 A 
ATOM     18  C   UNL     1      -4.768  -2.174  -0.955  1.00  0.00     0.006 A 
ATOM     19  C   UNL     1      -4.055  -3.175   1.122  1.00  0.00     0.006 A 
ATOM     20  C   UNL     1      -5.010  -3.064   0.101  1.00  0.00    -0.033 A 
BRANCH  20  21
ATOM     21  C   UNL     1      -6.256  -3.905   0.121  1.00  0.00     0.145 C 
ATOM     22  Cl  UNL     1      -7.706  -2.906   0.356  1.00  0.00    -0.122 Cl
ENDBRANCH  20  21
ENDBRANCH  14  15
ENDBRANCH   6   9
ENDBRANCH   4   5
ENDBRANCH   3   4
ENDBRANCH   2   3
ENDBRANCH   1   2
BRANCH   1  23
ATOM     23  C   UNL     1       6.336  -2.748  -0.118  1.00  0.00     0.021 C 
BRANCH  23  24
ATOM     24  C   UNL     1       7.270  -2.568   1.075  1.00  0.00     0.116 C 
BRANCH  24  25
ATOM     25  N   UNL     1       8.075  -3.748   1.335  1.00  0.00    -0.352 N 
ATOM     26  C   UNL     1       9.438  -3.868   1.439  1.00  0.00     0.251 C 
ATOM     27  H   UNL     1       7.569  -4.584   1.453  1.00  0.00     0.163 HD
ATOM     28  O   UNL     1       9.945  -4.989   1.476  1.00  0.00    -0.269 OA
BRANCH  26  29
ATOM     29  C   UNL     1      10.293  -2.661   1.478  1.00  0.00     0.039 A 
ATOM     30  C   UNL     1      11.466  -2.640   0.719  1.00  0.00     0.014 A 
ATOM     31  C   UNL     1       9.951  -1.558   2.266  1.00  0.00     0.014 A 
ATOM     32  C   UNL     1      12.262  -1.492   0.703  1.00  0.00     0.010 A 
ATOM     33  C   UNL     1      10.704  -0.388   2.189  1.00  0.00     0.010 A 
ATOM     34  C   UNL     1      11.869  -0.343   1.409  1.00  0.00    -0.014 A 
BRANCH  34  35
ATOM     35  C   UNL     1      12.669   0.910   1.343  1.00  0.00     0.031 A 
ATOM     36  C   UNL     1      13.314   1.463   2.585  1.00  0.00     0.074 A 
ATOM     37  C   UNL     1      12.770   1.575   0.174  1.00  0.00     0.049 A 
ATOM     38  N   UNL     1      13.994   2.570   2.742  1.00  0.00    -0.248 NA
ATOM     39  C   UNL     1      13.146   0.681   3.819  1.00  0.00     0.031 C 
ATOM     40  C   UNL     1      12.161   1.155  -1.090  1.00  0.00     0.029 A 
ATOM     41  N   UNL     1      13.415   2.744  -0.142  1.00  0.00    -0.354 N 
ATOM     42  C   UNL     1      14.329   2.623   4.091  1.00  0.00     0.074 A 
ATOM     43  C   UNL     1      13.717   1.470   4.717  1.00  0.00     0.031 C 
ATOM     44  C   UNL     1      12.486   2.036  -2.049  1.00  0.00     0.029 A 
ATOM     45  C   UNL     1      13.280   3.111  -1.462  1.00  0.00     0.049 A 
ATOM     46  H   UNL     1      13.927   3.271   0.513  1.00  0.00     0.167 HD
ATOM     47  C   UNL     1      15.094   3.534   4.742  1.00  0.00     0.034 A 
ATOM     48  C   UNL     1      13.731   4.197  -2.122  1.00  0.00     0.034 A 
ATOM     49  C   UNL     1      15.699   4.676   4.099  1.00  0.00     0.049 A 
ATOM     50  C   UNL     1      14.542   5.220  -1.368  1.00  0.00     0.074 A 
ATOM     51  C   UNL     1      16.533   5.634   4.650  1.00  0.00     0.029 A 
ATOM     52  N   UNL     1      15.526   5.025   2.764  1.00  0.00    -0.354 N 
ATOM     53  N   UNL     1      14.892   5.229  -0.102  1.00  0.00    -0.248 NA
ATOM     54  C   UNL     1      15.027   6.375  -2.134  1.00  0.00     0.031 C 
ATOM     55  C   UNL     1      16.797   6.601   3.675  1.00  0.00     0.029 A 
ATOM     56  C   UNL     1      16.205   6.203   2.487  1.00  0.00     0.049 A 
ATOM     57  H   UNL     1      14.999   4.511   2.111  1.00  0.00     0.167 HD
ATOM     58  C   UNL     1      15.666   6.373   0.070  1.00  0.00     0.074 A 
ATOM     59  C   UNL     1      15.744   7.018  -1.225  1.00  0.00     0.031 C 
ATOM     60  C   UNL     1      16.263   6.846   1.194  1.00  0.00     0.034 A 
BRANCH  47  61
ATOM     61  C   UNL     1      15.291   3.345   6.229  1.00  0.00     0.023 A 
ATOM     62  C   UNL     1      15.920   2.201   6.752  1.00  0.00     0.031 A 
ATOM     63  C   UNL     1      14.819   4.307   7.139  1.00  0.00     0.131 A 
ATOM     64  C   UNL     1      15.985   2.009   8.140  1.00  0.00     0.055 A 
ATOM     65  C   UNL     1      14.969   4.152   8.519  1.00  0.00     0.041 A 
ATOM     66  F   UNL     1      14.190   5.410   6.705  1.00  0.00    -0.206 F 
ATOM     67  C   UNL     1      15.539   2.989   9.028  1.00  0.00     0.022 A 
BRANCH  64  68
ATOM     68  S   UNL     1      16.512   0.389   8.765  1.00  0.00     0.124 S 
ATOM     69  O   UNL     1      15.541  -0.501   8.134  1.00  0.00    -0.237 OA
ATOM     70  O   UNL     1      17.882   0.292   8.274  1.00  0.00    -0.237 OA
ATOM     71  O   UNL     1      16.376   0.520  10.214  1.00  0.00    -0.744 OA
ENDBRANCH  64  68
ENDBRANCH  47  61
BRANCH  48  72
ATOM     72  C   UNL     1      13.418   4.386  -3.569  1.00  0.00     0.023 A 
ATOM     73  C   UNL     1      14.438   4.418  -4.532  1.00  0.00     0.031 A 
ATOM     74  C   UNL     1      12.095   4.581  -4.005  1.00  0.00     0.131 A 
ATOM     75  C   UNL     1      14.126   4.687  -5.874  1.00  0.00     0.055 A 
ATOM     76  C   UNL     1      11.783   4.789  -5.350  1.00  0.00     0.041 A 
ATOM     77  F   UNL     1      11.079   4.558  -3.127  1.00  0.00    -0.206 F 
ATOM     78  C   UNL     1      12.804   4.857  -6.292  1.00  0.00     0.022 A 
BRANCH  75  79
ATOM     79  S   UNL     1      15.486   4.906  -7.055  1.00  0.00     0.124 S 
ATOM     80  O   UNL     1      16.228   6.006  -6.451  1.00  0.00    -0.237 OA
ATOM     81  O   UNL     1      16.132   3.598  -7.018  1.00  0.00    -0.237 OA
ATOM     82  O   UNL     1      14.801   5.225  -8.306  1.00  0.00    -0.744 OA
ENDBRANCH  75  79
ENDBRANCH  48  72
BRANCH  60  83
ATOM     83  C   UNL     1      17.091   8.102   1.058  1.00  0.00     0.023 A 
ATOM     84  C   UNL     1      16.514   9.340   0.723  1.00  0.00     0.031 A 
ATOM     85  C   UNL     1      18.483   8.056   1.256  1.00  0.00     0.131 A 
ATOM     86  C   UNL     1      17.331  10.465   0.538  1.00  0.00     0.055 A 
ATOM     87  C   UNL     1      19.282   9.194   1.139  1.00  0.00     0.041 A 
ATOM     88  F   UNL     1      19.091   6.901   1.572  1.00  0.00    -0.206 F 
ATOM     89  C   UNL     1      18.708  10.405   0.764  1.00  0.00     0.022 A 
BRANCH  86  90
ATOM     90  S   UNL     1      16.583  11.988  -0.104  1.00  0.00     0.124 S 
ATOM     91  O   UNL     1      16.012  11.535  -1.368  1.00  0.00    -0.237 OA
ATOM     92  O   UNL     1      15.624  12.330   0.942  1.00  0.00    -0.237 OA
ATOM     93  O   UNL     1      17.717  12.902  -0.228  1.00  0.00    -0.744 OA
ENDBRANCH  86  90
ENDBRANCH  60  83
ENDBRANCH  34  35
ENDBRANCH  26  29
ENDBRANCH  24  25
ENDBRANCH  23  24
ENDBRANCH   1  23
TORSDOF 18
