REMARK SMILES Cc1cscc1C(=O)N1CC[C@H](C(=O)NCCCCCCNC(=O)c2ccc(-c3c4nc(c(-c5cc(S(=O)(=O)[O-])ccc5F)c5ccc([nH]5)c(-c5cc(S(=O)(=O)[O-])ccc5F)c5nc(c(-c6cc(S(=O)(=O)[O-])ccc6F)c6ccc3[nH]6)C=C5)C=C4)cc2)[C@H]1C
REMARK SMILES IDX 19 1 18 2 17 3 16 4 15 5 13 6 14 7 12 9 9 10 10 11 88 12
REMARK SMILES IDX 11 13 89 14 7 15 8 16 6 17 1 18 2 19 3 20 4 21 5 22 20 23
REMARK SMILES IDX 21 24 22 25 23 26 24 28 25 29 26 30 87 31 27 32 86 33 28 34
REMARK SMILES IDX 29 35 30 36 80 37 31 38 85 39 79 40 81 41 32 42 84 43 78 44
REMARK SMILES IDX 77 45 33 47 65 48 45 49 64 50 46 51 49 52 63 53 82 54 47 55
REMARK SMILES IDX 48 56 62 58 83 59 50 60 34 61 35 62 43 63 36 64 42 65 44 66
REMARK SMILES IDX 41 67 37 68 38 69 39 70 40 71 66 72 67 73 75 74 68 75 74 76
REMARK SMILES IDX 76 77 73 78 69 79 70 80 71 81 72 82 51 83 52 84 60 85 53 86
REMARK SMILES IDX 59 87 61 88 58 89 54 90 55 91 56 92 57 93
REMARK H PARENT 15 8 22 27 81 46 49 57
REMARK Flexibility Score: inf
ROOT
ATOM      1  C   UNL     1       8.992   6.837  -0.437  1.00  0.00     0.002 C 
ENDROOT
BRANCH   1   2
ATOM      2  C   UNL     1       9.008   5.830  -1.590  1.00  0.00     0.002 C 
BRANCH   2   3
ATOM      3  C   UNL     1       8.745   4.376  -1.186  1.00  0.00     0.021 C 
BRANCH   3   4
ATOM      4  C   UNL     1       7.478   4.170  -0.365  1.00  0.00     0.116 C 
BRANCH   4   5
ATOM      5  N   UNL     1       6.296   4.600  -1.088  1.00  0.00    -0.356 N 
ATOM      6  C   UNL     1       5.139   3.922  -1.327  1.00  0.00     0.225 C 
ATOM      7  O   UNL     1       4.292   4.454  -2.040  1.00  0.00    -0.275 OA
ATOM      8  H   UNL     1       6.336   5.511  -1.459  1.00  0.00     0.163 HD
BRANCH   6   9
ATOM      9  C   UNL     1       4.985   2.532  -0.733  1.00  0.00     0.102 C 
ATOM     10  N   UNL     1       2.801   1.929   0.074  1.00  0.00    -0.335 N 
ATOM     11  C   UNL     1       3.463   2.733   1.080  1.00  0.00     0.121 C 
ATOM     12  C   UNL     1       3.648   1.867  -1.133  1.00  0.00     0.094 C 
ATOM     13  C   UNL     1       4.934   2.552   0.798  1.00  0.00     0.037 C 
ATOM     14  C   UNL     1       3.915   0.441  -1.613  1.00  0.00     0.032 C 
BRANCH  10  15
ATOM     15  C   UNL     1       1.439   2.174  -0.072  1.00  0.00     0.255 C 
ATOM     16  O   UNL     1       0.997   3.318  -0.168  1.00  0.00    -0.269 OA
BRANCH  15  17
ATOM     17  C   UNL     1       0.545   1.009  -0.048  1.00  0.00     0.053 A 
ATOM     18  C   UNL     1       2.007  -0.882   1.066  1.00  0.00     0.046 C 
ATOM     19  C   UNL     1       0.771  -0.349   0.418  1.00  0.00    -0.028 A 
ATOM     20  C   UNL     1      -0.358  -1.131   0.238  1.00  0.00     0.069 A 
ATOM     21  S   UNL     1      -1.689  -0.266  -0.374  1.00  0.00    -0.151 S 
ATOM     22  C   UNL     1      -0.776   1.168  -0.442  1.00  0.00     0.079 A 
ENDBRANCH  15  17
ENDBRANCH  10  15
ENDBRANCH   6   9
ENDBRANCH   4   5
ENDBRANCH   3   4
ENDBRANCH   2   3
ENDBRANCH   1   2
BRANCH   1  23
ATOM     23  C   UNL     1       9.941   6.514   0.719  1.00  0.00     0.021 C 
BRANCH  23  24
ATOM     24  C   UNL     1      11.396   6.316   0.310  1.00  0.00     0.116 C 
BRANCH  24  25
ATOM     25  N   UNL     1      11.952   7.501  -0.319  1.00  0.00    -0.352 N 
ATOM     26  C   UNL     1      13.111   8.175  -0.025  1.00  0.00     0.251 C 
ATOM     27  H   UNL     1      11.423   7.873  -1.061  1.00  0.00     0.163 HD
ATOM     28  O   UNL     1      13.321   9.272  -0.528  1.00  0.00    -0.269 OA
BRANCH  26  29
ATOM     29  C   UNL     1      14.085   7.582   0.919  1.00  0.00     0.039 A 
ATOM     30  C   UNL     1      14.661   8.399   1.893  1.00  0.00     0.014 A 
ATOM     31  C   UNL     1      14.430   6.229   0.843  1.00  0.00     0.014 A 
ATOM     32  C   UNL     1      15.543   7.848   2.825  1.00  0.00     0.010 A 
ATOM     33  C   UNL     1      15.248   5.666   1.820  1.00  0.00     0.010 A 
ATOM     34  C   UNL     1      15.819   6.470   2.818  1.00  0.00    -0.014 A 
BRANCH  34  35
ATOM     35  C   UNL     1      16.708   5.861   3.843  1.00  0.00     0.031 A 
ATOM     36  C   UNL     1      18.000   5.207   3.428  1.00  0.00     0.074 A 
ATOM     37  C   UNL     1      16.328   5.854   5.137  1.00  0.00     0.049 A 
ATOM     38  N   UNL     1      18.877   4.572   4.162  1.00  0.00    -0.248 NA
ATOM     39  C   UNL     1      18.337   5.249   1.996  1.00  0.00     0.031 C 
ATOM     40  C   UNL     1      15.079   6.422   5.653  1.00  0.00     0.029 A 
ATOM     41  N   UNL     1      16.944   5.348   6.254  1.00  0.00    -0.354 N 
ATOM     42  C   UNL     1      19.858   4.125   3.283  1.00  0.00     0.074 A 
ATOM     43  C   UNL     1      19.442   4.519   1.954  1.00  0.00     0.031 C 
ATOM     44  C   UNL     1      15.034   6.252   6.984  1.00  0.00     0.029 A 
ATOM     45  C   UNL     1      16.220   5.518   7.413  1.00  0.00     0.049 A 
ATOM     46  H   UNL     1      17.822   4.904   6.229  1.00  0.00     0.167 HD
ATOM     47  C   UNL     1      21.008   3.464   3.562  1.00  0.00     0.034 A 
ATOM     48  C   UNL     1      16.474   5.114   8.675  1.00  0.00     0.034 A 
ATOM     49  C   UNL     1      21.419   3.101   4.896  1.00  0.00     0.049 A 
ATOM     50  C   UNL     1      17.757   4.370   8.954  1.00  0.00     0.074 A 
ATOM     51  C   UNL     1      22.598   2.494   5.295  1.00  0.00     0.029 A 
ATOM     52  N   UNL     1      20.666   3.298   6.046  1.00  0.00    -0.354 N 
ATOM     53  N   UNL     1      18.706   4.015   8.117  1.00  0.00    -0.248 NA
ATOM     54  C   UNL     1      18.013   3.985  10.348  1.00  0.00     0.031 C 
ATOM     55  C   UNL     1      22.522   2.251   6.670  1.00  0.00     0.029 A 
ATOM     56  C   UNL     1      21.338   2.790   7.147  1.00  0.00     0.049 A 
ATOM     57  H   UNL     1      19.784   3.735   6.075  1.00  0.00     0.167 HD
ATOM     58  C   UNL     1      19.686   3.401   8.893  1.00  0.00     0.074 A 
ATOM     59  C   UNL     1      19.222   3.451  10.263  1.00  0.00     0.031 C 
ATOM     60  C   UNL     1      20.864   2.846   8.509  1.00  0.00     0.034 A 
BRANCH  47  61
ATOM     61  C   UNL     1      21.893   3.064   2.407  1.00  0.00     0.023 A 
ATOM     62  C   UNL     1      22.526   4.014   1.588  1.00  0.00     0.031 A 
ATOM     63  C   UNL     1      22.125   1.703   2.135  1.00  0.00     0.131 A 
ATOM     64  C   UNL     1      23.319   3.592   0.509  1.00  0.00     0.055 A 
ATOM     65  C   UNL     1      22.975   1.290   1.108  1.00  0.00     0.041 A 
ATOM     66  F   UNL     1      21.528   0.749   2.869  1.00  0.00    -0.206 F 
ATOM     67  C   UNL     1      23.570   2.237   0.281  1.00  0.00     0.022 A 
BRANCH  64  68
ATOM     68  S   UNL     1      23.928   4.836  -0.662  1.00  0.00     0.124 S 
ATOM     69  O   UNL     1      22.679   5.410  -1.157  1.00  0.00    -0.237 OA
ATOM     70  O   UNL     1      24.736   5.701   0.189  1.00  0.00    -0.237 OA
ATOM     71  O   UNL     1      24.674   4.048  -1.641  1.00  0.00    -0.744 OA
ENDBRANCH  64  68
ENDBRANCH  47  61
BRANCH  48  72
ATOM     72  C   UNL     1      15.493   5.371   9.772  1.00  0.00     0.023 A 
ATOM     73  C   UNL     1      15.842   6.138  10.895  1.00  0.00     0.031 A 
ATOM     74  C   UNL     1      14.214   4.784   9.751  1.00  0.00     0.131 A 
ATOM     75  C   UNL     1      14.955   6.237  11.980  1.00  0.00     0.055 A 
ATOM     76  C   UNL     1      13.309   4.945  10.802  1.00  0.00     0.041 A 
ATOM     77  F   UNL     1      13.824   4.041   8.703  1.00  0.00    -0.206 F 
ATOM     78  C   UNL     1      13.685   5.659  11.934  1.00  0.00     0.022 A 
BRANCH  75  79
ATOM     79  S   UNL     1      15.540   7.022  13.508  1.00  0.00     0.124 S 
ATOM     80  O   UNL     1      16.739   6.246  13.798  1.00  0.00    -0.237 OA
ATOM     81  O   UNL     1      15.754   8.399  13.077  1.00  0.00    -0.237 OA
ATOM     82  O   UNL     1      14.428   6.825  14.436  1.00  0.00    -0.744 OA
ENDBRANCH  75  79
ENDBRANCH  48  72
BRANCH  60  83
ATOM     83  C   UNL     1      21.758   2.303   9.599  1.00  0.00     0.023 A 
ATOM     84  C   UNL     1      21.381   1.206  10.393  1.00  0.00     0.031 A 
ATOM     85  C   UNL     1      23.003   2.905   9.854  1.00  0.00     0.131 A 
ATOM     86  C   UNL     1      22.210   0.787  11.444  1.00  0.00     0.055 A 
ATOM     87  C   UNL     1      23.856   2.438  10.854  1.00  0.00     0.041 A 
ATOM     88  F   UNL     1      23.415   3.959   9.130  1.00  0.00    -0.206 F 
ATOM     89  C   UNL     1      23.454   1.383  11.667  1.00  0.00     0.022 A 
BRANCH  86  90
ATOM     90  S   UNL     1      21.593  -0.480  12.587  1.00  0.00     0.124 S 
ATOM     91  O   UNL     1      20.363   0.130  13.079  1.00  0.00    -0.237 OA
ATOM     92  O   UNL     1      21.426  -1.635  11.711  1.00  0.00    -0.237 OA
ATOM     93  O   UNL     1      22.664  -0.601  13.575  1.00  0.00    -0.744 OA
ENDBRANCH  86  90
ENDBRANCH  60  83
ENDBRANCH  34  35
ENDBRANCH  26  29
ENDBRANCH  24  25
ENDBRANCH  23  24
ENDBRANCH   1  23
TORSDOF 18
