REMARK SMILES CC(C)N1C[C@@H](C(=O)NCCCCCCNC(=O)c2ccc(-c3c4nc(c(-c5cc(S(=O)(=O)[O-])ccc5F)c5ccc([nH]5)c(-c5cc(S(=O)(=O)[O-])ccc5F)c5nc(c(-c6cc(S(=O)(=O)[O-])ccc6F)c6ccc3[nH]6)C=C5)C=C4)cc2)CC1=O
REMARK SMILES IDX 13 1 12 2 11 3 10 4 9 5 7 6 8 7 6 9 4 10 5 11 83 12 82 13
REMARK SMILES IDX 84 14 2 15 1 16 3 17 14 18 15 19 16 20 17 21 18 23 19 24
REMARK SMILES IDX 20 25 81 26 21 27 80 28 22 29 23 30 24 31 74 32 25 33 79 34
REMARK SMILES IDX 73 35 75 36 26 37 78 38 72 39 71 40 27 42 59 43 39 44 58 45
REMARK SMILES IDX 40 46 43 47 57 48 76 49 41 50 42 51 56 53 77 54 44 55 28 56
REMARK SMILES IDX 29 57 37 58 30 59 36 60 38 61 35 62 31 63 32 64 33 65 34 66
REMARK SMILES IDX 60 67 61 68 69 69 62 70 68 71 70 72 67 73 63 74 64 75 65 76
REMARK SMILES IDX 66 77 45 78 46 79 54 80 47 81 53 82 55 83 52 84 48 85 49 86
REMARK SMILES IDX 50 87 51 88
REMARK H PARENT 9 8 16 22 75 41 43 52
REMARK Flexibility Score: inf
ROOT
ATOM      1  C   UNL     1      -4.769  -3.365   4.366  1.00  0.00     0.002 C 
ENDROOT
BRANCH   1   2
ATOM      2  C   UNL     1      -5.409  -2.258   3.522  1.00  0.00     0.002 C 
BRANCH   2   3
ATOM      3  C   UNL     1      -4.425  -1.401   2.718  1.00  0.00     0.021 C 
BRANCH   3   4
ATOM      4  C   UNL     1      -3.522  -2.196   1.777  1.00  0.00     0.116 C 
BRANCH   4   5
ATOM      5  N   UNL     1      -4.295  -2.836   0.726  1.00  0.00    -0.356 N 
ATOM      6  C   UNL     1      -4.240  -2.724  -0.624  1.00  0.00     0.225 C 
ATOM      7  O   UNL     1      -5.056  -3.374  -1.284  1.00  0.00    -0.275 OA
ATOM      8  H   UNL     1      -4.980  -3.463   1.053  1.00  0.00     0.163 HD
BRANCH   6   9
ATOM      9  C   UNL     1      -3.210  -1.871  -1.331  1.00  0.00     0.107 C 
ATOM     10  N   UNL     1      -1.034  -1.107  -0.801  1.00  0.00    -0.339 N 
ATOM     11  C   UNL     1      -1.792  -2.317  -1.031  1.00  0.00     0.133 C 
ATOM     12  C   UNL     1      -1.826   0.027  -0.929  1.00  0.00     0.223 C 
ATOM     13  C   UNL     1      -3.270  -0.386  -1.018  1.00  0.00     0.115 C 
ATOM     14  O   UNL     1      -1.458   1.192  -0.948  1.00  0.00    -0.275 OA
BRANCH  10  15
ATOM     15  C   UNL     1       0.441  -1.109  -0.743  1.00  0.00     0.078 C 
ATOM     16  C   UNL     1       1.018   0.012   0.128  1.00  0.00     0.031 C 
ATOM     17  C   UNL     1       1.005  -2.443  -0.234  1.00  0.00     0.031 C 
ENDBRANCH  10  15
ENDBRANCH   6   9
ENDBRANCH   4   5
ENDBRANCH   3   4
ENDBRANCH   2   3
ENDBRANCH   1   2
BRANCH   1  18
ATOM     18  C   UNL     1      -3.675  -2.896   5.328  1.00  0.00     0.021 C 
BRANCH  18  19
ATOM     19  C   UNL     1      -4.119  -1.826   6.320  1.00  0.00     0.116 C 
BRANCH  19  20
ATOM     20  N   UNL     1      -5.160  -2.308   7.210  1.00  0.00    -0.352 N 
ATOM     21  C   UNL     1      -5.207  -2.281   8.582  1.00  0.00     0.251 C 
ATOM     22  H   UNL     1      -5.942  -2.711   6.768  1.00  0.00     0.163 HD
ATOM     23  O   UNL     1      -6.067  -2.927   9.173  1.00  0.00    -0.269 OA
BRANCH  21  24
ATOM     24  C   UNL     1      -4.209  -1.493   9.338  1.00  0.00     0.039 A 
ATOM     25  C   UNL     1      -3.637  -2.046  10.485  1.00  0.00     0.014 A 
ATOM     26  C   UNL     1      -3.844  -0.208   8.922  1.00  0.00     0.014 A 
ATOM     27  C   UNL     1      -2.666  -1.330  11.189  1.00  0.00     0.010 A 
ATOM     28  C   UNL     1      -2.817   0.468   9.576  1.00  0.00     0.010 A 
ATOM     29  C   UNL     1      -2.227  -0.079  10.726  1.00  0.00    -0.014 A 
BRANCH  29  30
ATOM     30  C   UNL     1      -1.180   0.688  11.452  1.00  0.00     0.031 A 
ATOM     31  C   UNL     1      -1.513   2.026  12.058  1.00  0.00     0.074 A 
ATOM     32  C   UNL     1       0.076   0.203  11.529  1.00  0.00     0.049 A 
ATOM     33  N   UNL     1      -0.732   2.874  12.676  1.00  0.00    -0.248 NA
ATOM     34  C   UNL     1      -2.905   2.481  11.923  1.00  0.00     0.031 C 
ATOM     35  C   UNL     1       0.528  -1.066  10.955  1.00  0.00     0.029 A 
ATOM     36  N   UNL     1       1.202   0.719  12.119  1.00  0.00    -0.354 N 
ATOM     37  C   UNL     1      -1.533   3.966  12.993  1.00  0.00     0.074 A 
ATOM     38  C   UNL     1      -2.841   3.701  12.434  1.00  0.00     0.031 C 
ATOM     39  C   UNL     1       1.826  -1.243  11.249  1.00  0.00     0.029 A 
ATOM     40  C   UNL     1       2.313  -0.082  11.987  1.00  0.00     0.049 A 
ATOM     41  H   UNL     1       1.215   1.582  12.593  1.00  0.00     0.167 HD
ATOM     42  C   UNL     1      -1.217   5.074  13.710  1.00  0.00     0.034 A 
ATOM     43  C   UNL     1       3.582   0.102  12.405  1.00  0.00     0.034 A 
ATOM     44  C   UNL     1       0.092   5.319  14.266  1.00  0.00     0.049 A 
ATOM     45  C   UNL     1       3.920   1.359  13.168  1.00  0.00     0.074 A 
ATOM     46  C   UNL     1       0.515   6.388  15.037  1.00  0.00     0.029 A 
ATOM     47  N   UNL     1       1.194   4.487  14.106  1.00  0.00    -0.354 N 
ATOM     48  N   UNL     1       3.141   2.365  13.495  1.00  0.00    -0.248 NA
ATOM     49  C   UNL     1       5.306   1.497  13.633  1.00  0.00     0.031 C 
ATOM     50  C   UNL     1       1.885   6.241  15.279  1.00  0.00     0.029 A 
ATOM     51  C   UNL     1       2.300   5.034  14.740  1.00  0.00     0.049 A 
ATOM     52  H   UNL     1       1.190   3.634  13.615  1.00  0.00     0.167 HD
ATOM     53  C   UNL     1       3.934   3.233  14.242  1.00  0.00     0.074 A 
ATOM     54  C   UNL     1       5.247   2.625  14.324  1.00  0.00     0.031 C 
ATOM     55  C   UNL     1       3.606   4.420  14.814  1.00  0.00     0.034 A 
BRANCH  42  56
ATOM     56  C   UNL     1      -2.301   6.109  13.903  1.00  0.00     0.023 A 
ATOM     57  C   UNL     1      -3.499   5.809  14.577  1.00  0.00     0.031 A 
ATOM     58  C   UNL     1      -2.153   7.406  13.378  1.00  0.00     0.131 A 
ATOM     59  C   UNL     1      -4.530   6.758  14.634  1.00  0.00     0.055 A 
ATOM     60  C   UNL     1      -3.148   8.376  13.519  1.00  0.00     0.041 A 
ATOM     61  F   UNL     1      -1.044   7.749  12.704  1.00  0.00    -0.206 F 
ATOM     62  C   UNL     1      -4.352   8.050  14.134  1.00  0.00     0.022 A 
BRANCH  59  63
ATOM     63  S   UNL     1      -6.162   6.229  15.223  1.00  0.00     0.124 S 
ATOM     64  O   UNL     1      -6.475   5.149  14.289  1.00  0.00    -0.237 OA
ATOM     65  O   UNL     1      -5.886   5.825  16.597  1.00  0.00    -0.237 OA
ATOM     66  O   UNL     1      -6.985   7.427  15.076  1.00  0.00    -0.744 OA
ENDBRANCH  59  63
ENDBRANCH  42  56
BRANCH  43  67
ATOM     67  C   UNL     1       4.632  -0.918  12.114  1.00  0.00     0.023 A 
ATOM     68  C   UNL     1       5.283  -1.603  13.153  1.00  0.00     0.031 A 
ATOM     69  C   UNL     1       5.037  -1.186  10.794  1.00  0.00     0.131 A 
ATOM     70  C   UNL     1       6.339  -2.479  12.860  1.00  0.00     0.055 A 
ATOM     71  C   UNL     1       6.048  -2.105  10.505  1.00  0.00     0.041 A 
ATOM     72  F   UNL     1       4.447  -0.563   9.762  1.00  0.00    -0.206 F 
ATOM     73  C   UNL     1       6.716  -2.746  11.543  1.00  0.00     0.022 A 
BRANCH  70  74
ATOM     74  S   UNL     1       7.283  -3.191  14.236  1.00  0.00     0.124 S 
ATOM     75  O   UNL     1       7.754  -1.994  14.923  1.00  0.00    -0.237 OA
ATOM     76  O   UNL     1       6.264  -3.972  14.930  1.00  0.00    -0.237 OA
ATOM     77  O   UNL     1       8.319  -3.976  13.567  1.00  0.00    -0.744 OA
ENDBRANCH  70  74
ENDBRANCH  43  67
BRANCH  55  78
ATOM     78  C   UNL     1       4.671   5.105  15.640  1.00  0.00     0.023 A 
ATOM     79  C   UNL     1       5.862   5.588  15.071  1.00  0.00     0.031 A 
ATOM     80  C   UNL     1       4.493   5.259  17.027  1.00  0.00     0.131 A 
ATOM     81  C   UNL     1       6.857   6.139  15.894  1.00  0.00     0.055 A 
ATOM     82  C   UNL     1       5.454   5.873  17.830  1.00  0.00     0.041 A 
ATOM     83  F   UNL     1       3.377   4.813  17.627  1.00  0.00    -0.206 F 
ATOM     84  C   UNL     1       6.652   6.303  17.267  1.00  0.00     0.022 A 
BRANCH  81  85
ATOM     85  S   UNL     1       8.470   6.534  15.165  1.00  0.00     0.124 S 
ATOM     86  O   UNL     1       8.868   5.250  14.595  1.00  0.00    -0.237 OA
ATOM     87  O   UNL     1       8.132   7.580  14.206  1.00  0.00    -0.237 OA
ATOM     88  O   UNL     1       9.265   6.976  16.310  1.00  0.00    -0.744 OA
ENDBRANCH  81  85
ENDBRANCH  55  78
ENDBRANCH  29  30
ENDBRANCH  21  24
ENDBRANCH  19  20
ENDBRANCH  18  19
ENDBRANCH   1  18
TORSDOF 17
