REMARK SMILES COc1ccc2cc([C@H](C)C(=O)NCCCCCCNC(=O)c3ccc(-c4c5nc(c(-c6cc(S(=O)(=O)[O-])ccc6F)c6ccc([nH]6)c(-c6cc(S(=O)(=O)[O-])ccc6F)c6nc(c(-c7cc(S(=O)(=O)[O-])ccc7F)c7ccc4[nH]7)C=C6)C=C5)cc3)ccc2c1
REMARK SMILES IDX 17 1 16 2 15 3 14 4 13 5 11 6 12 7 9 9 10 10 8 11 3 12 4 13
REMARK SMILES IDX 89 14 5 15 88 16 6 17 87 18 7 19 86 20 2 21 1 22 18 23 19 24
REMARK SMILES IDX 20 25 21 26 22 28 23 29 24 30 85 31 25 32 84 33 26 34 27 35
REMARK SMILES IDX 28 36 78 37 29 38 83 39 77 40 79 41 30 42 82 43 76 44 75 45
REMARK SMILES IDX 31 47 63 48 43 49 62 50 44 51 47 52 61 53 80 54 45 55 46 56
REMARK SMILES IDX 60 58 81 59 48 60 32 61 33 62 41 63 34 64 40 65 42 66 39 67
REMARK SMILES IDX 35 68 36 69 37 70 38 71 64 72 65 73 73 74 66 75 72 76 74 77
REMARK SMILES IDX 71 78 67 79 68 80 69 81 70 82 49 83 50 84 58 85 51 86 57 87
REMARK SMILES IDX 59 88 56 89 52 90 53 91 54 92 55 93
REMARK H PARENT 13 8 20 27 79 46 47 57
REMARK Flexibility Score: inf
ROOT
ATOM      1  C   UNL     1       6.790   2.068   6.570  1.00  0.00     0.002 C 
ENDROOT
BRANCH   1   2
ATOM      2  C   UNL     1       5.571   2.857   6.079  1.00  0.00     0.002 C 
BRANCH   2   3
ATOM      3  C   UNL     1       4.293   2.030   5.923  1.00  0.00     0.021 C 
BRANCH   3   4
ATOM      4  C   UNL     1       3.803   1.415   7.227  1.00  0.00     0.116 C 
BRANCH   4   5
ATOM      5  N   UNL     1       3.202   2.422   8.085  1.00  0.00    -0.356 N 
ATOM      6  C   UNL     1       2.044   2.368   8.808  1.00  0.00     0.227 C 
ATOM      7  O   UNL     1       1.744   3.346   9.498  1.00  0.00    -0.274 OA
ATOM      8  H   UNL     1       3.702   3.266   8.157  1.00  0.00     0.163 HD
BRANCH   6   9
ATOM      9  C   UNL     1       1.153   1.107   8.788  1.00  0.00     0.105 C 
ATOM     10  C   UNL     1       0.440   1.029   7.433  1.00  0.00     0.023 C 
BRANCH   9  11
ATOM     11  C   UNL     1       1.949  -0.110   9.256  1.00  0.00    -0.035 A 
ATOM     12  C   UNL     1       6.139  -2.406  10.906  1.00  0.00     0.119 A 
ATOM     13  C   UNL     1       5.965  -1.288  11.718  1.00  0.00     0.047 A 
ATOM     14  C   UNL     1       5.173  -2.733   9.950  1.00  0.00     0.055 A 
ATOM     15  C   UNL     1       4.821  -0.502  11.581  1.00  0.00     0.012 A 
ATOM     16  C   UNL     1       4.025  -1.942   9.787  1.00  0.00    -0.015 A 
ATOM     17  C   UNL     1       3.861  -0.808  10.607  1.00  0.00    -0.018 A 
ATOM     18  C   UNL     1       3.063  -2.214   8.800  1.00  0.00     0.009 A 
ATOM     19  C   UNL     1       2.791   0.059  10.372  1.00  0.00     0.013 A 
ATOM     20  C   UNL     1       2.031  -1.306   8.535  1.00  0.00     0.005 A 
BRANCH  12  21
ATOM     21  O   UNL     1       7.254  -3.199  10.916  1.00  0.00    -0.497 OA
ATOM     22  C   UNL     1       7.825  -3.405  12.204  1.00  0.00     0.278 C 
ENDBRANCH  12  21
ENDBRANCH   9  11
ENDBRANCH   6   9
ENDBRANCH   4   5
ENDBRANCH   3   4
ENDBRANCH   2   3
ENDBRANCH   1   2
BRANCH   1  23
ATOM     23  C   UNL     1       7.136   0.826   5.744  1.00  0.00     0.021 C 
BRANCH  23  24
ATOM     24  C   UNL     1       7.338   1.090   4.255  1.00  0.00     0.116 C 
BRANCH  24  25
ATOM     25  N   UNL     1       8.423   2.027   4.010  1.00  0.00    -0.352 N 
ATOM     26  C   UNL     1       9.514   1.892   3.192  1.00  0.00     0.251 C 
ATOM     27  H   UNL     1       8.365   2.878   4.501  1.00  0.00     0.163 HD
ATOM     28  O   UNL     1      10.440   2.698   3.271  1.00  0.00    -0.269 OA
BRANCH  26  29
ATOM     29  C   UNL     1       9.582   0.765   2.238  1.00  0.00     0.039 A 
ATOM     30  C   UNL     1      10.773   0.046   2.124  1.00  0.00     0.014 A 
ATOM     31  C   UNL     1       8.473   0.417   1.460  1.00  0.00     0.014 A 
ATOM     32  C   UNL     1      10.833  -1.060   1.274  1.00  0.00     0.010 A 
ATOM     33  C   UNL     1       8.513  -0.729   0.671  1.00  0.00     0.010 A 
ATOM     34  C   UNL     1       9.694  -1.480   0.568  1.00  0.00    -0.014 A 
BRANCH  34  35
ATOM     35  C   UNL     1       9.723  -2.699  -0.284  1.00  0.00     0.031 A 
ATOM     36  C   UNL     1       9.495  -2.587  -1.768  1.00  0.00     0.074 A 
ATOM     37  C   UNL     1       9.912  -3.907   0.284  1.00  0.00     0.049 A 
ATOM     38  N   UNL     1       9.405  -3.536  -2.664  1.00  0.00    -0.248 NA
ATOM     39  C   UNL     1       9.321  -1.230  -2.311  1.00  0.00     0.031 C 
ATOM     40  C   UNL     1      10.114  -4.145   1.716  1.00  0.00     0.029 A 
ATOM     41  N   UNL     1       9.958  -5.164  -0.267  1.00  0.00    -0.354 N 
ATOM     42  C   UNL     1       9.169  -2.893  -3.875  1.00  0.00     0.074 A 
ATOM     43  C   UNL     1       9.059  -1.480  -3.585  1.00  0.00     0.031 C 
ATOM     44  C   UNL     1      10.283  -5.460   1.925  1.00  0.00     0.029 A 
ATOM     45  C   UNL     1      10.147  -6.168   0.656  1.00  0.00     0.049 A 
ATOM     46  H   UNL     1       9.864  -5.332  -1.232  1.00  0.00     0.167 HD
ATOM     47  C   UNL     1       9.084  -3.430  -5.117  1.00  0.00     0.034 A 
ATOM     48  C   UNL     1      10.186  -7.507   0.501  1.00  0.00     0.034 A 
ATOM     49  C   UNL     1       9.198  -4.841  -5.393  1.00  0.00     0.049 A 
ATOM     50  C   UNL     1      10.031  -8.082  -0.888  1.00  0.00     0.074 A 
ATOM     51  C   UNL     1       9.148  -5.486  -6.616  1.00  0.00     0.029 A 
ATOM     52  N   UNL     1       9.385  -5.827  -4.433  1.00  0.00    -0.354 N 
ATOM     53  N   UNL     1       9.846  -7.453  -2.026  1.00  0.00    -0.248 NA
ATOM     54  C   UNL     1      10.104  -9.543  -1.014  1.00  0.00     0.031 C 
ATOM     55  C   UNL     1       9.233  -6.863  -6.391  1.00  0.00     0.029 A 
ATOM     56  C   UNL     1       9.424  -7.075  -5.036  1.00  0.00     0.049 A 
ATOM     57  H   UNL     1       9.475  -5.664  -3.466  1.00  0.00     0.167 HD
ATOM     58  C   UNL     1       9.819  -8.444  -3.005  1.00  0.00     0.074 A 
ATOM     59  C   UNL     1      10.029  -9.704  -2.326  1.00  0.00     0.031 C 
ATOM     60  C   UNL     1       9.636  -8.325  -4.345  1.00  0.00     0.034 A 
BRANCH  47  61
ATOM     61  C   UNL     1       8.845  -2.485  -6.271  1.00  0.00     0.023 A 
ATOM     62  C   UNL     1       9.789  -1.504  -6.622  1.00  0.00     0.031 A 
ATOM     63  C   UNL     1       7.668  -2.569  -7.034  1.00  0.00     0.131 A 
ATOM     64  C   UNL     1       9.515  -0.610  -7.667  1.00  0.00     0.055 A 
ATOM     65  C   UNL     1       7.436  -1.727  -8.124  1.00  0.00     0.041 A 
ATOM     66  F   UNL     1       6.720  -3.471  -6.733  1.00  0.00    -0.206 F 
ATOM     67  C   UNL     1       8.357  -0.733  -8.439  1.00  0.00     0.022 A 
BRANCH  64  68
ATOM     68  S   UNL     1      10.636   0.791  -7.925  1.00  0.00     0.124 S 
ATOM     69  O   UNL     1      10.541   1.484  -6.642  1.00  0.00    -0.237 OA
ATOM     70  O   UNL     1      11.907   0.133  -8.203  1.00  0.00    -0.237 OA
ATOM     71  O   UNL     1      10.041   1.503  -9.054  1.00  0.00    -0.744 OA
ENDBRANCH  64  68
ENDBRANCH  47  61
BRANCH  48  72
ATOM     72  C   UNL     1      10.344  -8.411   1.680  1.00  0.00     0.023 A 
ATOM     73  C   UNL     1      11.430  -9.297   1.775  1.00  0.00     0.031 A 
ATOM     74  C   UNL     1       9.364  -8.466   2.688  1.00  0.00     0.131 A 
ATOM     75  C   UNL     1      11.469 -10.249   2.806  1.00  0.00     0.055 A 
ATOM     76  C   UNL     1       9.447  -9.364   3.753  1.00  0.00     0.041 A 
ATOM     77  F   UNL     1       8.303  -7.644   2.650  1.00  0.00    -0.206 F 
ATOM     78  C   UNL     1      10.494 -10.278   3.804  1.00  0.00     0.022 A 
BRANCH  75  79
ATOM     79  S   UNL     1      12.739 -11.544   2.739  1.00  0.00     0.124 S 
ATOM     80  O   UNL     1      12.514 -12.110   1.414  1.00  0.00    -0.237 OA
ATOM     81  O   UNL     1      13.966 -10.773   2.909  1.00  0.00    -0.237 OA
ATOM     82  O   UNL     1      12.392 -12.417   3.859  1.00  0.00    -0.744 OA
ENDBRANCH  75  79
ENDBRANCH  48  72
BRANCH  60  83
ATOM     83  C   UNL     1       9.714  -9.590  -5.166  1.00  0.00     0.023 A 
ATOM     84  C   UNL     1       8.770 -10.622  -5.030  1.00  0.00     0.031 A 
ATOM     85  C   UNL     1      10.758  -9.767  -6.092  1.00  0.00     0.131 A 
ATOM     86  C   UNL     1       8.923 -11.810  -5.761  1.00  0.00     0.055 A 
ATOM     87  C   UNL     1      10.866 -10.922  -6.867  1.00  0.00     0.041 A 
ATOM     88  F   UNL     1      11.690  -8.816  -6.263  1.00  0.00    -0.206 F 
ATOM     89  C   UNL     1       9.954 -11.959  -6.693  1.00  0.00     0.022 A 
BRANCH  86  90
ATOM     90  S   UNL     1       7.815 -13.201  -5.404  1.00  0.00     0.124 S 
ATOM     91  O   UNL     1       8.056 -13.423  -3.982  1.00  0.00    -0.237 OA
ATOM     92  O   UNL     1       6.507 -12.654  -5.750  1.00  0.00    -0.237 OA
ATOM     93  O   UNL     1       8.297 -14.260  -6.288  1.00  0.00    -0.744 OA
ENDBRANCH  86  90
ENDBRANCH  60  83
ENDBRANCH  34  35
ENDBRANCH  26  29
ENDBRANCH  24  25
ENDBRANCH  23  24
ENDBRANCH   1  23
TORSDOF 18
