REMARK SMILES O=C(NCCCCCCNC(=O)[C@H]1CS[C@H](c2cc(F)ccc2F)[NH2+]1)c1ccc(-c2c3nc(c(-c4cc(S(=O)(=O)[O-])ccc4F)c4ccc([nH]4)c(-c4cc(S(=O)(=O)[O-])ccc4F)c4nc(c(-c5cc(S(=O)(=O)[O-])ccc5F)c5ccc2[nH]5)C=C4)C=C3)cc1
REMARK SMILES IDX 5 1 4 2 3 3 1 4 2 5 26 7 27 8 88 9 28 10 87 11 29 12 30 13
REMARK SMILES IDX 31 14 81 15 32 16 86 17 80 18 82 19 33 20 85 21 79 22 78 23
REMARK SMILES IDX 34 25 66 26 46 27 65 28 47 29 50 30 64 31 83 32 48 33 49 34
REMARK SMILES IDX 63 36 84 37 51 38 35 39 36 40 44 41 37 42 43 43 45 44 42 45
REMARK SMILES IDX 38 46 39 47 40 48 41 49 67 50 68 51 76 52 69 53 75 54 77 55
REMARK SMILES IDX 74 56 70 57 71 58 72 59 73 60 52 61 53 62 61 63 54 64 60 65
REMARK SMILES IDX 62 66 59 67 55 68 56 69 57 70 58 71 6 72 7 73 8 74 9 75
REMARK SMILES IDX 10 76 11 77 12 79 13 80 14 81 25 82 15 83 16 84 17 87 18 88
REMARK SMILES IDX 23 89 19 90 22 91 24 92 20 93 21 94
REMARK H PARENT 3 6 82 24 50 35 10 78 25 85 25 86
REMARK Flexibility Score: inf
ROOT
ATOM      1  C   UNL     1       4.543  -0.707  -2.738  1.00  0.00     0.021 C 
ENDROOT
BRANCH   1   2
ATOM      2  C   UNL     1       4.370   0.053  -1.431  1.00  0.00     0.116 C 
BRANCH   2   3
ATOM      3  N   UNL     1       2.975   0.281  -1.093  1.00  0.00    -0.352 N 
ATOM      4  O   UNL     1       1.106   0.157   0.164  1.00  0.00    -0.269 OA
ATOM      5  C   UNL     1       2.327   0.035   0.093  1.00  0.00     0.251 C 
ATOM      6  H   UNL     1       2.420   0.663  -1.811  1.00  0.00     0.163 HD
BRANCH   5   7
ATOM      7  C   UNL     1       3.103  -0.397   1.277  1.00  0.00     0.039 A 
ATOM      8  C   UNL     1       4.294   0.248   1.621  1.00  0.00     0.014 A 
ATOM      9  C   UNL     1       2.634  -1.462   2.052  1.00  0.00     0.014 A 
ATOM     10  C   UNL     1       5.078  -0.253   2.654  1.00  0.00     0.010 A 
ATOM     11  C   UNL     1       3.383  -1.910   3.145  1.00  0.00     0.010 A 
ATOM     12  C   UNL     1       4.623  -1.325   3.441  1.00  0.00    -0.014 A 
BRANCH  12  13
ATOM     13  C   UNL     1       5.439  -1.762   4.604  1.00  0.00     0.031 A 
ATOM     14  C   UNL     1       6.072  -3.126   4.646  1.00  0.00     0.074 A 
ATOM     15  C   UNL     1       5.640  -0.887   5.609  1.00  0.00     0.049 A 
ATOM     16  N   UNL     1       6.834  -3.651   5.571  1.00  0.00    -0.248 NA
ATOM     17  C   UNL     1       5.808  -4.018   3.508  1.00  0.00     0.031 C 
ATOM     18  C   UNL     1       5.064   0.459   5.677  1.00  0.00     0.029 A 
ATOM     19  N   UNL     1       6.393  -0.981   6.750  1.00  0.00    -0.354 N 
ATOM     20  C   UNL     1       7.142  -4.935   5.133  1.00  0.00     0.074 A 
ATOM     21  C   UNL     1       6.446  -5.121   3.875  1.00  0.00     0.031 C 
ATOM     22  C   UNL     1       5.521   1.080   6.773  1.00  0.00     0.029 A 
ATOM     23  C   UNL     1       6.367   0.158   7.521  1.00  0.00     0.049 A 
ATOM     24  H   UNL     1       6.904  -1.786   6.995  1.00  0.00     0.167 HD
ATOM     25  C   UNL     1       7.939  -5.864   5.719  1.00  0.00     0.034 A 
ATOM     26  C   UNL     1       6.943   0.428   8.708  1.00  0.00     0.034 A 
ATOM     27  C   UNL     1       8.615  -5.663   6.980  1.00  0.00     0.049 A 
ATOM     28  C   UNL     1       7.798  -0.631   9.350  1.00  0.00     0.074 A 
ATOM     29  C   UNL     1       9.439  -6.538   7.669  1.00  0.00     0.029 A 
ATOM     30  N   UNL     1       8.544  -4.506   7.747  1.00  0.00    -0.354 N 
ATOM     31  N   UNL     1       8.078  -1.839   8.917  1.00  0.00    -0.248 NA
ATOM     32  C   UNL     1       8.419  -0.288  10.634  1.00  0.00     0.031 C 
ATOM     33  C   UNL     1       9.820  -5.933   8.873  1.00  0.00     0.029 A 
ATOM     34  C   UNL     1       9.292  -4.653   8.907  1.00  0.00     0.049 A 
ATOM     35  H   UNL     1       8.037  -3.699   7.503  1.00  0.00     0.167 HD
ATOM     36  C   UNL     1       8.921  -2.395   9.873  1.00  0.00     0.074 A 
ATOM     37  C   UNL     1       9.127  -1.378  10.885  1.00  0.00     0.031 C 
ATOM     38  C   UNL     1       9.470  -3.636   9.916  1.00  0.00     0.034 A 
BRANCH  25  39
ATOM     39  C   UNL     1       8.091  -7.192   5.016  1.00  0.00     0.023 A 
ATOM     40  C   UNL     1       8.719  -7.293   3.761  1.00  0.00     0.031 A 
ATOM     41  C   UNL     1       7.593  -8.371   5.598  1.00  0.00     0.131 A 
ATOM     42  C   UNL     1       8.777  -8.532   3.103  1.00  0.00     0.055 A 
ATOM     43  C   UNL     1       7.719  -9.613   4.972  1.00  0.00     0.041 A 
ATOM     44  F   UNL     1       6.968  -8.335   6.785  1.00  0.00    -0.206 F 
ATOM     45  C   UNL     1       8.302  -9.697   3.711  1.00  0.00     0.022 A 
BRANCH  42  46
ATOM     46  S   UNL     1       9.369  -8.578   1.390  1.00  0.00     0.124 S 
ATOM     47  O   UNL     1       8.419  -7.690   0.724  1.00  0.00    -0.237 OA
ATOM     48  O   UNL     1      10.732  -8.075   1.513  1.00  0.00    -0.237 OA
ATOM     49  O   UNL     1       9.254  -9.988   1.024  1.00  0.00    -0.744 OA
ENDBRANCH  42  46
ENDBRANCH  25  39
BRANCH  26  50
ATOM     50  C   UNL     1       6.703   1.736   9.379  1.00  0.00     0.023 A 
ATOM     51  C   UNL     1       7.752   2.635   9.621  1.00  0.00     0.031 A 
ATOM     52  C   UNL     1       5.414   2.092   9.819  1.00  0.00     0.131 A 
ATOM     53  C   UNL     1       7.504   3.825  10.324  1.00  0.00     0.055 A 
ATOM     54  C   UNL     1       5.162   3.302  10.465  1.00  0.00     0.041 A 
ATOM     55  F   UNL     1       4.374   1.270   9.608  1.00  0.00    -0.206 F 
ATOM     56  C   UNL     1       6.214   4.170  10.735  1.00  0.00     0.022 A 
BRANCH  53  57
ATOM     57  S   UNL     1       8.911   4.875  10.777  1.00  0.00     0.124 S 
ATOM     58  O   UNL     1       9.765   3.936  11.495  1.00  0.00    -0.237 OA
ATOM     59  O   UNL     1       9.394   5.311   9.471  1.00  0.00    -0.237 OA
ATOM     60  O   UNL     1       8.305   5.921  11.598  1.00  0.00    -0.744 OA
ENDBRANCH  53  57
ENDBRANCH  26  50
BRANCH  38  61
ATOM     61  C   UNL     1      10.367  -3.932  11.091  1.00  0.00     0.023 A 
ATOM     62  C   UNL     1       9.861  -4.011  12.401  1.00  0.00     0.031 A 
ATOM     63  C   UNL     1      11.751  -4.092  10.904  1.00  0.00     0.131 A 
ATOM     64  C   UNL     1      10.741  -4.174  13.481  1.00  0.00     0.055 A 
ATOM     65  C   UNL     1      12.615  -4.315  11.977  1.00  0.00     0.041 A 
ATOM     66  F   UNL     1      12.287  -4.024   9.675  1.00  0.00    -0.206 F 
ATOM     67  C   UNL     1      12.113  -4.340  13.276  1.00  0.00     0.022 A 
BRANCH  64  68
ATOM     68  S   UNL     1      10.080  -4.059  15.166  1.00  0.00     0.124 S 
ATOM     69  O   UNL     1       9.477  -2.730  15.166  1.00  0.00    -0.237 OA
ATOM     70  O   UNL     1       9.149  -5.182  15.213  1.00  0.00    -0.237 OA
ATOM     71  O   UNL     1      11.265  -4.202  16.010  1.00  0.00    -0.744 OA
ENDBRANCH  64  68
ENDBRANCH  38  61
ENDBRANCH  12  13
ENDBRANCH   5   7
ENDBRANCH   2   3
ENDBRANCH   1   2
BRANCH   1  72
ATOM     72  C   UNL     1       4.044   0.016  -3.989  1.00  0.00     0.002 C 
BRANCH  72  73
ATOM     73  C   UNL     1       4.607   1.421  -4.223  1.00  0.00     0.002 C 
BRANCH  73  74
ATOM     74  C   UNL     1       6.130   1.554  -4.154  1.00  0.00     0.021 C 
BRANCH  74  75
ATOM     75  C   UNL     1       6.908   0.582  -5.034  1.00  0.00     0.116 C 
BRANCH  75  76
ATOM     76  N   UNL     1       6.699   0.821  -6.449  1.00  0.00    -0.351 N 
ATOM     77  C   UNL     1       7.571   1.063  -7.469  1.00  0.00     0.279 C 
ATOM     78  H   UNL     1       5.754   0.805  -6.723  1.00  0.00     0.163 HD
ATOM     79  O   UNL     1       7.081   1.263  -8.586  1.00  0.00    -0.268 OA
BRANCH  77  80
ATOM     80  C   UNL     1       9.092   1.163  -7.254  1.00  0.00     0.283 C 
ATOM     81  C   UNL     1       9.456   2.473  -6.565  1.00  0.00     0.151 C 
ATOM     82  N   UNL     1       9.648  -0.041  -6.594  1.00  0.00    -0.320 N 
ATOM     83  S   UNL     1      10.342   2.014  -5.070  1.00  0.00    -0.087 SA
ATOM     84  C   UNL     1      10.714   0.335  -5.668  1.00  0.00     0.277 C 
ATOM     85  H   UNL     1      10.025  -0.670  -7.303  1.00  0.00     0.348 HD
ATOM     86  H   UNL     1       8.905  -0.506  -6.073  1.00  0.00     0.348 HD
BRANCH  84  87
ATOM     87  C   UNL     1      12.129   0.234  -6.205  1.00  0.00     0.059 A 
ATOM     88  C   UNL     1      13.202   0.579  -5.353  1.00  0.00     0.053 A 
ATOM     89  C   UNL     1      12.458  -0.231  -7.487  1.00  0.00     0.133 A 
ATOM     90  C   UNL     1      14.521   0.499  -5.790  1.00  0.00     0.123 A 
ATOM     91  C   UNL     1      13.786  -0.322  -7.916  1.00  0.00     0.043 A 
ATOM     92  F   UNL     1      11.515  -0.609  -8.360  1.00  0.00    -0.206 F 
ATOM     93  F   UNL     1      15.512   0.861  -4.965  1.00  0.00    -0.207 F 
ATOM     94  C   UNL     1      14.823   0.052  -7.067  1.00  0.00     0.042 A 
ENDBRANCH  84  87
ENDBRANCH  77  80
ENDBRANCH  75  76
ENDBRANCH  74  75
ENDBRANCH  73  74
ENDBRANCH  72  73
ENDBRANCH   1  72
TORSDOF 17
