REMARK SMILES C[C@@H](C(=O)NCCCCCCNC(=O)c1ccc(-c2c3nc(c(-c4cc(S(=O)(=O)[O-])ccc4F)c4ccc([nH]4)c(-c4cc(S(=O)(=O)[O-])ccc4F)c4nc(c(-c5cc(S(=O)(=O)[O-])ccc5F)c5ccc2[nH]5)C=C4)C=C3)cc1)N1C(=O)/C(=C/c2ccc(-c3ccc([N+](=O)[O-])cc3Cl)o2)SC1=S
REMARK SMILES IDX 8 1 7 2 6 3 5 4 3 5 4 6 2 8 1 9 78 10 79 11 99 12 80 13
REMARK SMILES IDX 81 14 98 15 100 16 82 17 83 18 84 19 97 20 85 21 86 22 87 23
REMARK SMILES IDX 88 24 95 25 89 26 94 27 96 28 90 29 91 30 92 31 93 32 9 33
REMARK SMILES IDX 10 34 11 35 12 36 13 37 14 39 15 40 16 41 77 42 17 43 76 44
REMARK SMILES IDX 18 45 19 46 20 47 70 48 21 49 75 50 69 51 71 52 22 53 74 54
REMARK SMILES IDX 68 55 67 56 23 58 55 59 35 60 54 61 36 62 39 63 53 64 72 65
REMARK SMILES IDX 37 66 38 67 52 69 73 70 40 71 24 72 25 73 33 74 26 75 32 76
REMARK SMILES IDX 34 77 31 78 27 79 28 80 29 81 30 82 56 83 57 84 65 85 58 86
REMARK SMILES IDX 64 87 66 88 63 89 59 90 60 91 61 92 62 93 41 94 42 95 50 96
REMARK SMILES IDX 43 97 49 98 51 99 48 100 44 101 45 102 46 103 47 104
REMARK H PARENT 5 7 12 38 71 57 39 68
REMARK Flexibility Score: inf
ROOT
ATOM      1  C   UNL     1       5.012   2.217  -1.610  1.00  0.00     0.002 C 
ENDROOT
BRANCH   1   2
ATOM      2  C   UNL     1       4.223   1.233  -0.740  1.00  0.00     0.021 C 
BRANCH   2   3
ATOM      3  C   UNL     1       3.302   1.919   0.273  1.00  0.00     0.116 C 
BRANCH   3   4
ATOM      4  N   UNL     1       2.170   2.508  -0.423  1.00  0.00    -0.354 N 
ATOM      5  C   UNL     1       0.890   2.035  -0.525  1.00  0.00     0.242 C 
ATOM      6  O   UNL     1       0.173   2.471  -1.429  1.00  0.00    -0.273 OA
ATOM      7  H   UNL     1       2.348   3.360  -0.882  1.00  0.00     0.163 HD
BRANCH   5   8
ATOM      8  C   UNL     1       0.392   0.987   0.496  1.00  0.00     0.178 C 
ATOM      9  C   UNL     1       0.915  -0.376   0.023  1.00  0.00     0.042 C 
BRANCH   8  10
ATOM     10  N   UNL     1      -1.087   1.099   0.617  1.00  0.00    -0.281 N 
ATOM     11  C   UNL     1      -1.912  -0.009   0.538  1.00  0.00     0.267 C 
ATOM     12  C   UNL     1      -1.732   2.271   0.983  1.00  0.00     0.149 C 
ATOM     13  O   UNL     1      -1.584  -1.185   0.497  1.00  0.00    -0.268 OA
ATOM     14  C   UNL     1      -3.339   0.390   0.581  1.00  0.00     0.084 C 
ATOM     15  S   UNL     1      -3.474   2.083   0.780  1.00  0.00    -0.054 SA
ATOM     16  S   UNL     1      -1.081   3.695   1.569  1.00  0.00    -0.052 S 
ATOM     17  C   UNL     1      -4.299  -0.538   0.495  1.00  0.00     0.068 C 
BRANCH  17  18
ATOM     18  C   UNL     1      -5.676  -0.225   0.412  1.00  0.00     0.128 A 
ATOM     19  C   UNL     1      -6.351   0.450  -0.597  1.00  0.00     0.051 A 
ATOM     20  O   UNL     1      -6.601  -0.619   1.350  1.00  0.00    -0.457 OA
ATOM     21  C   UNL     1      -7.718   0.486  -0.251  1.00  0.00     0.051 A 
ATOM     22  C   UNL     1      -7.818  -0.148   0.966  1.00  0.00     0.136 A 
BRANCH  22  23
ATOM     23  C   UNL     1      -8.937  -0.416   1.853  1.00  0.00     0.036 A 
ATOM     24  C   UNL     1     -10.066  -1.060   1.316  1.00  0.00     0.020 A 
ATOM     25  C   UNL     1      -8.973   0.015   3.192  1.00  0.00     0.058 A 
ATOM     26  C   UNL     1     -11.219  -1.245   2.082  1.00  0.00     0.086 A 
ATOM     27  C   UNL     1     -10.125  -0.165   3.966  1.00  0.00     0.106 A 
ATOM     28  Cl  UNL     1      -7.651   0.849   3.935  1.00  0.00    -0.083 Cl
ATOM     29  C   UNL     1     -11.248  -0.781   3.402  1.00  0.00     0.270 A 
BRANCH  29  30
ATOM     30  N   UNL     1     -12.481  -0.909   4.188  1.00  0.00     0.062 N 
ATOM     31  O   UNL     1     -13.460  -1.433   3.639  1.00  0.00    -0.258 OA
ATOM     32  O   UNL     1     -12.474  -0.472   5.347  1.00  0.00    -0.258 OA
ENDBRANCH  29  30
ENDBRANCH  22  23
ENDBRANCH  17  18
ENDBRANCH   8  10
ENDBRANCH   5   8
ENDBRANCH   3   4
ENDBRANCH   2   3
ENDBRANCH   1   2
BRANCH   1  33
ATOM     33  C   UNL     1       5.985   3.110  -0.834  1.00  0.00     0.002 C 
BRANCH  33  34
ATOM     34  C   UNL     1       7.019   2.352   0.005  1.00  0.00     0.021 C 
BRANCH  34  35
ATOM     35  C   UNL     1       7.903   1.395  -0.790  1.00  0.00     0.116 C 
BRANCH  35  36
ATOM     36  N   UNL     1       8.681   2.094  -1.798  1.00  0.00    -0.352 N 
ATOM     37  C   UNL     1      10.037   2.107  -2.005  1.00  0.00     0.251 C 
ATOM     38  H   UNL     1       8.157   2.640  -2.427  1.00  0.00     0.163 HD
ATOM     39  O   UNL     1      10.521   2.948  -2.757  1.00  0.00    -0.269 OA
BRANCH  37  40
ATOM     40  C   UNL     1      10.911   1.131  -1.317  1.00  0.00     0.039 A 
ATOM     41  C   UNL     1      12.140   1.569  -0.820  1.00  0.00     0.014 A 
ATOM     42  C   UNL     1      10.544  -0.213  -1.186  1.00  0.00     0.014 A 
ATOM     43  C   UNL     1      12.975   0.674  -0.149  1.00  0.00     0.010 A 
ATOM     44  C   UNL     1      11.346  -1.088  -0.452  1.00  0.00     0.010 A 
ATOM     45  C   UNL     1      12.572  -0.654   0.073  1.00  0.00    -0.014 A 
BRANCH  45  46
ATOM     46  C   UNL     1      13.427  -1.578   0.865  1.00  0.00     0.031 A 
ATOM     47  C   UNL     1      14.036  -2.797   0.226  1.00  0.00     0.074 A 
ATOM     48  C   UNL     1      13.638  -1.321   2.171  1.00  0.00     0.049 A 
ATOM     49  N   UNL     1      14.806  -3.712   0.761  1.00  0.00    -0.248 NA
ATOM     50  C   UNL     1      13.724  -3.032  -1.192  1.00  0.00     0.031 C 
ATOM     51  C   UNL     1      13.061  -0.196   2.912  1.00  0.00     0.029 A 
ATOM     52  N   UNL     1      14.394  -1.979   3.109  1.00  0.00    -0.354 N 
ATOM     53  C   UNL     1      15.079  -4.622  -0.255  1.00  0.00     0.074 A 
ATOM     54  C   UNL     1      14.332  -4.188  -1.416  1.00  0.00     0.031 C 
ATOM     55  C   UNL     1      13.509  -0.225   4.177  1.00  0.00     0.029 A 
ATOM     56  C   UNL     1      14.367  -1.392   4.354  1.00  0.00     0.049 A 
ATOM     57  H   UNL     1      14.908  -2.795   2.910  1.00  0.00     0.167 HD
ATOM     58  C   UNL     1      15.899  -5.702  -0.229  1.00  0.00     0.034 A 
ATOM     59  C   UNL     1      14.958  -1.756   5.510  1.00  0.00     0.034 A 
ATOM     60  C   UNL     1      16.635  -6.127   0.938  1.00  0.00     0.049 A 
ATOM     61  C   UNL     1      15.842  -2.978   5.516  1.00  0.00     0.074 A 
ATOM     62  C   UNL     1      17.512  -7.191   1.065  1.00  0.00     0.029 A 
ATOM     63  N   UNL     1      16.580  -5.512   2.183  1.00  0.00    -0.354 N 
ATOM     64  N   UNL     1      16.128  -3.798   4.530  1.00  0.00    -0.248 NA
ATOM     65  C   UNL     1      16.498  -3.312   6.786  1.00  0.00     0.031 C 
ATOM     66  C   UNL     1      17.933  -7.259   2.398  1.00  0.00     0.029 A 
ATOM     67  C   UNL     1      17.385  -6.189   3.087  1.00  0.00     0.049 A 
ATOM     68  H   UNL     1      16.046  -4.711   2.393  1.00  0.00     0.167 HD
ATOM     69  C   UNL     1      17.018  -4.729   5.059  1.00  0.00     0.074 A 
ATOM     70  C   UNL     1      17.247  -4.346   6.436  1.00  0.00     0.031 C 
ATOM     71  C   UNL     1      17.591  -5.807   4.464  1.00  0.00     0.034 A 
BRANCH  58  72
ATOM     72  C   UNL     1      16.035  -6.506  -1.501  1.00  0.00     0.023 A 
ATOM     73  C   UNL     1      16.593  -5.949  -2.666  1.00  0.00     0.031 A 
ATOM     74  C   UNL     1      15.608  -7.845  -1.554  1.00  0.00     0.131 A 
ATOM     75  C   UNL     1      16.656  -6.705  -3.846  1.00  0.00     0.055 A 
ATOM     76  C   UNL     1      15.744  -8.617  -2.710  1.00  0.00     0.041 A 
ATOM     77  F   UNL     1      15.047  -8.426  -0.481  1.00  0.00    -0.206 F 
ATOM     78  C   UNL     1      16.260  -8.044  -3.869  1.00  0.00     0.022 A 
BRANCH  75  79
ATOM     79  S   UNL     1      17.151  -5.877  -5.381  1.00  0.00     0.124 S 
ATOM     80  O   UNL     1      16.121  -4.849  -5.506  1.00  0.00    -0.237 OA
ATOM     81  O   UNL     1      18.493  -5.402  -5.066  1.00  0.00    -0.237 OA
ATOM     82  O   UNL     1      17.084  -6.941  -6.381  1.00  0.00    -0.744 OA
ENDBRANCH  75  79
ENDBRANCH  58  72
BRANCH  59  83
ATOM     83  C   UNL     1      14.726  -0.977   6.762  1.00  0.00     0.023 A 
ATOM     84  C   UNL     1      15.786  -0.354   7.440  1.00  0.00     0.031 A 
ATOM     85  C   UNL     1      13.445  -0.906   7.340  1.00  0.00     0.131 A 
ATOM     86  C   UNL     1      15.561   0.252   8.686  1.00  0.00     0.055 A 
ATOM     87  C   UNL     1      13.214  -0.243   8.546  1.00  0.00     0.041 A 
ATOM     88  F   UNL     1      12.393  -1.481   6.735  1.00  0.00    -0.206 F 
ATOM     89  C   UNL     1      14.280   0.324   9.237  1.00  0.00     0.022 A 
BRANCH  86  90
ATOM     90  S   UNL     1      16.991   0.835   9.638  1.00  0.00     0.124 S 
ATOM     91  O   UNL     1      17.811  -0.369   9.708  1.00  0.00    -0.237 OA
ATOM     92  O   UNL     1      17.498   1.909   8.791  1.00  0.00    -0.237 OA
ATOM     93  O   UNL     1      16.403   1.266  10.904  1.00  0.00    -0.744 OA
ENDBRANCH  86  90
ENDBRANCH  59  83
BRANCH  71  94
ATOM     94  C   UNL     1      18.546  -6.620   5.306  1.00  0.00     0.023 A 
ATOM     95  C   UNL     1      18.112  -7.313   6.450  1.00  0.00     0.031 A 
ATOM     96  C   UNL     1      19.914  -6.669   4.985  1.00  0.00     0.131 A 
ATOM     97  C   UNL     1      19.046  -7.955   7.276  1.00  0.00     0.055 A 
ATOM     98  C   UNL     1      20.829  -7.372   5.770  1.00  0.00     0.041 A 
ATOM     99  F   UNL     1      20.387  -6.026   3.905  1.00  0.00    -0.206 F 
ATOM    100  C   UNL     1      20.400  -8.004   6.934  1.00  0.00     0.022 A 
BRANCH  97 101
ATOM    101  S   UNL     1      18.486  -8.614   8.870  1.00  0.00     0.124 S 
ATOM    102  O   UNL     1      17.906  -7.433   9.500  1.00  0.00    -0.237 OA
ATOM    103  O   UNL     1      17.541  -9.649   8.464  1.00  0.00    -0.237 OA
ATOM    104  O   UNL     1      19.716  -9.106   9.489  1.00  0.00    -0.744 OA
ENDBRANCH  97 101
ENDBRANCH  71  94
ENDBRANCH  45  46
ENDBRANCH  37  40
ENDBRANCH  35  36
ENDBRANCH  34  35
ENDBRANCH  33  34
ENDBRANCH   1  33
TORSDOF 20
