REMARK SMILES CC(C)C[C@H](NC(=O)[C@H](Cc1ccccc1)NC(=O)CNC(=O)C[NH3+])C(=O)NCCCCCCNC(=O)c1ccc(-c2c3nc(c(-c4cc(S(=O)(=O)[O-])ccc4F)c4ccc([nH]4)c(-c4cc(S(=O)(=O)[O-])ccc4F)c4nc(c(-c5cc(S(=O)(=O)[O-])ccc5F)c5ccc2[nH]5)C=C4)C=C3)cc1
REMARK SMILES IDX 29 1 28 2 26 3 27 4 5 6 4 7 2 8 1 9 3 10 6 11 7 12 8 14 9 15
REMARK SMILES IDX 17 16 18 17 19 19 20 20 21 21 22 22 23 24 24 25 25 26 10 30
REMARK SMILES IDX 11 31 12 32 16 33 13 34 15 35 14 36 30 37 31 38 32 39 33 40
REMARK SMILES IDX 34 41 35 42 36 43 37 45 38 46 39 47 100 48 40 49 99 50 41 51
REMARK SMILES IDX 42 52 43 53 93 54 44 55 98 56 92 57 94 58 45 59 97 60 91 61
REMARK SMILES IDX 90 62 46 64 78 65 58 66 77 67 59 68 62 69 76 70 95 71 60 72
REMARK SMILES IDX 61 73 75 75 96 76 63 77 47 78 48 79 56 80 49 81 55 82 57 83
REMARK SMILES IDX 54 84 50 85 51 86 52 87 53 88 79 89 80 90 88 91 81 92 87 93
REMARK SMILES IDX 89 94 86 95 82 96 83 97 84 98 85 99 64 100 65 101 73 102
REMARK SMILES IDX 66 103 72 104 74 105 71 106 67 107 68 108 69 109 70 110
REMARK H PARENT 28 5 6 13 17 18 21 23 25 27 25 28 25 29 35 44 94 63 62 74
REMARK Flexibility Score: inf
ROOT
ATOM      1  C   UNL     1      -1.871  -7.395   1.415  1.00  0.00     0.116 C 
ENDROOT
BRANCH   1   2
ATOM      2  N   UNL     1      -2.455  -7.391   0.079  1.00  0.00    -0.354 N 
ATOM      3  C   UNL     1      -2.213  -6.613  -1.031  1.00  0.00     0.242 C 
ATOM      4  O   UNL     1      -2.607  -7.122  -2.095  1.00  0.00    -0.273 OA
ATOM      5  H   UNL     1      -3.153  -8.072  -0.054  1.00  0.00     0.163 HD
BRANCH   3   6
ATOM      6  C   UNL     1      -1.551  -5.148  -1.123  1.00  0.00     0.171 C 
BRANCH   6   7
ATOM      7  C   UNL     1      -0.084  -5.061  -0.720  1.00  0.00     0.038 C 
BRANCH   7   8
ATOM      8  C   UNL     1       0.162  -5.110   0.788  1.00  0.00    -0.015 C 
ATOM      9  C   UNL     1       1.088  -6.284   1.088  1.00  0.00     0.007 C 
ATOM     10  C   UNL     1       0.262  -3.880   1.690  1.00  0.00     0.007 C 
ENDBRANCH   7   8
ENDBRANCH   6   7
BRANCH   6  11
ATOM     11  N   UNL     1      -2.397  -3.969  -0.825  1.00  0.00    -0.343 N 
ATOM     12  C   UNL     1      -2.096  -2.605  -0.896  1.00  0.00     0.243 C 
ATOM     13  H   UNL     1      -3.313  -4.178  -0.532  1.00  0.00     0.164 HD
ATOM     14  O   UNL     1      -2.953  -1.855  -1.369  1.00  0.00    -0.273 OA
BRANCH  12  15
ATOM     15  C   UNL     1      -0.827  -2.036  -0.150  1.00  0.00     0.175 C 
BRANCH  15  16
ATOM     16  N   UNL     1       0.610  -2.033  -0.722  1.00  0.00    -0.342 N 
ATOM     17  C   UNL     1       1.909  -2.473  -0.525  1.00  0.00     0.240 C 
ATOM     18  H   UNL     1       0.596  -1.513  -1.558  1.00  0.00     0.164 HD
ATOM     19  O   UNL     1       2.626  -2.109  -1.488  1.00  0.00    -0.273 OA
BRANCH  17  20
ATOM     20  C   UNL     1       2.705  -3.563   0.529  1.00  0.00     0.216 C 
BRANCH  20  21
ATOM     21  N   UNL     1       3.063  -3.854   2.053  1.00  0.00    -0.342 N 
ATOM     22  C   UNL     1       2.861  -4.469   3.268  1.00  0.00     0.275 C 
ATOM     23  H   UNL     1       3.856  -3.292   2.212  1.00  0.00     0.164 HD
ATOM     24  O   UNL     1       3.908  -4.375   3.952  1.00  0.00    -0.268 OA
BRANCH  22  25
ATOM     25  C   UNL     1       1.745  -5.370   4.007  1.00  0.00     0.360 C 
BRANCH  25  26
ATOM     26  N   UNL     1       0.288  -5.088   4.015  1.00  0.00    -0.350 N 
ATOM     27  H   UNL     1       0.106  -4.257   4.577  1.00  0.00     0.344 HD
ATOM     28  H   UNL     1      -0.210  -5.884   4.413  1.00  0.00     0.344 HD
ATOM     29  H   UNL     1      -0.033  -4.929   3.060  1.00  0.00     0.344 HD
ENDBRANCH  25  26
ENDBRANCH  22  25
ENDBRANCH  20  21
ENDBRANCH  17  20
ENDBRANCH  15  16
BRANCH  15  30
ATOM     30  C   UNL     1      -1.106  -0.731   0.666  1.00  0.00     0.070 C 
BRANCH  30  31
ATOM     31  C   UNL     1      -1.489  -0.958   2.134  1.00  0.00    -0.045 A 
ATOM     32  C   UNL     1      -2.825  -1.168   2.511  1.00  0.00     0.004 A 
ATOM     33  C   UNL     1      -0.508  -0.989   3.143  1.00  0.00     0.004 A 
ATOM     34  C   UNL     1      -3.164  -1.406   3.852  1.00  0.00     0.000 A 
ATOM     35  C   UNL     1      -0.847  -1.246   4.479  1.00  0.00     0.000 A 
ATOM     36  C   UNL     1      -2.176  -1.455   4.834  1.00  0.00     0.000 A 
ENDBRANCH  30  31
ENDBRANCH  15  30
ENDBRANCH  12  15
ENDBRANCH   6  11
ENDBRANCH   3   6
ENDBRANCH   1   2
BRANCH   1  37
ATOM     37  C   UNL     1      -2.430  -8.281   2.536  1.00  0.00     0.021 C 
BRANCH  37  38
ATOM     38  C   UNL     1      -1.521  -9.408   3.100  1.00  0.00     0.002 C 
BRANCH  38  39
ATOM     39  C   UNL     1      -0.032  -9.153   3.403  1.00  0.00     0.002 C 
BRANCH  39  40
ATOM     40  C   UNL     1       0.468  -8.770   4.810  1.00  0.00     0.021 C 
BRANCH  40  41
ATOM     41  C   UNL     1      -0.467  -8.049   5.779  1.00  0.00     0.116 C 
BRANCH  41  42
ATOM     42  N   UNL     1      -0.811  -8.952   6.861  1.00  0.00    -0.352 N 
ATOM     43  C   UNL     1      -0.271  -8.963   8.126  1.00  0.00     0.251 C 
ATOM     44  H   UNL     1      -1.503  -9.626   6.670  1.00  0.00     0.163 HD
ATOM     45  O   UNL     1      -0.052 -10.046   8.663  1.00  0.00    -0.269 OA
BRANCH  43  46
ATOM     46  C   UNL     1      -0.011  -7.697   8.864  1.00  0.00     0.039 A 
ATOM     47  C   UNL     1       0.983  -7.686   9.850  1.00  0.00     0.014 A 
ATOM     48  C   UNL     1      -0.836  -6.577   8.710  1.00  0.00     0.014 A 
ATOM     49  C   UNL     1       1.135  -6.575  10.687  1.00  0.00     0.010 A 
ATOM     50  C   UNL     1      -0.656  -5.449   9.522  1.00  0.00     0.010 A 
ATOM     51  C   UNL     1       0.313  -5.446  10.538  1.00  0.00    -0.014 A 
BRANCH  51  52
ATOM     52  C   UNL     1       0.457  -4.284  11.461  1.00  0.00     0.031 A 
ATOM     53  C   UNL     1      -0.624  -3.947  12.458  1.00  0.00     0.074 A 
ATOM     54  C   UNL     1       1.569  -3.526  11.405  1.00  0.00     0.049 A 
ATOM     55  N   UNL     1      -0.652  -3.002  13.365  1.00  0.00    -0.248 NA
ATOM     56  C   UNL     1      -1.842  -4.767  12.411  1.00  0.00     0.031 C 
ATOM     57  C   UNL     1       2.675  -3.726  10.468  1.00  0.00     0.029 A 
ATOM     58  N   UNL     1       1.960  -2.444  12.154  1.00  0.00    -0.354 N 
ATOM     59  C   UNL     1      -1.890  -3.108  13.993  1.00  0.00     0.074 A 
ATOM     60  C   UNL     1      -2.603  -4.174  13.319  1.00  0.00     0.031 C 
ATOM     61  C   UNL     1       3.635  -2.823  10.723  1.00  0.00     0.029 A 
ATOM     62  C   UNL     1       3.201  -1.957  11.815  1.00  0.00     0.049 A 
ATOM     63  H   UNL     1       1.405  -2.053  12.867  1.00  0.00     0.167 HD
ATOM     64  C   UNL     1      -2.378  -2.397  15.043  1.00  0.00     0.034 A 
ATOM     65  C   UNL     1       3.913  -0.933  12.326  1.00  0.00     0.034 A 
ATOM     66  C   UNL     1      -1.652  -1.339  15.710  1.00  0.00     0.049 A 
ATOM     67  C   UNL     1       3.341  -0.143  13.475  1.00  0.00     0.074 A 
ATOM     68  C   UNL     1      -2.024  -0.606  16.825  1.00  0.00     0.029 A 
ATOM     69  N   UNL     1      -0.413  -0.849  15.315  1.00  0.00    -0.354 N 
ATOM     70  N   UNL     1       2.198  -0.301  14.101  1.00  0.00    -0.248 NA
ATOM     71  C   UNL     1       4.167   0.955  13.992  1.00  0.00     0.031 C 
ATOM     72  C   UNL     1      -1.051   0.374  17.055  1.00  0.00     0.029 A 
ATOM     73  C   UNL     1      -0.029   0.204  16.135  1.00  0.00     0.049 A 
ATOM     74  H   UNL     1       0.116  -1.198  14.562  1.00  0.00     0.167 HD
ATOM     75  C   UNL     1       2.178   0.667  15.102  1.00  0.00     0.074 A 
ATOM     76  C   UNL     1       3.436   1.382  15.010  1.00  0.00     0.031 C 
ATOM     77  C   UNL     1       1.210   0.939  16.015  1.00  0.00     0.034 A 
BRANCH  64  78
ATOM     78  C   UNL     1      -3.783  -2.720  15.510  1.00  0.00     0.023 A 
ATOM     79  C   UNL     1      -4.129  -3.989  16.006  1.00  0.00     0.031 A 
ATOM     80  C   UNL     1      -4.800  -1.750  15.430  1.00  0.00     0.131 A 
ATOM     81  C   UNL     1      -5.465  -4.283  16.317  1.00  0.00     0.055 A 
ATOM     82  C   UNL     1      -6.112  -2.022  15.825  1.00  0.00     0.041 A 
ATOM     83  F   UNL     1      -4.540  -0.524  14.950  1.00  0.00    -0.206 F 
ATOM     84  C   UNL     1      -6.457  -3.300  16.254  1.00  0.00     0.022 A 
BRANCH  81  85
ATOM     85  S   UNL     1      -5.936  -6.005  16.645  1.00  0.00     0.124 S 
ATOM     86  O   UNL     1      -5.456  -6.674  15.426  1.00  0.00    -0.237 OA
ATOM     87  O   UNL     1      -5.171  -6.307  17.864  1.00  0.00    -0.237 OA
ATOM     88  O   UNL     1      -7.365  -5.957  16.799  1.00  0.00    -0.744 OA
ENDBRANCH  81  85
ENDBRANCH  64  78
BRANCH  65  89
ATOM     89  C   UNL     1       5.250  -0.593  11.762  1.00  0.00     0.023 A 
ATOM     90  C   UNL     1       6.416  -0.736  12.531  1.00  0.00     0.031 A 
ATOM     91  C   UNL     1       5.379  -0.091  10.455  1.00  0.00     0.131 A 
ATOM     92  C   UNL     1       7.655  -0.345  12.002  1.00  0.00     0.055 A 
ATOM     93  C   UNL     1       6.620   0.249   9.915  1.00  0.00     0.041 A 
ATOM     94  F   UNL     1       4.295   0.062   9.677  1.00  0.00    -0.206 F 
ATOM     95  C   UNL     1       7.767   0.134  10.695  1.00  0.00     0.022 A 
BRANCH  92  96
ATOM     96  S   UNL     1       9.116  -0.406  13.075  1.00  0.00     0.124 S 
ATOM     97  O   UNL     1       8.730   0.494  14.156  1.00  0.00    -0.237 OA
ATOM     98  O   UNL     1       9.185  -1.824  13.414  1.00  0.00    -0.237 OA
ATOM     99  O   UNL     1      10.192   0.079  12.213  1.00  0.00    -0.744 OA
ENDBRANCH  92  96
ENDBRANCH  65  89
BRANCH  77 100
ATOM    100  C   UNL     1       1.496   2.052  16.998  1.00  0.00     0.023 A 
ATOM    101  C   UNL     1       1.654   3.385  16.576  1.00  0.00     0.031 A 
ATOM    102  C   UNL     1       1.663   1.771  18.366  1.00  0.00     0.131 A 
ATOM    103  C   UNL     1       2.042   4.371  17.496  1.00  0.00     0.055 A 
ATOM    104  C   UNL     1       1.980   2.769  19.289  1.00  0.00     0.041 A 
ATOM    105  F   UNL     1       1.529   0.518  18.828  1.00  0.00    -0.206 F 
ATOM    106  C   UNL     1       2.190   4.075  18.853  1.00  0.00     0.022 A 
BRANCH 103 107
ATOM    107  S   UNL     1       2.474   6.019  16.874  1.00  0.00     0.124 S 
ATOM    108  O   UNL     1       3.525   5.713  15.909  1.00  0.00    -0.237 OA
ATOM    109  O   UNL     1       1.209   6.482  16.313  1.00  0.00    -0.237 OA
ATOM    110  O   UNL     1       2.919   6.732  18.070  1.00  0.00    -0.744 OA
ENDBRANCH 103 107
ENDBRANCH  77 100
ENDBRANCH  51  52
ENDBRANCH  43  46
ENDBRANCH  41  42
ENDBRANCH  40  41
ENDBRANCH  39  40
ENDBRANCH  38  39
ENDBRANCH  37  38
ENDBRANCH   1  37
TORSDOF 27
