REMARK SMILES CCc1ccc(C(=O)NCCCCCCNC(=O)c2ccc(-c3c4nc(c(-c5cc(S(=O)(=O)[O-])ccc5F)c5ccc([nH]5)c(-c5cc(S(=O)(=O)[O-])ccc5F)c5nc(c(-c6cc(S(=O)(=O)[O-])ccc6F)c6ccc3[nH]6)C=C5)C=C4)cc2)cc1S(=O)(=O)C(CC)CC
REMARK SMILES IDX 12 1 11 2 10 3 9 4 7 5 8 6 6 8 3 9 4 10 83 11 5 12 82 13
REMARK SMILES IDX 2 14 1 15 84 16 85 17 86 18 87 19 88 20 89 21 90 22 91 23
REMARK SMILES IDX 13 24 14 25 15 26 16 27 17 28 18 30 19 31 20 32 81 33 21 34
REMARK SMILES IDX 80 35 22 36 23 37 24 38 74 39 25 40 79 41 73 42 75 43 26 44
REMARK SMILES IDX 78 45 72 46 71 47 27 49 59 50 39 51 58 52 40 53 43 54 57 55
REMARK SMILES IDX 76 56 41 57 42 58 56 60 77 61 44 62 28 63 29 64 37 65 30 66
REMARK SMILES IDX 36 67 38 68 35 69 31 70 32 71 33 72 34 73 60 74 61 75 69 76
REMARK SMILES IDX 62 77 68 78 70 79 67 80 63 81 64 82 65 83 66 84 45 85 46 86
REMARK SMILES IDX 54 87 47 88 53 89 55 90 52 91 48 92 49 93 50 94 51 95
REMARK H PARENT 9 7 16 29 75 48 43 59
REMARK Flexibility Score: inf
ROOT
ATOM      1  C   UNL     1      -0.016   8.874   1.854  1.00  0.00     0.002 C 
ENDROOT
BRANCH   1   2
ATOM      2  C   UNL     1      -0.058   7.376   1.517  1.00  0.00     0.021 C 
BRANCH   2   3
ATOM      3  C   UNL     1       1.334   6.735   1.486  1.00  0.00     0.116 C 
BRANCH   3   4
ATOM      4  N   UNL     1       1.804   6.482   2.841  1.00  0.00    -0.352 N 
ATOM      5  C   UNL     1       1.889   5.357   3.621  1.00  0.00     0.251 C 
ATOM      6  O   UNL     1       2.351   5.484   4.756  1.00  0.00    -0.269 OA
ATOM      7  H   UNL     1       2.131   7.292   3.295  1.00  0.00     0.163 HD
BRANCH   5   8
ATOM      8  C   UNL     1       1.491   3.996   3.164  1.00  0.00     0.041 A 
ATOM      9  C   UNL     1       0.711   1.349   2.411  1.00  0.00    -0.030 A 
ATOM     10  C   UNL     1       1.611   1.592   3.476  1.00  0.00     0.006 A 
ATOM     11  C   UNL     1       0.329   2.453   1.641  1.00  0.00     0.071 A 
ATOM     12  C   UNL     1       2.019   2.887   3.824  1.00  0.00     0.014 A 
ATOM     13  C   UNL     1       0.609   3.752   2.125  1.00  0.00     0.034 A 
BRANCH   9  14
ATOM     14  C   UNL     1       0.066  -0.015   2.409  1.00  0.00     0.033 C 
ATOM     15  C   UNL     1       0.843  -1.166   1.788  1.00  0.00     0.009 C 
ENDBRANCH   9  14
BRANCH  11  16
ATOM     16  S   UNL     1      -0.395   2.566   0.009  1.00  0.00     0.181 S 
ATOM     17  O   UNL     1      -1.761   2.988   0.250  1.00  0.00    -0.223 OA
ATOM     18  O   UNL     1       0.482   3.500  -0.690  1.00  0.00    -0.223 OA
BRANCH  16  19
ATOM     19  C   UNL     1      -0.394   1.124  -1.007  1.00  0.00     0.113 C 
BRANCH  19  20
ATOM     20  C   UNL     1       0.978   0.594  -1.505  1.00  0.00     0.017 C 
ATOM     21  C   UNL     1       2.259   0.893  -0.737  1.00  0.00     0.005 C 
ENDBRANCH  19  20
BRANCH  19  22
ATOM     22  C   UNL     1      -1.411   0.010  -0.702  1.00  0.00     0.017 C 
ATOM     23  C   UNL     1      -2.853   0.457  -0.499  1.00  0.00     0.005 C 
ENDBRANCH  19  22
ENDBRANCH  16  19
ENDBRANCH  11  16
ENDBRANCH   5   8
ENDBRANCH   3   4
ENDBRANCH   2   3
ENDBRANCH   1   2
BRANCH   1  24
ATOM     24  C   UNL     1       0.740   9.738   0.836  1.00  0.00     0.002 C 
BRANCH  24  25
ATOM     25  C   UNL     1       0.220   9.638  -0.601  1.00  0.00     0.021 C 
BRANCH  25  26
ATOM     26  C   UNL     1      -1.215  10.126  -0.775  1.00  0.00     0.116 C 
BRANCH  26  27
ATOM     27  N   UNL     1      -1.326  11.554  -0.511  1.00  0.00    -0.352 N 
ATOM     28  C   UNL     1      -1.774  12.549  -1.343  1.00  0.00     0.251 C 
ATOM     29  H   UNL     1      -1.041  11.844   0.385  1.00  0.00     0.163 HD
ATOM     30  O   UNL     1      -1.561  13.727  -1.064  1.00  0.00    -0.269 OA
BRANCH  28  31
ATOM     31  C   UNL     1      -2.497  12.189  -2.579  1.00  0.00     0.039 A 
ATOM     32  C   UNL     1      -2.161  12.817  -3.780  1.00  0.00     0.014 A 
ATOM     33  C   UNL     1      -3.502  11.218  -2.546  1.00  0.00     0.014 A 
ATOM     34  C   UNL     1      -2.792  12.425  -4.963  1.00  0.00     0.010 A 
ATOM     35  C   UNL     1      -4.077  10.779  -3.733  1.00  0.00     0.010 A 
ATOM     36  C   UNL     1      -3.730  11.380  -4.954  1.00  0.00    -0.014 A 
BRANCH  36  37
ATOM     37  C   UNL     1      -4.379  10.901  -6.202  1.00  0.00     0.031 A 
ATOM     38  C   UNL     1      -5.868  11.033  -6.364  1.00  0.00     0.074 A 
ATOM     39  C   UNL     1      -3.644  10.281  -7.146  1.00  0.00     0.049 A 
ATOM     40  N   UNL     1      -6.645  10.565  -7.306  1.00  0.00    -0.248 NA
ATOM     41  C   UNL     1      -6.580  11.763  -5.303  1.00  0.00     0.031 C 
ATOM     42  C   UNL     1      -2.196  10.075  -7.090  1.00  0.00     0.029 A 
ATOM     43  N   UNL     1      -4.016   9.694  -8.330  1.00  0.00    -0.354 N 
ATOM     44  C   UNL     1      -7.938  10.928  -6.946  1.00  0.00     0.074 A 
ATOM     45  C   UNL     1      -7.843  11.601  -5.667  1.00  0.00     0.031 C 
ATOM     46  C   UNL     1      -1.800   9.426  -8.197  1.00  0.00     0.029 A 
ATOM     47  C   UNL     1      -2.970   9.118  -9.014  1.00  0.00     0.049 A 
ATOM     48  H   UNL     1      -4.943   9.686  -8.659  1.00  0.00     0.167 HD
ATOM     49  C   UNL     1      -9.094  10.737  -7.629  1.00  0.00     0.034 A 
ATOM     50  C   UNL     1      -2.958   8.402 -10.157  1.00  0.00     0.034 A 
ATOM     51  C   UNL     1      -9.165  10.070  -8.906  1.00  0.00     0.049 A 
ATOM     52  C   UNL     1      -4.262   8.155 -10.874  1.00  0.00     0.074 A 
ATOM     53  C   UNL     1     -10.273   9.861  -9.708  1.00  0.00     0.029 A 
ATOM     54  N   UNL     1      -8.085   9.494  -9.564  1.00  0.00    -0.354 N 
ATOM     55  N   UNL     1      -5.474   8.535 -10.539  1.00  0.00    -0.248 NA
ATOM     56  C   UNL     1      -4.198   7.388 -12.126  1.00  0.00     0.031 C 
ATOM     57  C   UNL     1      -9.879   9.095 -10.810  1.00  0.00     0.029 A 
ATOM     58  C   UNL     1      -8.508   8.901 -10.744  1.00  0.00     0.049 A 
ATOM     59  H   UNL     1      -7.155   9.505  -9.240  1.00  0.00     0.167 HD
ATOM     60  C   UNL     1      -6.309   8.087 -11.560  1.00  0.00     0.074 A 
ATOM     61  C   UNL     1      -5.463   7.412 -12.522  1.00  0.00     0.031 C 
ATOM     62  C   UNL     1      -7.652   8.230 -11.694  1.00  0.00     0.034 A 
BRANCH  49  63
ATOM     63  C   UNL     1     -10.370  11.230  -6.989  1.00  0.00     0.023 A 
ATOM     64  C   UNL     1     -10.577  12.592  -6.705  1.00  0.00     0.031 A 
ATOM     65  C   UNL     1     -11.384  10.325  -6.629  1.00  0.00     0.131 A 
ATOM     66  C   UNL     1     -11.725  12.998  -6.010  1.00  0.00     0.055 A 
ATOM     67  C   UNL     1     -12.566  10.747  -6.017  1.00  0.00     0.041 A 
ATOM     68  F   UNL     1     -11.238   9.009  -6.854  1.00  0.00    -0.206 F 
ATOM     69  C   UNL     1     -12.735  12.088  -5.688  1.00  0.00     0.022 A 
BRANCH  66  70
ATOM     70  S   UNL     1     -11.806  14.702  -5.395  1.00  0.00     0.124 S 
ATOM     71  O   UNL     1     -10.614  14.768  -4.552  1.00  0.00    -0.237 OA
ATOM     72  O   UNL     1     -11.764  15.484  -6.625  1.00  0.00    -0.237 OA
ATOM     73  O   UNL     1     -13.075  14.745  -4.670  1.00  0.00    -0.744 OA
ENDBRANCH  66  70
ENDBRANCH  49  63
BRANCH  50  74
ATOM     74  C   UNL     1      -1.678   7.851 -10.690  1.00  0.00     0.023 A 
ATOM     75  C   UNL     1      -1.171   8.272 -11.930  1.00  0.00     0.031 A 
ATOM     76  C   UNL     1      -0.964   6.863  -9.988  1.00  0.00     0.131 A 
ATOM     77  C   UNL     1      -0.013   7.675 -12.452  1.00  0.00     0.055 A 
ATOM     78  C   UNL     1       0.220   6.315 -10.485  1.00  0.00     0.041 A 
ATOM     79  F   UNL     1      -1.402   6.423  -8.798  1.00  0.00    -0.206 F 
ATOM     80  C   UNL     1       0.695   6.711 -11.731  1.00  0.00     0.022 A 
BRANCH  77  81
ATOM     81  S   UNL     1       0.504   8.112 -14.135  1.00  0.00     0.124 S 
ATOM     82  O   UNL     1      -0.677   7.751 -14.910  1.00  0.00    -0.237 OA
ATOM     83  O   UNL     1       0.778   9.539 -14.007  1.00  0.00    -0.237 OA
ATOM     84  O   UNL     1       1.679   7.271 -14.358  1.00  0.00    -0.744 OA
ENDBRANCH  77  81
ENDBRANCH  50  74
BRANCH  62  85
ATOM     85  C   UNL     1      -8.283   7.702 -12.959  1.00  0.00     0.023 A 
ATOM     86  C   UNL     1      -8.359   6.326 -13.238  1.00  0.00     0.031 A 
ATOM     87  C   UNL     1      -8.838   8.598 -13.891  1.00  0.00     0.131 A 
ATOM     88  C   UNL     1      -8.942   5.889 -14.437  1.00  0.00     0.055 A 
ATOM     89  C   UNL     1      -9.468   8.154 -15.053  1.00  0.00     0.041 A 
ATOM     90  F   UNL     1      -8.790   9.923 -13.677  1.00  0.00    -0.206 F 
ATOM     91  C   UNL     1      -9.514   6.793 -15.336  1.00  0.00     0.022 A 
BRANCH  88  92
ATOM     92  S   UNL     1      -8.883   4.122 -14.844  1.00  0.00     0.124 S 
ATOM     93  O   UNL     1      -7.447   3.867 -14.883  1.00  0.00    -0.237 OA
ATOM     94  O   UNL     1      -9.608   3.519 -13.730  1.00  0.00    -0.237 OA
ATOM     95  O   UNL     1      -9.562   4.045 -16.137  1.00  0.00    -0.744 OA
ENDBRANCH  88  92
ENDBRANCH  62  85
ENDBRANCH  36  37
ENDBRANCH  28  31
ENDBRANCH  26  27
ENDBRANCH  25  26
ENDBRANCH  24  25
ENDBRANCH   1  24
TORSDOF 21
