REMARK SMILES O=C(NCCCCCCNC(=O)[C@H]1CC[C@H](CNS(=O)(=O)C[C@H]2CCCO2)O1)c1ccc(-c2c3nc(c(-c4cc(S(=O)(=O)[O-])ccc4F)c4ccc([nH]4)c(-c4cc(S(=O)(=O)[O-])ccc4F)c4nc(c(-c5cc(S(=O)(=O)[O-])ccc5F)c5ccc2[nH]5)C=C4)C=C3)cc1
REMARK SMILES IDX 7 1 6 2 5 3 4 4 3 5 1 6 2 7 29 9 30 10 91 11 31 12 90 13
REMARK SMILES IDX 32 14 33 15 34 16 84 17 35 18 89 19 83 20 85 21 36 22 88 23
REMARK SMILES IDX 82 24 81 25 37 27 69 28 49 29 68 30 50 31 53 32 67 33 86 34
REMARK SMILES IDX 51 35 52 36 66 38 87 39 54 40 38 41 39 42 47 43 40 44 46 45
REMARK SMILES IDX 48 46 45 47 41 48 42 49 43 50 44 51 70 52 71 53 79 54 72 55
REMARK SMILES IDX 78 56 80 57 77 58 73 59 74 60 75 61 76 62 55 63 56 64 64 65
REMARK SMILES IDX 57 66 63 67 65 68 62 69 58 70 59 71 60 72 61 73 8 74 9 75
REMARK SMILES IDX 10 76 11 77 12 79 13 80 14 81 28 82 15 83 16 84 17 85 18 86
REMARK SMILES IDX 19 88 20 89 21 90 22 91 23 92 24 93 27 94 25 95 26 96
REMARK H PARENT 3 8 85 26 53 37 10 78 18 87
REMARK Flexibility Score: inf
ROOT
ATOM      1  C   UNL     1       3.089  -6.479   5.184  1.00  0.00     0.002 C 
ENDROOT
BRANCH   1   2
ATOM      2  C   UNL     1       3.233  -7.719   4.290  1.00  0.00     0.002 C 
BRANCH   2   3
ATOM      3  C   UNL     1       4.487  -8.555   4.558  1.00  0.00     0.021 C 
BRANCH   3   4
ATOM      4  C   UNL     1       4.557  -9.102   5.975  1.00  0.00     0.116 C 
BRANCH   4   5
ATOM      5  N   UNL     1       3.481 -10.047   6.223  1.00  0.00    -0.352 N 
ATOM      6  O   UNL     1       2.603 -12.109   6.477  1.00  0.00    -0.269 OA
ATOM      7  C   UNL     1       3.578 -11.371   6.566  1.00  0.00     0.251 C 
ATOM      8  H   UNL     1       2.567  -9.692   6.134  1.00  0.00     0.163 HD
BRANCH   7   9
ATOM      9  C   UNL     1       4.874 -11.886   7.051  1.00  0.00     0.039 A 
ATOM     10  C   UNL     1       5.608 -11.143   7.981  1.00  0.00     0.014 A 
ATOM     11  C   UNL     1       5.347 -13.117   6.593  1.00  0.00     0.014 A 
ATOM     12  C   UNL     1       6.860 -11.584   8.383  1.00  0.00     0.010 A 
ATOM     13  C   UNL     1       6.564 -13.605   7.072  1.00  0.00     0.010 A 
ATOM     14  C   UNL     1       7.325 -12.843   7.974  1.00  0.00    -0.014 A 
BRANCH  14  15
ATOM     15  C   UNL     1       8.526 -13.408   8.635  1.00  0.00     0.031 A 
ATOM     16  C   UNL     1       9.782 -13.692   7.867  1.00  0.00     0.074 A 
ATOM     17  C   UNL     1       8.447 -13.665   9.957  1.00  0.00     0.049 A 
ATOM     18  N   UNL     1      10.898 -14.220   8.295  1.00  0.00    -0.248 NA
ATOM     19  C   UNL     1       9.789 -13.348   6.437  1.00  0.00     0.031 C 
ATOM     20  C   UNL     1       7.261 -13.425  10.789  1.00  0.00     0.029 A 
ATOM     21  N   UNL     1       9.363 -14.177  10.836  1.00  0.00    -0.354 N 
ATOM     22  C   UNL     1      11.737 -14.293   7.189  1.00  0.00     0.074 A 
ATOM     23  C   UNL     1      10.994 -13.764   6.065  1.00  0.00     0.031 C 
ATOM     24  C   UNL     1       7.534 -13.759  12.056  1.00  0.00     0.029 A 
ATOM     25  C   UNL     1       8.874 -14.325  12.114  1.00  0.00     0.049 A 
ATOM     26  H   UNL     1      10.283 -14.416  10.580  1.00  0.00     0.167 HD
ATOM     27  C   UNL     1      13.005 -14.766   7.132  1.00  0.00     0.034 A 
ATOM     28  C   UNL     1       9.420 -14.901  13.202  1.00  0.00     0.034 A 
ATOM     29  C   UNL     1      13.720 -15.284   8.275  1.00  0.00     0.049 A 
ATOM     30  C   UNL     1      10.807 -15.473  13.082  1.00  0.00     0.074 A 
ATOM     31  C   UNL     1      15.032 -15.719   8.341  1.00  0.00     0.029 A 
ATOM     32  N   UNL     1      13.180 -15.462   9.543  1.00  0.00    -0.354 N 
ATOM     33  N   UNL     1      11.610 -15.472  12.042  1.00  0.00    -0.248 NA
ATOM     34  C   UNL     1      11.361 -16.124  14.274  1.00  0.00     0.031 C 
ATOM     35  C   UNL     1      15.256 -16.246   9.616  1.00  0.00     0.029 A 
ATOM     36  C   UNL     1      14.114 -16.057  10.377  1.00  0.00     0.049 A 
ATOM     37  H   UNL     1      12.268 -15.203   9.810  1.00  0.00     0.167 HD
ATOM     38  C   UNL     1      12.770 -16.111  12.464  1.00  0.00     0.074 A 
ATOM     39  C   UNL     1      12.576 -16.448  13.859  1.00  0.00     0.031 C 
ATOM     40  C   UNL     1      13.894 -16.402  11.761  1.00  0.00     0.034 A 
BRANCH  27  41
ATOM     41  C   UNL     1      13.696 -14.806   5.792  1.00  0.00     0.023 A 
ATOM     42  C   UNL     1      14.067 -13.638   5.105  1.00  0.00     0.031 A 
ATOM     43  C   UNL     1      14.041 -16.045   5.221  1.00  0.00     0.131 A 
ATOM     44  C   UNL     1      14.737 -13.736   3.874  1.00  0.00     0.055 A 
ATOM     45  C   UNL     1      14.763 -16.135   4.031  1.00  0.00     0.041 A 
ATOM     46  F   UNL     1      13.691 -17.194   5.823  1.00  0.00    -0.206 F 
ATOM     47  C   UNL     1      15.111 -14.975   3.347  1.00  0.00     0.022 A 
BRANCH  44  48
ATOM     48  S   UNL     1      15.039 -12.220   2.924  1.00  0.00     0.124 S 
ATOM     49  O   UNL     1      13.681 -11.720   2.723  1.00  0.00    -0.237 OA
ATOM     50  O   UNL     1      15.878 -11.443   3.828  1.00  0.00    -0.237 OA
ATOM     51  O   UNL     1      15.703 -12.700   1.714  1.00  0.00    -0.744 OA
ENDBRANCH  44  48
ENDBRANCH  27  41
BRANCH  28  52
ATOM     52  C   UNL     1       8.637 -15.039  14.464  1.00  0.00     0.023 A 
ATOM     53  C   UNL     1       9.102 -14.489  15.667  1.00  0.00     0.031 A 
ATOM     54  C   UNL     1       7.447 -15.791  14.501  1.00  0.00     0.131 A 
ATOM     55  C   UNL     1       8.424 -14.759  16.866  1.00  0.00     0.055 A 
ATOM     56  C   UNL     1       6.733 -15.989  15.683  1.00  0.00     0.041 A 
ATOM     57  F   UNL     1       6.956 -16.345  13.381  1.00  0.00    -0.206 F 
ATOM     58  C   UNL     1       7.234 -15.489  16.880  1.00  0.00     0.022 A 
BRANCH  55  59
ATOM     59  S   UNL     1       9.206 -14.266  18.426  1.00  0.00     0.124 S 
ATOM     60  O   UNL     1      10.519 -14.890  18.308  1.00  0.00    -0.237 OA
ATOM     61  O   UNL     1       9.177 -12.810  18.330  1.00  0.00    -0.237 OA
ATOM     62  O   UNL     1       8.328 -14.842  19.442  1.00  0.00    -0.744 OA
ENDBRANCH  55  59
ENDBRANCH  28  52
BRANCH  40  63
ATOM     63  C   UNL     1      14.999 -17.104  12.509  1.00  0.00     0.023 A 
ATOM     64  C   UNL     1      14.841 -18.415  12.990  1.00  0.00     0.031 A 
ATOM     65  C   UNL     1      16.219 -16.449  12.755  1.00  0.00     0.131 A 
ATOM     66  C   UNL     1      15.865 -19.011  13.739  1.00  0.00     0.055 A 
ATOM     67  C   UNL     1      17.260 -17.073  13.442  1.00  0.00     0.041 A 
ATOM     68  F   UNL     1      16.420 -15.193  12.325  1.00  0.00    -0.206 F 
ATOM     69  C   UNL     1      17.081 -18.357  13.950  1.00  0.00     0.022 A 
BRANCH  66  70
ATOM     70  S   UNL     1      15.551 -20.620  14.514  1.00  0.00     0.124 S 
ATOM     71  O   UNL     1      14.423 -20.319  15.389  1.00  0.00    -0.237 OA
ATOM     72  O   UNL     1      15.256 -21.469  13.364  1.00  0.00    -0.237 OA
ATOM     73  O   UNL     1      16.806 -20.921  15.200  1.00  0.00    -0.744 OA
ENDBRANCH  66  70
ENDBRANCH  40  63
ENDBRANCH  14  15
ENDBRANCH   7   9
ENDBRANCH   4   5
ENDBRANCH   3   4
ENDBRANCH   2   3
ENDBRANCH   1   2
BRANCH   1  74
ATOM     74  C   UNL     1       4.328  -5.579   5.227  1.00  0.00     0.021 C 
BRANCH  74  75
ATOM     75  C   UNL     1       4.761  -5.107   3.844  1.00  0.00     0.116 C 
BRANCH  75  76
ATOM     76  N   UNL     1       3.941  -4.001   3.393  1.00  0.00    -0.354 N 
ATOM     77  C   UNL     1       4.104  -2.657   3.336  1.00  0.00     0.249 C 
ATOM     78  H   UNL     1       3.065  -4.293   3.049  1.00  0.00     0.163 HD
ATOM     79  O   UNL     1       3.091  -2.023   3.001  1.00  0.00    -0.272 OA
BRANCH  77  80
ATOM     80  C   UNL     1       5.423  -1.894   3.598  1.00  0.00     0.207 C 
ATOM     81  C   UNL     1       6.676  -2.603   4.054  1.00  0.00     0.045 C 
ATOM     82  O   UNL     1       5.798  -1.239   2.359  1.00  0.00    -0.364 OA
ATOM     83  C   UNL     1       7.273  -3.043   2.736  1.00  0.00     0.037 C 
ATOM     84  C   UNL     1       7.022  -1.823   1.865  1.00  0.00     0.134 C 
BRANCH  84  85
ATOM     85  C   UNL     1       8.137  -0.779   1.978  1.00  0.00     0.130 C 
BRANCH  85  86
ATOM     86  N   UNL     1       9.409  -1.288   1.460  1.00  0.00    -0.213 NA
ATOM     87  H   UNL     1       9.293  -1.418   0.455  1.00  0.00     0.141 HD
BRANCH  86  88
ATOM     88  S   UNL     1      10.784  -0.373   1.681  1.00  0.00     0.214 S 
ATOM     89  O   UNL     1      10.801   0.021   3.078  1.00  0.00    -0.212 OA
ATOM     90  O   UNL     1      11.884  -1.119   1.123  1.00  0.00    -0.212 OA
BRANCH  88  91
ATOM     91  C   UNL     1      10.488   1.088   0.716  1.00  0.00     0.185 C 
BRANCH  91  92
ATOM     92  C   UNL     1      10.181   0.928  -0.771  1.00  0.00     0.134 C 
ATOM     93  C   UNL     1      11.325   1.341  -1.684  1.00  0.00     0.035 C 
ATOM     94  O   UNL     1       9.826  -0.394  -1.181  1.00  0.00    -0.377 OA
ATOM     95  C   UNL     1      12.044   0.043  -1.929  1.00  0.00     0.031 C 
ATOM     96  C   UNL     1      10.913  -0.966  -1.929  1.00  0.00     0.160 C 
ENDBRANCH  91  92
ENDBRANCH  88  91
ENDBRANCH  86  88
ENDBRANCH  85  86
ENDBRANCH  84  85
ENDBRANCH  77  80
ENDBRANCH  75  76
ENDBRANCH  74  75
ENDBRANCH   1  74
TORSDOF 21
