REMARK SMILES C/C(=N/OCc1ccccc1Nc1c(Cl)cccc1Cl)C(=O)NCCCCCCNC(=O)c1ccc(-c2c3nc(c(-c4cc(S(=O)(=O)[O-])ccc4F)c4ccc([nH]4)c(-c4cc(S(=O)(=O)[O-])ccc4F)c4nc(c(-c5cc(S(=O)(=O)[O-])ccc5F)c5ccc2[nH]5)C=C4)C=C3)cc1
REMARK SMILES IDX 25 1 24 2 23 3 21 4 22 5 2 7 1 8 3 9 4 10 5 11 6 12 7 13
REMARK SMILES IDX 11 14 8 15 10 16 9 17 12 18 13 20 14 21 19 22 15 23 16 24
REMARK SMILES IDX 18 25 20 26 17 27 26 28 27 29 28 30 29 31 30 32 31 33 32 35
REMARK SMILES IDX 33 36 34 37 95 38 35 39 94 40 36 41 37 42 38 43 88 44 39 45
REMARK SMILES IDX 93 46 87 47 89 48 40 49 92 50 86 51 85 52 41 54 73 55 53 56
REMARK SMILES IDX 72 57 54 58 57 59 71 60 90 61 55 62 56 63 70 65 91 66 58 67
REMARK SMILES IDX 42 68 43 69 51 70 44 71 50 72 52 73 49 74 45 75 46 76 47 77
REMARK SMILES IDX 48 78 74 79 75 80 83 81 76 82 82 83 84 84 81 85 77 86 78 87
REMARK SMILES IDX 79 88 80 89 59 90 60 91 68 92 61 93 67 94 69 95 66 96 62 97
REMARK SMILES IDX 63 98 64 99 65 100
REMARK H PARENT 23 6 12 19 30 34 89 53 57 64
REMARK Flexibility Score: inf
ROOT
ATOM      1  C   UNL     1      -1.107  -3.968   3.301  1.00  0.00     0.021 C 
ENDROOT
BRANCH   1   2
ATOM      2  C   UNL     1       0.316  -3.396   3.229  1.00  0.00     0.116 C 
BRANCH   2   3
ATOM      3  N   UNL     1       0.768  -3.416   1.857  1.00  0.00    -0.351 N 
ATOM      4  C   UNL     1       0.583  -2.528   0.833  1.00  0.00     0.268 C 
ATOM      5  O   UNL     1       0.838  -2.924  -0.308  1.00  0.00    -0.268 OA
ATOM      6  H   UNL     1       1.304  -4.207   1.618  1.00  0.00     0.163 HD
BRANCH   4   7
ATOM      7  C   UNL     1       0.221  -1.057   0.965  1.00  0.00     0.141 C 
ATOM      8  C   UNL     1       0.942  -0.181  -0.043  1.00  0.00     0.077 C 
ATOM      9  N   UNL     1      -0.617  -0.431   1.740  1.00  0.00    -0.086 NA
BRANCH   9  10
ATOM     10  O   UNL     1      -1.261  -1.197   2.699  1.00  0.00    -0.390 OA
BRANCH  10  11
ATOM     11  C   UNL     1      -1.934  -0.358   3.659  1.00  0.00     0.302 C 
BRANCH  11  12
ATOM     12  C   UNL     1      -1.026   0.404   4.620  1.00  0.00     0.016 A 
ATOM     13  C   UNL     1      -0.961  -0.012   5.965  1.00  0.00     0.009 A 
ATOM     14  C   UNL     1      -0.316   1.565   4.224  1.00  0.00     0.045 A 
ATOM     15  C   UNL     1      -0.257   0.734   6.913  1.00  0.00     0.001 A 
ATOM     16  C   UNL     1       0.336   2.327   5.206  1.00  0.00     0.026 A 
ATOM     17  C   UNL     1       0.376   1.912   6.537  1.00  0.00     0.002 A 
BRANCH  14  18
ATOM     18  N   UNL     1      -0.357   1.985   2.881  1.00  0.00    -0.353 N 
ATOM     19  H   UNL     1      -1.072   1.548   2.363  1.00  0.00     0.167 HD
BRANCH  18  20
ATOM     20  C   UNL     1       0.403   2.897   2.113  1.00  0.00     0.076 A 
ATOM     21  C   UNL     1      -0.273   3.666   1.137  1.00  0.00     0.066 A 
ATOM     22  C   UNL     1       1.810   2.964   2.118  1.00  0.00     0.066 A 
ATOM     23  Cl  UNL     1      -1.994   3.554   0.947  1.00  0.00    -0.082 Cl
ATOM     24  C   UNL     1       0.412   4.511   0.259  1.00  0.00     0.023 A 
ATOM     25  C   UNL     1       2.493   3.827   1.247  1.00  0.00     0.023 A 
ATOM     26  Cl  UNL     1       2.804   1.905   3.063  1.00  0.00    -0.082 Cl
ATOM     27  C   UNL     1       1.797   4.602   0.323  1.00  0.00     0.003 A 
ENDBRANCH  18  20
ENDBRANCH  14  18
ENDBRANCH  11  12
ENDBRANCH  10  11
ENDBRANCH   9  10
ENDBRANCH   4   7
ENDBRANCH   2   3
ENDBRANCH   1   2
BRANCH   1  28
ATOM     28  C   UNL     1      -1.149  -5.496   3.403  1.00  0.00     0.002 C 
BRANCH  28  29
ATOM     29  C   UNL     1      -0.669  -6.049   4.749  1.00  0.00     0.002 C 
BRANCH  29  30
ATOM     30  C   UNL     1      -1.414  -5.510   5.976  1.00  0.00     0.021 C 
BRANCH  30  31
ATOM     31  C   UNL     1      -2.921  -5.760   5.969  1.00  0.00     0.116 C 
BRANCH  31  32
ATOM     32  N   UNL     1      -3.221  -7.182   5.972  1.00  0.00    -0.352 N 
ATOM     33  C   UNL     1      -3.873  -7.937   6.914  1.00  0.00     0.251 C 
ATOM     34  H   UNL     1      -2.910  -7.677   5.180  1.00  0.00     0.163 HD
ATOM     35  O   UNL     1      -3.768  -9.159   6.881  1.00  0.00    -0.269 OA
BRANCH  33  36
ATOM     36  C   UNL     1      -4.692  -7.287   7.962  1.00  0.00     0.039 A 
ATOM     37  C   UNL     1      -4.656  -7.802   9.261  1.00  0.00     0.014 A 
ATOM     38  C   UNL     1      -5.540  -6.216   7.659  1.00  0.00     0.014 A 
ATOM     39  C   UNL     1      -5.440  -7.223  10.260  1.00  0.00     0.010 A 
ATOM     40  C   UNL     1      -6.274  -5.599   8.671  1.00  0.00     0.010 A 
ATOM     41  C   UNL     1      -6.242  -6.104   9.979  1.00  0.00    -0.014 A 
BRANCH  41  42
ATOM     42  C   UNL     1      -7.058  -5.468  11.046  1.00  0.00     0.031 A 
ATOM     43  C   UNL     1      -8.561  -5.514  10.983  1.00  0.00     0.074 A 
ATOM     44  C   UNL     1      -6.440  -4.819  12.053  1.00  0.00     0.049 A 
ATOM     45  N   UNL     1      -9.440  -5.006  11.808  1.00  0.00    -0.248 NA
ATOM     46  C   UNL     1      -9.152  -6.197   9.822  1.00  0.00     0.031 C 
ATOM     47  C   UNL     1      -4.990  -4.666  12.192  1.00  0.00     0.029 A 
ATOM     48  N   UNL     1      -6.949  -4.166  13.146  1.00  0.00    -0.354 N 
ATOM     49  C   UNL     1     -10.687  -5.299  11.265  1.00  0.00     0.074 A 
ATOM     50  C   UNL     1     -10.445  -5.977  10.009  1.00  0.00     0.031 C 
ATOM     51  C   UNL     1      -4.727  -3.986  13.319  1.00  0.00     0.029 A 
ATOM     52  C   UNL     1      -5.985  -3.626  13.965  1.00  0.00     0.049 A 
ATOM     53  H   UNL     1      -7.914  -4.090  13.327  1.00  0.00     0.167 HD
ATOM     54  C   UNL     1     -11.918  -5.045  11.777  1.00  0.00     0.034 A 
ATOM     55  C   UNL     1      -6.102  -2.919  15.106  1.00  0.00     0.034 A 
ATOM     56  C   UNL     1     -12.140  -4.378  13.038  1.00  0.00     0.049 A 
ATOM     57  C   UNL     1      -7.479  -2.659  15.660  1.00  0.00     0.074 A 
ATOM     58  C   UNL     1     -13.339  -4.120  13.680  1.00  0.00     0.029 A 
ATOM     59  N   UNL     1     -11.139  -3.856  13.848  1.00  0.00    -0.354 N 
ATOM     60  N   UNL     1      -8.647  -2.997  15.164  1.00  0.00    -0.248 NA
ATOM     61  C   UNL     1      -7.550  -1.938  16.937  1.00  0.00     0.031 C 
ATOM     62  C   UNL     1     -13.068  -3.392  14.844  1.00  0.00     0.029 A 
ATOM     63  C   UNL     1     -11.695  -3.255  14.968  1.00  0.00     0.049 A 
ATOM     64  H   UNL     1     -10.175  -3.906  13.656  1.00  0.00     0.167 HD
ATOM     65  C   UNL     1      -9.592  -2.549  16.084  1.00  0.00     0.074 A 
ATOM     66  C   UNL     1      -8.854  -1.941  17.172  1.00  0.00     0.031 C 
ATOM     67  C   UNL     1     -10.946  -2.634  16.035  1.00  0.00     0.034 A 
BRANCH  54  68
ATOM     68  C   UNL     1     -13.113  -5.470  10.956  1.00  0.00     0.023 A 
ATOM     69  C   UNL     1     -13.366  -6.822  10.662  1.00  0.00     0.031 A 
ATOM     70  C   UNL     1     -14.000  -4.509  10.438  1.00  0.00     0.131 A 
ATOM     71  C   UNL     1     -14.430  -7.169   9.816  1.00  0.00     0.055 A 
ATOM     72  C   UNL     1     -15.104  -4.868   9.661  1.00  0.00     0.041 A 
ATOM     73  F   UNL     1     -13.802  -3.201  10.668  1.00  0.00    -0.206 F 
ATOM     74  C   UNL     1     -15.316  -6.204   9.333  1.00  0.00     0.022 A 
BRANCH  71  75
ATOM     75  S   UNL     1     -14.558  -8.886   9.243  1.00  0.00     0.124 S 
ATOM     76  O   UNL     1     -13.282  -9.063   8.555  1.00  0.00    -0.237 OA
ATOM     77  O   UNL     1     -14.720  -9.623  10.491  1.00  0.00    -0.237 OA
ATOM     78  O   UNL     1     -15.731  -8.870   8.371  1.00  0.00    -0.744 OA
ENDBRANCH  71  75
ENDBRANCH  54  68
BRANCH  55  79
ATOM     79  C   UNL     1      -4.889  -2.409  15.806  1.00  0.00     0.023 A 
ATOM     80  C   UNL     1      -4.532  -2.885  17.077  1.00  0.00     0.031 A 
ATOM     81  C   UNL     1      -4.088  -1.410  15.226  1.00  0.00     0.131 A 
ATOM     82  C   UNL     1      -3.433  -2.328  17.749  1.00  0.00     0.055 A 
ATOM     83  C   UNL     1      -2.967  -0.894  15.877  1.00  0.00     0.041 A 
ATOM     84  F   UNL     1      -4.380  -0.928  14.007  1.00  0.00    -0.206 F 
ATOM     85  C   UNL     1      -2.642  -1.344  17.153  1.00  0.00     0.022 A 
BRANCH  82  86
ATOM     86  S   UNL     1      -3.100  -2.854  19.453  1.00  0.00     0.124 S 
ATOM     87  O   UNL     1      -4.359  -2.535  20.116  1.00  0.00    -0.237 OA
ATOM     88  O   UNL     1      -2.807  -4.273  19.278  1.00  0.00    -0.237 OA
ATOM     89  O   UNL     1      -1.960  -2.029  19.846  1.00  0.00    -0.744 OA
ENDBRANCH  82  86
ENDBRANCH  55  79
BRANCH  67  90
ATOM     90  C   UNL     1     -11.702  -2.076  17.216  1.00  0.00     0.023 A 
ATOM     91  C   UNL     1     -11.700  -0.701  17.511  1.00  0.00     0.031 A 
ATOM     92  C   UNL     1     -12.403  -2.937  18.080  1.00  0.00     0.131 A 
ATOM     93  C   UNL     1     -12.326  -0.235  18.676  1.00  0.00     0.055 A 
ATOM     94  C   UNL     1     -13.078  -2.458  19.204  1.00  0.00     0.041 A 
ATOM     95  F   UNL     1     -12.438  -4.258  17.848  1.00  0.00    -0.206 F 
ATOM     96  C   UNL     1     -13.027  -1.103  19.517  1.00  0.00     0.022 A 
BRANCH  93  97
ATOM     97  S   UNL     1     -12.116   1.506  19.139  1.00  0.00     0.124 S 
ATOM     98  O   UNL     1     -10.663   1.630  19.205  1.00  0.00    -0.237 OA
ATOM     99  O   UNL     1     -12.764   2.203  18.032  1.00  0.00    -0.237 OA
ATOM    100  O   UNL     1     -12.806   1.606  20.423  1.00  0.00    -0.744 OA
ENDBRANCH  93  97
ENDBRANCH  67  90
ENDBRANCH  41  42
ENDBRANCH  33  36
ENDBRANCH  31  32
ENDBRANCH  30  31
ENDBRANCH  29  30
ENDBRANCH  28  29
ENDBRANCH   1  28
TORSDOF 21
