REMARK SMILES CCOc1ccc(C(=O)NCC(=O)NCCCCCCNC(=O)c2ccc(-c3c4nc(c(-c5cc(S(=O)(=O)[O-])ccc5F)c5ccc([nH]5)c(-c5cc(S(=O)(=O)[O-])ccc5F)c5nc(c(-c6cc(S(=O)(=O)[O-])ccc6F)c6ccc3[nH]6)C=C5)C=C4)cc2)c2ccccc12
REMARK SMILES IDX 17 1 16 2 15 3 14 4 12 5 13 6 11 8 10 9 8 10 9 11 7 13 4 14
REMARK SMILES IDX 5 15 92 16 6 17 87 18 91 19 88 20 90 21 89 22 3 23 2 24 1 25
REMARK SMILES IDX 18 26 19 27 20 28 21 29 22 30 23 32 24 33 25 34 86 35 26 36
REMARK SMILES IDX 85 37 27 38 28 39 29 40 79 41 30 42 84 43 78 44 80 45 31 46
REMARK SMILES IDX 83 47 77 48 76 49 32 51 64 52 44 53 63 54 45 55 48 56 62 57
REMARK SMILES IDX 81 58 46 59 47 60 61 62 82 63 49 64 33 65 34 66 42 67 35 68
REMARK SMILES IDX 41 69 43 70 40 71 36 72 37 73 38 74 39 75 65 76 66 77 74 78
REMARK SMILES IDX 67 79 73 80 75 81 72 82 68 83 69 84 70 85 71 86 50 87 51 88
REMARK SMILES IDX 59 89 52 90 58 91 60 92 57 93 53 94 54 95 55 96 56 97
REMARK H PARENT 14 7 10 12 21 31 80 50 48 61
REMARK Flexibility Score: inf
ROOT
ATOM      1  C   UNL     1       7.456   5.756  -2.831  1.00  0.00     0.002 C 
ENDROOT
BRANCH   1   2
ATOM      2  C   UNL     1       7.308   5.036  -1.489  1.00  0.00     0.021 C 
BRANCH   2   3
ATOM      3  C   UNL     1       6.451   3.779  -1.550  1.00  0.00     0.116 C 
BRANCH   3   4
ATOM      4  N   UNL     1       7.107   2.675  -2.219  1.00  0.00    -0.355 N 
ATOM      5  C   UNL     1       7.609   1.502  -1.756  1.00  0.00     0.239 C 
ATOM      6  O   UNL     1       7.988   0.692  -2.613  1.00  0.00    -0.273 OA
ATOM      7  H   UNL     1       7.209   2.799  -3.190  1.00  0.00     0.163 HD
BRANCH   5   8
ATOM      8  C   UNL     1       7.602   1.071  -0.277  1.00  0.00     0.216 C 
BRANCH   8   9
ATOM      9  N   UNL     1       7.617   2.049   0.798  1.00  0.00    -0.343 N 
ATOM     10  C   UNL     1       6.718   2.570   1.696  1.00  0.00     0.252 C 
ATOM     11  O   UNL     1       7.267   3.183   2.612  1.00  0.00    -0.269 OA
ATOM     12  H   UNL     1       8.512   2.443   0.913  1.00  0.00     0.164 HD
BRANCH  10  13
ATOM     13  C   UNL     1       5.204   2.478   1.604  1.00  0.00     0.047 A 
ATOM     14  C   UNL     1       2.397   2.252   1.360  1.00  0.00     0.127 A 
ATOM     15  C   UNL     1       3.229   1.645   0.438  1.00  0.00     0.048 A 
ATOM     16  C   UNL     1       2.925   3.082   2.366  1.00  0.00     0.025 A 
ATOM     17  C   UNL     1       4.606   1.740   0.573  1.00  0.00     0.018 A 
ATOM     18  C   UNL     1       4.343   3.220   2.499  1.00  0.00    -0.002 A 
ATOM     19  C   UNL     1       2.057   3.802   3.217  1.00  0.00     0.012 A 
ATOM     20  C   UNL     1       4.778   4.137   3.499  1.00  0.00     0.010 A 
ATOM     21  C   UNL     1       2.537   4.684   4.180  1.00  0.00     0.001 A 
ATOM     22  C   UNL     1       3.900   4.857   4.316  1.00  0.00     0.001 A 
BRANCH  14  23
ATOM     23  O   UNL     1       1.040   2.138   1.177  1.00  0.00    -0.493 OA
BRANCH  23  24
ATOM     24  C   UNL     1       0.544   0.837   1.524  1.00  0.00     0.226 C 
ATOM     25  C   UNL     1       0.485  -0.088   0.317  1.00  0.00     0.049 C 
ENDBRANCH  23  24
ENDBRANCH  14  23
ENDBRANCH  10  13
ENDBRANCH   8   9
ENDBRANCH   5   8
ENDBRANCH   3   4
ENDBRANCH   2   3
ENDBRANCH   1   2
BRANCH   1  26
ATOM     26  C   UNL     1       6.140   6.165  -3.505  1.00  0.00     0.002 C 
BRANCH  26  27
ATOM     27  C   UNL     1       5.195   7.020  -2.653  1.00  0.00     0.021 C 
BRANCH  27  28
ATOM     28  C   UNL     1       5.786   8.330  -2.136  1.00  0.00     0.116 C 
BRANCH  28  29
ATOM     29  N   UNL     1       6.254   9.183  -3.215  1.00  0.00    -0.352 N 
ATOM     30  C   UNL     1       5.997  10.505  -3.477  1.00  0.00     0.251 C 
ATOM     31  H   UNL     1       6.851   8.741  -3.861  1.00  0.00     0.163 HD
ATOM     32  O   UNL     1       6.346  10.975  -4.557  1.00  0.00    -0.269 OA
BRANCH  30  33
ATOM     33  C   UNL     1       5.293  11.356  -2.489  1.00  0.00     0.039 A 
ATOM     34  C   UNL     1       4.365  12.289  -2.960  1.00  0.00     0.014 A 
ATOM     35  C   UNL     1       5.567  11.280  -1.120  1.00  0.00     0.014 A 
ATOM     36  C   UNL     1       3.681  13.107  -2.059  1.00  0.00     0.010 A 
ATOM     37  C   UNL     1       4.833  12.049  -0.216  1.00  0.00     0.010 A 
ATOM     38  C   UNL     1       3.886  12.975  -0.676  1.00  0.00    -0.014 A 
BRANCH  38  39
ATOM     39  C   UNL     1       3.097  13.796   0.281  1.00  0.00     0.031 A 
ATOM     40  C   UNL     1       3.769  14.823   1.153  1.00  0.00     0.074 A 
ATOM     41  C   UNL     1       1.768  13.594   0.379  1.00  0.00     0.049 A 
ATOM     42  N   UNL     1       3.237  15.649   2.018  1.00  0.00    -0.248 NA
ATOM     43  C   UNL     1       5.233  14.915   1.058  1.00  0.00     0.031 C 
ATOM     44  C   UNL     1       1.014  12.584  -0.368  1.00  0.00     0.029 A 
ATOM     45  N   UNL     1       0.815  14.225   1.137  1.00  0.00    -0.354 N 
ATOM     46  C   UNL     1       4.298  16.356   2.575  1.00  0.00     0.074 A 
ATOM     47  C   UNL     1       5.508  15.814   1.992  1.00  0.00     0.031 C 
ATOM     48  C   UNL     1      -0.288  12.689  -0.058  1.00  0.00     0.029 A 
ATOM     49  C   UNL     1      -0.459  13.747   0.932  1.00  0.00     0.049 A 
ATOM     50  H   UNL     1       1.022  14.952   1.768  1.00  0.00     0.167 HD
ATOM     51  C   UNL     1       4.265  17.377   3.469  1.00  0.00     0.034 A 
ATOM     52  C   UNL     1      -1.634  14.120   1.477  1.00  0.00     0.034 A 
ATOM     53  C   UNL     1       3.046  17.907   4.036  1.00  0.00     0.049 A 
ATOM     54  C   UNL     1      -1.647  15.261   2.460  1.00  0.00     0.074 A 
ATOM     55  C   UNL     1       2.891  18.978   4.900  1.00  0.00     0.029 A 
ATOM     56  N   UNL     1       1.773  17.399   3.807  1.00  0.00    -0.354 N 
ATOM     57  N   UNL     1      -0.641  15.971   2.919  1.00  0.00    -0.248 NA
ATOM     58  C   UNL     1      -2.958  15.663   2.983  1.00  0.00     0.031 C 
ATOM     59  C   UNL     1       1.538  19.073   5.247  1.00  0.00     0.029 A 
ATOM     60  C   UNL     1       0.833  18.113   4.539  1.00  0.00     0.049 A 
ATOM     61  H   UNL     1       1.567  16.643   3.211  1.00  0.00     0.167 HD
ATOM     62  C   UNL     1      -1.203  16.917   3.771  1.00  0.00     0.074 A 
ATOM     63  C   UNL     1      -2.636  16.706   3.734  1.00  0.00     0.031 C 
ATOM     64  C   UNL     1      -0.592  17.872   4.519  1.00  0.00     0.034 A 
BRANCH  51  65
ATOM     65  C   UNL     1       5.589  17.964   3.903  1.00  0.00     0.023 A 
ATOM     66  C   UNL     1       6.456  18.592   2.990  1.00  0.00     0.031 A 
ATOM     67  C   UNL     1       6.003  17.875   5.244  1.00  0.00     0.131 A 
ATOM     68  C   UNL     1       7.720  19.034   3.411  1.00  0.00     0.055 A 
ATOM     69  C   UNL     1       7.228  18.391   5.674  1.00  0.00     0.041 A 
ATOM     70  F   UNL     1       5.230  17.271   6.160  1.00  0.00    -0.206 F 
ATOM     71  C   UNL     1       8.102  18.961   4.752  1.00  0.00     0.022 A 
BRANCH  68  72
ATOM     72  S   UNL     1       8.913  19.572   2.155  1.00  0.00     0.124 S 
ATOM     73  O   UNL     1       9.018  18.380   1.317  1.00  0.00    -0.237 OA
ATOM     74  O   UNL     1       8.243  20.719   1.554  1.00  0.00    -0.237 OA
ATOM     75  O   UNL     1      10.111  19.885   2.932  1.00  0.00    -0.744 OA
ENDBRANCH  68  72
ENDBRANCH  51  65
BRANCH  52  76
ATOM     76  C   UNL     1      -2.894  13.415   1.107  1.00  0.00     0.023 A 
ATOM     77  C   UNL     1      -3.924  14.079   0.423  1.00  0.00     0.031 A 
ATOM     78  C   UNL     1      -3.099  12.070   1.464  1.00  0.00     0.131 A 
ATOM     79  C   UNL     1      -5.131  13.413   0.158  1.00  0.00     0.055 A 
ATOM     80  C   UNL     1      -4.281  11.396   1.152  1.00  0.00     0.041 A 
ATOM     81  F   UNL     1      -2.143  11.387   2.112  1.00  0.00    -0.206 F 
ATOM     82  C   UNL     1      -5.311  12.073   0.506  1.00  0.00     0.022 A 
BRANCH  79  83
ATOM     83  S   UNL     1      -6.497  14.350  -0.582  1.00  0.00     0.124 S 
ATOM     84  O   UNL     1      -6.688  15.418   0.392  1.00  0.00    -0.237 OA
ATOM     85  O   UNL     1      -5.930  14.746  -1.867  1.00  0.00    -0.237 OA
ATOM     86  O   UNL     1      -7.579  13.371  -0.657  1.00  0.00    -0.744 OA
ENDBRANCH  79  83
ENDBRANCH  52  76
BRANCH  64  87
ATOM     87  C   UNL     1      -1.491  18.766   5.340  1.00  0.00     0.023 A 
ATOM     88  C   UNL     1      -2.277  18.255   6.389  1.00  0.00     0.031 A 
ATOM     89  C   UNL     1      -1.604  20.134   5.039  1.00  0.00     0.131 A 
ATOM     90  C   UNL     1      -3.199  19.086   7.043  1.00  0.00     0.055 A 
ATOM     91  C   UNL     1      -2.471  20.973   5.741  1.00  0.00     0.041 A 
ATOM     92  F   UNL     1      -0.881  20.678   4.047  1.00  0.00    -0.206 F 
ATOM     93  C   UNL     1      -3.289  20.446   6.737  1.00  0.00     0.022 A 
BRANCH  90  94
ATOM     94  S   UNL     1      -4.372  18.337   8.207  1.00  0.00     0.124 S 
ATOM     95  O   UNL     1      -5.009  17.316   7.381  1.00  0.00    -0.237 OA
ATOM     96  O   UNL     1      -3.492  17.845   9.262  1.00  0.00    -0.237 OA
ATOM     97  O   UNL     1      -5.235  19.452   8.590  1.00  0.00    -0.744 OA
ENDBRANCH  90  94
ENDBRANCH  64  87
ENDBRANCH  38  39
ENDBRANCH  30  33
ENDBRANCH  28  29
ENDBRANCH  27  28
ENDBRANCH  26  27
ENDBRANCH   1  26
TORSDOF 20
