REMARK SMILES O=C(NCCCCCCNC(=O)c1ccc(-c2c3nc(c(-c4cc(S(=O)(=O)[O-])ccc4F)c4ccc([nH]4)c(-c4cc(S(=O)(=O)[O-])ccc4F)c4nc(c(-c5cc(S(=O)(=O)[O-])ccc5F)c5ccc2[nH]5)C=C4)C=C3)cc1)C1=Cc2cc(Cl)cc(-c3ccc(O)cc3)c2O[C@@H]1C(F)(F)F
REMARK SMILES IDX 7 1 6 2 5 3 4 4 3 5 1 6 2 7 76 9 77 10 93 11 78 12 92 13
REMARK SMILES IDX 79 14 91 15 80 16 83 17 81 18 82 19 94 20 95 21 96 22 97 23
REMARK SMILES IDX 84 24 85 25 90 26 86 27 89 28 87 29 88 30 8 32 9 33 10 34
REMARK SMILES IDX 11 35 12 37 13 38 14 39 75 40 15 41 74 42 16 43 17 44 18 45
REMARK SMILES IDX 68 46 19 47 73 48 67 49 69 50 20 51 72 52 66 53 65 54 21 56
REMARK SMILES IDX 53 57 33 58 52 59 34 60 37 61 51 62 70 63 35 64 36 65 50 67
REMARK SMILES IDX 71 68 38 69 22 70 23 71 31 72 24 73 30 74 32 75 29 76 25 77
REMARK SMILES IDX 26 78 27 79 28 80 54 81 55 82 63 83 56 84 62 85 64 86 61 87
REMARK SMILES IDX 57 88 58 89 59 90 60 91 39 92 40 93 48 94 41 95 47 96 49 97
REMARK SMILES IDX 46 98 42 99 43 100 44 101 45 102
REMARK H PARENT 3 8 88 31 10 36 69 55 37 66
REMARK Flexibility Score: inf
ROOT
ATOM      1  C   UNL     1       4.244  -4.295   2.148  1.00  0.00     0.002 C 
ENDROOT
BRANCH   1   2
ATOM      2  C   UNL     1       3.701  -3.293   3.173  1.00  0.00     0.002 C 
BRANCH   2   3
ATOM      3  C   UNL     1       4.095  -1.826   2.988  1.00  0.00     0.021 C 
BRANCH   3   4
ATOM      4  C   UNL     1       3.832  -1.206   1.616  1.00  0.00     0.116 C 
BRANCH   4   5
ATOM      5  N   UNL     1       2.551  -0.529   1.474  1.00  0.00    -0.352 N 
ATOM      6  O   UNL     1       0.976   0.768   0.536  1.00  0.00    -0.270 OA
ATOM      7  C   UNL     1       2.163   0.445   0.593  1.00  0.00     0.251 C 
ATOM      8  H   UNL     1       1.857  -0.815   2.111  1.00  0.00     0.163 HD
BRANCH   7   9
ATOM      9  C   UNL     1       3.107   1.076  -0.379  1.00  0.00     0.067 C 
ATOM     10  C   UNL     1       4.367   1.389  -0.037  1.00  0.00     0.025 C 
ATOM     11  C   UNL     1       2.838   0.655  -1.804  1.00  0.00     0.314 C 
ATOM     12  C   UNL     1       5.375   0.522  -0.691  1.00  0.00     0.019 A 
ATOM     13  O   UNL     1       3.712  -0.432  -2.198  1.00  0.00    -0.475 OA
ATOM     14  C   UNL     1       6.646   0.461  -0.110  1.00  0.00     0.032 A 
ATOM     15  C   UNL     1       4.963  -0.454  -1.623  1.00  0.00     0.135 A 
ATOM     16  C   UNL     1       7.470  -0.621  -0.393  1.00  0.00     0.042 A 
ATOM     17  C   UNL     1       5.774  -1.577  -1.869  1.00  0.00     0.026 A 
ATOM     18  Cl  UNL     1       8.956  -0.797   0.456  1.00  0.00    -0.084 Cl
ATOM     19  C   UNL     1       7.040  -1.633  -1.250  1.00  0.00     0.033 A 
BRANCH  11  20
ATOM     20  C   UNL     1       2.910   1.853  -2.771  1.00  0.00     0.429 C 
ATOM     21  F   UNL     1       2.546   1.503  -4.027  1.00  0.00    -0.167 F 
ATOM     22  F   UNL     1       2.074   2.850  -2.386  1.00  0.00    -0.167 F 
ATOM     23  F   UNL     1       4.150   2.392  -2.850  1.00  0.00    -0.167 F 
ENDBRANCH  11  20
BRANCH  17  24
ATOM     24  C   UNL     1       5.261  -2.788  -2.533  1.00  0.00    -0.014 A 
ATOM     25  C   UNL     1       4.950  -3.907  -1.741  1.00  0.00     0.012 A 
ATOM     26  C   UNL     1       5.082  -2.894  -3.914  1.00  0.00     0.012 A 
ATOM     27  C   UNL     1       4.515  -5.107  -2.294  1.00  0.00     0.047 A 
ATOM     28  C   UNL     1       4.643  -4.099  -4.482  1.00  0.00     0.047 A 
ATOM     29  C   UNL     1       4.375  -5.198  -3.667  1.00  0.00     0.115 A 
BRANCH  29  30
ATOM     30  O   UNL     1       3.972  -6.394  -4.180  1.00  0.00    -0.508 OA
ATOM     31  H   UNL     1       3.800  -7.115  -3.607  1.00  0.00     0.293 HD
ENDBRANCH  29  30
ENDBRANCH  17  24
ENDBRANCH   7   9
ENDBRANCH   4   5
ENDBRANCH   3   4
ENDBRANCH   2   3
ENDBRANCH   1   2
BRANCH   1  32
ATOM     32  C   UNL     1       5.744  -4.226   1.841  1.00  0.00     0.021 C 
BRANCH  32  33
ATOM     33  C   UNL     1       6.684  -4.564   2.990  1.00  0.00     0.116 C 
BRANCH  33  34
ATOM     34  N   UNL     1       6.570  -5.957   3.388  1.00  0.00    -0.352 N 
ATOM     35  C   UNL     1       7.508  -6.961   3.424  1.00  0.00     0.251 C 
ATOM     36  H   UNL     1       5.670  -6.226   3.680  1.00  0.00     0.163 HD
ATOM     37  O   UNL     1       7.120  -8.117   3.572  1.00  0.00    -0.269 OA
BRANCH  35  38
ATOM     38  C   UNL     1       8.960  -6.682   3.279  1.00  0.00     0.039 A 
ATOM     39  C   UNL     1       9.771  -7.652   2.675  1.00  0.00     0.014 A 
ATOM     40  C   UNL     1       9.548  -5.523   3.789  1.00  0.00     0.014 A 
ATOM     41  C   UNL     1      11.149  -7.442   2.553  1.00  0.00     0.010 A 
ATOM     42  C   UNL     1      10.906  -5.275   3.588  1.00  0.00     0.010 A 
ATOM     43  C   UNL     1      11.727  -6.239   2.987  1.00  0.00    -0.014 A 
BRANCH  43  44
ATOM     44  C   UNL     1      13.190  -5.991   2.865  1.00  0.00     0.031 A 
ATOM     45  C   UNL     1      14.025  -5.794   4.104  1.00  0.00     0.074 A 
ATOM     46  C   UNL     1      13.755  -5.887   1.646  1.00  0.00     0.049 A 
ATOM     47  N   UNL     1      15.291  -5.476   4.212  1.00  0.00    -0.248 NA
ATOM     48  C   UNL     1      13.334  -5.941   5.394  1.00  0.00     0.031 C 
ATOM     49  C   UNL     1      13.045  -6.024   0.372  1.00  0.00     0.029 A 
ATOM     50  N   UNL     1      15.052  -5.634   1.275  1.00  0.00    -0.354 N 
ATOM     51  C   UNL     1      15.540  -5.364   5.577  1.00  0.00     0.074 A 
ATOM     52  C   UNL     1      14.279  -5.586   6.250  1.00  0.00     0.031 C 
ATOM     53  C   UNL     1      13.919  -5.877  -0.637  1.00  0.00     0.029 A 
ATOM     54  C   UNL     1      15.240  -5.588  -0.087  1.00  0.00     0.049 A 
ATOM     55  H   UNL     1      15.780  -5.497   1.924  1.00  0.00     0.167 HD
ATOM     56  C   UNL     1      16.716  -5.122   6.210  1.00  0.00     0.034 A 
ATOM     57  C   UNL     1      16.347  -5.330  -0.812  1.00  0.00     0.034 A 
ATOM     58  C   UNL     1      17.969  -4.925   5.521  1.00  0.00     0.049 A 
ATOM     59  C   UNL     1      17.640  -5.051  -0.088  1.00  0.00     0.074 A 
ATOM     60  C   UNL     1      19.229  -4.730   6.060  1.00  0.00     0.029 A 
ATOM     61  N   UNL     1      18.120  -4.894   4.140  1.00  0.00    -0.354 N 
ATOM     62  N   UNL     1      17.868  -4.990   1.204  1.00  0.00    -0.248 NA
ATOM     63  C   UNL     1      18.827  -4.816  -0.920  1.00  0.00     0.031 C 
ATOM     64  C   UNL     1      20.128  -4.516   5.009  1.00  0.00     0.029 A 
ATOM     65  C   UNL     1      19.446  -4.654   3.810  1.00  0.00     0.049 A 
ATOM     66  H   UNL     1      17.392  -5.023   3.490  1.00  0.00     0.167 HD
ATOM     67  C   UNL     1      19.231  -4.741   1.337  1.00  0.00     0.074 A 
ATOM     68  C   UNL     1      19.774  -4.678  -0.004  1.00  0.00     0.031 C 
ATOM     69  C   UNL     1      19.969  -4.582   2.466  1.00  0.00     0.034 A 
BRANCH  56  70
ATOM     70  C   UNL     1      16.689  -5.034   7.719  1.00  0.00     0.023 A 
ATOM     71  C   UNL     1      16.304  -6.126   8.518  1.00  0.00     0.031 A 
ATOM     72  C   UNL     1      17.021  -3.833   8.370  1.00  0.00     0.131 A 
ATOM     73  C   UNL     1      16.178  -5.971   9.907  1.00  0.00     0.055 A 
ATOM     74  C   UNL     1      16.978  -3.710   9.761  1.00  0.00     0.041 A 
ATOM     75  F   UNL     1      17.378  -2.748   7.664  1.00  0.00    -0.206 F 
ATOM     76  C   UNL     1      16.538  -4.778  10.537  1.00  0.00     0.022 A 
BRANCH  73  77
ATOM     77  S   UNL     1      15.390  -7.300  10.858  1.00  0.00     0.124 S 
ATOM     78  O   UNL     1      14.080  -7.383  10.218  1.00  0.00    -0.237 OA
ATOM     79  O   UNL     1      16.287  -8.426  10.630  1.00  0.00    -0.237 OA
ATOM     80  O   UNL     1      15.375  -6.779  12.225  1.00  0.00    -0.744 OA
ENDBRANCH  73  77
ENDBRANCH  56  70
BRANCH  57  81
ATOM     81  C   UNL     1      16.288  -5.314  -2.302  1.00  0.00     0.023 A 
ATOM     82  C   UNL     1      16.994  -6.258  -3.064  1.00  0.00     0.031 A 
ATOM     83  C   UNL     1      15.550  -4.332  -2.987  1.00  0.00     0.131 A 
ATOM     84  C   UNL     1      16.983  -6.175  -4.466  1.00  0.00     0.055 A 
ATOM     85  C   UNL     1      15.500  -4.286  -4.381  1.00  0.00     0.041 A 
ATOM     86  F   UNL     1      14.852  -3.409  -2.307  1.00  0.00    -0.206 F 
ATOM     87  C   UNL     1      16.231  -5.203  -5.129  1.00  0.00     0.022 A 
BRANCH  84  88
ATOM     88  S   UNL     1      18.037  -7.309  -5.411  1.00  0.00     0.124 S 
ATOM     89  O   UNL     1      19.358  -7.007  -4.873  1.00  0.00    -0.237 OA
ATOM     90  O   UNL     1      17.479  -8.609  -5.053  1.00  0.00    -0.237 OA
ATOM     91  O   UNL     1      17.818  -6.901  -6.797  1.00  0.00    -0.744 OA
ENDBRANCH  84  88
ENDBRANCH  57  81
BRANCH  69  92
ATOM     92  C   UNL     1      21.453  -4.370   2.289  1.00  0.00     0.023 A 
ATOM     93  C   UNL     1      21.969  -3.204   1.697  1.00  0.00     0.031 A 
ATOM     94  C   UNL     1      22.362  -5.357   2.710  1.00  0.00     0.131 A 
ATOM     95  C   UNL     1      23.351  -3.079   1.491  1.00  0.00     0.055 A 
ATOM     96  C   UNL     1      23.740  -5.200   2.558  1.00  0.00     0.041 A 
ATOM     97  F   UNL     1      21.924  -6.492   3.279  1.00  0.00    -0.206 F 
ATOM     98  C   UNL     1      24.241  -4.062   1.933  1.00  0.00     0.022 A 
BRANCH  95  99
ATOM     99  S   UNL     1      23.966  -1.654   0.552  1.00  0.00     0.124 S 
ATOM    100  O   UNL     1      23.265  -1.803  -0.719  1.00  0.00    -0.237 OA
ATOM    101  O   UNL     1      23.549  -0.529   1.383  1.00  0.00    -0.237 OA
ATOM    102  O   UNL     1      25.410  -1.879   0.494  1.00  0.00    -0.744 OA
ENDBRANCH  95  99
ENDBRANCH  69  92
ENDBRANCH  43  44
ENDBRANCH  35  38
ENDBRANCH  33  34
ENDBRANCH  32  33
ENDBRANCH   1  32
TORSDOF 19
