REMARK SMILES Cc1ccc(-c2cc(Cl)ccc2Cl)c(C(=O)NCCCCCCNC(=O)c2ccc(-c3c4nc(c(-c5cc(S(=O)(=O)[O-])ccc5F)c5ccc([nH]5)c(-c5cc(S(=O)(=O)[O-])ccc5F)c5nc(c(-c6cc(S(=O)(=O)[O-])ccc6F)c6ccc3[nH]6)C=C5)C=C4)cc2)c1
REMARK SMILES IDX 21 1 20 2 19 3 18 4 17 5 15 6 16 7 14 9 1 10 2 11 3 12 90 13
REMARK SMILES IDX 4 14 5 15 6 16 7 17 12 18 8 19 11 20 13 21 9 22 10 23 22 24
REMARK SMILES IDX 23 25 24 26 25 27 26 29 27 30 28 31 89 32 29 33 88 34 30 35
REMARK SMILES IDX 31 36 32 37 82 38 33 39 87 40 81 41 83 42 34 43 86 44 80 45
REMARK SMILES IDX 79 46 35 48 67 49 47 50 66 51 48 52 51 53 65 54 84 55 49 56
REMARK SMILES IDX 50 57 64 59 85 60 52 61 36 62 37 63 45 64 38 65 44 66 46 67
REMARK SMILES IDX 43 68 39 69 40 70 41 71 42 72 68 73 69 74 77 75 70 76 76 77
REMARK SMILES IDX 78 78 75 79 71 80 72 81 73 82 74 83 53 84 54 85 62 86 55 87
REMARK SMILES IDX 61 88 63 89 60 90 56 91 57 92 58 93 59 94
REMARK H PARENT 17 8 24 28 83 47 51 58
REMARK Flexibility Score: inf
ROOT
ATOM      1  C   UNL     1       0.453   6.954   0.390  1.00  0.00     0.002 C 
ENDROOT
BRANCH   1   2
ATOM      2  C   UNL     1       0.323   6.045  -0.843  1.00  0.00     0.002 C 
BRANCH   2   3
ATOM      3  C   UNL     1       0.826   4.603  -0.668  1.00  0.00     0.021 C 
BRANCH   3   4
ATOM      4  C   UNL     1       0.220   3.871   0.532  1.00  0.00     0.116 C 
BRANCH   4   5
ATOM      5  N   UNL     1      -1.151   3.488   0.261  1.00  0.00    -0.352 N 
ATOM      6  C   UNL     1      -1.807   2.319  -0.024  1.00  0.00     0.251 C 
ATOM      7  O   UNL     1      -3.029   2.438  -0.129  1.00  0.00    -0.269 OA
ATOM      8  H   UNL     1      -1.763   4.259   0.286  1.00  0.00     0.163 HD
BRANCH   6   9
ATOM      9  C   UNL     1      -1.150   0.965  -0.151  1.00  0.00     0.047 A 
ATOM     10  C   UNL     1       2.389  -0.475  -0.420  1.00  0.00     0.044 C 
ATOM     11  C   UNL     1       0.895  -0.395  -0.302  1.00  0.00    -0.050 A 
ATOM     12  C   UNL     1       0.145  -1.554  -0.130  1.00  0.00     0.004 A 
ATOM     13  C   UNL     1       0.233   0.841  -0.372  1.00  0.00     0.018 A 
ATOM     14  C   UNL     1      -1.242  -1.473  -0.041  1.00  0.00     0.010 A 
ATOM     15  C   UNL     1      -1.917  -0.230  -0.049  1.00  0.00    -0.004 A 
BRANCH  15  16
ATOM     16  C   UNL     1      -3.397  -0.268  -0.020  1.00  0.00     0.003 A 
ATOM     17  C   UNL     1      -4.108   0.074  -1.191  1.00  0.00     0.030 A 
ATOM     18  C   UNL     1      -4.144  -0.633   1.117  1.00  0.00     0.049 A 
ATOM     19  C   UNL     1      -5.502   0.111  -1.204  1.00  0.00     0.041 A 
ATOM     20  C   UNL     1      -5.545  -0.622   1.089  1.00  0.00     0.023 A 
ATOM     21  Cl  UNL     1      -3.388  -1.107   2.601  1.00  0.00    -0.084 Cl
ATOM     22  Cl  UNL     1      -6.336   0.600  -2.627  1.00  0.00    -0.084 Cl
ATOM     23  C   UNL     1      -6.224  -0.238  -0.068  1.00  0.00     0.022 A 
ENDBRANCH  15  16
ENDBRANCH   6   9
ENDBRANCH   4   5
ENDBRANCH   3   4
ENDBRANCH   2   3
ENDBRANCH   1   2
BRANCH   1  24
ATOM     24  C   UNL     1       1.834   6.996   1.044  1.00  0.00     0.021 C 
BRANCH  24  25
ATOM     25  C   UNL     1       2.896   7.665   0.176  1.00  0.00     0.116 C 
BRANCH  25  26
ATOM     26  N   UNL     1       3.374   8.934   0.715  1.00  0.00    -0.352 N 
ATOM     27  C   UNL     1       4.364   9.768   0.219  1.00  0.00     0.251 C 
ATOM     28  H   UNL     1       2.935   9.239   1.542  1.00  0.00     0.163 HD
ATOM     29  O   UNL     1       4.684  10.795   0.784  1.00  0.00    -0.269 OA
BRANCH  27  30
ATOM     30  C   UNL     1       4.940   9.443  -1.109  1.00  0.00     0.039 A 
ATOM     31  C   UNL     1       4.773  10.393  -2.121  1.00  0.00     0.014 A 
ATOM     32  C   UNL     1       5.381   8.155  -1.405  1.00  0.00     0.014 A 
ATOM     33  C   UNL     1       4.816   9.982  -3.450  1.00  0.00     0.010 A 
ATOM     34  C   UNL     1       5.346   7.729  -2.721  1.00  0.00     0.010 A 
ATOM     35  C   UNL     1       4.990   8.625  -3.735  1.00  0.00    -0.014 A 
BRANCH  35  36
ATOM     36  C   UNL     1       4.620   8.053  -5.026  1.00  0.00     0.031 A 
ATOM     37  C   UNL     1       5.635   7.632  -6.008  1.00  0.00     0.074 A 
ATOM     38  C   UNL     1       3.316   7.935  -5.365  1.00  0.00     0.049 A 
ATOM     39  N   UNL     1       5.458   7.704  -7.285  1.00  0.00    -0.248 NA
ATOM     40  C   UNL     1       6.947   7.122  -5.630  1.00  0.00     0.031 C 
ATOM     41  C   UNL     1       2.762   7.241  -6.525  1.00  0.00     0.029 A 
ATOM     42  N   UNL     1       2.243   8.654  -4.848  1.00  0.00    -0.354 N 
ATOM     43  C   UNL     1       6.480   7.013  -7.883  1.00  0.00     0.074 A 
ATOM     44  C   UNL     1       7.421   6.732  -6.819  1.00  0.00     0.031 C 
ATOM     45  C   UNL     1       1.551   7.751  -6.795  1.00  0.00     0.029 A 
ATOM     46  C   UNL     1       1.329   8.867  -5.895  1.00  0.00     0.049 A 
ATOM     47  H   UNL     1       2.142   8.959  -3.917  1.00  0.00     0.167 HD
ATOM     48  C   UNL     1       6.379   6.624  -9.183  1.00  0.00     0.034 A 
ATOM     49  C   UNL     1       0.963  10.129  -6.260  1.00  0.00     0.034 A 
ATOM     50  C   UNL     1       5.111   7.004  -9.798  1.00  0.00     0.049 A 
ATOM     51  C   UNL     1       1.326  10.498  -7.688  1.00  0.00     0.074 A 
ATOM     52  C   UNL     1       3.950   6.321 -10.125  1.00  0.00     0.029 A 
ATOM     53  N   UNL     1       4.814   8.347  -9.952  1.00  0.00    -0.354 N 
ATOM     54  N   UNL     1       1.937   9.710  -8.530  1.00  0.00    -0.248 NA
ATOM     55  C   UNL     1       1.119  11.837  -8.239  1.00  0.00     0.031 C 
ATOM     56  C   UNL     1       2.961   7.273 -10.502  1.00  0.00     0.029 A 
ATOM     57  C   UNL     1       3.525   8.531 -10.416  1.00  0.00     0.049 A 
ATOM     58  H   UNL     1       5.442   9.079  -9.755  1.00  0.00     0.167 HD
ATOM     59  C   UNL     1       2.289  10.423  -9.652  1.00  0.00     0.074 A 
ATOM     60  C   UNL     1       1.742  11.748  -9.425  1.00  0.00     0.031 C 
ATOM     61  C   UNL     1       3.057   9.889 -10.650  1.00  0.00     0.034 A 
BRANCH  48  62
ATOM     62  C   UNL     1       7.354   5.664  -9.807  1.00  0.00     0.023 A 
ATOM     63  C   UNL     1       6.891   4.677 -10.697  1.00  0.00     0.031 A 
ATOM     64  C   UNL     1       8.737   5.665  -9.549  1.00  0.00     0.131 A 
ATOM     65  C   UNL     1       7.755   3.692 -11.204  1.00  0.00     0.055 A 
ATOM     66  C   UNL     1       9.589   4.653 -10.008  1.00  0.00     0.041 A 
ATOM     67  F   UNL     1       9.314   6.658  -8.852  1.00  0.00    -0.206 F 
ATOM     68  C   UNL     1       9.095   3.649 -10.829  1.00  0.00     0.022 A 
BRANCH  65  69
ATOM     69  S   UNL     1       7.093   2.462 -12.360  1.00  0.00     0.124 S 
ATOM     70  O   UNL     1       5.992   1.881 -11.598  1.00  0.00    -0.237 OA
ATOM     71  O   UNL     1       6.721   3.285 -13.505  1.00  0.00    -0.237 OA
ATOM     72  O   UNL     1       8.226   1.565 -12.585  1.00  0.00    -0.744 OA
ENDBRANCH  65  69
ENDBRANCH  48  62
BRANCH  49  73
ATOM     73  C   UNL     1       0.918  11.076  -5.107  1.00  0.00     0.023 A 
ATOM     74  C   UNL     1       0.033  10.776  -4.048  1.00  0.00     0.031 A 
ATOM     75  C   UNL     1       1.937  12.007  -4.867  1.00  0.00     0.131 A 
ATOM     76  C   UNL     1       0.265  11.292  -2.765  1.00  0.00     0.055 A 
ATOM     77  C   UNL     1       2.129  12.564  -3.597  1.00  0.00     0.041 A 
ATOM     78  F   UNL     1       2.836  12.300  -5.817  1.00  0.00    -0.206 F 
ATOM     79  C   UNL     1       1.319  12.175  -2.531  1.00  0.00     0.022 A 
BRANCH  76  80
ATOM     80  S   UNL     1      -0.652  10.609  -1.353  1.00  0.00     0.124 S 
ATOM     81  O   UNL     1      -1.736  11.572  -1.197  1.00  0.00    -0.237 OA
ATOM     82  O   UNL     1      -1.043   9.283  -1.826  1.00  0.00    -0.237 OA
ATOM     83  O   UNL     1       0.345  10.599  -0.284  1.00  0.00    -0.744 OA
ENDBRANCH  76  80
ENDBRANCH  49  73
BRANCH  61  84
ATOM     84  C   UNL     1       3.480  10.619 -11.910  1.00  0.00     0.023 A 
ATOM     85  C   UNL     1       2.702  11.625 -12.503  1.00  0.00     0.031 A 
ATOM     86  C   UNL     1       4.665  10.272 -12.606  1.00  0.00     0.131 A 
ATOM     87  C   UNL     1       3.146  12.302 -13.657  1.00  0.00     0.055 A 
ATOM     88  C   UNL     1       5.068  10.896 -13.790  1.00  0.00     0.041 A 
ATOM     89  F   UNL     1       5.503   9.327 -12.159  1.00  0.00    -0.206 F 
ATOM     90  C   UNL     1       4.317  11.933 -14.314  1.00  0.00     0.022 A 
BRANCH  87  91
ATOM     91  S   UNL     1       2.188  13.719 -14.254  1.00  0.00     0.124 S 
ATOM     92  O   UNL     1       0.856  13.151 -14.426  1.00  0.00    -0.237 OA
ATOM     93  O   UNL     1       2.338  14.665 -13.151  1.00  0.00    -0.237 OA
ATOM     94  O   UNL     1       2.867  14.099 -15.491  1.00  0.00    -0.744 OA
ENDBRANCH  87  91
ENDBRANCH  61  84
ENDBRANCH  35  36
ENDBRANCH  27  30
ENDBRANCH  25  26
ENDBRANCH  24  25
ENDBRANCH   1  24
TORSDOF 17
