REMARK SMILES Cc1nc2sc3c(c2c2nc(CCC(=O)NCCCCCCNC(=O)c4ccc(-c5c6nc(c(-c7cc(S(=O)(=O)[O-])ccc7F)c7ccc([nH]7)c(-c7cc(S(=O)(=O)[O-])ccc7F)c7nc(c(-c8cc(S(=O)(=O)[O-])ccc8F)c8ccc5[nH]8)C=C7)C=C6)cc4)nn12)[C@@H](C)CCC3
REMARK SMILES IDX 20 1 19 2 18 3 17 4 16 5 14 6 15 7 13 9 12 10 11 11 1 12
REMARK SMILES IDX 2 13 3 14 90 15 4 16 9 17 89 18 5 19 8 20 10 21 6 22 7 23
REMARK SMILES IDX 95 24 91 25 94 26 92 27 93 28 21 29 22 30 23 31 24 32 25 34
REMARK SMILES IDX 26 35 27 36 88 37 28 38 87 39 29 40 30 41 31 42 81 43 32 44
REMARK SMILES IDX 86 45 80 46 82 47 33 48 85 49 79 50 78 51 34 53 66 54 46 55
REMARK SMILES IDX 65 56 47 57 50 58 64 59 83 60 48 61 49 62 63 64 84 65 51 66
REMARK SMILES IDX 35 67 36 68 44 69 37 70 43 71 45 72 42 73 38 74 39 75 40 76
REMARK SMILES IDX 41 77 67 78 68 79 76 80 69 81 75 82 77 83 74 84 70 85 71 86
REMARK SMILES IDX 72 87 73 88 52 89 53 90 61 91 54 92 60 93 62 94 59 95 55 96
REMARK SMILES IDX 56 97 57 98 58 99
REMARK H PARENT 16 8 23 33 82 52 50 63
REMARK Flexibility Score: inf
ROOT
ATOM      1  C   UNL     1       1.642   2.102  -5.545  1.00  0.00     0.002 C 
ENDROOT
BRANCH   1   2
ATOM      2  C   UNL     1       1.606   3.276  -4.603  1.00  0.00     0.002 C 
BRANCH   2   3
ATOM      3  C   UNL     1       2.490   3.066  -3.387  1.00  0.00     0.021 C 
BRANCH   3   4
ATOM      4  C   UNL     1       3.649   4.031  -3.426  1.00  0.00     0.116 C 
BRANCH   4   5
ATOM      5  N   UNL     1       3.135   5.391  -3.550  1.00  0.00    -0.356 N 
ATOM      6  C   UNL     1       2.185   5.993  -2.756  1.00  0.00     0.220 C 
ATOM      7  O   UNL     1       1.565   6.952  -3.214  1.00  0.00    -0.275 OA
ATOM      8  H   UNL     1       3.508   5.938  -4.279  1.00  0.00     0.163 HD
BRANCH   6   9
ATOM      9  C   UNL     1       2.029   5.543  -1.307  1.00  0.00     0.108 C 
BRANCH   9  10
ATOM     10  C   UNL     1       0.621   5.126  -0.811  1.00  0.00     0.089 C 
BRANCH  10  11
ATOM     11  C   UNL     1       0.101   3.755  -1.201  1.00  0.00     0.152 A 
ATOM     12  C   UNL     1       1.062  -0.087   0.036  1.00  0.00     0.090 C 
ATOM     13  C   UNL     1       0.454   0.279  -1.298  1.00  0.00     0.131 A 
ATOM     14  N   UNL     1       0.416  -0.625  -2.253  1.00  0.00    -0.222 NA
ATOM     15  N   UNL     1       0.049   1.645  -1.423  1.00  0.00    -0.199 N 
ATOM     16  C   UNL     1       0.006  -0.153  -3.467  1.00  0.00     0.129 A 
ATOM     17  C   UNL     1      -0.523   2.238  -2.554  1.00  0.00     0.168 A 
ATOM     18  N   UNL     1       0.454   2.627  -0.553  1.00  0.00    -0.150 NA
ATOM     19  S   UNL     1       0.400  -1.405  -5.368  1.00  0.00    -0.120 S 
ATOM     20  C   UNL     1      -0.558   1.431  -3.838  1.00  0.00     0.060 A 
ATOM     21  N   UNL     1      -0.608   3.540  -2.371  1.00  0.00    -0.211 NA
ATOM     22  C   UNL     1      -0.274   0.414  -6.692  1.00  0.00     0.011 A 
ATOM     23  C   UNL     1      -0.750   1.811  -5.707  1.00  0.00    -0.018 A 
ATOM     24  C   UNL     1      -0.549   0.297  -8.163  1.00  0.00     0.047 C 
ATOM     25  C   UNL     1      -1.256   3.065  -6.502  1.00  0.00     0.018 C 
ATOM     26  C   UNL     1      -1.664   1.347  -8.462  1.00  0.00     0.006 C 
ATOM     27  C   UNL     1      -0.484   4.400  -6.439  1.00  0.00     0.013 C 
ATOM     28  C   UNL     1      -1.228   2.752  -8.044  1.00  0.00     0.008 C 
ENDBRANCH  10  11
ENDBRANCH   9  10
ENDBRANCH   6   9
ENDBRANCH   4   5
ENDBRANCH   3   4
ENDBRANCH   2   3
ENDBRANCH   1   2
BRANCH   1  29
ATOM     29  C   UNL     1       0.841   0.686  -5.128  1.00  0.00     0.021 C 
BRANCH  29  30
ATOM     30  C   UNL     1      -1.245  -0.053  -5.080  1.00  0.00     0.116 C 
BRANCH  30  31
ATOM     31  N   UNL     1      -2.017  -1.052  -6.273  1.00  0.00    -0.352 N 
ATOM     32  C   UNL     1      -2.399  -2.388  -6.268  1.00  0.00     0.251 C 
ATOM     33  H   UNL     1      -2.224  -0.581  -7.113  1.00  0.00     0.163 HD
ATOM     34  O   UNL     1      -2.269  -3.127  -7.234  1.00  0.00    -0.269 OA
BRANCH  32  35
ATOM     35  C   UNL     1      -3.162  -2.786  -5.093  1.00  0.00     0.039 A 
ATOM     36  C   UNL     1      -3.280  -4.068  -4.559  1.00  0.00     0.014 A 
ATOM     37  C   UNL     1      -3.794  -1.712  -4.498  1.00  0.00     0.014 A 
ATOM     38  C   UNL     1      -4.051  -4.187  -3.403  1.00  0.00     0.010 A 
ATOM     39  C   UNL     1      -3.938  -1.822  -3.178  1.00  0.00     0.010 A 
ATOM     40  C   UNL     1      -4.438  -3.009  -2.744  1.00  0.00    -0.014 A 
BRANCH  40  41
ATOM     41  C   UNL     1      -5.004  -2.874  -1.424  1.00  0.00     0.031 A 
ATOM     42  C   UNL     1      -4.242  -3.703  -0.481  1.00  0.00     0.074 A 
ATOM     43  C   UNL     1      -5.952  -1.951  -1.117  1.00  0.00     0.049 A 
ATOM     44  N   UNL     1      -4.514  -4.940  -0.251  1.00  0.00    -0.248 NA
ATOM     45  C   UNL     1      -2.886  -3.313  -0.053  1.00  0.00     0.031 C 
ATOM     46  C   UNL     1      -6.626  -0.947  -1.956  1.00  0.00     0.029 A 
ATOM     47  N   UNL     1      -6.540  -1.741   0.094  1.00  0.00    -0.354 N 
ATOM     48  C   UNL     1      -3.580  -5.345   0.675  1.00  0.00     0.074 A 
ATOM     49  C   UNL     1      -2.469  -4.447   0.523  1.00  0.00     0.031 C 
ATOM     50  C   UNL     1      -7.404  -0.135  -1.192  1.00  0.00     0.029 A 
ATOM     51  C   UNL     1      -7.400  -0.632   0.176  1.00  0.00     0.049 A 
ATOM     52  H   UNL     1      -6.373  -2.330   0.864  1.00  0.00     0.167 HD
ATOM     53  C   UNL     1      -3.995  -6.136   1.698  1.00  0.00     0.034 A 
ATOM     54  C   UNL     1      -8.216  -0.296   1.227  1.00  0.00     0.034 A 
ATOM     55  C   UNL     1      -5.312  -6.684   1.409  1.00  0.00     0.049 A 
ATOM     56  C   UNL     1      -8.416  -1.569   1.977  1.00  0.00     0.074 A 
ATOM     57  C   UNL     1      -5.823  -7.478   0.398  1.00  0.00     0.029 A 
ATOM     58  N   UNL     1      -6.394  -6.005   1.931  1.00  0.00    -0.354 N 
ATOM     59  N   UNL     1      -9.087  -2.571   1.476  1.00  0.00    -0.248 NA
ATOM     60  C   UNL     1      -7.407  -1.915   2.971  1.00  0.00     0.031 C 
ATOM     61  C   UNL     1      -7.077  -6.886   0.053  1.00  0.00     0.029 A 
ATOM     62  C   UNL     1      -7.344  -5.846   0.945  1.00  0.00     0.049 A 
ATOM     63  H   UNL     1      -6.475  -5.686   2.858  1.00  0.00     0.167 HD
ATOM     64  C   UNL     1      -8.309  -3.686   1.746  1.00  0.00     0.074 A 
ATOM     65  C   UNL     1      -7.298  -3.222   2.704  1.00  0.00     0.031 C 
ATOM     66  C   UNL     1      -8.336  -4.782   0.929  1.00  0.00     0.034 A 
BRANCH  53  67
ATOM     67  C   UNL     1      -3.444  -6.051   3.093  1.00  0.00     0.023 A 
ATOM     68  C   UNL     1      -3.896  -7.011   4.010  1.00  0.00     0.031 A 
ATOM     69  C   UNL     1      -2.727  -4.958   3.635  1.00  0.00     0.131 A 
ATOM     70  C   UNL     1      -3.689  -6.840   5.387  1.00  0.00     0.055 A 
ATOM     71  C   UNL     1      -2.484  -4.815   5.001  1.00  0.00     0.041 A 
ATOM     72  F   UNL     1      -2.301  -3.927   2.896  1.00  0.00    -0.206 F 
ATOM     73  C   UNL     1      -2.986  -5.748   5.890  1.00  0.00     0.022 A 
BRANCH  70  74
ATOM     74  S   UNL     1      -4.447  -8.030   6.516  1.00  0.00     0.124 S 
ATOM     75  O   UNL     1      -5.864  -7.867   6.214  1.00  0.00    -0.237 OA
ATOM     76  O   UNL     1      -3.837  -9.284   6.082  1.00  0.00    -0.237 OA
ATOM     77  O   UNL     1      -4.027  -7.560   7.833  1.00  0.00    -0.744 OA
ENDBRANCH  70  74
ENDBRANCH  53  67
BRANCH  54  78
ATOM     78  C   UNL     1      -8.304   1.025   1.950  1.00  0.00     0.023 A 
ATOM     79  C   UNL     1      -9.144   1.206   3.087  1.00  0.00     0.031 A 
ATOM     80  C   UNL     1      -7.364   2.044   1.707  1.00  0.00     0.131 A 
ATOM     81  C   UNL     1      -8.987   2.330   3.939  1.00  0.00     0.055 A 
ATOM     82  C   UNL     1      -7.204   3.144   2.562  1.00  0.00     0.041 A 
ATOM     83  F   UNL     1      -6.510   1.967   0.676  1.00  0.00    -0.206 F 
ATOM     84  C   UNL     1      -8.000   3.282   3.690  1.00  0.00     0.022 A 
BRANCH  81  85
ATOM     85  S   UNL     1      -9.984   2.524   5.463  1.00  0.00     0.124 S 
ATOM     86  O   UNL     1     -11.258   3.002   4.938  1.00  0.00    -0.237 OA
ATOM     87  O   UNL     1      -9.979   1.179   6.026  1.00  0.00    -0.237 OA
ATOM     88  O   UNL     1      -9.231   3.512   6.238  1.00  0.00    -0.744 OA
ENDBRANCH  81  85
ENDBRANCH  54  78
BRANCH  66  89
ATOM     89  C   UNL     1      -9.426  -4.857  -0.133  1.00  0.00     0.023 A 
ATOM     90  C   UNL     1      -9.573  -4.004  -1.259  1.00  0.00     0.031 A 
ATOM     91  C   UNL     1     -10.301  -5.950  -0.032  1.00  0.00     0.131 A 
ATOM     92  C   UNL     1     -10.572  -4.276  -2.226  1.00  0.00     0.055 A 
ATOM     93  C   UNL     1     -11.267  -6.226  -0.997  1.00  0.00     0.041 A 
ATOM     94  F   UNL     1     -10.201  -6.801   1.002  1.00  0.00    -0.206 F 
ATOM     95  C   UNL     1     -11.409  -5.390  -2.096  1.00  0.00     0.022 A 
BRANCH  92  96
ATOM     96  S   UNL     1     -10.812  -3.196  -3.684  1.00  0.00     0.124 S 
ATOM     97  O   UNL     1     -11.041  -1.882  -3.094  1.00  0.00    -0.237 OA
ATOM     98  O   UNL     1      -9.559  -3.356  -4.415  1.00  0.00    -0.237 OA
ATOM     99  O   UNL     1     -11.981  -3.773  -4.353  1.00  0.00    -0.744 OA
ENDBRANCH  92  96
ENDBRANCH  66  89
ENDBRANCH  40  41
ENDBRANCH  32  35
ENDBRANCH  30  31
ENDBRANCH  29  30
ENDBRANCH   1  29
TORSDOF 18
