REMARK SMILES CC1(C)CCC[C@H]1NS(=O)(=O)c1cccc(C(=O)NCCCCCCNC(=O)c2ccc(-c3c4nc(c(-c5cc(S(=O)(=O)[O-])ccc5F)c5ccc([nH]5)c(-c5cc(S(=O)(=O)[O-])ccc5F)c5nc(c(-c6cc(S(=O)(=O)[O-])ccc6F)c6ccc3[nH]6)C=C5)C=C4)cc2)c1
REMARK SMILES IDX 22 1 21 2 20 3 19 4 17 5 18 6 16 8 12 9 13 10 92 11 14 12
REMARK SMILES IDX 15 13 9 14 10 15 11 16 8 17 7 19 1 20 2 21 3 22 4 23 5 24
REMARK SMILES IDX 6 25 23 26 24 27 25 28 26 29 27 30 28 32 29 33 30 34 91 35
REMARK SMILES IDX 31 36 90 37 32 38 33 39 34 40 84 41 35 42 89 43 83 44 85 45
REMARK SMILES IDX 36 46 88 47 82 48 81 49 37 51 69 52 49 53 68 54 50 55 53 56
REMARK SMILES IDX 67 57 86 58 51 59 52 60 66 62 87 63 54 64 38 65 39 66 47 67
REMARK SMILES IDX 40 68 46 69 48 70 45 71 41 72 42 73 43 74 44 75 70 76 71 77
REMARK SMILES IDX 79 78 72 79 78 80 80 81 77 82 73 83 74 84 75 85 76 86 55 87
REMARK SMILES IDX 56 88 64 89 57 90 63 91 65 92 62 93 58 94 59 95 60 96 61 97
REMARK H PARENT 19 7 8 18 26 31 85 50 53 61
REMARK Flexibility Score: inf
ROOT
ATOM      1  C   UNL     1      -3.514   8.792   4.751  1.00  0.00     0.002 C 
ENDROOT
BRANCH   1   2
ATOM      2  C   UNL     1      -2.415   7.808   4.361  1.00  0.00     0.021 C 
BRANCH   2   3
ATOM      3  C   UNL     1      -2.550   7.130   3.004  1.00  0.00     0.116 C 
BRANCH   3   4
ATOM      4  N   UNL     1      -2.507   8.029   1.857  1.00  0.00    -0.352 N 
ATOM      5  C   UNL     1      -1.918   7.854   0.620  1.00  0.00     0.251 C 
ATOM      6  O   UNL     1      -1.973   8.748  -0.221  1.00  0.00    -0.269 OA
ATOM      7  H   UNL     1      -2.967   8.890   1.983  1.00  0.00     0.163 HD
BRANCH   5   8
ATOM      8  C   UNL     1      -1.157   6.615   0.315  1.00  0.00     0.041 A 
ATOM      9  C   UNL     1      -0.721   4.289   0.765  1.00  0.00     0.083 A 
ATOM     10  C   UNL     1       0.525   4.372   0.148  1.00  0.00     0.022 A 
ATOM     11  C   UNL     1      -1.599   5.375   0.758  1.00  0.00     0.035 A 
ATOM     12  C   UNL     1       0.897   5.577  -0.458  1.00  0.00     0.002 A 
ATOM     13  C   UNL     1       0.070   6.704  -0.353  1.00  0.00     0.014 A 
BRANCH   9  14
ATOM     14  S   UNL     1      -1.242   2.909   1.737  1.00  0.00     0.240 S 
ATOM     15  O   UNL     1      -2.618   2.644   1.382  1.00  0.00    -0.207 OA
ATOM     16  O   UNL     1      -0.863   3.221   3.097  1.00  0.00    -0.207 OA
BRANCH  14  17
ATOM     17  N   UNL     1      -0.296   1.606   1.292  1.00  0.00    -0.208 NA
ATOM     18  H   UNL     1       0.670   1.931   1.329  1.00  0.00     0.141 HD
BRANCH  17  19
ATOM     19  C   UNL     1      -0.448   0.929  -0.002  1.00  0.00     0.075 C 
ATOM     20  C   UNL     1       1.947   0.045   0.591  1.00  0.00     0.013 C 
ATOM     21  C   UNL     1       0.632  -0.181  -0.170  1.00  0.00    -0.019 C 
ATOM     22  C   UNL     1       0.978  -0.341  -1.665  1.00  0.00     0.013 C 
ATOM     23  C   UNL     1      -0.086  -1.434   0.360  1.00  0.00     0.008 C 
ATOM     24  C   UNL     1      -1.508  -1.298  -0.154  1.00  0.00     0.002 C 
ATOM     25  C   UNL     1      -1.798   0.197  -0.112  1.00  0.00     0.020 C 
ENDBRANCH  17  19
ENDBRANCH  14  17
ENDBRANCH   9  14
ENDBRANCH   5   8
ENDBRANCH   3   4
ENDBRANCH   2   3
ENDBRANCH   1   2
BRANCH   1  26
ATOM     26  C   UNL     1      -4.957   8.292   4.648  1.00  0.00     0.002 C 
BRANCH  26  27
ATOM     27  C   UNL     1      -5.291   6.974   5.352  1.00  0.00     0.021 C 
BRANCH  27  28
ATOM     28  C   UNL     1      -4.900   6.862   6.824  1.00  0.00     0.116 C 
BRANCH  28  29
ATOM     29  N   UNL     1      -5.494   7.896   7.651  1.00  0.00    -0.352 N 
ATOM     30  C   UNL     1      -6.194   7.801   8.828  1.00  0.00     0.251 C 
ATOM     31  H   UNL     1      -5.375   8.813   7.314  1.00  0.00     0.163 HD
ATOM     32  O   UNL     1      -6.713   8.814   9.291  1.00  0.00    -0.269 OA
BRANCH  30  33
ATOM     33  C   UNL     1      -6.359   6.502   9.528  1.00  0.00     0.039 A 
ATOM     34  C   UNL     1      -7.599   6.218  10.112  1.00  0.00     0.014 A 
ATOM     35  C   UNL     1      -5.310   5.588   9.661  1.00  0.00     0.014 A 
ATOM     36  C   UNL     1      -7.800   5.006  10.779  1.00  0.00     0.010 A 
ATOM     37  C   UNL     1      -5.531   4.351  10.272  1.00  0.00     0.010 A 
ATOM     38  C   UNL     1      -6.776   4.050  10.844  1.00  0.00    -0.014 A 
BRANCH  38  39
ATOM     39  C   UNL     1      -6.998   2.743  11.522  1.00  0.00     0.031 A 
ATOM     40  C   UNL     1      -6.249   2.400  12.782  1.00  0.00     0.074 A 
ATOM     41  C   UNL     1      -7.847   1.848  10.981  1.00  0.00     0.049 A 
ATOM     42  N   UNL     1      -6.293   1.308  13.503  1.00  0.00    -0.248 NA
ATOM     43  C   UNL     1      -5.304   3.410  13.279  1.00  0.00     0.031 C 
ATOM     44  C   UNL     1      -8.595   2.038   9.736  1.00  0.00     0.029 A 
ATOM     45  N   UNL     1      -8.223   0.597  11.405  1.00  0.00    -0.354 N 
ATOM     46  C   UNL     1      -5.375   1.493  14.532  1.00  0.00     0.074 A 
ATOM     47  C   UNL     1      -4.749   2.779  14.303  1.00  0.00     0.031 C 
ATOM     48  C   UNL     1      -9.354   0.954   9.509  1.00  0.00     0.029 A 
ATOM     49  C   UNL     1      -9.127  -0.020  10.572  1.00  0.00     0.049 A 
ATOM     50  H   UNL     1      -7.878   0.181  12.227  1.00  0.00     0.167 HD
ATOM     51  C   UNL     1      -5.095   0.679  15.582  1.00  0.00     0.034 A 
ATOM     52  C   UNL     1      -9.708  -1.233  10.654  1.00  0.00     0.034 A 
ATOM     53  C   UNL     1      -5.734  -0.597  15.803  1.00  0.00     0.049 A 
ATOM     54  C   UNL     1      -9.394  -2.116  11.833  1.00  0.00     0.074 A 
ATOM     55  C   UNL     1      -5.567  -1.476  16.860  1.00  0.00     0.029 A 
ATOM     56  N   UNL     1      -6.660  -1.183  14.948  1.00  0.00    -0.354 N 
ATOM     57  N   UNL     1      -8.566  -1.901  12.830  1.00  0.00    -0.248 NA
ATOM     58  C   UNL     1     -10.110  -3.395  11.907  1.00  0.00     0.031 C 
ATOM     59  C   UNL     1      -6.345  -2.615  16.615  1.00  0.00     0.029 A 
ATOM     60  C   UNL     1      -7.052  -2.420  15.440  1.00  0.00     0.049 A 
ATOM     61  H   UNL     1      -6.990  -0.778  14.114  1.00  0.00     0.167 HD
ATOM     62  C   UNL     1      -8.680  -3.012  13.661  1.00  0.00     0.074 A 
ATOM     63  C   UNL     1      -9.672  -3.880  13.060  1.00  0.00     0.031 C 
ATOM     64  C   UNL     1      -8.025  -3.289  14.818  1.00  0.00     0.034 A 
BRANCH  51  65
ATOM     65  C   UNL     1      -4.028   1.141  16.548  1.00  0.00     0.023 A 
ATOM     66  C   UNL     1      -4.176   2.319  17.304  1.00  0.00     0.031 A 
ATOM     67  C   UNL     1      -2.828   0.422  16.686  1.00  0.00     0.131 A 
ATOM     68  C   UNL     1      -3.113   2.787  18.090  1.00  0.00     0.055 A 
ATOM     69  C   UNL     1      -1.806   0.849  17.536  1.00  0.00     0.041 A 
ATOM     70  F   UNL     1      -2.619  -0.701  15.979  1.00  0.00    -0.206 F 
ATOM     71  C   UNL     1      -1.937   2.048  18.230  1.00  0.00     0.022 A 
BRANCH  68  72
ATOM     72  S   UNL     1      -3.229   4.453  18.799  1.00  0.00     0.124 S 
ATOM     73  O   UNL     1      -3.409   5.271  17.602  1.00  0.00    -0.237 OA
ATOM     74  O   UNL     1      -4.386   4.342  19.679  1.00  0.00    -0.237 OA
ATOM     75  O   UNL     1      -1.945   4.628  19.476  1.00  0.00    -0.744 OA
ENDBRANCH  68  72
ENDBRANCH  51  65
BRANCH  52  76
ATOM     76  C   UNL     1     -10.647  -1.689   9.591  1.00  0.00     0.023 A 
ATOM     77  C   UNL     1     -12.013  -1.869   9.861  1.00  0.00     0.031 A 
ATOM     78  C   UNL     1     -10.184  -1.982   8.297  1.00  0.00     0.131 A 
ATOM     79  C   UNL     1     -12.862  -2.368   8.861  1.00  0.00     0.055 A 
ATOM     80  C   UNL     1     -11.040  -2.436   7.293  1.00  0.00     0.041 A 
ATOM     81  F   UNL     1      -8.887  -1.819   7.987  1.00  0.00    -0.206 F 
ATOM     82  C   UNL     1     -12.387  -2.642   7.576  1.00  0.00     0.022 A 
BRANCH  79  83
ATOM     83  S   UNL     1     -14.591  -2.716   9.284  1.00  0.00     0.124 S 
ATOM     84  O   UNL     1     -14.445  -3.695  10.355  1.00  0.00    -0.237 OA
ATOM     85  O   UNL     1     -15.078  -1.399   9.681  1.00  0.00    -0.237 OA
ATOM     86  O   UNL     1     -15.149  -3.234   8.037  1.00  0.00    -0.744 OA
ENDBRANCH  79  83
ENDBRANCH  52  76
BRANCH  64  87
ATOM     87  C   UNL     1      -8.395  -4.576  15.515  1.00  0.00     0.023 A 
ATOM     88  C   UNL     1      -8.116  -5.831  14.944  1.00  0.00     0.031 A 
ATOM     89  C   UNL     1      -9.073  -4.546  16.746  1.00  0.00     0.131 A 
ATOM     90  C   UNL     1      -8.574  -7.001  15.568  1.00  0.00     0.055 A 
ATOM     91  C   UNL     1      -9.472  -5.717  17.393  1.00  0.00     0.041 A 
ATOM     92  F   UNL     1      -9.366  -3.377  17.337  1.00  0.00    -0.206 F 
ATOM     93  C   UNL     1      -9.238  -6.952  16.796  1.00  0.00     0.022 A 
BRANCH  90  94
ATOM     94  S   UNL     1      -8.389  -8.582  14.697  1.00  0.00     0.124 S 
ATOM     95  O   UNL     1      -9.064  -8.313  13.431  1.00  0.00    -0.237 OA
ATOM     96  O   UNL     1      -6.939  -8.732  14.628  1.00  0.00    -0.237 OA
ATOM     97  O   UNL     1      -9.070  -9.536  15.571  1.00  0.00    -0.744 OA
ENDBRANCH  90  94
ENDBRANCH  64  87
ENDBRANCH  38  39
ENDBRANCH  30  33
ENDBRANCH  28  29
ENDBRANCH  27  28
ENDBRANCH  26  27
ENDBRANCH   1  26
TORSDOF 19
