REMARK SMILES COCC[C@H]([NH3+])C(=O)N[C@@H]1CCCCC[C@@H]1C(=O)NCCCCCCNC(=O)c1ccc(-c2c3nc(c(-c4cc(S(=O)(=O)[O-])ccc4F)c4ccc([nH]4)c(-c4cc(S(=O)(=O)[O-])ccc4F)c4nc(c(-c5cc(S(=O)(=O)[O-])ccc5F)c5ccc2[nH]5)C=C4)C=C3)cc1
REMARK SMILES IDX 21 1 20 2 19 3 17 4 18 5 16 7 10 8 9 9 7 10 8 11 5 13 4 14
REMARK SMILES IDX 3 15 2 16 1 17 6 18 11 22 15 24 14 25 13 26 12 27 22 29
REMARK SMILES IDX 23 30 24 31 25 32 26 33 27 34 28 36 29 37 30 38 91 39 31 40
REMARK SMILES IDX 90 41 32 42 33 43 34 44 84 45 35 46 89 47 83 48 85 49 36 50
REMARK SMILES IDX 88 51 82 52 81 53 37 55 69 56 49 57 68 58 50 59 53 60 67 61
REMARK SMILES IDX 86 62 51 63 52 64 66 66 87 67 54 68 38 69 39 70 47 71 40 72
REMARK SMILES IDX 46 73 48 74 45 75 41 76 42 77 43 78 44 79 70 80 71 81 79 82
REMARK SMILES IDX 72 83 78 84 80 85 77 86 73 87 74 88 75 89 76 90 55 91 56 92
REMARK SMILES IDX 64 93 57 94 63 95 65 96 62 97 58 98 59 99 60 100 61 101
REMARK H PARENT 19 6 9 12 6 19 6 20 6 21 26 35 85 54 53 65
REMARK Flexibility Score: 100.00
ROOT
ATOM      1  C   UNL     1      -1.822   7.567   4.545  1.00  0.00     0.021 C 
ENDROOT
BRANCH   1   2
ATOM      2  C   UNL     1      -1.317   6.123   4.529  1.00  0.00     0.116 C 
BRANCH   2   3
ATOM      3  N   UNL     1      -1.347   5.588   3.183  1.00  0.00    -0.356 N 
ATOM      4  C   UNL     1      -0.368   5.457   2.252  1.00  0.00     0.225 C 
ATOM      5  O   UNL     1      -0.690   4.991   1.151  1.00  0.00    -0.275 OA
ATOM      6  H   UNL     1      -2.230   5.264   2.893  1.00  0.00     0.163 HD
BRANCH   4   7
ATOM      7  C   UNL     1       1.107   5.741   2.536  1.00  0.00     0.101 C 
BRANCH   7   8
ATOM      8  C   UNL     1       1.832   4.438   2.949  1.00  0.00     0.094 C 
BRANCH   8   9
ATOM      9  N   UNL     1       1.030   3.516   3.761  1.00  0.00    -0.347 N 
ATOM     10  C   UNL     1       0.727   2.194   3.581  1.00  0.00     0.278 C 
ATOM     11  O   UNL     1       0.222   1.601   4.540  1.00  0.00    -0.268 OA
ATOM     12  H   UNL     1       0.644   3.917   4.573  1.00  0.00     0.163 HD
BRANCH  10  13
ATOM     13  C   UNL     1       0.928   1.470   2.220  1.00  0.00     0.273 C 
BRANCH  13  14
ATOM     14  C   UNL     1       2.398   1.397   1.754  1.00  0.00     0.104 C 
BRANCH  14  15
ATOM     15  C   UNL     1       2.672   1.360   0.250  1.00  0.00     0.166 C 
BRANCH  15  16
ATOM     16  O   UNL     1       2.908   2.660  -0.292  1.00  0.00    -0.384 OA
ATOM     17  C   UNL     1       1.811   3.215  -1.003  1.00  0.00     0.194 C 
ENDBRANCH  15  16
ENDBRANCH  14  15
ENDBRANCH  13  14
BRANCH  13  18
ATOM     18  N   UNL     1      -0.102   1.944   1.290  1.00  0.00    -0.347 N 
ATOM     19  H   UNL     1      -0.004   2.950   1.156  1.00  0.00     0.345 HD
ATOM     20  H   UNL     1      -1.026   1.741   1.673  1.00  0.00     0.345 HD
ATOM     21  H   UNL     1       0.005   1.470   0.393  1.00  0.00     0.345 HD
ENDBRANCH  13  18
ENDBRANCH  10  13
ENDBRANCH   8   9
BRANCH   8  22
ATOM     22  C   UNL     1       3.167   4.626   3.688  1.00  0.00     0.026 CG0
ATOM     23  G   UNL     1       4.160   5.559   3.006  1.00  0.00     0.000 G0
ENDBRANCH   8  22
ENDBRANCH   7   8
BRANCH   7  24
ATOM     24  C   UNL     1       1.431   7.013   3.332  1.00  0.00     0.015 C 
BRANCH  24  25
ATOM     25  C   UNL     1       2.739   7.690   2.911  1.00  0.00     0.001 C 
BRANCH  25  26
ATOM     26  C   UNL     1       3.997   7.011   3.437  1.00  0.00     0.000 C 
BRANCH  26  27
ATOM     27  C   UNL     1       4.160   5.559   3.006  1.00  0.00     0.002 CG0
ATOM     28  G   UNL     1       3.167   4.626   3.688  1.00  0.00     0.000 G0
ENDBRANCH  26  27
ENDBRANCH  25  26
ENDBRANCH  24  25
ENDBRANCH   7  24
ENDBRANCH   4   7
ENDBRANCH   2   3
ENDBRANCH   1   2
BRANCH   1  29
ATOM     29  C   UNL     1      -3.346   7.673   4.670  1.00  0.00     0.002 C 
BRANCH  29  30
ATOM     30  C   UNL     1      -3.917   7.150   5.992  1.00  0.00     0.002 C 
BRANCH  30  31
ATOM     31  C   UNL     1      -3.310   7.773   7.253  1.00  0.00     0.021 C 
BRANCH  31  32
ATOM     32  C   UNL     1      -3.462   9.289   7.346  1.00  0.00     0.116 C 
BRANCH  32  33
ATOM     33  N   UNL     1      -4.861   9.680   7.396  1.00  0.00    -0.352 N 
ATOM     34  C   UNL     1      -5.533  10.375   8.370  1.00  0.00     0.251 C 
ATOM     35  H   UNL     1      -5.404   9.407   6.622  1.00  0.00     0.163 HD
ATOM     36  O   UNL     1      -6.760  10.380   8.376  1.00  0.00    -0.269 OA
BRANCH  34  37
ATOM     37  C   UNL     1      -4.776  11.108   9.408  1.00  0.00     0.039 A 
ATOM     38  C   UNL     1      -5.207  11.042  10.735  1.00  0.00     0.014 A 
ATOM     39  C   UNL     1      -3.664  11.883   9.067  1.00  0.00     0.014 A 
ATOM     40  C   UNL     1      -4.494  11.718  11.727  1.00  0.00     0.010 A 
ATOM     41  C   UNL     1      -2.916  12.502  10.066  1.00  0.00     0.010 A 
ATOM     42  C   UNL     1      -3.329  12.434  11.405  1.00  0.00    -0.014 A 
BRANCH  42  43
ATOM     43  C   UNL     1      -2.546  13.137  12.454  1.00  0.00     0.031 A 
ATOM     44  C   UNL     1      -2.444  14.638  12.436  1.00  0.00     0.074 A 
ATOM     45  C   UNL     1      -1.893  12.422  13.391  1.00  0.00     0.049 A 
ATOM     46  N   UNL     1      -1.762  15.432  13.221  1.00  0.00    -0.248 NA
ATOM     47  C   UNL     1      -3.189  15.335  11.377  1.00  0.00     0.031 C 
ATOM     48  C   UNL     1      -1.893  10.960  13.490  1.00  0.00     0.029 A 
ATOM     49  N   UNL     1      -1.101  12.824  14.436  1.00  0.00    -0.354 N 
ATOM     50  C   UNL     1      -1.992  16.721  12.750  1.00  0.00     0.074 A 
ATOM     51  C   UNL     1      -2.819  16.592  11.569  1.00  0.00     0.031 C 
ATOM     52  C   UNL     1      -1.162  10.592  14.554  1.00  0.00     0.029 A 
ATOM     53  C   UNL     1      -0.604  11.783  15.187  1.00  0.00     0.049 A 
ATOM     54  H   UNL     1      -0.906  13.769  14.632  1.00  0.00     0.167 HD
ATOM     55  C   UNL     1      -1.577  17.903  13.270  1.00  0.00     0.034 A 
ATOM     56  C   UNL     1       0.214  11.790  16.258  1.00  0.00     0.034 A 
ATOM     57  C   UNL     1      -0.755  18.013  14.452  1.00  0.00     0.049 A 
ATOM     58  C   UNL     1       0.694  13.115  16.795  1.00  0.00     0.074 A 
ATOM     59  C   UNL     1      -0.297  19.157  15.082  1.00  0.00     0.029 A 
ATOM     60  N   UNL     1      -0.267  16.937  15.183  1.00  0.00    -0.354 N 
ATOM     61  N   UNL     1       0.439  14.327  16.358  1.00  0.00    -0.248 NA
ATOM     62  C   UNL     1       1.563  13.073  17.979  1.00  0.00     0.031 C 
ATOM     63  C   UNL     1       0.515  18.773  16.155  1.00  0.00     0.029 A 
ATOM     64  C   UNL     1       0.505  17.390  16.242  1.00  0.00     0.049 A 
ATOM     65  H   UNL     1      -0.444  15.990  14.979  1.00  0.00     0.167 HD
ATOM     66  C   UNL     1       1.086  15.191  17.238  1.00  0.00     0.074 A 
ATOM     67  C   UNL     1       1.729  14.361  18.236  1.00  0.00     0.031 C 
ATOM     68  C   UNL     1       1.143  16.547  17.225  1.00  0.00     0.034 A 
BRANCH  55  69
ATOM     69  C   UNL     1      -1.994  19.162  12.548  1.00  0.00     0.023 A 
ATOM     70  C   UNL     1      -3.348  19.520  12.419  1.00  0.00     0.031 A 
ATOM     71  C   UNL     1      -1.034  20.000  11.954  1.00  0.00     0.131 A 
ATOM     72  C   UNL     1      -3.709  20.636  11.649  1.00  0.00     0.055 A 
ATOM     73  C   UNL     1      -1.395  21.157  11.260  1.00  0.00     0.041 A 
ATOM     74  F   UNL     1       0.273  19.701  12.024  1.00  0.00    -0.206 F 
ATOM     75  C   UNL     1      -2.740  21.473  11.090  1.00  0.00     0.022 A 
BRANCH  72  76
ATOM     76  S   UNL     1      -5.463  20.893  11.267  1.00  0.00     0.124 S 
ATOM     77  O   UNL     1      -5.793  19.659  10.559  1.00  0.00    -0.237 OA
ATOM     78  O   UNL     1      -6.055  21.049  12.590  1.00  0.00    -0.237 OA
ATOM     79  O   UNL     1      -5.460  22.097  10.438  1.00  0.00    -0.744 OA
ENDBRANCH  72  76
ENDBRANCH  55  69
BRANCH  56  80
ATOM     80  C   UNL     1       0.638  10.513  16.900  1.00  0.00     0.023 A 
ATOM     81  C   UNL     1       0.281  10.221  18.226  1.00  0.00     0.031 A 
ATOM     82  C   UNL     1       1.454   9.592  16.220  1.00  0.00     0.131 A 
ATOM     83  C   UNL     1       0.787   9.070  18.850  1.00  0.00     0.055 A 
ATOM     84  C   UNL     1       1.906   8.418  16.826  1.00  0.00     0.041 A 
ATOM     85  F   UNL     1       1.820   9.818  14.948  1.00  0.00    -0.206 F 
ATOM     86  C   UNL     1       1.586   8.160  18.155  1.00  0.00     0.022 A 
BRANCH  83  87
ATOM     87  S   UNL     1       0.468   8.834  20.620  1.00  0.00     0.124 S 
ATOM     88  O   UNL     1       1.008  10.065  21.186  1.00  0.00    -0.237 OA
ATOM     89  O   UNL     1      -0.984   8.696  20.649  1.00  0.00    -0.237 OA
ATOM     90  O   UNL     1       1.214   7.619  20.940  1.00  0.00    -0.744 OA
ENDBRANCH  83  87
ENDBRANCH  56  80
BRANCH  68  91
ATOM     91  C   UNL     1       1.887  17.209  18.360  1.00  0.00     0.023 A 
ATOM     92  C   UNL     1       3.277  17.070  18.515  1.00  0.00     0.031 A 
ATOM     93  C   UNL     1       1.187  17.972  19.312  1.00  0.00     0.131 A 
ATOM     94  C   UNL     1       3.914  17.631  19.632  1.00  0.00     0.055 A 
ATOM     95  C   UNL     1       1.836  18.580  20.387  1.00  0.00     0.041 A 
ATOM     96  F   UNL     1      -0.142  18.137  19.213  1.00  0.00    -0.206 F 
ATOM     97  C   UNL     1       3.206  18.399  20.559  1.00  0.00     0.022 A 
BRANCH  94  98
ATOM     98  S   UNL     1       5.669  17.264  19.908  1.00  0.00     0.124 S 
ATOM     99  O   UNL     1       5.666  15.806  19.984  1.00  0.00    -0.237 OA
ATOM    100  O   UNL     1       6.298  17.838  18.723  1.00  0.00    -0.237 OA
ATOM    101  O   UNL     1       5.970  17.950  21.163  1.00  0.00    -0.744 OA
ENDBRANCH  94  98
ENDBRANCH  68  91
ENDBRANCH  42  43
ENDBRANCH  34  37
ENDBRANCH  32  33
ENDBRANCH  31  32
ENDBRANCH  30  31
ENDBRANCH  29  30
ENDBRANCH   1  29
TORSDOF 22
