REMARK SMILES Cc1ccc(C(=O)/C(C#N)=C/c2ccccc2OCC(=O)NCCCCCCNC(=O)c2ccc(-c3c4nc(c(-c5cc(S(=O)(=O)[O-])ccc5F)c5ccc([nH]5)c(-c5cc(S(=O)(=O)[O-])ccc5F)c5nc(c(-c6cc(S(=O)(=O)[O-])ccc6F)c6ccc3[nH]6)C=C5)C=C4)cc2)cc1F
REMARK SMILES IDX 24 1 23 2 22 3 20 4 21 5 19 7 18 8 17 9 12 10 13 11 14 12
REMARK SMILES IDX 16 13 15 14 11 15 8 16 6 17 7 18 5 19 1 20 2 21 3 22 96 23
REMARK SMILES IDX 4 24 95 25 97 26 9 27 10 28 25 29 26 30 27 31 28 32 29 33
REMARK SMILES IDX 30 34 31 36 32 37 33 38 94 39 34 40 93 41 35 42 36 43 37 44
REMARK SMILES IDX 87 45 38 46 92 47 86 48 88 49 39 50 91 51 85 52 84 53 40 55
REMARK SMILES IDX 72 56 52 57 71 58 53 59 56 60 70 61 89 62 54 63 55 64 69 66
REMARK SMILES IDX 90 67 57 68 41 69 42 70 50 71 43 72 49 73 51 74 48 75 44 76
REMARK SMILES IDX 45 77 46 78 47 79 73 80 74 81 82 82 75 83 81 84 83 85 80 86
REMARK SMILES IDX 76 87 77 88 78 89 79 90 58 91 59 92 67 93 60 94 66 95 68 96
REMARK SMILES IDX 65 97 61 98 62 99 63 100 64 101
REMARK H PARENT 22 6 29 35 88 54 56 65
REMARK Flexibility Score: inf
ROOT
ATOM      1  C   UNL     1      -5.625   4.161  -0.060  1.00  0.00     0.021 C 
ENDROOT
BRANCH   1   2
ATOM      2  C   UNL     1      -4.883   4.142  -1.417  1.00  0.00     0.116 C 
BRANCH   2   3
ATOM      3  N   UNL     1      -3.758   3.253  -1.620  1.00  0.00    -0.353 N 
ATOM      4  C   UNL     1      -3.606   2.072  -2.280  1.00  0.00     0.257 C 
ATOM      5  O   UNL     1      -2.423   1.755  -2.490  1.00  0.00    -0.271 OA
ATOM      6  H   UNL     1      -2.930   3.568  -1.190  1.00  0.00     0.163 HD
BRANCH   4   7
ATOM      7  C   UNL     1      -4.737   1.081  -2.803  1.00  0.00     0.329 C 
BRANCH   7   8
ATOM      8  O   UNL     1      -6.092   1.050  -2.424  1.00  0.00    -0.483 OA
BRANCH   8   9
ATOM      9  C   UNL     1      -6.863   0.101  -1.791  1.00  0.00     0.127 A 
ATOM     10  C   UNL     1      -6.616  -1.110  -1.069  1.00  0.00     0.018 A 
ATOM     11  C   UNL     1      -7.686  -1.685  -0.328  1.00  0.00     0.012 A 
ATOM     12  C   UNL     1      -8.955  -1.112  -0.284  1.00  0.00     0.001 A 
ATOM     13  C   UNL     1      -8.182   0.606  -1.772  1.00  0.00     0.047 A 
ATOM     14  C   UNL     1      -9.207   0.027  -1.024  1.00  0.00     0.004 A 
BRANCH  10  15
ATOM     15  C   UNL     1      -5.344  -1.825  -0.719  1.00  0.00     0.035 C 
ATOM     16  C   UNL     1      -4.415  -1.258   0.091  1.00  0.00     0.101 C 
BRANCH  16  17
ATOM     17  C   UNL     1      -3.126  -2.011   0.209  1.00  0.00     0.203 C 
ATOM     18  O   UNL     1      -3.131  -3.219   0.450  1.00  0.00    -0.288 OA
BRANCH  17  19
ATOM     19  C   UNL     1      -1.803  -1.361   0.012  1.00  0.00     0.026 A 
ATOM     20  C   UNL     1       1.862   0.901  -0.163  1.00  0.00     0.047 C 
ATOM     21  C   UNL     1       0.677  -0.020  -0.188  1.00  0.00    -0.015 A 
ATOM     22  C   UNL     1      -0.258   0.055  -1.223  1.00  0.00     0.007 A 
ATOM     23  C   UNL     1       0.425  -0.917   0.849  1.00  0.00     0.126 A 
ATOM     24  C   UNL     1      -1.483  -0.632  -1.132  1.00  0.00     0.013 A 
ATOM     25  C   UNL     1      -0.795  -1.589   0.952  1.00  0.00     0.051 A 
ATOM     26  F   UNL     1       1.356  -1.126   1.791  1.00  0.00    -0.207 F 
ENDBRANCH  17  19
ENDBRANCH  16  17
BRANCH  16  27
ATOM     27  C   UNL     1      -4.639   0.245   0.060  1.00  0.00     0.103 C 
ATOM     28  N   UNL     1      -4.825   1.492   0.034  1.00  0.00    -0.192 NA
ENDBRANCH  16  27
ENDBRANCH  10  15
ENDBRANCH   8   9
ENDBRANCH   7   8
ENDBRANCH   4   7
ENDBRANCH   2   3
ENDBRANCH   1   2
BRANCH   1  29
ATOM     29  C   UNL     1      -4.939   4.014   1.323  1.00  0.00     0.002 C 
BRANCH  29  30
ATOM     30  C   UNL     1      -3.604   4.695   1.607  1.00  0.00     0.002 C 
BRANCH  30  31
ATOM     31  C   UNL     1      -3.531   6.167   1.234  1.00  0.00     0.021 C 
BRANCH  31  32
ATOM     32  C   UNL     1      -4.662   6.984   1.829  1.00  0.00     0.116 C 
BRANCH  32  33
ATOM     33  N   UNL     1      -4.431   7.278   3.232  1.00  0.00    -0.352 N 
ATOM     34  C   UNL     1      -5.042   8.287   3.943  1.00  0.00     0.251 C 
ATOM     35  H   UNL     1      -3.787   6.710   3.714  1.00  0.00     0.163 HD
ATOM     36  O   UNL     1      -4.604   8.658   5.020  1.00  0.00    -0.269 OA
BRANCH  34  37
ATOM     37  C   UNL     1      -6.295   8.819   3.383  1.00  0.00     0.039 A 
ATOM     38  C   UNL     1      -6.499  10.185   3.170  1.00  0.00     0.014 A 
ATOM     39  C   UNL     1      -7.277   7.878   3.075  1.00  0.00     0.014 A 
ATOM     40  C   UNL     1      -7.722  10.620   2.654  1.00  0.00     0.010 A 
ATOM     41  C   UNL     1      -8.445   8.298   2.500  1.00  0.00     0.010 A 
ATOM     42  C   UNL     1      -8.693   9.670   2.347  1.00  0.00    -0.014 A 
BRANCH  42  43
ATOM     43  C   UNL     1     -10.062   9.958   1.958  1.00  0.00     0.031 A 
ATOM     44  C   UNL     1     -10.426  10.379   0.598  1.00  0.00     0.074 A 
ATOM     45  C   UNL     1     -10.991   9.502   2.829  1.00  0.00     0.049 A 
ATOM     46  N   UNL     1     -11.619  10.740   0.276  1.00  0.00    -0.248 NA
ATOM     47  C   UNL     1      -9.488  10.436  -0.517  1.00  0.00     0.031 C 
ATOM     48  C   UNL     1     -12.360   9.094   2.569  1.00  0.00     0.029 A 
ATOM     49  N   UNL     1     -10.865   9.397   4.219  1.00  0.00    -0.354 N 
ATOM     50  C   UNL     1     -11.688  10.773  -1.099  1.00  0.00     0.074 A 
ATOM     51  C   UNL     1     -10.313  10.700  -1.541  1.00  0.00     0.031 C 
ATOM     52  C   UNL     1     -13.015   9.031   3.740  1.00  0.00     0.029 A 
ATOM     53  C   UNL     1     -12.144   9.625   4.743  1.00  0.00     0.049 A 
ATOM     54  H   UNL     1     -10.044   9.202   4.726  1.00  0.00     0.167 HD
ATOM     55  C   UNL     1     -12.917  10.704  -1.689  1.00  0.00     0.034 A 
ATOM     56  C   UNL     1     -12.438  10.725   5.502  1.00  0.00     0.034 A 
ATOM     57  C   UNL     1     -13.975  10.667  -0.674  1.00  0.00     0.049 A 
ATOM     58  C   UNL     1     -13.514  11.605   4.886  1.00  0.00     0.074 A 
ATOM     59  C   UNL     1     -14.749   9.657  -0.126  1.00  0.00     0.029 A 
ATOM     60  N   UNL     1     -14.144  11.765   0.148  1.00  0.00    -0.354 N 
ATOM     61  N   UNL     1     -14.065  11.385   3.726  1.00  0.00    -0.248 NA
ATOM     62  C   UNL     1     -13.978  12.858   5.480  1.00  0.00     0.031 C 
ATOM     63  C   UNL     1     -15.405  10.176   1.027  1.00  0.00     0.029 A 
ATOM     64  C   UNL     1     -15.043  11.504   1.166  1.00  0.00     0.049 A 
ATOM     65  H   UNL     1     -13.681  12.625   0.025  1.00  0.00     0.167 HD
ATOM     66  C   UNL     1     -14.817  12.464   3.353  1.00  0.00     0.074 A 
ATOM     67  C   UNL     1     -14.766  13.346   4.504  1.00  0.00     0.031 C 
ATOM     68  C   UNL     1     -15.359  12.573   2.104  1.00  0.00     0.034 A 
BRANCH  55  69
ATOM     69  C   UNL     1     -13.188  10.454  -3.162  1.00  0.00     0.023 A 
ATOM     70  C   UNL     1     -12.229  10.579  -4.189  1.00  0.00     0.031 A 
ATOM     71  C   UNL     1     -14.470  10.031  -3.586  1.00  0.00     0.131 A 
ATOM     72  C   UNL     1     -12.521  10.213  -5.520  1.00  0.00     0.055 A 
ATOM     73  C   UNL     1     -14.770   9.701  -4.913  1.00  0.00     0.041 A 
ATOM     74  F   UNL     1     -15.489   9.884  -2.728  1.00  0.00    -0.206 F 
ATOM     75  C   UNL     1     -13.790   9.774  -5.887  1.00  0.00     0.022 A 
BRANCH  72  76
ATOM     76  S   UNL     1     -11.242  10.229  -6.811  1.00  0.00     0.124 S 
ATOM     77  O   UNL     1     -11.240   8.836  -7.258  1.00  0.00    -0.237 OA
ATOM     78  O   UNL     1     -11.771  11.189  -7.774  1.00  0.00    -0.237 OA
ATOM     79  O   UNL     1     -10.034  10.646  -6.104  1.00  0.00    -0.744 OA
ENDBRANCH  72  76
ENDBRANCH  55  69
BRANCH  56  80
ATOM     80  C   UNL     1     -11.260  11.246   6.260  1.00  0.00     0.023 A 
ATOM     81  C   UNL     1     -10.452  12.252   5.701  1.00  0.00     0.031 A 
ATOM     82  C   UNL     1     -10.711  10.441   7.281  1.00  0.00     0.131 A 
ATOM     83  C   UNL     1      -9.103  12.347   6.082  1.00  0.00     0.055 A 
ATOM     84  C   UNL     1      -9.364  10.527   7.638  1.00  0.00     0.041 A 
ATOM     85  F   UNL     1     -11.449   9.470   7.847  1.00  0.00    -0.206 F 
ATOM     86  C   UNL     1      -8.545  11.460   7.010  1.00  0.00     0.022 A 
BRANCH  83  87
ATOM     87  S   UNL     1      -8.003  13.533   5.255  1.00  0.00     0.124 S 
ATOM     88  O   UNL     1      -7.998  14.635   6.210  1.00  0.00    -0.237 OA
ATOM     89  O   UNL     1      -6.750  12.794   5.139  1.00  0.00    -0.237 OA
ATOM     90  O   UNL     1      -8.683  13.785   3.988  1.00  0.00    -0.744 OA
ENDBRANCH  83  87
ENDBRANCH  56  80
BRANCH  68  91
ATOM     91  C   UNL     1     -16.190  13.733   1.617  1.00  0.00     0.023 A 
ATOM     92  C   UNL     1     -16.132  14.115   0.256  1.00  0.00     0.031 A 
ATOM     93  C   UNL     1     -17.146  14.392   2.402  1.00  0.00     0.131 A 
ATOM     94  C   UNL     1     -16.954  15.117  -0.266  1.00  0.00     0.055 A 
ATOM     95  C   UNL     1     -17.943  15.426   1.892  1.00  0.00     0.041 A 
ATOM     96  F   UNL     1     -17.380  14.018   3.670  1.00  0.00    -0.206 F 
ATOM     97  C   UNL     1     -17.849  15.794   0.553  1.00  0.00     0.022 A 
BRANCH  94  98
ATOM     98  S   UNL     1     -16.928  15.506  -2.038  1.00  0.00     0.124 S 
ATOM     99  O   UNL     1     -18.315  15.250  -2.421  1.00  0.00    -0.237 OA
ATOM    100  O   UNL     1     -16.531  16.911  -2.029  1.00  0.00    -0.237 OA
ATOM    101  O   UNL     1     -15.945  14.579  -2.586  1.00  0.00    -0.744 OA
ENDBRANCH  94  98
ENDBRANCH  68  91
ENDBRANCH  42  43
ENDBRANCH  34  37
ENDBRANCH  32  33
ENDBRANCH  31  32
ENDBRANCH  30  31
ENDBRANCH  29  30
ENDBRANCH   1  29
TORSDOF 22
