REMARK SMILES Cc1ccc(C(=O)NCCCCCCNC(=O)c2ccc(-c3c4nc(c(-c5cc(S(=O)(=O)[O-])ccc5F)c5ccc([nH]5)c(-c5cc(S(=O)(=O)[O-])ccc5F)c5nc(c(-c6cc(S(=O)(=O)[O-])ccc6F)c6ccc3[nH]6)C=C5)C=C4)cc2)cc1S(=O)(=O)N(CC1CC1)C(C)C
REMARK SMILES IDX 11 1 10 2 9 3 8 4 6 5 7 6 5 8 1 9 2 10 3 11 82 12 4 13 81 14
REMARK SMILES IDX 83 15 84 16 85 17 86 18 87 19 88 20 89 21 90 22 91 23 92 24
REMARK SMILES IDX 93 25 12 26 13 27 14 28 15 29 16 30 17 32 18 33 19 34 80 35
REMARK SMILES IDX 20 36 79 37 21 38 22 39 23 40 73 41 24 42 78 43 72 44 74 45
REMARK SMILES IDX 25 46 77 47 71 48 70 49 26 51 58 52 38 53 57 54 39 55 42 56
REMARK SMILES IDX 56 57 75 58 40 59 41 60 55 62 76 63 43 64 27 65 28 66 36 67
REMARK SMILES IDX 29 68 35 69 37 70 34 71 30 72 31 73 32 74 33 75 59 76 60 77
REMARK SMILES IDX 68 78 61 79 67 80 69 81 66 82 62 83 63 84 64 85 65 86 44 87
REMARK SMILES IDX 45 88 53 89 46 90 52 91 54 92 51 93 47 94 48 95 49 96 50 97
REMARK H PARENT 8 7 15 31 74 50 42 61
REMARK Flexibility Score: inf
ROOT
ATOM      1  C   UNL     1      -5.313   3.562  -1.031  1.00  0.00     0.002 C 
ENDROOT
BRANCH   1   2
ATOM      2  C   UNL     1      -3.818   3.249  -0.853  1.00  0.00     0.021 C 
BRANCH   2   3
ATOM      3  C   UNL     1      -3.520   2.265   0.281  1.00  0.00     0.116 C 
BRANCH   3   4
ATOM      4  N   UNL     1      -3.801   0.900  -0.137  1.00  0.00    -0.352 N 
ATOM      5  C   UNL     1      -3.002  -0.174  -0.437  1.00  0.00     0.251 C 
ATOM      6  O   UNL     1      -3.544  -1.248  -0.705  1.00  0.00    -0.269 OA
ATOM      7  H   UNL     1      -4.763   0.707  -0.221  1.00  0.00     0.163 HD
BRANCH   5   8
ATOM      8  C   UNL     1      -1.514  -0.134  -0.354  1.00  0.00     0.041 A 
ATOM      9  C   UNL     1       2.667  -0.249   0.762  1.00  0.00     0.046 C 
ATOM     10  C   UNL     1       1.254  -0.144   0.268  1.00  0.00    -0.031 A 
ATOM     11  C   UNL     1       0.498  -1.331   0.288  1.00  0.00     0.005 A 
ATOM     12  C   UNL     1       0.627   1.028  -0.197  1.00  0.00     0.086 A 
ATOM     13  C   UNL     1      -0.871  -1.319   0.016  1.00  0.00     0.014 A 
ATOM     14  C   UNL     1      -0.737   1.004  -0.567  1.00  0.00     0.035 A 
BRANCH  12  15
ATOM     15  S   UNL     1       1.296   2.682   0.021  1.00  0.00     0.243 S 
ATOM     16  O   UNL     1       0.629   3.554  -0.926  1.00  0.00    -0.207 OA
ATOM     17  O   UNL     1       1.127   2.912   1.440  1.00  0.00    -0.207 OA
BRANCH  15  18
ATOM     18  N   UNL     1       2.948   2.681  -0.348  1.00  0.00    -0.195 NA
BRANCH  18  19
ATOM     19  C   UNL     1       3.453   2.104  -1.619  1.00  0.00     0.106 C 
BRANCH  19  20
ATOM     20  C   UNL     1       2.715   2.388  -2.890  1.00  0.00     0.004 C 
ATOM     21  C   UNL     1       2.269   3.731  -3.421  1.00  0.00     0.005 C 
ATOM     22  C   UNL     1       3.490   3.086  -3.994  1.00  0.00     0.005 C 
ENDBRANCH  19  20
ENDBRANCH  18  19
BRANCH  18  23
ATOM     23  C   UNL     1       3.838   3.771   0.206  1.00  0.00     0.067 C 
ATOM     24  C   UNL     1       3.817   5.043  -0.633  1.00  0.00     0.025 C 
ATOM     25  C   UNL     1       3.581   4.129   1.669  1.00  0.00     0.025 C 
ENDBRANCH  18  23
ENDBRANCH  15  18
ENDBRANCH  12  15
ENDBRANCH   5   8
ENDBRANCH   3   4
ENDBRANCH   2   3
ENDBRANCH   1   2
BRANCH   1  26
ATOM     26  C   UNL     1      -6.030   4.149   0.198  1.00  0.00     0.002 C 
BRANCH  26  27
ATOM     27  C   UNL     1      -5.367   5.370   0.834  1.00  0.00     0.021 C 
BRANCH  27  28
ATOM     28  C   UNL     1      -5.398   6.614  -0.047  1.00  0.00     0.116 C 
BRANCH  28  29
ATOM     29  N   UNL     1      -6.399   7.600   0.349  1.00  0.00    -0.352 N 
ATOM     30  C   UNL     1      -6.642   8.853  -0.183  1.00  0.00     0.251 C 
ATOM     31  H   UNL     1      -6.981   7.337   1.097  1.00  0.00     0.163 HD
ATOM     32  O   UNL     1      -7.462   9.617   0.320  1.00  0.00    -0.269 OA
BRANCH  30  33
ATOM     33  C   UNL     1      -6.009   9.211  -1.474  1.00  0.00     0.039 A 
ATOM     34  C   UNL     1      -6.866   9.581  -2.519  1.00  0.00     0.014 A 
ATOM     35  C   UNL     1      -4.671   8.924  -1.724  1.00  0.00     0.014 A 
ATOM     36  C   UNL     1      -6.446   9.414  -3.835  1.00  0.00     0.010 A 
ATOM     37  C   UNL     1      -4.285   8.663  -3.024  1.00  0.00     0.010 A 
ATOM     38  C   UNL     1      -5.194   8.846  -4.070  1.00  0.00    -0.014 A 
BRANCH  38  39
ATOM     39  C   UNL     1      -4.812   8.289  -5.359  1.00  0.00     0.031 A 
ATOM     40  C   UNL     1      -3.894   9.018  -6.247  1.00  0.00     0.074 A 
ATOM     41  C   UNL     1      -5.294   7.089  -5.748  1.00  0.00     0.049 A 
ATOM     42  N   UNL     1      -3.954   8.970  -7.535  1.00  0.00    -0.248 NA
ATOM     43  C   UNL     1      -2.845   9.898  -5.743  1.00  0.00     0.031 C 
ATOM     44  C   UNL     1      -4.867   6.292  -6.895  1.00  0.00     0.029 A 
ATOM     45  N   UNL     1      -6.451   6.461  -5.300  1.00  0.00    -0.354 N 
ATOM     46  C   UNL     1      -2.801   9.540  -8.012  1.00  0.00     0.074 A 
ATOM     47  C   UNL     1      -2.188  10.183  -6.872  1.00  0.00     0.031 C 
ATOM     48  C   UNL     1      -5.855   5.446  -7.225  1.00  0.00     0.029 A 
ATOM     49  C   UNL     1      -6.999   5.765  -6.390  1.00  0.00     0.049 A 
ATOM     50  H   UNL     1      -6.819   6.498  -4.388  1.00  0.00     0.167 HD
ATOM     51  C   UNL     1      -2.381   9.275  -9.279  1.00  0.00     0.034 A 
ATOM     52  C   UNL     1      -8.254   6.045  -6.844  1.00  0.00     0.034 A 
ATOM     53  C   UNL     1      -3.269   8.349  -9.973  1.00  0.00     0.049 A 
ATOM     54  C   UNL     1      -8.286   6.508  -8.283  1.00  0.00     0.074 A 
ATOM     55  C   UNL     1      -3.194   6.987 -10.221  1.00  0.00     0.029 A 
ATOM     56  N   UNL     1      -4.572   8.728 -10.271  1.00  0.00    -0.354 N 
ATOM     57  N   UNL     1      -7.244   6.926  -8.947  1.00  0.00    -0.248 NA
ATOM     58  C   UNL     1      -9.505   6.550  -9.081  1.00  0.00     0.031 C 
ATOM     59  C   UNL     1      -4.470   6.545 -10.655  1.00  0.00     0.029 A 
ATOM     60  C   UNL     1      -5.314   7.641 -10.695  1.00  0.00     0.049 A 
ATOM     61  H   UNL     1      -4.920   9.646 -10.191  1.00  0.00     0.167 HD
ATOM     62  C   UNL     1      -7.617   7.299 -10.218  1.00  0.00     0.074 A 
ATOM     63  C   UNL     1      -9.044   7.027 -10.251  1.00  0.00     0.031 C 
ATOM     64  C   UNL     1      -6.704   7.801 -11.110  1.00  0.00     0.034 A 
BRANCH  51  65
ATOM     65  C   UNL     1      -0.982   9.601  -9.728  1.00  0.00     0.023 A 
ATOM     66  C   UNL     1      -0.265   8.678 -10.511  1.00  0.00     0.031 A 
ATOM     67  C   UNL     1      -0.296  10.779  -9.377  1.00  0.00     0.131 A 
ATOM     68  C   UNL     1       1.090   8.882 -10.822  1.00  0.00     0.055 A 
ATOM     69  C   UNL     1       1.068  10.963  -9.643  1.00  0.00     0.041 A 
ATOM     70  F   UNL     1      -0.928  11.796  -8.771  1.00  0.00    -0.206 F 
ATOM     71  C   UNL     1       1.773  10.002 -10.356  1.00  0.00     0.022 A 
BRANCH  68  72
ATOM     72  S   UNL     1       1.946   7.654 -11.845  1.00  0.00     0.124 S 
ATOM     73  O   UNL     1       1.803   6.436 -11.054  1.00  0.00    -0.237 OA
ATOM     74  O   UNL     1       1.188   7.707 -13.091  1.00  0.00    -0.237 OA
ATOM     75  O   UNL     1       3.310   8.175 -11.931  1.00  0.00    -0.744 OA
ENDBRANCH  68  72
ENDBRANCH  51  65
BRANCH  52  76
ATOM     76  C   UNL     1      -9.181   6.490  -5.762  1.00  0.00     0.023 A 
ATOM     77  C   UNL     1      -9.382   5.600  -4.684  1.00  0.00     0.031 A 
ATOM     78  C   UNL     1      -9.500   7.839  -5.567  1.00  0.00     0.131 A 
ATOM     79  C   UNL     1      -9.712   6.091  -3.414  1.00  0.00     0.055 A 
ATOM     80  C   UNL     1      -9.900   8.316  -4.311  1.00  0.00     0.041 A 
ATOM     81  F   UNL     1      -9.307   8.737  -6.544  1.00  0.00    -0.206 F 
ATOM     82  C   UNL     1      -9.959   7.450  -3.216  1.00  0.00     0.022 A 
BRANCH  79  83
ATOM     83  S   UNL     1      -9.526   4.988  -1.981  1.00  0.00     0.124 S 
ATOM     84  O   UNL     1     -10.848   4.378  -1.890  1.00  0.00    -0.237 OA
ATOM     85  O   UNL     1      -8.444   4.099  -2.398  1.00  0.00    -0.237 OA
ATOM     86  O   UNL     1      -9.174   5.896  -0.891  1.00  0.00    -0.744 OA
ENDBRANCH  79  83
ENDBRANCH  52  76
BRANCH  64  87
ATOM     87  C   UNL     1      -6.976   8.408 -12.482  1.00  0.00     0.023 A 
ATOM     88  C   UNL     1      -8.255   8.594 -13.024  1.00  0.00     0.031 A 
ATOM     89  C   UNL     1      -5.910   8.870 -13.302  1.00  0.00     0.131 A 
ATOM     90  C   UNL     1      -8.442   9.153 -14.305  1.00  0.00     0.055 A 
ATOM     91  C   UNL     1      -6.098   9.474 -14.551  1.00  0.00     0.041 A 
ATOM     92  F   UNL     1      -4.626   8.770 -12.930  1.00  0.00    -0.206 F 
ATOM     93  C   UNL     1      -7.373   9.612 -15.067  1.00  0.00     0.022 A 
BRANCH  90  94
ATOM     94  S   UNL     1     -10.127   9.228 -14.969  1.00  0.00     0.124 S 
ATOM     95  O   UNL     1     -10.485   7.814 -15.043  1.00  0.00    -0.237 OA
ATOM     96  O   UNL     1     -10.828  10.005 -13.953  1.00  0.00    -0.237 OA
ATOM     97  O   UNL     1      -9.961   9.896 -16.259  1.00  0.00    -0.744 OA
ENDBRANCH  90  94
ENDBRANCH  64  87
ENDBRANCH  38  39
ENDBRANCH  30  33
ENDBRANCH  28  29
ENDBRANCH  27  28
ENDBRANCH  26  27
ENDBRANCH   1  26
TORSDOF 21
