REMARK SMILES Cc1ccc([C@@H](CC(=O)NCCCCCCNC(=O)c2ccc(-c3c4nc(c(-c5cc(S(=O)(=O)[O-])ccc5F)c5ccc([nH]5)c(-c5cc(S(=O)(=O)[O-])ccc5F)c5nc(c(-c6cc(S(=O)(=O)[O-])ccc6F)c6ccc3[nH]6)C=C5)C=C4)cc2)NC(=O)c2ccc(OC(F)F)cc2)cc1
REMARK SMILES IDX 12 1 11 2 10 3 8 4 9 5 7 7 6 8 5 9 1 10 2 11 3 12 97 13 4 14
REMARK SMILES IDX 96 15 83 16 84 17 85 19 86 20 87 21 95 22 88 23 94 24 89 25
REMARK SMILES IDX 90 26 91 27 92 28 93 29 13 30 14 31 15 32 16 33 17 34 18 35
REMARK SMILES IDX 19 37 20 38 21 39 82 40 22 41 81 42 23 43 24 44 25 45 75 46
REMARK SMILES IDX 26 47 80 48 74 49 76 50 27 51 79 52 73 53 72 54 28 56 60 57
REMARK SMILES IDX 40 58 59 59 41 60 44 61 58 62 77 63 42 64 43 65 57 67 78 68
REMARK SMILES IDX 45 69 29 70 30 71 38 72 31 73 37 74 39 75 36 76 32 77 33 78
REMARK SMILES IDX 34 79 35 80 61 81 62 82 70 83 63 84 69 85 71 86 68 87 64 88
REMARK SMILES IDX 65 89 66 90 67 91 46 92 47 93 55 94 48 95 54 96 56 97 53 98
REMARK SMILES IDX 49 99 50 100 51 101 52 102
REMARK H PARENT 10 6 83 18 17 36 76 55 44 66
REMARK Flexibility Score: inf
ROOT
ATOM      1  C   UNL     1      -0.140  -3.064  -0.312  1.00  0.00     0.021 C 
ENDROOT
BRANCH   1   2
ATOM      2  C   UNL     1      -1.013  -2.501  -1.437  1.00  0.00     0.116 C 
BRANCH   2   3
ATOM      3  N   UNL     1      -2.422  -2.797  -1.226  1.00  0.00    -0.356 N 
ATOM      4  C   UNL     1      -3.502  -1.973  -1.169  1.00  0.00     0.222 C 
ATOM      5  O   UNL     1      -4.623  -2.479  -1.073  1.00  0.00    -0.275 OA
ATOM      6  H   UNL     1      -2.627  -3.752  -1.105  1.00  0.00     0.163 HD
BRANCH   4   7
ATOM      7  C   UNL     1      -3.356  -0.471  -1.269  1.00  0.00     0.129 C 
BRANCH   7   8
ATOM      8  C   UNL     1      -3.259   0.289   0.071  1.00  0.00     0.122 C 
BRANCH   8   9
ATOM      9  C   UNL     1      -1.821   0.735   0.312  1.00  0.00    -0.025 A 
ATOM     10  C   UNL     1       2.364   1.798   0.368  1.00  0.00     0.044 C 
ATOM     11  C   UNL     1       0.902   1.479   0.415  1.00  0.00    -0.051 A 
ATOM     12  C   UNL     1       0.441   0.367   1.125  1.00  0.00     0.004 A 
ATOM     13  C   UNL     1      -0.009   2.246  -0.311  1.00  0.00     0.004 A 
ATOM     14  C   UNL     1      -0.909   0.002   1.080  1.00  0.00     0.006 A 
ATOM     15  C   UNL     1      -1.355   1.882  -0.356  1.00  0.00     0.006 A 
ENDBRANCH   8   9
BRANCH   8  16
ATOM     16  N   UNL     1      -3.849  -0.391   1.219  1.00  0.00    -0.345 N 
ATOM     17  C   UNL     1      -5.021  -0.146   1.888  1.00  0.00     0.251 C 
ATOM     18  H   UNL     1      -3.322  -1.145   1.569  1.00  0.00     0.164 HD
ATOM     19  O   UNL     1      -5.246  -0.693   2.965  1.00  0.00    -0.269 OA
BRANCH  17  20
ATOM     20  C   UNL     1      -6.033   0.779   1.339  1.00  0.00     0.040 A 
ATOM     21  C   UNL     1      -6.577   1.760   2.172  1.00  0.00     0.017 A 
ATOM     22  C   UNL     1      -6.529   0.617   0.045  1.00  0.00     0.017 A 
ATOM     23  C   UNL     1      -7.579   2.605   1.687  1.00  0.00     0.047 A 
ATOM     24  C   UNL     1      -7.519   1.477  -0.443  1.00  0.00     0.047 A 
ATOM     25  C   UNL     1      -8.047   2.478   0.374  1.00  0.00     0.126 A 
BRANCH  25  26
ATOM     26  O   UNL     1      -9.026   3.367   0.031  1.00  0.00    -0.435 OA
BRANCH  26  27
ATOM     27  C   UNL     1      -9.470   3.391  -1.318  1.00  0.00     0.542 C 
ATOM     28  F   UNL     1      -8.428   3.626  -2.151  1.00  0.00    -0.167 F 
ATOM     29  F   UNL     1     -10.024   2.200  -1.653  1.00  0.00    -0.167 F 
ENDBRANCH  26  27
ENDBRANCH  25  26
ENDBRANCH  17  20
ENDBRANCH   8  16
ENDBRANCH   7   8
ENDBRANCH   4   7
ENDBRANCH   2   3
ENDBRANCH   1   2
BRANCH   1  30
ATOM     30  C   UNL     1       0.759  -4.251  -0.679  1.00  0.00     0.002 C 
BRANCH  30  31
ATOM     31  C   UNL     1       1.667  -4.093  -1.909  1.00  0.00     0.002 C 
BRANCH  31  32
ATOM     32  C   UNL     1       2.431  -2.774  -2.012  1.00  0.00     0.021 C 
BRANCH  32  33
ATOM     33  C   UNL     1       3.587  -2.636  -1.022  1.00  0.00     0.116 C 
BRANCH  33  34
ATOM     34  N   UNL     1       4.873  -2.977  -1.633  1.00  0.00    -0.352 N 
ATOM     35  C   UNL     1       6.152  -2.617  -1.261  1.00  0.00     0.251 C 
ATOM     36  H   UNL     1       4.816  -3.550  -2.432  1.00  0.00     0.163 HD
ATOM     37  O   UNL     1       7.141  -2.955  -1.907  1.00  0.00    -0.269 OA
BRANCH  35  38
ATOM     38  C   UNL     1       6.333  -1.912   0.022  1.00  0.00     0.039 A 
ATOM     39  C   UNL     1       7.025  -2.591   1.030  1.00  0.00     0.014 A 
ATOM     40  C   UNL     1       5.621  -0.750   0.298  1.00  0.00     0.014 A 
ATOM     41  C   UNL     1       6.796  -2.250   2.359  1.00  0.00     0.010 A 
ATOM     42  C   UNL     1       5.337  -0.460   1.619  1.00  0.00     0.010 A 
ATOM     43  C   UNL     1       5.854  -1.262   2.643  1.00  0.00    -0.014 A 
BRANCH  43  44
ATOM     44  C   UNL     1       5.187  -1.168   3.939  1.00  0.00     0.031 A 
ATOM     45  C   UNL     1       5.442  -0.054   4.870  1.00  0.00     0.074 A 
ATOM     46  C   UNL     1       4.267  -2.102   4.269  1.00  0.00     0.049 A 
ATOM     47  N   UNL     1       5.295  -0.128   6.151  1.00  0.00    -0.248 NA
ATOM     48  C   UNL     1       5.928   1.242   4.420  1.00  0.00     0.031 C 
ATOM     49  C   UNL     1       3.313  -2.066   5.372  1.00  0.00     0.029 A 
ATOM     50  N   UNL     1       4.186  -3.404   3.789  1.00  0.00    -0.354 N 
ATOM     51  C   UNL     1       5.359   1.152   6.653  1.00  0.00     0.074 A 
ATOM     52  C   UNL     1       5.840   1.953   5.549  1.00  0.00     0.031 C 
ATOM     53  C   UNL     1       2.926  -3.320   5.653  1.00  0.00     0.029 A 
ATOM     54  C   UNL     1       3.722  -4.217   4.832  1.00  0.00     0.049 A 
ATOM     55  H   UNL     1       4.415  -3.703   2.879  1.00  0.00     0.167 HD
ATOM     56  C   UNL     1       4.849   1.418   7.891  1.00  0.00     0.034 A 
ATOM     57  C   UNL     1       4.476  -5.253   5.301  1.00  0.00     0.034 A 
ATOM     58  C   UNL     1       4.358   0.205   8.550  1.00  0.00     0.049 A 
ATOM     59  C   UNL     1       4.858  -5.111   6.758  1.00  0.00     0.074 A 
ATOM     60  C   UNL     1       3.084  -0.310   8.736  1.00  0.00     0.029 A 
ATOM     61  N   UNL     1       5.244  -0.810   8.899  1.00  0.00    -0.354 N 
ATOM     62  N   UNL     1       4.771  -3.997   7.432  1.00  0.00    -0.248 NA
ATOM     63  C   UNL     1       5.382  -6.208   7.566  1.00  0.00     0.031 C 
ATOM     64  C   UNL     1       3.210  -1.663   9.140  1.00  0.00     0.029 A 
ATOM     65  C   UNL     1       4.558  -1.964   9.229  1.00  0.00     0.049 A 
ATOM     66  H   UNL     1       6.224  -0.718   8.909  1.00  0.00     0.167 HD
ATOM     67  C   UNL     1       5.221  -4.194   8.714  1.00  0.00     0.074 A 
ATOM     68  C   UNL     1       5.570  -5.604   8.753  1.00  0.00     0.031 C 
ATOM     69  C   UNL     1       5.271  -3.174   9.625  1.00  0.00     0.034 A 
BRANCH  56  70
ATOM     70  C   UNL     1       4.484   2.814   8.361  1.00  0.00     0.023 A 
ATOM     71  C   UNL     1       3.405   2.986   9.257  1.00  0.00     0.031 A 
ATOM     72  C   UNL     1       5.099   4.006   7.936  1.00  0.00     0.131 A 
ATOM     73  C   UNL     1       2.906   4.263   9.577  1.00  0.00     0.055 A 
ATOM     74  C   UNL     1       4.566   5.277   8.200  1.00  0.00     0.041 A 
ATOM     75  F   UNL     1       6.276   3.999   7.295  1.00  0.00    -0.206 F 
ATOM     76  C   UNL     1       3.450   5.410   9.009  1.00  0.00     0.022 A 
BRANCH  73  77
ATOM     77  S   UNL     1       1.533   4.407  10.754  1.00  0.00     0.124 S 
ATOM     78  O   UNL     1       0.493   3.603  10.121  1.00  0.00    -0.237 OA
ATOM     79  O   UNL     1       2.118   3.864  11.976  1.00  0.00    -0.237 OA
ATOM     80  O   UNL     1       1.264   5.844  10.787  1.00  0.00    -0.744 OA
ENDBRANCH  73  77
ENDBRANCH  56  70
BRANCH  57  81
ATOM     81  C   UNL     1       5.301  -5.907   4.244  1.00  0.00     0.023 A 
ATOM     82  C   UNL     1       4.614  -6.457   3.139  1.00  0.00     0.031 A 
ATOM     83  C   UNL     1       6.673  -5.661   4.107  1.00  0.00     0.131 A 
ATOM     84  C   UNL     1       5.257  -6.595   1.901  1.00  0.00     0.055 A 
ATOM     85  C   UNL     1       7.328  -5.862   2.884  1.00  0.00     0.041 A 
ATOM     86  F   UNL     1       7.372  -5.105   5.107  1.00  0.00    -0.206 F 
ATOM     87  C   UNL     1       6.612  -6.288   1.764  1.00  0.00     0.022 A 
BRANCH  84  88
ATOM     88  S   UNL     1       4.265  -6.928   0.412  1.00  0.00     0.124 S 
ATOM     89  O   UNL     1       4.503  -8.351   0.198  1.00  0.00    -0.237 OA
ATOM     90  O   UNL     1       2.911  -6.569   0.826  1.00  0.00    -0.237 OA
ATOM     91  O   UNL     1       4.844  -6.029  -0.583  1.00  0.00    -0.744 OA
ENDBRANCH  84  88
ENDBRANCH  57  81
BRANCH  69  92
ATOM     92  C   UNL     1       5.901  -3.236  11.003  1.00  0.00     0.023 A 
ATOM     93  C   UNL     1       6.826  -4.215  11.393  1.00  0.00     0.031 A 
ATOM     94  C   UNL     1       5.634  -2.232  11.969  1.00  0.00     0.131 A 
ATOM     95  C   UNL     1       7.373  -4.229  12.691  1.00  0.00     0.055 A 
ATOM     96  C   UNL     1       6.237  -2.204  13.231  1.00  0.00     0.041 A 
ATOM     97  F   UNL     1       4.780  -1.226  11.727  1.00  0.00    -0.206 F 
ATOM     98  C   UNL     1       7.101  -3.217  13.607  1.00  0.00     0.022 A 
BRANCH  95  99
ATOM     99  S   UNL     1       8.405  -5.639  13.176  1.00  0.00     0.124 S 
ATOM    100  O   UNL     1       7.463  -6.750  13.071  1.00  0.00    -0.237 OA
ATOM    101  O   UNL     1       9.465  -5.611  12.173  1.00  0.00    -0.237 OA
ATOM    102  O   UNL     1       8.826  -5.309  14.535  1.00  0.00    -0.744 OA
ENDBRANCH  95  99
ENDBRANCH  69  92
ENDBRANCH  43  44
ENDBRANCH  35  38
ENDBRANCH  33  34
ENDBRANCH  32  33
ENDBRANCH  31  32
ENDBRANCH  30  31
ENDBRANCH   1  30
TORSDOF 22
