REMARK SMILES Cc1ccc(O)c(C[C@H](NC=O)C(=O)NCCCCCCNC(=O)c2ccc(-c3c4nc(c(-c5cc(S(=O)(=O)[O-])ccc5F)c5ccc([nH]5)c(-c5cc(S(=O)(=O)[O-])ccc5F)c5nc(c(-c6cc(S(=O)(=O)[O-])ccc6F)c6ccc3[nH]6)C=C5)C=C4)cc2)n1
REMARK SMILES IDX 18 1 17 2 16 3 15 4 13 5 14 6 9 8 8 9 7 10 1 11 2 12 3 13
REMARK SMILES IDX 88 14 4 15 5 16 6 17 10 19 11 20 12 22 19 23 20 24 21 25
REMARK SMILES IDX 22 26 23 27 24 29 25 30 26 31 87 32 27 33 86 34 28 35 29 36
REMARK SMILES IDX 30 37 80 38 31 39 85 40 79 41 81 42 32 43 84 44 78 45 77 46
REMARK SMILES IDX 33 48 65 49 45 50 64 51 46 52 49 53 63 54 82 55 47 56 48 57
REMARK SMILES IDX 62 59 83 60 50 61 34 62 35 63 43 64 36 65 42 66 44 67 41 68
REMARK SMILES IDX 37 69 38 70 39 71 40 72 66 73 67 74 75 75 68 76 74 77 76 78
REMARK SMILES IDX 73 79 69 80 70 81 71 82 72 83 51 84 52 85 60 86 53 87 59 88
REMARK SMILES IDX 61 89 58 90 54 91 55 92 56 93 57 94
REMARK H PARENT 15 7 6 18 10 21 22 28 81 47 49 58
REMARK Flexibility Score: inf
ROOT
ATOM      1  C   UNL     1      -2.121  -6.767   2.536  1.00  0.00     0.002 C 
ENDROOT
BRANCH   1   2
ATOM      2  C   UNL     1      -1.664  -5.310   2.403  1.00  0.00     0.021 C 
BRANCH   2   3
ATOM      3  C   UNL     1      -0.888  -5.019   1.125  1.00  0.00     0.116 C 
BRANCH   3   4
ATOM      4  N   UNL     1      -1.736  -5.141  -0.049  1.00  0.00    -0.354 N 
ATOM      5  C   UNL     1      -1.667  -4.475  -1.240  1.00  0.00     0.242 C 
ATOM      6  O   UNL     1      -2.356  -4.884  -2.180  1.00  0.00    -0.273 OA
ATOM      7  H   UNL     1      -2.465  -5.799   0.024  1.00  0.00     0.163 HD
BRANCH   5   8
ATOM      8  C   UNL     1      -0.769  -3.233  -1.399  1.00  0.00     0.177 C 
BRANCH   8   9
ATOM      9  C   UNL     1       0.746  -3.509  -1.363  1.00  0.00     0.095 C 
BRANCH   9  10
ATOM     10  C   UNL     1       1.174  -4.790  -2.033  1.00  0.00     0.085 A 
ATOM     11  C   UNL     1       0.680  -8.336  -1.174  1.00  0.00     0.067 C 
ATOM     12  C   UNL     1       1.157  -7.126  -1.917  1.00  0.00     0.038 A 
ATOM     13  C   UNL     1       1.884  -7.231  -3.092  1.00  0.00     0.027 A 
ATOM     14  N   UNL     1       0.835  -5.929  -1.379  1.00  0.00    -0.254 NA
ATOM     15  C   UNL     1       2.266  -6.062  -3.747  1.00  0.00     0.050 A 
ATOM     16  C   UNL     1       1.900  -4.827  -3.217  1.00  0.00     0.137 A 
BRANCH  16  17
ATOM     17  O   UNL     1       2.257  -3.672  -3.848  1.00  0.00    -0.506 OA
ATOM     18  H   UNL     1       2.747  -3.706  -4.646  1.00  0.00     0.293 HD
ENDBRANCH  16  17
ENDBRANCH   9  10
ENDBRANCH   8   9
BRANCH   8  19
ATOM     19  N   UNL     1      -1.201  -2.258  -0.387  1.00  0.00    -0.347 N 
ATOM     20  C   UNL     1      -0.886  -0.940  -0.362  1.00  0.00     0.337 C 
ATOM     21  H   UNL     1      -1.773  -2.594   0.341  1.00  0.00     0.164 HD
ATOM     22  O   UNL     1      -1.294  -0.183   0.510  1.00  0.00    -0.279 OA
ENDBRANCH   8  19
ENDBRANCH   5   8
ENDBRANCH   3   4
ENDBRANCH   2   3
ENDBRANCH   1   2
BRANCH   1  23
ATOM     23  C   UNL     1      -0.997  -7.807   2.490  1.00  0.00     0.002 C 
BRANCH  23  24
ATOM     24  C   UNL     1       0.131  -7.591   3.501  1.00  0.00     0.021 C 
BRANCH  24  25
ATOM     25  C   UNL     1      -0.331  -7.483   4.949  1.00  0.00     0.116 C 
BRANCH  25  26
ATOM     26  N   UNL     1      -1.021  -8.682   5.392  1.00  0.00    -0.352 N 
ATOM     27  C   UNL     1      -0.840  -9.407   6.543  1.00  0.00     0.251 C 
ATOM     28  H   UNL     1      -1.715  -9.022   4.782  1.00  0.00     0.163 HD
ATOM     29  O   UNL     1      -1.371 -10.508   6.658  1.00  0.00    -0.269 OA
BRANCH  27  30
ATOM     30  C   UNL     1       0.014  -8.867   7.622  1.00  0.00     0.039 A 
ATOM     31  C   UNL     1       0.905  -9.724   8.271  1.00  0.00     0.014 A 
ATOM     32  C   UNL     1      -0.066  -7.522   7.996  1.00  0.00     0.014 A 
ATOM     33  C   UNL     1       1.744  -9.221   9.266  1.00  0.00     0.010 A 
ATOM     34  C   UNL     1       0.831  -7.006   8.927  1.00  0.00     0.010 A 
ATOM     35  C   UNL     1       1.733  -7.853   9.586  1.00  0.00    -0.014 A 
BRANCH  35  36
ATOM     36  C   UNL     1       2.633  -7.305  10.633  1.00  0.00     0.031 A 
ATOM     37  C   UNL     1       2.051  -6.692  11.879  1.00  0.00     0.074 A 
ATOM     38  C   UNL     1       3.968  -7.328  10.448  1.00  0.00     0.049 A 
ATOM     39  N   UNL     1       2.663  -6.130  12.890  1.00  0.00    -0.248 NA
ATOM     40  C   UNL     1       0.584  -6.681  11.986  1.00  0.00     0.031 C 
ATOM     41  C   UNL     1       4.647  -7.861   9.264  1.00  0.00     0.029 A 
ATOM     42  N   UNL     1       4.994  -6.896  11.250  1.00  0.00    -0.354 N 
ATOM     43  C   UNL     1       1.657  -5.694  13.747  1.00  0.00     0.074 A 
ATOM     44  C   UNL     1       0.398  -5.987  13.097  1.00  0.00     0.031 C 
ATOM     45  C   UNL     1       5.974  -7.758   9.436  1.00  0.00     0.029 A 
ATOM     46  C   UNL     1       6.243  -7.110  10.715  1.00  0.00     0.049 A 
ATOM     47  H   UNL     1       4.849  -6.473  12.127  1.00  0.00     0.167 HD
ATOM     48  C   UNL     1       1.772  -5.128  14.974  1.00  0.00     0.034 A 
ATOM     49  C   UNL     1       7.465  -6.812  11.199  1.00  0.00     0.034 A 
ATOM     50  C   UNL     1       3.038  -4.847  15.608  1.00  0.00     0.049 A 
ATOM     51  C   UNL     1       7.569  -6.154  12.552  1.00  0.00     0.074 A 
ATOM     52  C   UNL     1       3.274  -4.314  16.863  1.00  0.00     0.029 A 
ATOM     53  N   UNL     1       4.283  -5.068  15.032  1.00  0.00    -0.354 N 
ATOM     54  N   UNL     1       6.609  -5.791  13.372  1.00  0.00    -0.248 NA
ATOM     55  C   UNL     1       8.922  -5.880  13.051  1.00  0.00     0.031 C 
ATOM     56  C   UNL     1       4.654  -4.142  17.014  1.00  0.00     0.029 A 
ATOM     57  C   UNL     1       5.288  -4.654  15.893  1.00  0.00     0.049 A 
ATOM     58  H   UNL     1       4.431  -5.462  14.142  1.00  0.00     0.167 HD
ATOM     59  C   UNL     1       7.247  -5.282  14.501  1.00  0.00     0.074 A 
ATOM     60  C   UNL     1       8.670  -5.401  14.259  1.00  0.00     0.031 C 
ATOM     61  C   UNL     1       6.706  -4.769  15.637  1.00  0.00     0.034 A 
BRANCH  48  62
ATOM     62  C   UNL     1       0.493  -4.753  15.689  1.00  0.00     0.023 A 
ATOM     63  C   UNL     1      -0.471  -5.718  16.033  1.00  0.00     0.031 A 
ATOM     64  C   UNL     1       0.215  -3.411  15.999  1.00  0.00     0.131 A 
ATOM     65  C   UNL     1      -1.698  -5.319  16.584  1.00  0.00     0.055 A 
ATOM     66  C   UNL     1      -0.971  -3.030  16.633  1.00  0.00     0.041 A 
ATOM     67  F   UNL     1       1.083  -2.439  15.677  1.00  0.00    -0.206 F 
ATOM     68  C   UNL     1      -1.944  -3.985  16.913  1.00  0.00     0.022 A 
BRANCH  65  69
ATOM     69  S   UNL     1      -3.029  -6.546  16.711  1.00  0.00     0.124 S 
ATOM     70  O   UNL     1      -3.172  -6.970  15.319  1.00  0.00    -0.237 OA
ATOM     71  O   UNL     1      -2.464  -7.532  17.624  1.00  0.00    -0.237 OA
ATOM     72  O   UNL     1      -4.155  -5.777  17.238  1.00  0.00    -0.744 OA
ENDBRANCH  65  69
ENDBRANCH  48  62
BRANCH  49  73
ATOM     73  C   UNL     1       8.690  -7.129  10.408  1.00  0.00     0.023 A 
ATOM     74  C   UNL     1       9.645  -8.041  10.884  1.00  0.00     0.031 A 
ATOM     75  C   UNL     1       8.947  -6.489   9.182  1.00  0.00     0.131 A 
ATOM     76  C   UNL     1      10.834  -8.250  10.168  1.00  0.00     0.055 A 
ATOM     77  C   UNL     1      10.103  -6.744   8.443  1.00  0.00     0.041 A 
ATOM     78  F   UNL     1       8.066  -5.610   8.677  1.00  0.00    -0.206 F 
ATOM     79  C   UNL     1      11.062  -7.619   8.943  1.00  0.00     0.022 A 
BRANCH  76  80
ATOM     80  S   UNL     1      12.124  -9.289  10.907  1.00  0.00     0.124 S 
ATOM     81  O   UNL     1      12.377  -8.596  12.165  1.00  0.00    -0.237 OA
ATOM     82  O   UNL     1      11.452 -10.580  11.008  1.00  0.00    -0.237 OA
ATOM     83  O   UNL     1      13.210  -9.228   9.931  1.00  0.00    -0.744 OA
ENDBRANCH  76  80
ENDBRANCH  49  73
BRANCH  61  84
ATOM     84  C   UNL     1       7.666  -4.352  16.727  1.00  0.00     0.023 A 
ATOM     85  C   UNL     1       8.583  -3.301  16.551  1.00  0.00     0.031 A 
ATOM     86  C   UNL     1       7.675  -5.037  17.956  1.00  0.00     0.131 A 
ATOM     87  C   UNL     1       9.517  -3.013  17.558  1.00  0.00     0.055 A 
ATOM     88  C   UNL     1       8.557  -4.696  18.983  1.00  0.00     0.041 A 
ATOM     89  F   UNL     1       6.826  -6.052  18.181  1.00  0.00    -0.206 F 
ATOM     90  C   UNL     1       9.497  -3.690  18.780  1.00  0.00     0.022 A 
BRANCH  87  91
ATOM     91  S   UNL     1      10.839  -1.822  17.203  1.00  0.00     0.124 S 
ATOM     92  O   UNL     1      11.458  -2.402  16.015  1.00  0.00    -0.237 OA
ATOM     93  O   UNL     1      10.096  -0.584  16.994  1.00  0.00    -0.237 OA
ATOM     94  O   UNL     1      11.663  -1.854  18.410  1.00  0.00    -0.744 OA
ENDBRANCH  87  91
ENDBRANCH  61  84
ENDBRANCH  35  36
ENDBRANCH  27  30
ENDBRANCH  25  26
ENDBRANCH  24  25
ENDBRANCH  23  24
ENDBRANCH   1  23
TORSDOF 20
