REMARK SMILES CCn1ncc(NC(=O)[C@@H]2CCCC[C@@H]2C(=O)NCCCCCCNC(=O)c2ccc(-c3c4nc(c(-c5cc(S(=O)(=O)[O-])ccc5F)c5ccc([nH]5)c(-c5cc(S(=O)(=O)[O-])ccc5F)c5nc(c(-c6cc(S(=O)(=O)[O-])ccc6F)c6ccc3[nH]6)C=C5)C=C4)cc2)c1C(=O)Nc1cnn(C)c1C
REMARK SMILES IDX 21 1 20 2 19 3 18 4 16 5 17 6 15 8 10 9 11 10 12 11 14 12
REMARK SMILES IDX 13 13 8 14 7 15 9 17 6 18 3 19 4 20 91 21 5 22 2 23 1 24
REMARK SMILES IDX 92 25 93 26 94 27 95 29 96 30 100 31 97 32 98 33 101 34
REMARK SMILES IDX 99 35 22 36 23 37 24 38 25 39 26 40 27 42 28 43 29 44 90 45
REMARK SMILES IDX 30 46 89 47 31 48 32 49 33 50 83 51 34 52 88 53 82 54 84 55
REMARK SMILES IDX 35 56 87 57 81 58 80 59 36 61 68 62 48 63 67 64 49 65 52 66
REMARK SMILES IDX 66 67 85 68 50 69 51 70 65 72 86 73 53 74 37 75 38 76 46 77
REMARK SMILES IDX 39 78 45 79 47 80 44 81 40 82 41 83 42 84 43 85 69 86 70 87
REMARK SMILES IDX 78 88 71 89 77 90 79 91 76 92 72 93 73 94 74 95 75 96 54 97
REMARK SMILES IDX 55 98 63 99 56 100 62 101 64 102 61 103 57 104 58 105 59 106
REMARK SMILES IDX 60 107
REMARK H PARENT 18 7 7 16 94 28 25 41 84 60 52 71
REMARK Flexibility Score: inf
ROOT
ATOM      1  C   UNL     1       6.321  -2.341  10.584  1.00  0.00     0.002 C 
ENDROOT
BRANCH   1   2
ATOM      2  C   UNL     1       6.672  -2.397   9.100  1.00  0.00     0.021 C 
BRANCH   2   3
ATOM      3  C   UNL     1       5.594  -1.897   8.156  1.00  0.00     0.116 C 
BRANCH   3   4
ATOM      4  N   UNL     1       5.256  -0.502   8.317  1.00  0.00    -0.356 N 
ATOM      5  C   UNL     1       4.678   0.403   7.488  1.00  0.00     0.223 C 
ATOM      6  O   UNL     1       4.311   1.444   8.043  1.00  0.00    -0.275 OA
ATOM      7  H   UNL     1       5.491  -0.137   9.201  1.00  0.00     0.163 HD
BRANCH   5   8
ATOM      8  C   UNL     1       4.530   0.224   5.960  1.00  0.00     0.091 C 
ATOM      9  C   UNL     1       3.300   0.984   5.414  1.00  0.00     0.091 C 
ATOM     10  C   UNL     1       2.023   0.556   6.139  1.00  0.00     0.014 C 
ATOM     11  C   UNL     1       1.781  -0.949   5.983  1.00  0.00     0.001 C 
ATOM     12  C   UNL     1       4.313  -1.193   5.409  1.00  0.00     0.014 C 
ATOM     13  C   UNL     1       3.032  -1.841   5.944  1.00  0.00     0.001 C 
BRANCH   9  14
ATOM     14  C   UNL     1       3.447   2.465   5.161  1.00  0.00     0.228 C 
ATOM     15  N   UNL     1       2.681   3.071   4.202  1.00  0.00    -0.322 N 
ATOM     16  H   UNL     1       2.769   4.051   4.217  1.00  0.00     0.170 HD
ATOM     17  O   UNL     1       4.189   3.189   5.824  1.00  0.00    -0.274 OA
BRANCH  15  18
ATOM     18  C   UNL     1       1.807   2.634   3.211  1.00  0.00     0.092 A 
ATOM     19  N   UNL     1       0.481   1.699   1.725  1.00  0.00    -0.258 N 
ATOM     20  N   UNL     1       0.005   2.952   1.834  1.00  0.00    -0.178 NA
ATOM     21  C   UNL     1       1.636   1.463   2.458  1.00  0.00     0.150 A 
ATOM     22  C   UNL     1       0.825   3.521   2.704  1.00  0.00     0.162 A 
BRANCH  19  23
ATOM     23  C   UNL     1      -0.229   0.834   0.802  1.00  0.00     0.142 C 
ATOM     24  C   UNL     1       0.361   0.862  -0.595  1.00  0.00     0.029 C 
ENDBRANCH  19  23
BRANCH  21  25
ATOM     25  C   UNL     1       2.502   0.303   2.263  1.00  0.00     0.276 C 
ATOM     26  O   UNL     1       3.698   0.394   2.003  1.00  0.00    -0.267 OA
ATOM     27  N   UNL     1       1.941  -0.917   2.588  1.00  0.00    -0.318 N 
ATOM     28  H   UNL     1       1.840  -1.141   3.542  1.00  0.00     0.170 HD
BRANCH  27  29
ATOM     29  C   UNL     1       1.513  -1.840   1.656  1.00  0.00     0.082 A 
ATOM     30  C   UNL     1       1.767  -1.925   0.277  1.00  0.00     0.161 A 
ATOM     31  C   UNL     1       0.619  -2.860   1.923  1.00  0.00     0.059 A 
ATOM     32  N   UNL     1       0.927  -2.764  -0.330  1.00  0.00    -0.179 NA
ATOM     33  N   UNL     1       0.168  -3.237   0.677  1.00  0.00    -0.271 N 
ATOM     34  C   UNL     1       0.029  -3.381   3.182  1.00  0.00     0.068 C 
ATOM     35  C   UNL     1      -1.130  -3.791   0.359  1.00  0.00     0.174 C 
ENDBRANCH  27  29
ENDBRANCH  21  25
ENDBRANCH  15  18
ENDBRANCH   9  14
ENDBRANCH   5   8
ENDBRANCH   3   4
ENDBRANCH   2   3
ENDBRANCH   1   2
BRANCH   1  36
ATOM     36  C   UNL     1       4.962  -2.916  11.010  1.00  0.00     0.002 C 
BRANCH  36  37
ATOM     37  C   UNL     1       4.589  -4.327  10.531  1.00  0.00     0.021 C 
BRANCH  37  38
ATOM     38  C   UNL     1       5.567  -5.419  10.928  1.00  0.00     0.116 C 
BRANCH  38  39
ATOM     39  N   UNL     1       5.691  -5.572  12.376  1.00  0.00    -0.352 N 
ATOM     40  C   UNL     1       6.595  -6.354  13.082  1.00  0.00     0.251 C 
ATOM     41  H   UNL     1       5.054  -5.054  12.919  1.00  0.00     0.163 HD
ATOM     42  O   UNL     1       6.362  -6.699  14.224  1.00  0.00    -0.269 OA
BRANCH  40  43
ATOM     43  C   UNL     1       7.847  -6.741  12.403  1.00  0.00     0.039 A 
ATOM     44  C   UNL     1       8.411  -8.013  12.528  1.00  0.00     0.014 A 
ATOM     45  C   UNL     1       8.430  -5.784  11.582  1.00  0.00     0.014 A 
ATOM     46  C   UNL     1       9.531  -8.324  11.757  1.00  0.00     0.010 A 
ATOM     47  C   UNL     1       9.377  -6.157  10.675  1.00  0.00     0.010 A 
ATOM     48  C   UNL     1      10.000  -7.387  10.824  1.00  0.00    -0.014 A 
BRANCH  48  49
ATOM     49  C   UNL     1      11.113  -7.660   9.926  1.00  0.00     0.031 A 
ATOM     50  C   UNL     1      10.892  -8.797   8.992  1.00  0.00     0.074 A 
ATOM     51  C   UNL     1      12.116  -6.766   9.762  1.00  0.00     0.049 A 
ATOM     52  N   UNL     1      11.498  -9.936   8.963  1.00  0.00    -0.248 NA
ATOM     53  C   UNL     1       9.744  -8.720   8.072  1.00  0.00     0.031 C 
ATOM     54  C   UNL     1      12.258  -5.428  10.358  1.00  0.00     0.029 A 
ATOM     55  N   UNL     1      13.173  -6.813   8.914  1.00  0.00    -0.354 N 
ATOM     56  C   UNL     1      10.973 -10.628   7.872  1.00  0.00     0.074 A 
ATOM     57  C   UNL     1       9.765  -9.934   7.519  1.00  0.00     0.031 C 
ATOM     58  C   UNL     1      13.181  -4.716   9.673  1.00  0.00     0.029 A 
ATOM     59  C   UNL     1      13.831  -5.599   8.723  1.00  0.00     0.049 A 
ATOM     60  H   UNL     1      13.455  -7.643   8.466  1.00  0.00     0.167 HD
ATOM     61  C   UNL     1      11.705 -11.570   7.211  1.00  0.00     0.034 A 
ATOM     62  C   UNL     1      14.822  -5.337   7.830  1.00  0.00     0.034 A 
ATOM     63  C   UNL     1      12.868 -11.941   7.986  1.00  0.00     0.049 A 
ATOM     64  C   UNL     1      15.393  -6.657   7.452  1.00  0.00     0.074 A 
ATOM     65  C   UNL     1      13.060 -12.512   9.229  1.00  0.00     0.029 A 
ATOM     66  N   UNL     1      14.068 -11.343   7.666  1.00  0.00    -0.354 N 
ATOM     67  N   UNL     1      15.991  -7.448   8.304  1.00  0.00    -0.248 NA
ATOM     68  C   UNL     1      14.847  -7.316   6.275  1.00  0.00     0.031 C 
ATOM     69  C   UNL     1      14.155 -11.791   9.794  1.00  0.00     0.029 A 
ATOM     70  C   UNL     1      14.631 -10.892   8.835  1.00  0.00     0.049 A 
ATOM     71  H   UNL     1      14.452 -11.255   6.763  1.00  0.00     0.167 HD
ATOM     72  C   UNL     1      15.538  -8.723   7.995  1.00  0.00     0.074 A 
ATOM     73  C   UNL     1      14.904  -8.588   6.683  1.00  0.00     0.031 C 
ATOM     74  C   UNL     1      15.457  -9.701   8.947  1.00  0.00     0.034 A 
BRANCH  61  75
ATOM     75  C   UNL     1      11.592 -11.909   5.737  1.00  0.00     0.023 A 
ATOM     76  C   UNL     1      12.474 -12.889   5.234  1.00  0.00     0.031 A 
ATOM     77  C   UNL     1      10.889 -11.169   4.760  1.00  0.00     0.131 A 
ATOM     78  C   UNL     1      12.703 -13.024   3.854  1.00  0.00     0.055 A 
ATOM     79  C   UNL     1      11.073 -11.351   3.385  1.00  0.00     0.041 A 
ATOM     80  F   UNL     1      10.054 -10.171   5.064  1.00  0.00    -0.206 F 
ATOM     81  C   UNL     1      12.008 -12.259   2.924  1.00  0.00     0.022 A 
BRANCH  78  82
ATOM     82  S   UNL     1      14.059 -14.093   3.306  1.00  0.00     0.124 S 
ATOM     83  O   UNL     1      15.177 -13.579   4.090  1.00  0.00    -0.237 OA
ATOM     84  O   UNL     1      13.565 -15.415   3.675  1.00  0.00    -0.237 OA
ATOM     85  O   UNL     1      14.134 -13.834   1.870  1.00  0.00    -0.744 OA
ENDBRANCH  78  82
ENDBRANCH  61  75
BRANCH  62  86
ATOM     86  C   UNL     1      15.011  -4.091   7.031  1.00  0.00     0.023 A 
ATOM     87  C   UNL     1      16.244  -3.724   6.447  1.00  0.00     0.031 A 
ATOM     88  C   UNL     1      13.877  -3.350   6.625  1.00  0.00     0.131 A 
ATOM     89  C   UNL     1      16.303  -2.664   5.507  1.00  0.00     0.055 A 
ATOM     90  C   UNL     1      13.940  -2.309   5.695  1.00  0.00     0.041 A 
ATOM     91  F   UNL     1      12.648  -3.672   7.060  1.00  0.00    -0.206 F 
ATOM     92  C   UNL     1      15.155  -1.967   5.124  1.00  0.00     0.022 A 
BRANCH  89  93
ATOM     93  S   UNL     1      17.879  -2.222   4.700  1.00  0.00     0.124 S 
ATOM     94  O   UNL     1      18.660  -1.696   5.813  1.00  0.00    -0.237 OA
ATOM     95  O   UNL     1      18.316  -3.499   4.146  1.00  0.00    -0.237 OA
ATOM     96  O   UNL     1      17.486  -1.226   3.702  1.00  0.00    -0.744 OA
ENDBRANCH  89  93
ENDBRANCH  62  86
BRANCH  74  97
ATOM     97  C   UNL     1      16.117  -9.467  10.293  1.00  0.00     0.023 A 
ATOM     98  C   UNL     1      15.748  -8.468  11.226  1.00  0.00     0.031 A 
ATOM     99  C   UNL     1      17.058 -10.427  10.705  1.00  0.00     0.131 A 
ATOM    100  C   UNL     1      16.319  -8.467  12.518  1.00  0.00     0.055 A 
ATOM    101  C   UNL     1      17.601 -10.435  11.988  1.00  0.00     0.041 A 
ATOM    102  F   UNL     1      17.428 -11.414   9.872  1.00  0.00    -0.206 F 
ATOM    103  C   UNL     1      17.233  -9.455  12.900  1.00  0.00     0.022 A 
BRANCH 100 104
ATOM    104  S   UNL     1      15.880  -7.183  13.740  1.00  0.00     0.124 S 
ATOM    105  O   UNL     1      16.102  -5.938  13.015  1.00  0.00    -0.237 OA
ATOM    106  O   UNL     1      14.491  -7.503  14.056  1.00  0.00    -0.237 OA
ATOM    107  O   UNL     1      16.820  -7.421  14.838  1.00  0.00    -0.744 OA
ENDBRANCH 100 104
ENDBRANCH  74  97
ENDBRANCH  48  49
ENDBRANCH  40  43
ENDBRANCH  38  39
ENDBRANCH  37  38
ENDBRANCH  36  37
ENDBRANCH   1  36
TORSDOF 21
