REMARK SMILES COc1ccc(/C=C2/SC(=S)N(NC(=O)c3ccc(C(C)(C)C)cc3)C2=O)c(C(=O)NCCCCCCNC(=O)c2ccc(-c3c4nc(c(-c5cc(S(=O)(=O)[O-])ccc5F)c5ccc([nH]5)c(-c5cc(S(=O)(=O)[O-])ccc5F)c5nc(c(-c6cc(S(=O)(=O)[O-])ccc6F)c6ccc3[nH]6)C=C5)C=C4)cc2)c1OC
REMARK SMILES IDX 34 1 33 2 32 3 31 4 29 5 30 6 28 8 3 9 4 10 104 11 5 12 6 13
REMARK SMILES IDX 2 14 1 15 105 16 106 17 7 18 8 19 9 20 26 21 10 22 12 23
REMARK SMILES IDX 27 24 11 25 13 26 14 27 15 29 16 30 17 31 25 32 18 33 24 34
REMARK SMILES IDX 19 35 20 36 21 37 22 38 23 39 35 40 36 41 37 42 38 43 39 44
REMARK SMILES IDX 40 46 41 47 42 48 103 49 43 50 102 51 44 52 45 53 46 54
REMARK SMILES IDX 96 55 47 56 101 57 95 58 97 59 48 60 100 61 94 62 93 63
REMARK SMILES IDX 49 65 81 66 61 67 80 68 62 69 65 70 79 71 98 72 63 73 64 74
REMARK SMILES IDX 78 76 99 77 66 78 50 79 51 80 59 81 52 82 58 83 60 84 57 85
REMARK SMILES IDX 53 86 54 87 55 88 56 89 82 90 83 91 91 92 84 93 90 94 92 95
REMARK SMILES IDX 89 96 85 97 86 98 87 99 88 100 67 101 68 102 76 103 69 104
REMARK SMILES IDX 75 105 77 106 74 107 70 108 71 109 72 110 73 111
REMARK H PARENT 31 7 13 28 38 45 97 64 65 75
REMARK Flexibility Score: inf
ROOT
ATOM      1  C   UNL     1       7.957   0.285  -1.459  1.00  0.00     0.002 C 
ENDROOT
BRANCH   1   2
ATOM      2  C   UNL     1       6.739   0.150  -2.383  1.00  0.00     0.021 C 
BRANCH   2   3
ATOM      3  C   UNL     1       5.511   1.033  -2.162  1.00  0.00     0.116 C 
BRANCH   3   4
ATOM      4  N   UNL     1       5.410   2.400  -2.586  1.00  0.00    -0.352 N 
ATOM      5  C   UNL     1       4.238   3.129  -2.798  1.00  0.00     0.255 C 
ATOM      6  O   UNL     1       4.371   4.343  -2.995  1.00  0.00    -0.269 OA
ATOM      7  H   UNL     1       6.257   2.875  -2.744  1.00  0.00     0.163 HD
BRANCH   5   8
ATOM      8  C   UNL     1       2.835   2.555  -2.979  1.00  0.00     0.092 A 
ATOM      9  C   UNL     1       0.573   1.870  -2.213  1.00  0.00     0.161 A 
ATOM     10  C   UNL     1       0.078   2.192  -3.483  1.00  0.00     0.051 A 
ATOM     11  C   UNL     1       1.972   2.003  -1.946  1.00  0.00     0.174 A 
ATOM     12  C   UNL     1       0.878   2.696  -4.475  1.00  0.00     0.013 A 
ATOM     13  C   UNL     1       2.240   2.912  -4.240  1.00  0.00    -0.007 A 
BRANCH   9  14
ATOM     14  O   UNL     1      -0.549   1.578  -1.515  1.00  0.00    -0.493 OA
ATOM     15  C   UNL     1      -0.876   1.085  -0.246  1.00  0.00     0.278 C 
ENDBRANCH   9  14
BRANCH  11  16
ATOM     16  O   UNL     1       2.390   1.872  -0.640  1.00  0.00    -0.492 OA
ATOM     17  C   UNL     1       3.138   0.700  -0.318  1.00  0.00     0.278 C 
ENDBRANCH  11  16
BRANCH  13  18
ATOM     18  C   UNL     1       2.833   3.609  -5.407  1.00  0.00     0.030 C 
ATOM     19  C   UNL     1       3.681   3.055  -6.280  1.00  0.00     0.082 C 
ATOM     20  S   UNL     1       3.947   3.624  -7.887  1.00  0.00    -0.052 SA
ATOM     21  C   UNL     1       4.373   1.774  -6.102  1.00  0.00     0.285 C 
ATOM     22  C   UNL     1       4.653   2.080  -8.387  1.00  0.00     0.168 C 
ATOM     23  N   UNL     1       4.640   1.205  -7.313  1.00  0.00    -0.198 N 
ATOM     24  O   UNL     1       4.758   1.347  -5.014  1.00  0.00    -0.266 OA
ATOM     25  S   UNL     1       5.269   1.813  -9.914  1.00  0.00    -0.050 S 
BRANCH  23  26
ATOM     26  N   UNL     1       5.240  -0.065  -7.387  1.00  0.00    -0.255 N 
ATOM     27  C   UNL     1       5.123  -1.128  -6.498  1.00  0.00     0.270 C 
ATOM     28  H   UNL     1       5.817  -0.221  -8.169  1.00  0.00     0.192 HD
ATOM     29  O   UNL     1       5.957  -2.032  -6.604  1.00  0.00    -0.267 OA
BRANCH  27  30
ATOM     30  C   UNL     1       4.076  -1.265  -5.427  1.00  0.00     0.041 A 
ATOM     31  C   UNL     1       4.438  -1.893  -4.225  1.00  0.00     0.014 A 
ATOM     32  C   UNL     1       2.757  -0.841  -5.553  1.00  0.00     0.014 A 
ATOM     33  C   UNL     1       3.513  -2.090  -3.171  1.00  0.00     0.005 A 
ATOM     34  C   UNL     1       1.835  -1.039  -4.495  1.00  0.00     0.005 A 
ATOM     35  C   UNL     1       2.166  -1.710  -3.292  1.00  0.00    -0.043 A 
BRANCH  35  36
ATOM     36  C   UNL     1       1.084  -2.179  -2.268  1.00  0.00    -0.013 C 
ATOM     37  C   UNL     1       1.284  -3.673  -1.945  1.00  0.00     0.016 C 
ATOM     38  C   UNL     1       1.079  -1.540  -0.875  1.00  0.00     0.016 C 
ATOM     39  C   UNL     1      -0.344  -1.963  -2.822  1.00  0.00     0.016 C 
ENDBRANCH  35  36
ENDBRANCH  27  30
ENDBRANCH  23  26
ENDBRANCH  13  18
ENDBRANCH   5   8
ENDBRANCH   3   4
ENDBRANCH   2   3
ENDBRANCH   1   2
BRANCH   1  40
ATOM     40  C   UNL     1       7.746   0.563   0.035  1.00  0.00     0.002 C 
BRANCH  40  41
ATOM     41  C   UNL     1       6.943  -0.432   0.884  1.00  0.00     0.021 C 
BRANCH  41  42
ATOM     42  C   UNL     1       7.340  -1.907   0.835  1.00  0.00     0.116 C 
BRANCH  42  43
ATOM     43  N   UNL     1       8.751  -2.122   1.088  1.00  0.00    -0.352 N 
ATOM     44  C   UNL     1       9.402  -2.794   2.092  1.00  0.00     0.251 C 
ATOM     45  H   UNL     1       9.349  -1.712   0.421  1.00  0.00     0.163 HD
ATOM     46  O   UNL     1      10.618  -2.647   2.199  1.00  0.00    -0.269 OA
BRANCH  44  47
ATOM     47  C   UNL     1       8.686  -3.681   3.043  1.00  0.00     0.039 A 
ATOM     48  C   UNL     1       9.139  -3.739   4.366  1.00  0.00     0.014 A 
ATOM     49  C   UNL     1       7.650  -4.527   2.638  1.00  0.00     0.014 A 
ATOM     50  C   UNL     1       8.548  -4.621   5.277  1.00  0.00     0.010 A 
ATOM     51  C   UNL     1       7.010  -5.354   3.567  1.00  0.00     0.010 A 
ATOM     52  C   UNL     1       7.467  -5.430   4.893  1.00  0.00    -0.014 A 
BRANCH  52  53
ATOM     53  C   UNL     1       6.862  -6.401   5.850  1.00  0.00     0.031 A 
ATOM     54  C   UNL     1       6.949  -7.883   5.578  1.00  0.00     0.074 A 
ATOM     55  C   UNL     1       6.240  -5.958   6.962  1.00  0.00     0.049 A 
ATOM     56  N   UNL     1       6.461  -8.884   6.267  1.00  0.00    -0.248 NA
ATOM     57  C   UNL     1       7.661  -8.292   4.357  1.00  0.00     0.031 C 
ATOM     58  C   UNL     1       6.073  -4.550   7.332  1.00  0.00     0.029 A 
ATOM     59  N   UNL     1       5.636  -6.641   7.989  1.00  0.00    -0.354 N 
ATOM     60  C   UNL     1       6.814 -10.036   5.571  1.00  0.00     0.074 A 
ATOM     61  C   UNL     1       7.482  -9.604   4.362  1.00  0.00     0.031 C 
ATOM     62  C   UNL     1       5.441  -4.477   8.515  1.00  0.00     0.029 A 
ATOM     63  C   UNL     1       5.114  -5.825   8.969  1.00  0.00     0.049 A 
ATOM     64  H   UNL     1       5.581  -7.623   8.022  1.00  0.00     0.167 HD
ATOM     65  C   UNL     1       6.635 -11.335   5.920  1.00  0.00     0.034 A 
ATOM     66  C   UNL     1       4.442  -6.129  10.098  1.00  0.00     0.034 A 
ATOM     67  C   UNL     1       5.971 -11.758   7.129  1.00  0.00     0.049 A 
ATOM     68  C   UNL     1       4.208  -7.585  10.435  1.00  0.00     0.074 A 
ATOM     69  C   UNL     1       5.728 -13.046   7.575  1.00  0.00     0.029 A 
ATOM     70  N   UNL     1       5.451 -10.902   8.091  1.00  0.00    -0.354 N 
ATOM     71  N   UNL     1       4.567  -8.659   9.768  1.00  0.00    -0.248 NA
ATOM     72  C   UNL     1       3.500  -7.867  11.689  1.00  0.00     0.031 C 
ATOM     73  C   UNL     1       5.011 -12.969   8.774  1.00  0.00     0.029 A 
ATOM     74  C   UNL     1       4.882 -11.635   9.122  1.00  0.00     0.049 A 
ATOM     75  H   UNL     1       5.482  -9.919   8.048  1.00  0.00     0.167 HD
ATOM     76  C   UNL     1       4.177  -9.740  10.556  1.00  0.00     0.074 A 
ATOM     77  C   UNL     1       3.578  -9.186  11.751  1.00  0.00     0.031 C 
ATOM     78  C   UNL     1       4.301 -11.071  10.316  1.00  0.00     0.034 A 
BRANCH  65  79
ATOM     79  C   UNL     1       7.166 -12.389   4.977  1.00  0.00     0.023 A 
ATOM     80  C   UNL     1       8.542 -12.504   4.709  1.00  0.00     0.031 A 
ATOM     81  C   UNL     1       6.296 -13.288   4.336  1.00  0.00     0.131 A 
ATOM     82  C   UNL     1       9.000 -13.449   3.779  1.00  0.00     0.055 A 
ATOM     83  C   UNL     1       6.766 -14.281   3.474  1.00  0.00     0.041 A 
ATOM     84  F   UNL     1       4.970 -13.214   4.533  1.00  0.00    -0.206 F 
ATOM     85  C   UNL     1       8.125 -14.358   3.181  1.00  0.00     0.022 A 
BRANCH  82  86
ATOM     86  S   UNL     1      10.737 -13.384   3.264  1.00  0.00     0.124 S 
ATOM     87  O   UNL     1      10.822 -12.046   2.684  1.00  0.00    -0.237 OA
ATOM     88  O   UNL     1      11.448 -13.583   4.521  1.00  0.00    -0.237 OA
ATOM     89  O   UNL     1      10.850 -14.480   2.303  1.00  0.00    -0.744 OA
ENDBRANCH  82  86
ENDBRANCH  65  79
BRANCH  66  90
ATOM     90  C   UNL     1       3.925  -5.057  11.004  1.00  0.00     0.023 A 
ATOM     91  C   UNL     1       4.322  -4.992  12.350  1.00  0.00     0.031 A 
ATOM     92  C   UNL     1       2.943  -4.149  10.568  1.00  0.00     0.131 A 
ATOM     93  C   UNL     1       3.675  -4.112  13.231  1.00  0.00     0.055 A 
ATOM     94  C   UNL     1       2.360  -3.219  11.431  1.00  0.00     0.041 A 
ATOM     95  F   UNL     1       2.524  -4.161   9.292  1.00  0.00    -0.206 F 
ATOM     96  C   UNL     1       2.707  -3.214  12.778  1.00  0.00     0.022 A 
BRANCH  93  97
ATOM     97  S   UNL     1       3.999  -4.274  15.010  1.00  0.00     0.124 S 
ATOM     98  O   UNL     1       3.703  -5.684  15.235  1.00  0.00    -0.237 OA
ATOM     99  O   UNL     1       5.404  -3.891  15.096  1.00  0.00    -0.237 OA
ATOM    100  O   UNL     1       3.058  -3.334  15.613  1.00  0.00    -0.744 OA
ENDBRANCH  93  97
ENDBRANCH  66  90
BRANCH  78 101
ATOM    101  C   UNL     1       3.855 -12.012  11.413  1.00  0.00     0.023 A 
ATOM    102  C   UNL     1       2.521 -12.070  11.851  1.00  0.00     0.031 A 
ATOM    103  C   UNL     1       4.797 -12.830  12.064  1.00  0.00     0.131 A 
ATOM    104  C   UNL     1       2.183 -12.852  12.965  1.00  0.00     0.055 A 
ATOM    105  C   UNL     1       4.439 -13.670  13.119  1.00  0.00     0.041 A 
ATOM    106  F   UNL     1       6.087 -12.819  11.691  1.00  0.00    -0.206 F 
ATOM    107  C   UNL     1       3.130 -13.667  13.591  1.00  0.00     0.022 A 
BRANCH 104 108
ATOM    108  S   UNL     1       0.524 -12.676  13.678  1.00  0.00     0.124 S 
ATOM    109  O   UNL     1       0.447 -11.239  13.916  1.00  0.00    -0.237 OA
ATOM    110  O   UNL     1      -0.328 -13.191  12.612  1.00  0.00    -0.237 OA
ATOM    111  O   UNL     1       0.579 -13.503  14.883  1.00  0.00    -0.744 OA
ENDBRANCH 104 108
ENDBRANCH  78 101
ENDBRANCH  52  53
ENDBRANCH  44  47
ENDBRANCH  42  43
ENDBRANCH  41  42
ENDBRANCH  40  41
ENDBRANCH   1  40
TORSDOF 22
