REMARK SMILES Cc1ccccc1NC(=O)CSc1nc(C(=O)NCCCCCCNC(=O)c2ccc(-c3c4nc(c(-c5cc(S(=O)(=O)[O-])ccc5F)c5ccc([nH]5)c(-c5cc(S(=O)(=O)[O-])ccc5F)c5nc(c(-c6cc(S(=O)(=O)[O-])ccc6F)c6ccc3[nH]6)C=C5)C=C4)cc2)c2ccccc2n1
REMARK SMILES IDX 21 1 20 2 19 3 18 4 16 5 17 6 15 8 13 9 14 10 97 11 96 12
REMARK SMILES IDX 91 13 95 14 92 15 94 16 93 17 12 18 11 19 9 20 8 21 10 23
REMARK SMILES IDX 7 24 1 25 2 26 3 27 4 28 6 29 5 30 22 31 23 32 24 33 25 34
REMARK SMILES IDX 26 35 27 37 28 38 29 39 90 40 30 41 89 42 31 43 32 44 33 45
REMARK SMILES IDX 83 46 34 47 88 48 82 49 84 50 35 51 87 52 81 53 80 54 36 56
REMARK SMILES IDX 68 57 48 58 67 59 49 60 52 61 66 62 85 63 50 64 51 65 65 67
REMARK SMILES IDX 86 68 53 69 37 70 38 71 46 72 39 73 45 74 47 75 44 76 40 77
REMARK SMILES IDX 41 78 42 79 43 80 69 81 70 82 78 83 71 84 77 85 79 86 76 87
REMARK SMILES IDX 72 88 73 89 74 90 75 91 54 92 55 93 63 94 56 95 62 96 64 97
REMARK SMILES IDX 61 98 57 99 58 100 59 101 60 102
REMARK H PARENT 18 7 8 22 25 36 84 55 52 66
REMARK Flexibility Score: inf
ROOT
ATOM      1  C   UNL     1      -1.800   9.529  -7.965  1.00  0.00     0.002 C 
ENDROOT
BRANCH   1   2
ATOM      2  C   UNL     1      -2.240   8.073  -7.761  1.00  0.00     0.021 C 
BRANCH   2   3
ATOM      3  C   UNL     1      -1.475   7.210  -6.763  1.00  0.00     0.116 C 
BRANCH   3   4
ATOM      4  N   UNL     1      -1.231   7.798  -5.459  1.00  0.00    -0.351 N 
ATOM      5  C   UNL     1      -0.804   7.201  -4.285  1.00  0.00     0.270 C 
ATOM      6  O   UNL     1      -0.561   7.912  -3.311  1.00  0.00    -0.267 OA
ATOM      7  H   UNL     1      -1.393   8.767  -5.400  1.00  0.00     0.163 HD
BRANCH   5   8
ATOM      8  C   UNL     1      -0.709   5.709  -4.145  1.00  0.00     0.140 A 
ATOM      9  C   UNL     1      -1.487   3.910  -2.987  1.00  0.00     0.189 A 
ATOM     10  N   UNL     1      -1.426   5.233  -3.097  1.00  0.00    -0.217 NA
ATOM     11  N   UNL     1      -0.981   3.041  -3.869  1.00  0.00    -0.222 NA
ATOM     12  C   UNL     1      -0.262   3.530  -4.881  1.00  0.00     0.076 A 
ATOM     13  C   UNL     1       0.003   4.893  -5.034  1.00  0.00     0.032 A 
ATOM     14  C   UNL     1       0.235   2.643  -5.827  1.00  0.00     0.029 A 
ATOM     15  C   UNL     1       0.920   5.306  -6.035  1.00  0.00     0.013 A 
ATOM     16  C   UNL     1       1.039   3.068  -6.888  1.00  0.00     0.002 A 
ATOM     17  C   UNL     1       1.411   4.401  -6.973  1.00  0.00     0.001 A 
BRANCH   9  18
ATOM     18  S   UNL     1      -2.374   3.219  -1.625  1.00  0.00    -0.076 SA
BRANCH  18  19
ATOM     19  C   UNL     1      -1.427   3.921  -0.244  1.00  0.00     0.178 C 
BRANCH  19  20
ATOM     20  C   UNL     1       0.045   3.569  -0.256  1.00  0.00     0.234 C 
ATOM     21  N   UNL     1       0.566   2.326  -0.068  1.00  0.00    -0.325 N 
ATOM     22  H   UNL     1       1.551   2.336  -0.088  1.00  0.00     0.169 HD
ATOM     23  O   UNL     1       0.883   4.471  -0.408  1.00  0.00    -0.274 OA
BRANCH  21  24
ATOM     24  C   UNL     1       0.061   1.028   0.147  1.00  0.00     0.044 A 
ATOM     25  C   UNL     1       2.432   0.023  -0.192  1.00  0.00     0.046 C 
ATOM     26  C   UNL     1       0.944  -0.075   0.036  1.00  0.00    -0.027 A 
ATOM     27  C   UNL     1       0.426  -1.386   0.098  1.00  0.00     0.005 A 
ATOM     28  C   UNL     1      -0.927  -1.617   0.319  1.00  0.00     0.000 A 
ATOM     29  C   UNL     1      -1.278   0.768   0.451  1.00  0.00     0.026 A 
ATOM     30  C   UNL     1      -1.773  -0.538   0.521  1.00  0.00     0.002 A 
ENDBRANCH  21  24
ENDBRANCH  19  20
ENDBRANCH  18  19
ENDBRANCH   9  18
ENDBRANCH   5   8
ENDBRANCH   3   4
ENDBRANCH   2   3
ENDBRANCH   1   2
BRANCH   1  31
ATOM     31  C   UNL     1      -0.306   9.882  -7.970  1.00  0.00     0.002 C 
BRANCH  31  32
ATOM     32  C   UNL     1       0.594   9.133  -8.948  1.00  0.00     0.021 C 
BRANCH  32  33
ATOM     33  C   UNL     1       0.261   9.327 -10.423  1.00  0.00     0.116 C 
BRANCH  33  34
ATOM     34  N   UNL     1       1.135  10.278 -11.109  1.00  0.00    -0.352 N 
ATOM     35  C   UNL     1       1.267  10.477 -12.475  1.00  0.00     0.251 C 
ATOM     36  H   UNL     1       1.697  10.845 -10.533  1.00  0.00     0.163 HD
ATOM     37  O   UNL     1       2.012  11.319 -12.952  1.00  0.00    -0.269 OA
BRANCH  35  38
ATOM     38  C   UNL     1       0.381   9.689 -13.361  1.00  0.00     0.039 A 
ATOM     39  C   UNL     1      -0.640  10.379 -14.021  1.00  0.00     0.014 A 
ATOM     40  C   UNL     1       0.375   8.299 -13.275  1.00  0.00     0.014 A 
ATOM     41  C   UNL     1      -1.793   9.690 -14.381  1.00  0.00     0.010 A 
ATOM     42  C   UNL     1      -0.806   7.632 -13.555  1.00  0.00     0.010 A 
ATOM     43  C   UNL     1      -1.916   8.344 -14.030  1.00  0.00    -0.014 A 
BRANCH  43  44
ATOM     44  C   UNL     1      -3.216   7.680 -13.938  1.00  0.00     0.031 A 
ATOM     45  C   UNL     1      -3.614   6.625 -14.890  1.00  0.00     0.074 A 
ATOM     46  C   UNL     1      -4.074   8.019 -12.948  1.00  0.00     0.049 A 
ATOM     47  N   UNL     1      -4.835   6.278 -15.126  1.00  0.00    -0.248 NA
ATOM     48  C   UNL     1      -2.647   5.907 -15.707  1.00  0.00     0.031 C 
ATOM     49  C   UNL     1      -5.294   7.324 -12.548  1.00  0.00     0.029 A 
ATOM     50  N   UNL     1      -4.144   9.248 -12.293  1.00  0.00    -0.354 N 
ATOM     51  C   UNL     1      -4.814   5.133 -15.885  1.00  0.00     0.074 A 
ATOM     52  C   UNL     1      -3.429   4.986 -16.277  1.00  0.00     0.031 C 
ATOM     53  C   UNL     1      -6.117   8.204 -11.960  1.00  0.00     0.029 A 
ATOM     54  C   UNL     1      -5.510   9.516 -12.077  1.00  0.00     0.049 A 
ATOM     55  H   UNL     1      -3.385   9.818 -12.032  1.00  0.00     0.167 HD
ATOM     56  C   UNL     1      -5.946   4.378 -15.991  1.00  0.00     0.034 A 
ATOM     57  C   UNL     1      -6.096  10.620 -12.625  1.00  0.00     0.034 A 
ATOM     58  C   UNL     1      -7.111   5.036 -15.387  1.00  0.00     0.049 A 
ATOM     59  C   UNL     1      -7.222  10.318 -13.598  1.00  0.00     0.074 A 
ATOM     60  C   UNL     1      -7.859   4.851 -14.235  1.00  0.00     0.029 A 
ATOM     61  N   UNL     1      -7.535   6.245 -15.916  1.00  0.00    -0.354 N 
ATOM     62  N   UNL     1      -7.634   9.120 -13.919  1.00  0.00    -0.248 NA
ATOM     63  C   UNL     1      -7.905  11.359 -14.367  1.00  0.00     0.031 C 
ATOM     64  C   UNL     1      -8.735   5.968 -14.084  1.00  0.00     0.029 A 
ATOM     65  C   UNL     1      -8.528   6.824 -15.149  1.00  0.00     0.049 A 
ATOM     66  H   UNL     1      -7.171   6.644 -16.739  1.00  0.00     0.167 HD
ATOM     67  C   UNL     1      -8.539   9.208 -14.949  1.00  0.00     0.074 A 
ATOM     68  C   UNL     1      -8.678  10.633 -15.189  1.00  0.00     0.031 C 
ATOM     69  C   UNL     1      -9.066   8.110 -15.571  1.00  0.00     0.034 A 
BRANCH  56  70
ATOM     70  C   UNL     1      -5.949   2.925 -16.429  1.00  0.00     0.023 A 
ATOM     71  C   UNL     1      -6.941   2.054 -15.930  1.00  0.00     0.031 A 
ATOM     72  C   UNL     1      -4.997   2.321 -17.273  1.00  0.00     0.131 A 
ATOM     73  C   UNL     1      -6.891   0.666 -16.166  1.00  0.00     0.055 A 
ATOM     74  C   UNL     1      -4.904   0.934 -17.453  1.00  0.00     0.041 A 
ATOM     75  F   UNL     1      -4.153   3.045 -18.017  1.00  0.00    -0.206 F 
ATOM     76  C   UNL     1      -5.846   0.094 -16.884  1.00  0.00     0.022 A 
BRANCH  73  77
ATOM     77  S   UNL     1      -8.217  -0.391 -15.521  1.00  0.00     0.124 S 
ATOM     78  O   UNL     1      -8.179  -0.101 -14.092  1.00  0.00    -0.237 OA
ATOM     79  O   UNL     1      -9.381   0.099 -16.250  1.00  0.00    -0.237 OA
ATOM     80  O   UNL     1      -7.784  -1.739 -15.888  1.00  0.00    -0.744 OA
ENDBRANCH  73  77
ENDBRANCH  56  70
BRANCH  57  81
ATOM     81  C   UNL     1      -5.170  11.790 -12.698  1.00  0.00     0.023 A 
ATOM     82  C   UNL     1      -4.590  12.238 -11.490  1.00  0.00     0.031 A 
ATOM     83  C   UNL     1      -4.586  12.211 -13.900  1.00  0.00     0.131 A 
ATOM     84  C   UNL     1      -3.381  12.944 -11.507  1.00  0.00     0.055 A 
ATOM     85  C   UNL     1      -3.417  12.982 -13.912  1.00  0.00     0.041 A 
ATOM     86  F   UNL     1      -5.059  11.784 -15.080  1.00  0.00    -0.206 F 
ATOM     87  C   UNL     1      -2.786  13.315 -12.714  1.00  0.00     0.022 A 
BRANCH  84  88
ATOM     88  S   UNL     1      -2.446  13.191  -9.968  1.00  0.00     0.124 S 
ATOM     89  O   UNL     1      -2.485  14.640  -9.813  1.00  0.00    -0.237 OA
ATOM     90  O   UNL     1      -3.205  12.430  -8.979  1.00  0.00    -0.237 OA
ATOM     91  O   UNL     1      -1.141  12.621 -10.298  1.00  0.00    -0.744 OA
ENDBRANCH  84  88
ENDBRANCH  57  81
BRANCH  69  92
ATOM     92  C   UNL     1     -10.091   8.174 -16.685  1.00  0.00     0.023 A 
ATOM     93  C   UNL     1     -11.053   9.195 -16.770  1.00  0.00     0.031 A 
ATOM     94  C   UNL     1     -10.181   7.165 -17.673  1.00  0.00     0.131 A 
ATOM     95  C   UNL     1     -11.963   9.249 -17.843  1.00  0.00     0.055 A 
ATOM     96  C   UNL     1     -11.136   7.179 -18.694  1.00  0.00     0.041 A 
ATOM     97  F   UNL     1      -9.328   6.131 -17.710  1.00  0.00    -0.206 F 
ATOM     98  C   UNL     1     -12.023   8.237 -18.798  1.00  0.00     0.022 A 
BRANCH  95  99
ATOM     99  S   UNL     1     -13.023  10.709 -18.008  1.00  0.00     0.124 S 
ATOM    100  O   UNL     1     -13.699  10.758 -16.716  1.00  0.00    -0.237 OA
ATOM    101  O   UNL     1     -12.041  11.763 -18.251  1.00  0.00    -0.237 OA
ATOM    102  O   UNL     1     -13.881  10.387 -19.147  1.00  0.00    -0.744 OA
ENDBRANCH  95  99
ENDBRANCH  69  92
ENDBRANCH  43  44
ENDBRANCH  35  38
ENDBRANCH  33  34
ENDBRANCH  32  33
ENDBRANCH  31  32
ENDBRANCH   1  31
TORSDOF 20
