REMARK SMILES O=C(Nc1c(F)cc(F)cc1F)N[C@H]1C=C[C@@H](C(=O)NCCCCCCNC(=O)c2ccc(-c3c4nc(c(-c5cc(S(=O)(=O)[O-])ccc5F)c5ccc([nH]5)c(-c5cc(S(=O)(=O)[O-])ccc5F)c5nc(c(-c6cc(S(=O)(=O)[O-])ccc6F)c6ccc3[nH]6)C=C5)C=C4)cc2)C1
REMARK SMILES IDX 24 1 23 2 22 3 21 4 20 5 18 6 19 7 17 9 14 10 15 11 93 12
REMARK SMILES IDX 16 13 13 14 1 15 2 16 3 17 4 20 5 21 11 22 6 23 7 24 10 25
REMARK SMILES IDX 12 26 8 27 9 28 25 29 26 30 27 31 28 32 29 34 30 35 31 36
REMARK SMILES IDX 92 37 32 38 91 39 33 40 34 41 35 42 85 43 36 44 90 45 84 46
REMARK SMILES IDX 86 47 37 48 89 49 83 50 82 51 38 53 70 54 50 55 69 56 51 57
REMARK SMILES IDX 54 58 68 59 87 60 52 61 53 62 67 64 88 65 55 66 39 67 40 68
REMARK SMILES IDX 48 69 41 70 47 71 49 72 46 73 42 74 43 75 44 76 45 77 71 78
REMARK SMILES IDX 72 79 80 80 73 81 79 82 81 83 78 84 74 85 75 86 76 87 77 88
REMARK SMILES IDX 56 89 57 90 65 91 58 92 64 93 66 94 63 95 59 96 60 97 61 98
REMARK SMILES IDX 62 99
REMARK H PARENT 20 8 3 18 13 19 27 33 86 52 54 63
REMARK Flexibility Score: inf
ROOT
ATOM      1  C   UNL     1       8.347   4.158   0.724  1.00  0.00     0.002 C 
ENDROOT
BRANCH   1   2
ATOM      2  C   UNL     1       7.090   4.496  -0.085  1.00  0.00     0.002 C 
BRANCH   2   3
ATOM      3  C   UNL     1       5.881   3.591   0.181  1.00  0.00     0.021 C 
BRANCH   3   4
ATOM      4  C   UNL     1       5.424   3.573   1.638  1.00  0.00     0.116 C 
BRANCH   4   5
ATOM      5  N   UNL     1       4.816   4.832   2.016  1.00  0.00    -0.356 N 
ATOM      6  C   UNL     1       3.559   5.119   2.450  1.00  0.00     0.227 C 
ATOM      7  O   UNL     1       3.309   6.303   2.704  1.00  0.00    -0.274 OA
ATOM      8  H   UNL     1       5.413   5.612   1.947  1.00  0.00     0.163 HD
BRANCH   6   9
ATOM      9  C   UNL     1       2.485   4.048   2.656  1.00  0.00     0.103 C 
ATOM     10  C   UNL     1       1.995   1.772   1.859  1.00  0.00     0.107 C 
ATOM     11  C   UNL     1       2.599   1.775   3.227  1.00  0.00    -0.006 C 
ATOM     12  C   UNL     1       2.094   3.242   1.410  1.00  0.00     0.047 C 
ATOM     13  C   UNL     1       2.873   3.009   3.663  1.00  0.00    -0.016 C 
BRANCH  10  14
ATOM     14  N   UNL     1       2.784   0.901   1.027  1.00  0.00    -0.332 N 
ATOM     15  O   UNL     1       1.087   0.282  -0.340  1.00  0.00    -0.248 OA
ATOM     16  C   UNL     1       2.278   0.238  -0.039  1.00  0.00     0.319 C 
ATOM     17  N   UNL     1       3.148  -0.393  -0.874  1.00  0.00    -0.303 N 
ATOM     18  H   UNL     1       2.723  -0.735  -1.693  1.00  0.00     0.172 HD
ATOM     19  H   UNL     1       3.737   0.782   1.244  1.00  0.00     0.165 HD
BRANCH  17  20
ATOM     20  C   UNL     1       4.534  -0.658  -0.812  1.00  0.00     0.115 A 
ATOM     21  C   UNL     1       5.305  -0.733   0.352  1.00  0.00     0.152 A 
ATOM     22  C   UNL     1       5.186  -0.877  -2.034  1.00  0.00     0.152 A 
ATOM     23  F   UNL     1       4.750  -0.601   1.564  1.00  0.00    -0.204 F 
ATOM     24  C   UNL     1       6.675  -0.968   0.302  1.00  0.00     0.081 A 
ATOM     25  C   UNL     1       6.558  -1.092  -2.107  1.00  0.00     0.081 A 
ATOM     26  F   UNL     1       4.482  -0.820  -3.175  1.00  0.00    -0.204 F 
ATOM     27  C   UNL     1       7.288  -1.133  -0.929  1.00  0.00     0.129 A 
ATOM     28  F   UNL     1       8.610  -1.319  -0.972  1.00  0.00    -0.207 F 
ENDBRANCH  17  20
ENDBRANCH  10  14
ENDBRANCH   6   9
ENDBRANCH   4   5
ENDBRANCH   3   4
ENDBRANCH   2   3
ENDBRANCH   1   2
BRANCH   1  29
ATOM     29  C   UNL     1       8.828   2.709   0.604  1.00  0.00     0.021 C 
BRANCH  29  30
ATOM     30  C   UNL     1       9.161   2.261  -0.817  1.00  0.00     0.116 C 
BRANCH  30  31
ATOM     31  N   UNL     1      10.260   3.022  -1.388  1.00  0.00    -0.352 N 
ATOM     32  C   UNL     1      11.434   2.568  -1.937  1.00  0.00     0.251 C 
ATOM     33  H   UNL     1      10.148   4.000  -1.379  1.00  0.00     0.163 HD
ATOM     34  O   UNL     1      12.343   3.362  -2.174  1.00  0.00    -0.269 OA
BRANCH  32  35
ATOM     35  C   UNL     1      11.610   1.127  -2.220  1.00  0.00     0.039 A 
ATOM     36  C   UNL     1      12.800   0.500  -1.845  1.00  0.00     0.014 A 
ATOM     37  C   UNL     1      10.601   0.395  -2.852  1.00  0.00     0.014 A 
ATOM     38  C   UNL     1      12.948  -0.877  -2.035  1.00  0.00     0.010 A 
ATOM     39  C   UNL     1      10.726  -0.988  -2.979  1.00  0.00     0.010 A 
ATOM     40  C   UNL     1      11.895  -1.644  -2.562  1.00  0.00    -0.014 A 
BRANCH  40  41
ATOM     41  C   UNL     1      11.991  -3.127  -2.667  1.00  0.00     0.031 A 
ATOM     42  C   UNL     1      11.902  -3.800  -4.012  1.00  0.00     0.074 A 
ATOM     43  C   UNL     1      12.097  -3.874  -1.549  1.00  0.00     0.049 A 
ATOM     44  N   UNL     1      11.888  -5.077  -4.299  1.00  0.00    -0.248 NA
ATOM     45  C   UNL     1      11.784  -2.921  -5.184  1.00  0.00     0.031 C 
ATOM     46  C   UNL     1      12.152  -3.346  -0.183  1.00  0.00     0.029 A 
ATOM     47  N   UNL     1      12.173  -5.235  -1.377  1.00  0.00    -0.354 N 
ATOM     48  C   UNL     1      11.752  -5.156  -5.681  1.00  0.00     0.074 A 
ATOM     49  C   UNL     1      11.620  -3.797  -6.164  1.00  0.00     0.031 C 
ATOM     50  C   UNL     1      12.286  -4.366   0.679  1.00  0.00     0.029 A 
ATOM     51  C   UNL     1      12.268  -5.625  -0.060  1.00  0.00     0.049 A 
ATOM     52  H   UNL     1      12.160  -5.873  -2.127  1.00  0.00     0.167 HD
ATOM     53  C   UNL     1      11.762  -6.255  -6.476  1.00  0.00     0.034 A 
ATOM     54  C   UNL     1      12.318  -6.854   0.494  1.00  0.00     0.034 A 
ATOM     55  C   UNL     1      11.904  -7.603  -5.982  1.00  0.00     0.049 A 
ATOM     56  C   UNL     1      12.285  -8.063  -0.409  1.00  0.00     0.074 A 
ATOM     57  C   UNL     1      11.976  -8.781  -6.706  1.00  0.00     0.029 A 
ATOM     58  N   UNL     1      11.988  -7.958  -4.642  1.00  0.00    -0.354 N 
ATOM     59  N   UNL     1      12.203  -8.115  -1.719  1.00  0.00    -0.248 NA
ATOM     60  C   UNL     1      12.361  -9.379   0.240  1.00  0.00     0.031 C 
ATOM     61  C   UNL     1      12.021  -9.850  -5.804  1.00  0.00     0.029 A 
ATOM     62  C   UNL     1      12.073  -9.338  -4.518  1.00  0.00     0.049 A 
ATOM     63  H   UNL     1      11.988  -7.324  -3.889  1.00  0.00     0.167 HD
ATOM     64  C   UNL     1      12.255  -9.467  -2.049  1.00  0.00     0.074 A 
ATOM     65  C   UNL     1      12.391 -10.193  -0.803  1.00  0.00     0.031 C 
ATOM     66  C   UNL     1      12.201 -10.055  -3.271  1.00  0.00     0.034 A 
BRANCH  53  67
ATOM     67  C   UNL     1      11.590  -6.043  -7.962  1.00  0.00     0.023 A 
ATOM     68  C   UNL     1      12.521  -5.309  -8.717  1.00  0.00     0.031 A 
ATOM     69  C   UNL     1      10.474  -6.574  -8.634  1.00  0.00     0.131 A 
ATOM     70  C   UNL     1      12.284  -5.064 -10.078  1.00  0.00     0.055 A 
ATOM     71  C   UNL     1      10.288  -6.401 -10.007  1.00  0.00     0.041 A 
ATOM     72  F   UNL     1       9.538  -7.265  -7.964  1.00  0.00    -0.206 F 
ATOM     73  C   UNL     1      11.189  -5.629 -10.735  1.00  0.00     0.022 A 
BRANCH  70  74
ATOM     74  S   UNL     1      13.348  -3.876 -10.941  1.00  0.00     0.124 S 
ATOM     75  O   UNL     1      13.151  -2.670 -10.139  1.00  0.00    -0.237 OA
ATOM     76  O   UNL     1      14.662  -4.500 -10.845  1.00  0.00    -0.237 OA
ATOM     77  O   UNL     1      12.778  -3.820 -12.286  1.00  0.00    -0.744 OA
ENDBRANCH  70  74
ENDBRANCH  53  67
BRANCH  54  78
ATOM     78  C   UNL     1      12.385  -7.018   1.977  1.00  0.00     0.023 A 
ATOM     79  C   UNL     1      13.485  -7.641   2.588  1.00  0.00     0.031 A 
ATOM     80  C   UNL     1      11.321  -6.608   2.801  1.00  0.00     0.131 A 
ATOM     81  C   UNL     1      13.471  -7.889   3.970  1.00  0.00     0.055 A 
ATOM     82  C   UNL     1      11.341  -6.798   4.184  1.00  0.00     0.041 A 
ATOM     83  F   UNL     1      10.244  -6.006   2.271  1.00  0.00    -0.206 F 
ATOM     84  C   UNL     1      12.414  -7.457   4.774  1.00  0.00     0.022 A 
BRANCH  81  85
ATOM     85  S   UNL     1      14.808  -8.884   4.688  1.00  0.00     0.124 S 
ATOM     86  O   UNL     1      14.710 -10.114   3.911  1.00  0.00    -0.237 OA
ATOM     87  O   UNL     1      15.977  -8.050   4.427  1.00  0.00    -0.237 OA
ATOM     88  O   UNL     1      14.428  -9.000   6.094  1.00  0.00    -0.744 OA
ENDBRANCH  81  85
ENDBRANCH  54  78
BRANCH  66  89
ATOM     89  C   UNL     1      12.344 -11.558  -3.323  1.00  0.00     0.023 A 
ATOM     90  C   UNL     1      11.383 -12.417  -2.761  1.00  0.00     0.031 A 
ATOM     91  C   UNL     1      13.467 -12.139  -3.939  1.00  0.00     0.131 A 
ATOM     92  C   UNL     1      11.592 -13.805  -2.775  1.00  0.00     0.055 A 
ATOM     93  C   UNL     1      13.636 -13.522  -4.010  1.00  0.00     0.041 A 
ATOM     94  F   UNL     1      14.421 -11.369  -4.488  1.00  0.00    -0.206 F 
ATOM     95  C   UNL     1      12.703 -14.364  -3.413  1.00  0.00     0.022 A 
BRANCH  92  96
ATOM     96  S   UNL     1      10.444 -14.868  -1.857  1.00  0.00     0.124 S 
ATOM     97  O   UNL     1      10.548 -14.330  -0.505  1.00  0.00    -0.237 OA
ATOM     98  O   UNL     1       9.179 -14.627  -2.543  1.00  0.00    -0.237 OA
ATOM     99  O   UNL     1      11.000 -16.208  -2.035  1.00  0.00    -0.744 OA
ENDBRANCH  92  96
ENDBRANCH  66  89
ENDBRANCH  40  41
ENDBRANCH  32  35
ENDBRANCH  30  31
ENDBRANCH  29  30
ENDBRANCH   1  29
TORSDOF 18
