REMARK SMILES Cc1cccc(-c2c(C(=O)NCCCCCCNC(=O)c3ccc(-c4c5nc(c(-c6cc(S(=O)(=O)[O-])ccc6F)c6ccc([nH]6)c(-c6cc(S(=O)(=O)[O-])ccc6F)c6nc(c(-c7cc(S(=O)(=O)[O-])ccc7F)c7ccc4[nH]7)C=C6)C=C5)cc3)nnn2Cc2cc(F)cc(F)c2)c1
REMARK SMILES IDX 15 1 14 2 13 3 12 4 11 5 9 6 10 7 8 9 7 10 86 11 84 12 85 13
REMARK SMILES IDX 6 14 1 15 2 16 3 17 96 18 4 19 5 20 87 21 88 22 89 23 95 24
REMARK SMILES IDX 90 25 93 26 91 27 92 28 94 29 16 30 17 31 18 32 19 33 20 35
REMARK SMILES IDX 21 36 22 37 83 38 23 39 82 40 24 41 25 42 26 43 76 44 27 45
REMARK SMILES IDX 81 46 75 47 77 48 28 49 80 50 74 51 73 52 29 54 61 55 41 56
REMARK SMILES IDX 60 57 42 58 45 59 59 60 78 61 43 62 44 63 58 65 79 66 46 67
REMARK SMILES IDX 30 68 31 69 39 70 32 71 38 72 40 73 37 74 33 75 34 76 35 77
REMARK SMILES IDX 36 78 62 79 63 80 71 81 64 82 70 83 72 84 69 85 65 86 66 87
REMARK SMILES IDX 67 88 68 89 47 90 48 91 56 92 49 93 55 94 57 95 54 96 50 97
REMARK SMILES IDX 51 98 52 99 53 100
REMARK H PARENT 11 8 18 34 77 53 45 64
REMARK Flexibility Score: inf
ROOT
ATOM      1  C   UNL     1      -2.512  -1.958   3.913  1.00  0.00     0.002 C 
ENDROOT
BRANCH   1   2
ATOM      2  C   UNL     1      -1.716  -0.894   4.680  1.00  0.00     0.002 C 
BRANCH   2   3
ATOM      3  C   UNL     1      -0.876   0.115   3.895  1.00  0.00     0.021 C 
BRANCH   3   4
ATOM      4  C   UNL     1      -1.516   0.800   2.696  1.00  0.00     0.116 C 
BRANCH   4   5
ATOM      5  N   UNL     1      -2.666   1.620   2.957  1.00  0.00    -0.351 N 
ATOM      6  C   UNL     1      -3.254   2.596   2.185  1.00  0.00     0.274 C 
ATOM      7  O   UNL     1      -4.276   3.101   2.663  1.00  0.00    -0.267 OA
ATOM      8  H   UNL     1      -3.102   1.459   3.825  1.00  0.00     0.163 HD
BRANCH   6   9
ATOM      9  C   UNL     1      -2.740   3.072   0.885  1.00  0.00     0.178 A 
ATOM     10  C   UNL     1      -1.885   2.572  -0.103  1.00  0.00     0.102 A 
ATOM     11  N   UNL     1      -1.925   3.542  -1.090  1.00  0.00    -0.239 N 
ATOM     12  N   UNL     1      -3.214   4.303   0.440  1.00  0.00    -0.124 NA
ATOM     13  N   UNL     1      -2.703   4.575  -0.745  1.00  0.00    -0.066 NA
BRANCH  10  14
ATOM     14  C   UNL     1      -1.137   1.335  -0.292  1.00  0.00     0.003 A 
ATOM     15  C   UNL     1       2.476   0.126  -0.111  1.00  0.00     0.044 C 
ATOM     16  C   UNL     1       0.991   0.147  -0.328  1.00  0.00    -0.050 A 
ATOM     17  C   UNL     1       0.307  -1.040  -0.615  1.00  0.00     0.003 A 
ATOM     18  C   UNL     1       0.262   1.334  -0.179  1.00  0.00     0.013 A 
ATOM     19  C   UNL     1      -1.081  -1.040  -0.759  1.00  0.00     0.001 A 
ATOM     20  C   UNL     1      -1.802   0.142  -0.595  1.00  0.00     0.010 A 
ENDBRANCH  10  14
BRANCH  11  21
ATOM     21  C   UNL     1      -1.269   3.570  -2.394  1.00  0.00     0.182 C 
BRANCH  21  22
ATOM     22  C   UNL     1      -1.645   2.427  -3.313  1.00  0.00    -0.021 A 
ATOM     23  C   UNL     1      -0.700   1.956  -4.241  1.00  0.00     0.045 A 
ATOM     24  C   UNL     1      -2.911   1.820  -3.292  1.00  0.00     0.045 A 
ATOM     25  C   UNL     1      -0.999   0.868  -5.060  1.00  0.00     0.126 A 
ATOM     26  C   UNL     1      -3.175   0.715  -4.100  1.00  0.00     0.126 A 
ATOM     27  F   UNL     1      -0.081   0.431  -5.932  1.00  0.00    -0.207 F 
ATOM     28  C   UNL     1      -2.226   0.227  -4.984  1.00  0.00     0.078 A 
ATOM     29  F   UNL     1      -4.364   0.105  -4.009  1.00  0.00    -0.207 F 
ENDBRANCH  21  22
ENDBRANCH  11  21
ENDBRANCH   6   9
ENDBRANCH   4   5
ENDBRANCH   3   4
ENDBRANCH   2   3
ENDBRANCH   1   2
BRANCH   1  30
ATOM     30  C   UNL     1      -1.778  -2.764   2.843  1.00  0.00     0.021 C 
BRANCH  30  31
ATOM     31  C   UNL     1      -0.529  -3.507   3.303  1.00  0.00     0.116 C 
BRANCH  31  32
ATOM     32  N   UNL     1      -0.707  -4.953   3.417  1.00  0.00    -0.352 N 
ATOM     33  C   UNL     1       0.268  -5.936   3.545  1.00  0.00     0.251 C 
ATOM     34  H   UNL     1      -1.638  -5.272   3.401  1.00  0.00     0.163 HD
ATOM     35  O   UNL     1       0.003  -7.112   3.655  1.00  0.00    -0.269 OA
BRANCH  33  36
ATOM     36  C   UNL     1       1.675  -5.480   3.664  1.00  0.00     0.039 A 
ATOM     37  C   UNL     1       2.308  -5.693   4.892  1.00  0.00     0.014 A 
ATOM     38  C   UNL     1       2.223  -4.628   2.710  1.00  0.00     0.014 A 
ATOM     39  C   UNL     1       3.356  -4.857   5.263  1.00  0.00     0.010 A 
ATOM     40  C   UNL     1       3.211  -3.744   3.108  1.00  0.00     0.010 A 
ATOM     41  C   UNL     1       3.715  -3.808   4.414  1.00  0.00    -0.014 A 
BRANCH  41  42
ATOM     42  C   UNL     1       4.459  -2.645   4.895  1.00  0.00     0.031 A 
ATOM     43  C   UNL     1       5.886  -2.464   4.567  1.00  0.00     0.074 A 
ATOM     44  C   UNL     1       3.843  -1.743   5.691  1.00  0.00     0.049 A 
ATOM     45  N   UNL     1       6.724  -1.788   5.280  1.00  0.00    -0.248 NA
ATOM     46  C   UNL     1       6.505  -3.124   3.428  1.00  0.00     0.031 C 
ATOM     47  C   UNL     1       4.347  -0.444   6.124  1.00  0.00     0.029 A 
ATOM     48  N   UNL     1       2.725  -1.959   6.487  1.00  0.00    -0.354 N 
ATOM     49  C   UNL     1       7.902  -1.689   4.576  1.00  0.00     0.074 A 
ATOM     50  C   UNL     1       7.744  -2.627   3.490  1.00  0.00     0.031 C 
ATOM     51  C   UNL     1       3.712  -0.088   7.253  1.00  0.00     0.029 A 
ATOM     52  C   UNL     1       2.873  -1.204   7.656  1.00  0.00     0.049 A 
ATOM     53  H   UNL     1       1.963  -2.542   6.268  1.00  0.00     0.167 HD
ATOM     54  C   UNL     1       8.806  -0.725   4.924  1.00  0.00     0.034 A 
ATOM     55  C   UNL     1       2.905  -1.806   8.880  1.00  0.00     0.034 A 
ATOM     56  C   UNL     1       8.453  -0.105   6.209  1.00  0.00     0.049 A 
ATOM     57  C   UNL     1       4.208  -1.604   9.626  1.00  0.00     0.074 A 
ATOM     58  C   UNL     1       7.887   1.111   6.554  1.00  0.00     0.029 A 
ATOM     59  N   UNL     1       8.441  -0.881   7.368  1.00  0.00    -0.354 N 
ATOM     60  N   UNL     1       5.309  -1.158   9.086  1.00  0.00    -0.248 NA
ATOM     61  C   UNL     1       4.371  -1.927  11.040  1.00  0.00     0.031 C 
ATOM     62  C   UNL     1       7.454   1.028   7.906  1.00  0.00     0.029 A 
ATOM     63  C   UNL     1       7.790  -0.223   8.396  1.00  0.00     0.049 A 
ATOM     64  H   UNL     1       8.842  -1.777   7.444  1.00  0.00     0.167 HD
ATOM     65  C   UNL     1       6.318  -1.182  10.017  1.00  0.00     0.074 A 
ATOM     66  C   UNL     1       5.666  -1.627  11.236  1.00  0.00     0.031 C 
ATOM     67  C   UNL     1       7.610  -0.860   9.698  1.00  0.00     0.034 A 
BRANCH  54  68
ATOM     68  C   UNL     1       9.847  -0.129   3.978  1.00  0.00     0.023 A 
ATOM     69  C   UNL     1      10.363   1.161   4.249  1.00  0.00     0.031 A 
ATOM     70  C   UNL     1      10.303  -0.694   2.769  1.00  0.00     0.131 A 
ATOM     71  C   UNL     1      11.181   1.847   3.324  1.00  0.00     0.055 A 
ATOM     72  C   UNL     1      11.090  -0.004   1.836  1.00  0.00     0.041 A 
ATOM     73  F   UNL     1      10.057  -1.960   2.428  1.00  0.00    -0.206 F 
ATOM     74  C   UNL     1      11.523   1.280   2.103  1.00  0.00     0.022 A 
BRANCH  71  75
ATOM     75  S   UNL     1      11.777   3.515   3.718  1.00  0.00     0.124 S 
ATOM     76  O   UNL     1      10.532   4.254   3.896  1.00  0.00    -0.237 OA
ATOM     77  O   UNL     1      12.573   3.283   4.918  1.00  0.00    -0.237 OA
ATOM     78  O   UNL     1      12.548   3.889   2.532  1.00  0.00    -0.744 OA
ENDBRANCH  71  75
ENDBRANCH  54  68
BRANCH  55  79
ATOM     79  C   UNL     1       2.048  -3.022   8.975  1.00  0.00     0.023 A 
ATOM     80  C   UNL     1       0.662  -2.869   8.754  1.00  0.00     0.031 A 
ATOM     81  C   UNL     1       2.583  -4.316   8.924  1.00  0.00     0.131 A 
ATOM     82  C   UNL     1      -0.116  -3.966   8.360  1.00  0.00     0.055 A 
ATOM     83  C   UNL     1       1.791  -5.418   8.577  1.00  0.00     0.041 A 
ATOM     84  F   UNL     1       3.898  -4.520   9.089  1.00  0.00    -0.206 F 
ATOM     85  C   UNL     1       0.445  -5.240   8.254  1.00  0.00     0.022 A 
BRANCH  82  86
ATOM     86  S   UNL     1      -1.819  -3.715   7.778  1.00  0.00     0.124 S 
ATOM     87  O   UNL     1      -2.601  -4.348   8.833  1.00  0.00    -0.237 OA
ATOM     88  O   UNL     1      -1.939  -2.262   7.692  1.00  0.00    -0.237 OA
ATOM     89  O   UNL     1      -1.817  -4.401   6.487  1.00  0.00    -0.744 OA
ENDBRANCH  82  86
ENDBRANCH  55  79
BRANCH  67  90
ATOM     90  C   UNL     1       8.805  -1.041  10.616  1.00  0.00     0.023 A 
ATOM     91  C   UNL     1       8.809  -1.904  11.724  1.00  0.00     0.031 A 
ATOM     92  C   UNL     1      10.030  -0.380  10.356  1.00  0.00     0.131 A 
ATOM     93  C   UNL     1       9.929  -2.004  12.572  1.00  0.00     0.055 A 
ATOM     94  C   UNL     1      11.171  -0.545  11.151  1.00  0.00     0.041 A 
ATOM     95  F   UNL     1      10.173   0.453   9.315  1.00  0.00    -0.206 F 
ATOM     96  C   UNL     1      11.120  -1.345  12.281  1.00  0.00     0.022 A 
BRANCH  93  97
ATOM     97  S   UNL     1       9.764  -2.956  14.106  1.00  0.00     0.124 S 
ATOM     98  O   UNL     1       8.709  -2.223  14.801  1.00  0.00    -0.237 OA
ATOM     99  O   UNL     1       9.398  -4.280  13.616  1.00  0.00    -0.237 OA
ATOM    100  O   UNL     1      11.089  -2.862  14.716  1.00  0.00    -0.744 OA
ENDBRANCH  93  97
ENDBRANCH  67  90
ENDBRANCH  41  42
ENDBRANCH  33  36
ENDBRANCH  31  32
ENDBRANCH  30  31
ENDBRANCH   1  30
TORSDOF 19
