REMARK SMILES CC1(C)CCN(C(=O)CC(C)(C)C(=O)NCCCCCCNC(=O)c2ccc(-c3c4nc(c(-c5cc(S(=O)(=O)[O-])ccc5F)c5ccc([nH]5)c(-c5cc(S(=O)(=O)[O-])ccc5F)c5nc(c(-c6cc(S(=O)(=O)[O-])ccc6F)c6ccc3[nH]6)C=C5)C=C4)cc2)C1
REMARK SMILES IDX 18 1 17 2 16 3 15 4 13 5 14 6 10 8 11 9 12 10 9 11 7 12 8 13
REMARK SMILES IDX 6 14 1 15 2 16 3 17 4 18 88 19 5 20 19 21 20 22 21 23 22 24
REMARK SMILES IDX 23 25 24 27 25 28 26 29 87 30 27 31 86 32 28 33 29 34 30 35
REMARK SMILES IDX 80 36 31 37 85 38 79 39 81 40 32 41 84 42 78 43 77 44 33 46
REMARK SMILES IDX 65 47 45 48 64 49 46 50 49 51 63 52 82 53 47 54 48 55 62 57
REMARK SMILES IDX 83 58 50 59 34 60 35 61 43 62 36 63 42 64 44 65 41 66 37 67
REMARK SMILES IDX 38 68 39 69 40 70 66 71 67 72 75 73 68 74 74 75 76 76 73 77
REMARK SMILES IDX 69 78 70 79 71 80 72 81 51 82 52 83 60 84 53 85 59 86 61 87
REMARK SMILES IDX 58 88 54 89 55 90 56 91 57 92
REMARK H PARENT 15 7 22 26 81 45 49 56
REMARK Flexibility Score: inf
ROOT
ATOM      1  C   UNL     1      -0.202   4.632  -6.523  1.00  0.00     0.002 C 
ENDROOT
BRANCH   1   2
ATOM      2  C   UNL     1      -0.200   5.257  -5.130  1.00  0.00     0.021 C 
BRANCH   2   3
ATOM      3  C   UNL     1      -0.299   4.269  -3.978  1.00  0.00     0.116 C 
BRANCH   3   4
ATOM      4  N   UNL     1       0.897   3.468  -3.824  1.00  0.00    -0.356 N 
ATOM      5  C   UNL     1       1.644   3.139  -2.735  1.00  0.00     0.226 C 
ATOM      6  O   UNL     1       2.662   2.487  -2.972  1.00  0.00    -0.274 OA
ATOM      7  H   UNL     1       1.235   3.090  -4.668  1.00  0.00     0.163 HD
BRANCH   5   8
ATOM      8  C   UNL     1       1.298   3.625  -1.312  1.00  0.00     0.052 C 
ATOM      9  C   UNL     1      -0.179   3.425  -0.964  1.00  0.00     0.022 C 
ATOM     10  C   UNL     1       1.613   5.134  -1.227  1.00  0.00     0.022 C 
BRANCH   8  11
ATOM     11  C   UNL     1       2.188   2.911  -0.232  1.00  0.00     0.116 C 
BRANCH  11  12
ATOM     12  C   UNL     1       2.430   1.396  -0.286  1.00  0.00     0.223 C 
ATOM     13  O   UNL     1       3.512   0.961  -0.695  1.00  0.00    -0.275 OA
BRANCH  12  14
ATOM     14  N   UNL     1       1.489   0.523   0.208  1.00  0.00    -0.342 N 
ATOM     15  C   UNL     1      -1.054  -0.187  -1.160  1.00  0.00     0.013 C 
ATOM     16  C   UNL     1      -0.667  -0.358   0.325  1.00  0.00    -0.016 C 
ATOM     17  C   UNL     1      -1.942  -0.496   1.150  1.00  0.00     0.013 C 
ATOM     18  C   UNL     1       0.319  -1.531   0.471  1.00  0.00     0.030 C 
ATOM     19  C   UNL     1       0.221   0.775   0.857  1.00  0.00     0.126 C 
ATOM     20  C   UNL     1       1.665  -0.918   0.051  1.00  0.00     0.120 C 
ENDBRANCH  12  14
ENDBRANCH  11  12
ENDBRANCH   8  11
ENDBRANCH   5   8
ENDBRANCH   3   4
ENDBRANCH   2   3
ENDBRANCH   1   2
BRANCH   1  21
ATOM     21  C   UNL     1      -1.381   3.703  -6.826  1.00  0.00     0.002 C 
BRANCH  21  22
ATOM     22  C   UNL     1      -2.771   4.278  -6.541  1.00  0.00     0.021 C 
BRANCH  22  23
ATOM     23  C   UNL     1      -3.062   5.629  -7.185  1.00  0.00     0.116 C 
BRANCH  23  24
ATOM     24  N   UNL     1      -2.930   5.590  -8.629  1.00  0.00    -0.352 N 
ATOM     25  C   UNL     1      -3.818   5.988  -9.597  1.00  0.00     0.251 C 
ATOM     26  H   UNL     1      -2.079   5.224  -8.964  1.00  0.00     0.163 HD
ATOM     27  O   UNL     1      -3.608   5.699 -10.769  1.00  0.00    -0.269 OA
BRANCH  25  28
ATOM     28  C   UNL     1      -5.036   6.738  -9.217  1.00  0.00     0.039 A 
ATOM     29  C   UNL     1      -6.252   6.381  -9.803  1.00  0.00     0.014 A 
ATOM     30  C   UNL     1      -4.983   7.790  -8.296  1.00  0.00     0.014 A 
ATOM     31  C   UNL     1      -7.423   7.042  -9.426  1.00  0.00     0.010 A 
ATOM     32  C   UNL     1      -6.162   8.397  -7.867  1.00  0.00     0.010 A 
ATOM     33  C   UNL     1      -7.394   8.032  -8.429  1.00  0.00    -0.014 A 
BRANCH  33  34
ATOM     34  C   UNL     1      -8.649   8.684  -7.966  1.00  0.00     0.031 A 
ATOM     35  C   UNL     1      -8.856  10.161  -8.168  1.00  0.00     0.074 A 
ATOM     36  C   UNL     1      -9.577   7.949  -7.320  1.00  0.00     0.049 A 
ATOM     37  N   UNL     1      -9.861  10.912  -7.797  1.00  0.00    -0.248 NA
ATOM     38  C   UNL     1      -7.781  10.896  -8.853  1.00  0.00     0.031 C 
ATOM     39  C   UNL     1      -9.465   6.518  -7.026  1.00  0.00     0.029 A 
ATOM     40  N   UNL     1     -10.793   8.299  -6.787  1.00  0.00    -0.354 N 
ATOM     41  C   UNL     1      -9.534  12.207  -8.187  1.00  0.00     0.074 A 
ATOM     42  C   UNL     1      -8.216  12.146  -8.779  1.00  0.00     0.031 C 
ATOM     43  C   UNL     1     -10.574   6.110  -6.389  1.00  0.00     0.029 A 
ATOM     44  C   UNL     1     -11.455   7.254  -6.181  1.00  0.00     0.049 A 
ATOM     45  H   UNL     1     -11.158   9.212  -6.833  1.00  0.00     0.167 HD
ATOM     46  C   UNL     1     -10.275  13.337  -8.073  1.00  0.00     0.034 A 
ATOM     47  C   UNL     1     -12.629   7.224  -5.518  1.00  0.00     0.034 A 
ATOM     48  C   UNL     1     -11.598  13.373  -7.499  1.00  0.00     0.049 A 
ATOM     49  C   UNL     1     -13.426   8.500  -5.399  1.00  0.00     0.074 A 
ATOM     50  C   UNL     1     -12.468  14.447  -7.414  1.00  0.00     0.029 A 
ATOM     51  N   UNL     1     -12.239  12.296  -6.899  1.00  0.00    -0.354 N 
ATOM     52  N   UNL     1     -13.136   9.701  -5.846  1.00  0.00    -0.248 NA
ATOM     53  C   UNL     1     -14.714   8.415  -4.699  1.00  0.00     0.031 C 
ATOM     54  C   UNL     1     -13.593  14.043  -6.688  1.00  0.00     0.029 A 
ATOM     55  C   UNL     1     -13.471  12.693  -6.401  1.00  0.00     0.049 A 
ATOM     56  H   UNL     1     -11.872  11.385  -6.837  1.00  0.00     0.167 HD
ATOM     57  C   UNL     1     -14.222  10.504  -5.508  1.00  0.00     0.074 A 
ATOM     58  C   UNL     1     -15.180   9.646  -4.842  1.00  0.00     0.031 C 
ATOM     59  C   UNL     1     -14.413  11.830  -5.729  1.00  0.00     0.034 A 
BRANCH  46  60
ATOM     60  C   UNL     1      -9.663  14.634  -8.546  1.00  0.00     0.023 A 
ATOM     61  C   UNL     1      -9.335  14.859  -9.894  1.00  0.00     0.031 A 
ATOM     62  C   UNL     1      -9.417  15.672  -7.628  1.00  0.00     0.131 A 
ATOM     63  C   UNL     1      -8.731  16.067 -10.276  1.00  0.00     0.055 A 
ATOM     64  C   UNL     1      -8.888  16.901  -8.027  1.00  0.00     0.041 A 
ATOM     65  F   UNL     1      -9.688  15.509  -6.323  1.00  0.00    -0.206 F 
ATOM     66  C   UNL     1      -8.531  17.100  -9.357  1.00  0.00     0.022 A 
BRANCH  63  67
ATOM     67  S   UNL     1      -8.099  16.226 -11.969  1.00  0.00     0.124 S 
ATOM     68  O   UNL     1      -7.140  15.126 -12.030  1.00  0.00    -0.237 OA
ATOM     69  O   UNL     1      -9.305  16.067 -12.772  1.00  0.00    -0.237 OA
ATOM     70  O   UNL     1      -7.506  17.562 -11.990  1.00  0.00    -0.744 OA
ENDBRANCH  63  67
ENDBRANCH  46  60
BRANCH  47  71
ATOM     71  C   UNL     1     -13.117   5.961  -4.888  1.00  0.00     0.023 A 
ATOM     72  C   UNL     1     -14.331   5.375  -5.278  1.00  0.00     0.031 A 
ATOM     73  C   UNL     1     -12.407   5.358  -3.833  1.00  0.00     0.131 A 
ATOM     74  C   UNL     1     -14.831   4.266  -4.577  1.00  0.00     0.055 A 
ATOM     75  C   UNL     1     -12.875   4.215  -3.184  1.00  0.00     0.041 A 
ATOM     76  F   UNL     1     -11.239   5.874  -3.417  1.00  0.00    -0.206 F 
ATOM     77  C   UNL     1     -14.104   3.672  -3.543  1.00  0.00     0.022 A 
BRANCH  74  78
ATOM     78  S   UNL     1     -16.508   3.684  -4.956  1.00  0.00     0.124 S 
ATOM     79  O   UNL     1     -17.293   4.897  -4.758  1.00  0.00    -0.237 OA
ATOM     80  O   UNL     1     -16.365   3.229  -6.335  1.00  0.00    -0.237 OA
ATOM     81  O   UNL     1     -16.731   2.627  -3.971  1.00  0.00    -0.744 OA
ENDBRANCH  74  78
ENDBRANCH  47  71
BRANCH  59  82
ATOM     82  C   UNL     1     -15.730  12.418  -5.282  1.00  0.00     0.023 A 
ATOM     83  C   UNL     1     -16.093  12.482  -3.926  1.00  0.00     0.031 A 
ATOM     84  C   UNL     1     -16.644  12.909  -6.233  1.00  0.00     0.131 A 
ATOM     85  C   UNL     1     -17.360  12.963  -3.562  1.00  0.00     0.055 A 
ATOM     86  C   UNL     1     -17.874  13.452  -5.860  1.00  0.00     0.041 A 
ATOM     87  F   UNL     1     -16.354  12.870  -7.544  1.00  0.00    -0.206 F 
ATOM     88  C   UNL     1     -18.244  13.466  -4.519  1.00  0.00     0.022 A 
BRANCH  85  89
ATOM     89  S   UNL     1     -17.881  12.820  -1.831  1.00  0.00     0.124 S 
ATOM     90  O   UNL     1     -17.767  11.384  -1.598  1.00  0.00    -0.237 OA
ATOM     91  O   UNL     1     -16.904  13.656  -1.141  1.00  0.00    -0.237 OA
ATOM     92  O   UNL     1     -19.246  13.341  -1.839  1.00  0.00    -0.744 OA
ENDBRANCH  85  89
ENDBRANCH  59  82
ENDBRANCH  33  34
ENDBRANCH  25  28
ENDBRANCH  23  24
ENDBRANCH  22  23
ENDBRANCH  21  22
ENDBRANCH   1  21
TORSDOF 19
