REMARK SMILES [NH3+]C[C@H]1CC[C@@H](C(=O)Nc2ccc(O)c(C(=O)NCCCCCCNC(=O)c3ccc(-c4c5nc(c(-c6cc(S(=O)(=O)[O-])ccc6F)c6ccc([nH]6)c(-c6cc(S(=O)(=O)[O-])ccc6F)c6nc(c(-c7cc(S(=O)(=O)[O-])ccc7F)c7ccc4[nH]7)C=C6)C=C5)cc3)c2)O1
REMARK SMILES IDX 21 1 20 2 19 3 18 4 16 5 17 6 15 8 10 9 11 10 91 11 12 12
REMARK SMILES IDX 13 13 9 14 7 15 8 16 6 18 3 19 4 20 92 21 5 22 2 23 1 24
REMARK SMILES IDX 14 28 22 30 23 31 24 32 25 33 26 34 27 36 28 37 29 38 90 39
REMARK SMILES IDX 30 40 89 41 31 42 32 43 33 44 83 45 34 46 88 47 82 48 84 49
REMARK SMILES IDX 35 50 87 51 81 52 80 53 36 55 68 56 48 57 67 58 49 59 52 60
REMARK SMILES IDX 66 61 85 62 50 63 51 64 65 66 86 67 53 68 37 69 38 70 46 71
REMARK SMILES IDX 39 72 45 73 47 74 44 75 40 76 41 77 42 78 43 79 69 80 70 81
REMARK SMILES IDX 78 82 71 83 77 84 79 85 76 86 72 87 73 88 74 89 75 90 54 91
REMARK SMILES IDX 55 92 63 93 56 94 62 95 64 96 61 97 57 98 58 99 59 100
REMARK SMILES IDX 60 101
REMARK H PARENT 18 7 9 17 1 25 1 26 1 27 14 29 25 35 84 54 52 65
REMARK Flexibility Score: inf
ROOT
ATOM      1  C   UNL     1       0.492 -11.837  -7.708  1.00  0.00     0.002 C 
ENDROOT
BRANCH   1   2
ATOM      2  C   UNL     1       0.827 -10.470  -7.109  1.00  0.00     0.021 C 
BRANCH   2   3
ATOM      3  C   UNL     1      -0.251  -9.909  -6.174  1.00  0.00     0.116 C 
BRANCH   3   4
ATOM      4  N   UNL     1      -0.076 -10.427  -4.834  1.00  0.00    -0.352 N 
ATOM      5  C   UNL     1       0.554  -9.930  -3.727  1.00  0.00     0.255 C 
ATOM      6  O   UNL     1       0.535 -10.650  -2.722  1.00  0.00    -0.269 OA
ATOM      7  H   UNL     1      -0.491 -11.308  -4.692  1.00  0.00     0.163 HD
BRANCH   5   8
ATOM      8  C   UNL     1       1.198  -8.584  -3.607  1.00  0.00     0.083 A 
ATOM      9  C   UNL     1       1.782  -6.833  -1.997  1.00  0.00     0.042 A 
ATOM     10  C   UNL     1       2.513  -6.178  -2.978  1.00  0.00     0.030 A 
ATOM     11  C   UNL     1       1.183  -8.055  -2.295  1.00  0.00     0.043 A 
ATOM     12  C   UNL     1       2.526  -6.657  -4.279  1.00  0.00     0.049 A 
ATOM     13  C   UNL     1       1.866  -7.847  -4.596  1.00  0.00     0.128 A 
BRANCH   9  14
ATOM     14  N   UNL     1       1.763  -6.356  -0.684  1.00  0.00    -0.324 N 
ATOM     15  C   UNL     1       1.695  -5.053  -0.253  1.00  0.00     0.253 C 
ATOM     16  O   UNL     1       2.231  -4.761   0.821  1.00  0.00    -0.272 OA
ATOM     17  H   UNL     1       1.803  -7.041   0.022  1.00  0.00     0.170 HD
BRANCH  15  18
ATOM     18  C   UNL     1       0.737  -4.074  -0.989  1.00  0.00     0.208 C 
ATOM     19  C   UNL     1       0.911  -1.731  -0.885  1.00  0.00     0.174 C 
ATOM     20  C   UNL     1       0.654  -2.101  -2.330  1.00  0.00     0.041 C 
ATOM     21  O   UNL     1       0.531  -2.910  -0.154  1.00  0.00    -0.359 OA
ATOM     22  C   UNL     1       1.125  -3.537  -2.358  1.00  0.00     0.045 C 
BRANCH  19  23
ATOM     23  C   UNL     1       2.394  -1.366  -0.619  1.00  0.00     0.291 C 
BRANCH  23  24
ATOM     24  N   UNL     1       2.801  -1.596   0.769  1.00  0.00    -0.355 N 
ATOM     25  H   UNL     1       3.782  -1.339   0.882  1.00  0.00     0.344 HD
ATOM     26  H   UNL     1       2.680  -2.582   1.000  1.00  0.00     0.344 HD
ATOM     27  H   UNL     1       2.227  -1.027   1.391  1.00  0.00     0.344 HD
ENDBRANCH  23  24
ENDBRANCH  19  23
ENDBRANCH  15  18
ENDBRANCH   9  14
BRANCH  13  28
ATOM     28  O   UNL     1       1.986  -8.259  -5.886  1.00  0.00    -0.507 OA
ATOM     29  H   UNL     1       2.443  -7.727  -6.507  1.00  0.00     0.293 HD
ENDBRANCH  13  28
ENDBRANCH   5   8
ENDBRANCH   3   4
ENDBRANCH   2   3
ENDBRANCH   1   2
BRANCH   1  30
ATOM     30  C   UNL     1      -0.702 -11.840  -8.666  1.00  0.00     0.002 C 
BRANCH  30  31
ATOM     31  C   UNL     1      -0.613 -10.835  -9.820  1.00  0.00     0.021 C 
BRANCH  31  32
ATOM     32  C   UNL     1       0.594 -11.025 -10.736  1.00  0.00     0.116 C 
BRANCH  32  33
ATOM     33  N   UNL     1       0.544 -12.307 -11.420  1.00  0.00    -0.352 N 
ATOM     34  C   UNL     1       0.469 -12.571 -12.765  1.00  0.00     0.251 C 
ATOM     35  H   UNL     1       0.567 -13.098 -10.835  1.00  0.00     0.163 HD
ATOM     36  O   UNL     1       0.152 -13.693 -13.148  1.00  0.00    -0.269 OA
BRANCH  34  37
ATOM     37  C   UNL     1       0.765 -11.502 -13.744  1.00  0.00     0.039 A 
ATOM     38  C   UNL     1      -0.056 -11.361 -14.866  1.00  0.00     0.014 A 
ATOM     39  C   UNL     1       1.869 -10.662 -13.572  1.00  0.00     0.014 A 
ATOM     40  C   UNL     1       0.202 -10.345 -15.789  1.00  0.00     0.010 A 
ATOM     41  C   UNL     1       2.086  -9.610 -14.458  1.00  0.00     0.010 A 
ATOM     42  C   UNL     1       1.259  -9.444 -15.579  1.00  0.00    -0.014 A 
BRANCH  42  43
ATOM     43  C   UNL     1       1.525  -8.332 -16.529  1.00  0.00     0.031 A 
ATOM     44  C   UNL     1       2.810  -8.305 -17.312  1.00  0.00     0.074 A 
ATOM     45  C   UNL     1       0.642  -7.321 -16.636  1.00  0.00     0.049 A 
ATOM     46  N   UNL     1       3.268  -7.384 -18.120  1.00  0.00    -0.248 NA
ATOM     47  C   UNL     1       3.712  -9.454 -17.138  1.00  0.00     0.031 C 
ATOM     48  C   UNL     1      -0.620  -7.221 -15.899  1.00  0.00     0.029 A 
ATOM     49  N   UNL     1       0.673  -6.178 -17.394  1.00  0.00    -0.354 N 
ATOM     50  C   UNL     1       4.516  -7.833 -18.540  1.00  0.00     0.074 A 
ATOM     51  C   UNL     1       4.765  -9.081 -17.850  1.00  0.00     0.031 C 
ATOM     52  C   UNL     1      -1.249  -6.089 -16.255  1.00  0.00     0.029 A 
ATOM     53  C   UNL     1      -0.419  -5.361 -17.209  1.00  0.00     0.049 A 
ATOM     54  H   UNL     1       1.407  -5.962 -18.013  1.00  0.00     0.167 HD
ATOM     55  C   UNL     1       5.365  -7.266 -19.434  1.00  0.00     0.034 A 
ATOM     56  C   UNL     1      -0.711  -4.155 -17.738  1.00  0.00     0.034 A 
ATOM     57  C   UNL     1       5.091  -6.030 -20.125  1.00  0.00     0.049 A 
ATOM     58  C   UNL     1       0.255  -3.539 -18.718  1.00  0.00     0.074 A 
ATOM     59  C   UNL     1       5.853  -5.395 -21.091  1.00  0.00     0.029 A 
ATOM     60  N   UNL     1       3.970  -5.236 -19.922  1.00  0.00    -0.354 N 
ATOM     61  N   UNL     1       1.410  -4.002 -19.141  1.00  0.00    -0.248 NA
ATOM     62  C   UNL     1      -0.126  -2.247 -19.302  1.00  0.00     0.031 C 
ATOM     63  C   UNL     1       5.226  -4.189 -21.422  1.00  0.00     0.029 A 
ATOM     64  C   UNL     1       4.034  -4.105 -20.721  1.00  0.00     0.049 A 
ATOM     65  H   UNL     1       3.236  -5.446 -19.300  1.00  0.00     0.167 HD
ATOM     66  C   UNL     1       1.875  -3.070 -20.065  1.00  0.00     0.074 A 
ATOM     67  C   UNL     1       0.870  -2.030 -20.148  1.00  0.00     0.031 C 
ATOM     68  C   UNL     1       3.026  -3.073 -20.785  1.00  0.00     0.034 A 
BRANCH  55  69
ATOM     69  C   UNL     1       6.677  -7.969 -19.692  1.00  0.00     0.023 A 
ATOM     70  C   UNL     1       6.728  -9.256 -20.257  1.00  0.00     0.031 A 
ATOM     71  C   UNL     1       7.894  -7.353 -19.351  1.00  0.00     0.131 A 
ATOM     72  C   UNL     1       7.961  -9.912 -20.397  1.00  0.00     0.055 A 
ATOM     73  C   UNL     1       9.124  -7.979 -19.569  1.00  0.00     0.041 A 
ATOM     74  F   UNL     1       7.909  -6.134 -18.789  1.00  0.00    -0.206 F 
ATOM     75  C   UNL     1       9.161  -9.272 -20.081  1.00  0.00     0.022 A 
BRANCH  72  76
ATOM     76  S   UNL     1       7.961 -11.663 -20.870  1.00  0.00     0.124 S 
ATOM     77  O   UNL     1       7.187 -12.260 -19.784  1.00  0.00    -0.237 OA
ATOM     78  O   UNL     1       7.314 -11.637 -22.176  1.00  0.00    -0.237 OA
ATOM     79  O   UNL     1       9.379 -12.014 -20.882  1.00  0.00    -0.744 OA
ENDBRANCH  72  76
ENDBRANCH  55  69
BRANCH  56  80
ATOM     80  C   UNL     1      -1.961  -3.440 -17.349  1.00  0.00     0.023 A 
ATOM     81  C   UNL     1      -2.965  -3.174 -18.294  1.00  0.00     0.031 A 
ATOM     82  C   UNL     1      -2.148  -2.969 -16.038  1.00  0.00     0.131 A 
ATOM     83  C   UNL     1      -4.085  -2.412 -17.928  1.00  0.00     0.055 A 
ATOM     84  C   UNL     1      -3.291  -2.259 -15.665  1.00  0.00     0.041 A 
ATOM     85  F   UNL     1      -1.222  -3.201 -15.093  1.00  0.00    -0.206 F 
ATOM     86  C   UNL     1      -4.261  -1.963 -16.617  1.00  0.00     0.022 A 
BRANCH  83  87
ATOM     87  S   UNL     1      -5.266  -1.932 -19.218  1.00  0.00     0.124 S 
ATOM     88  O   UNL     1      -4.405  -1.232 -20.164  1.00  0.00    -0.237 OA
ATOM     89  O   UNL     1      -5.780  -3.227 -19.653  1.00  0.00    -0.237 OA
ATOM     90  O   UNL     1      -6.225  -1.091 -18.505  1.00  0.00    -0.744 OA
ENDBRANCH  83  87
ENDBRANCH  56  80
BRANCH  68  91
ATOM     91  C   UNL     1       3.229  -1.937 -21.756  1.00  0.00     0.023 A 
ATOM     92  C   UNL     1       3.421  -0.615 -21.319  1.00  0.00     0.031 A 
ATOM     93  C   UNL     1       3.219  -2.182 -23.141  1.00  0.00     0.131 A 
ATOM     94  C   UNL     1       3.537   0.421 -22.258  1.00  0.00     0.055 A 
ATOM     95  C   UNL     1       3.396  -1.156 -24.070  1.00  0.00     0.041 A 
ATOM     96  F   UNL     1       3.038  -3.426 -23.613  1.00  0.00    -0.206 F 
ATOM     97  C   UNL     1       3.543   0.157 -23.630  1.00  0.00     0.022 A 
BRANCH  94  98
ATOM     98  S   UNL     1       3.590   2.133 -21.663  1.00  0.00     0.124 S 
ATOM     99  O   UNL     1       2.332   2.239 -20.931  1.00  0.00    -0.237 OA
ATOM    100  O   UNL     1       4.802   2.144 -20.850  1.00  0.00    -0.237 OA
ATOM    101  O   UNL     1       3.662   2.922 -22.891  1.00  0.00    -0.744 OA
ENDBRANCH  94  98
ENDBRANCH  68  91
ENDBRANCH  42  43
ENDBRANCH  34  37
ENDBRANCH  32  33
ENDBRANCH  31  32
ENDBRANCH  30  31
ENDBRANCH   1  30
TORSDOF 21
