REMARK SMILES Cc1c(C(=O)NCCCCCCNC(=O)c2ccc(-c3c4nc(c(-c5cc(S(=O)(=O)[O-])ccc5F)c5ccc([nH]5)c(-c5cc(S(=O)(=O)[O-])ccc5F)c5nc(c(-c6cc(S(=O)(=O)[O-])ccc6F)c6ccc3[nH]6)C=C5)C=C4)cc2)ccc2c1N[C@@H](c1ccc(S(=O)(=O)N3CCOCC3)cc1)[C@@H]1CC=C[C@H]21
REMARK SMILES IDX 9 1 8 2 7 3 6 4 4 5 5 6 3 8 1 9 2 10 82 11 79 12 81 13 83 14
REMARK SMILES IDX 80 15 104 16 84 17 100 19 103 20 101 21 102 22 85 23 86 24
REMARK SMILES IDX 99 25 87 26 98 27 88 28 89 29 90 30 91 31 92 32 93 33 97 34
REMARK SMILES IDX 94 35 96 36 95 37 10 38 11 39 12 40 13 41 14 42 15 44 16 45
REMARK SMILES IDX 17 46 78 47 18 48 77 49 19 50 20 51 21 52 71 53 22 54 76 55
REMARK SMILES IDX 70 56 72 57 23 58 75 59 69 60 68 61 24 63 56 64 36 65 55 66
REMARK SMILES IDX 37 67 40 68 54 69 73 70 38 71 39 72 53 74 74 75 41 76 25 77
REMARK SMILES IDX 26 78 34 79 27 80 33 81 35 82 32 83 28 84 29 85 30 86 31 87
REMARK SMILES IDX 57 88 58 89 66 90 59 91 65 92 67 93 64 94 60 95 61 96 62 97
REMARK SMILES IDX 63 98 42 99 43 100 51 101 44 102 50 103 52 104 49 105 45 106
REMARK SMILES IDX 46 107 47 108 48 109
REMARK H PARENT 6 7 83 18 13 43 72 62 40 73
REMARK Flexibility Score: inf
ROOT
ATOM      1  C   UNL     1      -1.338  -3.013   2.245  1.00  0.00     0.002 C 
ENDROOT
BRANCH   1   2
ATOM      2  C   UNL     1      -1.413  -1.550   1.794  1.00  0.00     0.021 C 
BRANCH   2   3
ATOM      3  C   UNL     1      -0.578  -1.181   0.574  1.00  0.00     0.116 C 
BRANCH   3   4
ATOM      4  N   UNL     1      -0.923  -1.889  -0.643  1.00  0.00    -0.352 N 
ATOM      5  C   UNL     1      -0.694  -1.523  -1.953  1.00  0.00     0.251 C 
ATOM      6  O   UNL     1      -1.059  -2.269  -2.859  1.00  0.00    -0.269 OA
ATOM      7  H   UNL     1      -1.385  -2.749  -0.518  1.00  0.00     0.163 HD
BRANCH   5   8
ATOM      8  C   UNL     1      -0.103  -0.197  -2.289  1.00  0.00     0.044 A 
ATOM      9  C   UNL     1       2.055  -0.531  -0.962  1.00  0.00     0.047 C 
ATOM     10  C   UNL     1       1.057   0.327  -1.696  1.00  0.00    -0.015 A 
ATOM     11  C   UNL     1       1.353   1.693  -1.876  1.00  0.00     0.042 A 
ATOM     12  C   UNL     1      -0.769   0.548  -3.273  1.00  0.00     0.014 A 
ATOM     13  C   UNL     1       0.736   2.412  -2.913  1.00  0.00    -0.017 A 
ATOM     14  N   UNL     1       2.308   2.302  -1.077  1.00  0.00    -0.377 N 
ATOM     15  C   UNL     1      -0.318   1.821  -3.622  1.00  0.00     0.007 A 
ATOM     16  C   UNL     1       1.283   3.761  -3.325  1.00  0.00     0.049 C 
ATOM     17  C   UNL     1       2.371   3.756  -1.045  1.00  0.00     0.114 C 
ATOM     18  H   UNL     1       2.932   1.762  -0.540  1.00  0.00     0.161 HD
ATOM     19  C   UNL     1       2.493   4.270  -2.493  1.00  0.00     0.031 C 
ATOM     20  C   UNL     1       0.317   4.911  -3.208  1.00  0.00    -0.023 C 
ATOM     21  C   UNL     1       2.400   5.801  -2.614  1.00  0.00     0.034 C 
ATOM     22  C   UNL     1       0.938   6.034  -2.829  1.00  0.00    -0.030 C 
BRANCH  17  23
ATOM     23  C   UNL     1       3.505   4.160  -0.113  1.00  0.00    -0.025 A 
ATOM     24  C   UNL     1       4.713   3.436  -0.044  1.00  0.00     0.007 A 
ATOM     25  C   UNL     1       3.327   5.246   0.757  1.00  0.00     0.007 A 
ATOM     26  C   UNL     1       5.725   3.804   0.849  1.00  0.00     0.022 A 
ATOM     27  C   UNL     1       4.330   5.610   1.653  1.00  0.00     0.022 A 
ATOM     28  C   UNL     1       5.538   4.910   1.675  1.00  0.00     0.082 A 
BRANCH  28  29
ATOM     29  S   UNL     1       6.883   5.500   2.688  1.00  0.00     0.243 S 
ATOM     30  O   UNL     1       6.522   5.257   4.059  1.00  0.00    -0.207 OA
ATOM     31  O   UNL     1       8.115   5.046   2.074  1.00  0.00    -0.207 OA
BRANCH  29  32
ATOM     32  N   UNL     1       6.834   7.154   2.407  1.00  0.00    -0.193 NA
ATOM     33  C   UNL     1       6.272   8.111   3.369  1.00  0.00     0.131 C 
ATOM     34  C   UNL     1       7.330   7.727   1.149  1.00  0.00     0.131 C 
ATOM     35  C   UNL     1       5.307   9.081   2.669  1.00  0.00     0.177 C 
ATOM     36  C   UNL     1       6.243   8.617   0.545  1.00  0.00     0.177 C 
ATOM     37  O   UNL     1       5.850   9.649   1.466  1.00  0.00    -0.379 OA
ENDBRANCH  29  32
ENDBRANCH  28  29
ENDBRANCH  17  23
ENDBRANCH   5   8
ENDBRANCH   3   4
ENDBRANCH   2   3
ENDBRANCH   1   2
BRANCH   1  38
ATOM     38  C   UNL     1       0.053  -3.644   2.370  1.00  0.00     0.002 C 
BRANCH  38  39
ATOM     39  C   UNL     1       1.084  -2.907   3.229  1.00  0.00     0.021 C 
BRANCH  39  40
ATOM     40  C   UNL     1       0.629  -2.504   4.627  1.00  0.00     0.116 C 
BRANCH  40  41
ATOM     41  N   UNL     1       0.222  -3.639   5.437  1.00  0.00    -0.352 N 
ATOM     42  C   UNL     1       0.703  -4.057   6.653  1.00  0.00     0.251 C 
ATOM     43  H   UNL     1      -0.504  -4.187   5.060  1.00  0.00     0.163 HD
ATOM     44  O   UNL     1       0.318  -5.119   7.134  1.00  0.00    -0.269 OA
BRANCH  42  45
ATOM     45  C   UNL     1       1.703  -3.238   7.370  1.00  0.00     0.039 A 
ATOM     46  C   UNL     1       2.866  -3.855   7.839  1.00  0.00     0.014 A 
ATOM     47  C   UNL     1       1.491  -1.873   7.587  1.00  0.00     0.014 A 
ATOM     48  C   UNL     1       3.842  -3.092   8.483  1.00  0.00     0.010 A 
ATOM     49  C   UNL     1       2.488  -1.104   8.184  1.00  0.00     0.010 A 
ATOM     50  C   UNL     1       3.667  -1.708   8.646  1.00  0.00    -0.014 A 
BRANCH  50  51
ATOM     51  C   UNL     1       4.698  -0.886   9.325  1.00  0.00     0.031 A 
ATOM     52  C   UNL     1       4.421  -0.314  10.685  1.00  0.00     0.074 A 
ATOM     53  C   UNL     1       5.862  -0.623   8.702  1.00  0.00     0.049 A 
ATOM     54  N   UNL     1       5.192   0.423  11.440  1.00  0.00    -0.248 NA
ATOM     55  C   UNL     1       3.098  -0.594  11.268  1.00  0.00     0.031 C 
ATOM     56  C   UNL     1       6.222  -1.091   7.364  1.00  0.00     0.029 A 
ATOM     57  N   UNL     1       6.953   0.106   9.106  1.00  0.00    -0.354 N 
ATOM     58  C   UNL     1       4.452   0.694  12.584  1.00  0.00     0.074 A 
ATOM     59  C   UNL     1       3.151   0.091  12.401  1.00  0.00     0.031 C 
ATOM     60  C   UNL     1       7.452  -0.648   7.062  1.00  0.00     0.029 A 
ATOM     61  C   UNL     1       7.963   0.154   8.173  1.00  0.00     0.049 A 
ATOM     62  H   UNL     1       7.007   0.553   9.982  1.00  0.00     0.167 HD
ATOM     63  C   UNL     1       4.835   1.361  13.698  1.00  0.00     0.034 A 
ATOM     64  C   UNL     1       9.165   0.766   8.211  1.00  0.00     0.034 A 
ATOM     65  C   UNL     1       6.138   1.943  13.875  1.00  0.00     0.049 A 
ATOM     66  C   UNL     1       9.574   1.496   9.467  1.00  0.00     0.074 A 
ATOM     67  C   UNL     1       6.636   2.600  14.987  1.00  0.00     0.029 A 
ATOM     68  N   UNL     1       7.149   1.937  12.926  1.00  0.00    -0.354 N 
ATOM     69  N   UNL     1       8.900   1.658  10.582  1.00  0.00    -0.248 NA
ATOM     70  C   UNL     1      10.911   2.108   9.485  1.00  0.00     0.031 C 
ATOM     71  C   UNL     1       7.933   3.025  14.696  1.00  0.00     0.029 A 
ATOM     72  C   UNL     1       8.264   2.589  13.422  1.00  0.00     0.049 A 
ATOM     73  H   UNL     1       7.083   1.530  12.032  1.00  0.00     0.167 HD
ATOM     74  C   UNL     1       9.743   2.353  11.445  1.00  0.00     0.074 A 
ATOM     75  C   UNL     1      10.981   2.574  10.727  1.00  0.00     0.031 C 
ATOM     76  C   UNL     1       9.509   2.768  12.715  1.00  0.00     0.034 A 
BRANCH  63  77
ATOM     77  C   UNL     1       3.853   1.474  14.833  1.00  0.00     0.023 A 
ATOM     78  C   UNL     1       3.353   2.731  15.214  1.00  0.00     0.031 A 
ATOM     79  C   UNL     1       3.500   0.350  15.601  1.00  0.00     0.131 A 
ATOM     80  C   UNL     1       2.542   2.837  16.351  1.00  0.00     0.055 A 
ATOM     81  C   UNL     1       2.665   0.457  16.713  1.00  0.00     0.041 A 
ATOM     82  F   UNL     1       3.952  -0.871  15.271  1.00  0.00    -0.206 F 
ATOM     83  C   UNL     1       2.190   1.707  17.098  1.00  0.00     0.022 A 
BRANCH  80  84
ATOM     84  S   UNL     1       1.939   4.448  16.923  1.00  0.00     0.124 S 
ATOM     85  O   UNL     1       0.498   4.218  17.009  1.00  0.00    -0.237 OA
ATOM     86  O   UNL     1       2.626   4.594  18.203  1.00  0.00    -0.237 OA
ATOM     87  O   UNL     1       2.353   5.372  15.872  1.00  0.00    -0.744 OA
ENDBRANCH  80  84
ENDBRANCH  63  77
BRANCH  64  88
ATOM     88  C   UNL     1      10.091   0.616   7.050  1.00  0.00     0.023 A 
ATOM     89  C   UNL     1       9.763   1.129   5.781  1.00  0.00     0.031 A 
ATOM     90  C   UNL     1      11.265  -0.146   7.174  1.00  0.00     0.131 A 
ATOM     91  C   UNL     1      10.572   0.823   4.678  1.00  0.00     0.055 A 
ATOM     92  C   UNL     1      12.103  -0.392   6.085  1.00  0.00     0.041 A 
ATOM     93  F   UNL     1      11.607  -0.674   8.359  1.00  0.00    -0.206 F 
ATOM     94  C   UNL     1      11.748   0.081   4.826  1.00  0.00     0.022 A 
BRANCH  91  95
ATOM     95  S   UNL     1      10.054   1.249   2.990  1.00  0.00     0.124 S 
ATOM     96  O   UNL     1      11.093   2.190   2.587  1.00  0.00    -0.237 OA
ATOM     97  O   UNL     1      10.097  -0.053   2.326  1.00  0.00    -0.237 OA
ATOM     98  O   UNL     1       8.713   1.796   3.165  1.00  0.00    -0.744 OA
ENDBRANCH  91  95
ENDBRANCH  64  88
BRANCH  76  99
ATOM     99  C   UNL     1      10.608   3.482  13.462  1.00  0.00     0.023 A 
ATOM    100  C   UNL     1      11.164   2.893  14.614  1.00  0.00     0.031 A 
ATOM    101  C   UNL     1      10.977   4.799  13.141  1.00  0.00     0.131 A 
ATOM    102  C   UNL     1      12.026   3.636  15.430  1.00  0.00     0.055 A 
ATOM    103  C   UNL     1      11.869   5.521  13.935  1.00  0.00     0.041 A 
ATOM    104  F   UNL     1      10.462   5.406  12.060  1.00  0.00    -0.206 F 
ATOM    105  C   UNL     1      12.387   4.945  15.092  1.00  0.00     0.022 A 
BRANCH 102 106
ATOM    106  S   UNL     1      12.648   2.963  16.995  1.00  0.00     0.124 S 
ATOM    107  O   UNL     1      14.094   3.072  16.820  1.00  0.00    -0.237 OA
ATOM    108  O   UNL     1      12.068   3.878  17.974  1.00  0.00    -0.237 OA
ATOM    109  O   UNL     1      12.128   1.600  17.024  1.00  0.00    -0.744 OA
ENDBRANCH 102 106
ENDBRANCH  76  99
ENDBRANCH  50  51
ENDBRANCH  42  45
ENDBRANCH  40  41
ENDBRANCH  39  40
ENDBRANCH  38  39
ENDBRANCH   1  38
TORSDOF 19
