REMARK SMILES O=C(CN1C(=O)N[C@](c2cccs2)(C2CC2)C1=O)NCCCCCCNC(=O)c1ccc(-c2c3nc(c(-c4cc(S(=O)(=O)[O-])ccc4F)c4ccc([nH]4)c(-c4cc(S(=O)(=O)[O-])ccc4F)c4nc(c(-c5cc(S(=O)(=O)[O-])ccc5F)c5ccc2[nH]5)C=C4)C=C3)cc1
REMARK SMILES IDX 23 1 22 2 21 3 20 4 19 5 1 6 2 7 3 9 4 10 5 11 17 12 6 13
REMARK SMILES IDX 7 14 8 15 18 16 14 18 15 19 16 20 9 21 10 22 13 23 11 24
REMARK SMILES IDX 12 25 24 26 25 27 26 28 27 29 28 31 29 32 30 33 91 34 31 35
REMARK SMILES IDX 90 36 32 37 33 38 34 39 84 40 35 41 89 42 83 43 85 44 36 45
REMARK SMILES IDX 88 46 82 47 81 48 37 50 69 51 49 52 68 53 50 54 53 55 67 56
REMARK SMILES IDX 86 57 51 58 52 59 66 61 87 62 54 63 38 64 39 65 47 66 40 67
REMARK SMILES IDX 46 68 48 69 45 70 41 71 42 72 43 73 44 74 70 75 71 76 79 77
REMARK SMILES IDX 72 78 78 79 80 80 77 81 73 82 74 83 75 84 76 85 55 86 56 87
REMARK SMILES IDX 64 88 57 89 63 90 65 91 62 92 58 93 59 94 60 95 61 96
REMARK H PARENT 19 8 7 17 26 30 85 49 53 60
REMARK Flexibility Score: inf
ROOT
ATOM      1  C   UNL     1       4.589   2.891   3.164  1.00  0.00     0.002 C 
ENDROOT
BRANCH   1   2
ATOM      2  C   UNL     1       4.170   1.442   3.428  1.00  0.00     0.002 C 
BRANCH   2   3
ATOM      3  C   UNL     1       2.678   1.140   3.249  1.00  0.00     0.021 C 
BRANCH   3   4
ATOM      4  C   UNL     1       2.119   1.477   1.870  1.00  0.00     0.116 C 
BRANCH   4   5
ATOM      5  N   UNL     1       2.784   0.756   0.802  1.00  0.00    -0.355 N 
ATOM      6  O   UNL     1       1.074  -0.714   0.423  1.00  0.00    -0.273 OA
ATOM      7  C   UNL     1       2.143  -0.215   0.070  1.00  0.00     0.240 C 
ATOM      8  H   UNL     1       3.723   0.968   0.596  1.00  0.00     0.163 HD
BRANCH   7   9
ATOM      9  C   UNL     1       2.895  -0.780  -1.137  1.00  0.00     0.230 C 
BRANCH   9  10
ATOM     10  N   UNL     1       3.870   0.058  -1.813  1.00  0.00    -0.252 N 
ATOM     11  C   UNL     1       3.680   1.358  -2.158  1.00  0.00     0.325 C 
ATOM     12  C   UNL     1       4.885  -0.472  -2.574  1.00  0.00     0.262 C 
ATOM     13  O   UNL     1       2.763   2.088  -1.825  1.00  0.00    -0.248 OA
ATOM     14  N   UNL     1       4.702   1.762  -2.974  1.00  0.00    -0.318 N 
ATOM     15  C   UNL     1       5.509   0.663  -3.453  1.00  0.00     0.158 C 
ATOM     16  O   UNL     1       5.191  -1.658  -2.621  1.00  0.00    -0.271 OA
ATOM     17  H   UNL     1       4.869   2.703  -3.209  1.00  0.00     0.166 HD
BRANCH  15  18
ATOM     18  C   UNL     1       5.075   0.446  -4.900  1.00  0.00     0.030 C 
ATOM     19  C   UNL     1       5.482   1.367  -6.030  1.00  0.00     0.007 C 
ATOM     20  C   UNL     1       5.912  -0.079  -6.042  1.00  0.00     0.007 C 
ENDBRANCH  15  18
BRANCH  15  21
ATOM     21  C   UNL     1       6.934   0.903  -2.970  1.00  0.00     0.040 A 
ATOM     22  C   UNL     1       7.377   0.925  -1.648  1.00  0.00     0.018 A 
ATOM     23  S   UNL     1       8.254   1.248  -4.013  1.00  0.00    -0.146 S 
ATOM     24  C   UNL     1       8.775   1.162  -1.517  1.00  0.00     0.012 A 
ATOM     25  C   UNL     1       9.377   1.339  -2.737  1.00  0.00     0.065 A 
ENDBRANCH  15  21
ENDBRANCH   9  10
ENDBRANCH   7   9
ENDBRANCH   4   5
ENDBRANCH   3   4
ENDBRANCH   2   3
ENDBRANCH   1   2
BRANCH   1  26
ATOM     26  C   UNL     1       3.885   3.950   4.017  1.00  0.00     0.021 C 
BRANCH  26  27
ATOM     27  C   UNL     1       4.026   3.775   5.527  1.00  0.00     0.116 C 
BRANCH  27  28
ATOM     28  N   UNL     1       5.410   3.829   5.968  1.00  0.00    -0.352 N 
ATOM     29  C   UNL     1       5.988   4.569   6.971  1.00  0.00     0.251 C 
ATOM     30  H   UNL     1       6.028   3.246   5.472  1.00  0.00     0.163 HD
ATOM     31  O   UNL     1       7.213   4.595   7.065  1.00  0.00    -0.269 OA
BRANCH  29  32
ATOM     32  C   UNL     1       5.154   5.353   7.913  1.00  0.00     0.039 A 
ATOM     33  C   UNL     1       5.582   6.632   8.280  1.00  0.00     0.014 A 
ATOM     34  C   UNL     1       3.972   4.836   8.451  1.00  0.00     0.014 A 
ATOM     35  C   UNL     1       4.796   7.412   9.132  1.00  0.00     0.010 A 
ATOM     36  C   UNL     1       3.152   5.643   9.241  1.00  0.00     0.010 A 
ATOM     37  C   UNL     1       3.554   6.941   9.591  1.00  0.00    -0.014 A 
BRANCH  37  38
ATOM     38  C   UNL     1       2.668   7.813  10.409  1.00  0.00     0.031 A 
ATOM     39  C   UNL     1       2.323   7.449  11.828  1.00  0.00     0.074 A 
ATOM     40  C   UNL     1       2.144   8.924   9.853  1.00  0.00     0.049 A 
ATOM     41  N   UNL     1       1.584   8.098  12.693  1.00  0.00    -0.248 NA
ATOM     42  C   UNL     1       2.854   6.175  12.331  1.00  0.00     0.031 C 
ATOM     43  C   UNL     1       2.361   9.356   8.470  1.00  0.00     0.029 A 
ATOM     44  N   UNL     1       1.330   9.896  10.379  1.00  0.00    -0.354 N 
ATOM     45  C   UNL     1       1.554   7.309  13.838  1.00  0.00     0.074 A 
ATOM     46  C   UNL     1       2.297   6.105  13.531  1.00  0.00     0.031 C 
ATOM     47  C   UNL     1       1.739  10.529   8.274  1.00  0.00     0.029 A 
ATOM     48  C   UNL     1       1.042  10.912   9.497  1.00  0.00     0.049 A 
ATOM     49  H   UNL     1       0.984   9.868  11.300  1.00  0.00     0.167 HD
ATOM     50  C   UNL     1       0.979   7.574  15.039  1.00  0.00     0.034 A 
ATOM     51  C   UNL     1       0.304  12.028   9.655  1.00  0.00     0.034 A 
ATOM     52  C   UNL     1       0.243   8.784  15.328  1.00  0.00     0.049 A 
ATOM     53  C   UNL     1      -0.341  12.290  10.991  1.00  0.00     0.074 A 
ATOM     54  C   UNL     1      -0.317   9.188  16.529  1.00  0.00     0.029 A 
ATOM     55  N   UNL     1      -0.054   9.779  14.403  1.00  0.00    -0.354 N 
ATOM     56  N   UNL     1      -0.294  11.572  12.089  1.00  0.00    -0.248 NA
ATOM     57  C   UNL     1      -1.128  13.523  11.108  1.00  0.00     0.031 C 
ATOM     58  C   UNL     1      -1.019  10.379  16.310  1.00  0.00     0.029 A 
ATOM     59  C   UNL     1      -0.826  10.770  14.995  1.00  0.00     0.049 A 
ATOM     60  H   UNL     1       0.241   9.780  13.464  1.00  0.00     0.167 HD
ATOM     61  C   UNL     1      -1.026  12.283  13.037  1.00  0.00     0.074 A 
ATOM     62  C   UNL     1      -1.476  13.496  12.385  1.00  0.00     0.031 C 
ATOM     63  C   UNL     1      -1.300  11.962  14.329  1.00  0.00     0.034 A 
BRANCH  50  64
ATOM     64  C   UNL     1       1.094   6.515  16.114  1.00  0.00     0.023 A 
ATOM     65  C   UNL     1       2.340   6.093  16.613  1.00  0.00     0.031 A 
ATOM     66  C   UNL     1      -0.059   5.891  16.626  1.00  0.00     0.131 A 
ATOM     67  C   UNL     1       2.410   5.023  17.518  1.00  0.00     0.055 A 
ATOM     68  C   UNL     1       0.013   4.888  17.595  1.00  0.00     0.041 A 
ATOM     69  F   UNL     1      -1.277   6.233  16.178  1.00  0.00    -0.206 F 
ATOM     70  C   UNL     1       1.253   4.435  18.034  1.00  0.00     0.022 A 
BRANCH  67  71
ATOM     71  S   UNL     1       4.034   4.302  17.883  1.00  0.00     0.124 S 
ATOM     72  O   UNL     1       4.508   3.949  16.547  1.00  0.00    -0.237 OA
ATOM     73  O   UNL     1       4.729   5.404  18.538  1.00  0.00    -0.237 OA
ATOM     74  O   UNL     1       3.718   3.163  18.743  1.00  0.00    -0.744 OA
ENDBRANCH  67  71
ENDBRANCH  50  64
BRANCH  51  75
ATOM     75  C   UNL     1       0.140  12.992   8.529  1.00  0.00     0.023 A 
ATOM     76  C   UNL     1       0.649  14.297   8.618  1.00  0.00     0.031 A 
ATOM     77  C   UNL     1      -0.559  12.635   7.362  1.00  0.00     0.131 A 
ATOM     78  C   UNL     1       0.415  15.213   7.581  1.00  0.00     0.055 A 
ATOM     79  C   UNL     1      -0.743  13.533   6.309  1.00  0.00     0.041 A 
ATOM     80  F   UNL     1      -1.062  11.398   7.223  1.00  0.00    -0.206 F 
ATOM     81  C   UNL     1      -0.265  14.835   6.421  1.00  0.00     0.022 A 
BRANCH  78  82
ATOM     82  S   UNL     1       0.948  16.932   7.803  1.00  0.00     0.124 S 
ATOM     83  O   UNL     1       0.207  17.321   8.998  1.00  0.00    -0.237 OA
ATOM     84  O   UNL     1       2.391  16.784   7.962  1.00  0.00    -0.237 OA
ATOM     85  O   UNL     1       0.524  17.582   6.565  1.00  0.00    -0.744 OA
ENDBRANCH  78  82
ENDBRANCH  51  75
BRANCH  63  86
ATOM     86  C   UNL     1      -2.109  12.966  15.119  1.00  0.00     0.023 A 
ATOM     87  C   UNL     1      -3.430  13.295  14.763  1.00  0.00     0.031 A 
ATOM     88  C   UNL     1      -1.535  13.645  16.209  1.00  0.00     0.131 A 
ATOM     89  C   UNL     1      -4.100  14.331  15.432  1.00  0.00     0.055 A 
ATOM     90  C   UNL     1      -2.235  14.620  16.921  1.00  0.00     0.041 A 
ATOM     91  F   UNL     1      -0.276  13.379  16.595  1.00  0.00    -0.206 F 
ATOM     92  C   UNL     1      -3.518  14.983  16.521  1.00  0.00     0.022 A 
BRANCH  89  93
ATOM     93  S   UNL     1      -5.686  14.909  14.769  1.00  0.00     0.124 S 
ATOM     94  O   UNL     1      -5.333  15.252  13.395  1.00  0.00    -0.237 OA
ATOM     95  O   UNL     1      -6.540  13.737  14.934  1.00  0.00    -0.237 OA
ATOM     96  O   UNL     1      -6.022  16.046  15.625  1.00  0.00    -0.744 OA
ENDBRANCH  89  93
ENDBRANCH  63  86
ENDBRANCH  37  38
ENDBRANCH  29  32
ENDBRANCH  27  28
ENDBRANCH  26  27
ENDBRANCH   1  26
TORSDOF 19
