REMARK SMILES CCc1cc(C(=O)c2[nH]c3cc(Cl)ccc3c2CC(=O)NCCCCCCNC(=O)c2ccc(-c3c4nc(c(-c5cc(S(=O)(=O)[O-])ccc5F)c5ccc([nH]5)c(-c5cc(S(=O)(=O)[O-])ccc5F)c5nc(c(-c6cc(S(=O)(=O)[O-])ccc6F)c6ccc3[nH]6)C=C5)C=C4)cc2)ncc1Cl
REMARK SMILES IDX 24 1 23 2 22 3 21 4 19 5 20 6 18 8 17 9 8 10 9 11 10 12
REMARK SMILES IDX 16 14 11 15 15 16 12 17 14 18 13 19 6 20 7 21 5 22 3 23 4 24
REMARK SMILES IDX 96 25 95 26 97 27 94 28 2 29 1 30 25 31 26 32 27 33 28 34
REMARK SMILES IDX 29 35 30 37 31 38 32 39 93 40 33 41 92 42 34 43 35 44 36 45
REMARK SMILES IDX 86 46 37 47 91 48 85 49 87 50 38 51 90 52 84 53 83 54 39 56
REMARK SMILES IDX 71 57 51 58 70 59 52 60 55 61 69 62 88 63 53 64 54 65 68 67
REMARK SMILES IDX 89 68 56 69 40 70 41 71 49 72 42 73 48 74 50 75 47 76 43 77
REMARK SMILES IDX 44 78 45 79 46 80 72 81 73 82 81 83 74 84 80 85 82 86 79 87
REMARK SMILES IDX 75 88 76 89 77 90 78 91 57 92 58 93 66 94 59 95 65 96 67 97
REMARK SMILES IDX 64 98 60 99 61 100 62 101 63 102
REMARK H PARENT 21 7 9 13 28 36 87 55 55 66
REMARK Flexibility Score: inf
ROOT
ATOM      1  C   UNL     1      -3.503   9.551   1.068  1.00  0.00     0.002 C 
ENDROOT
BRANCH   1   2
ATOM      2  C   UNL     1      -3.487   8.348   0.117  1.00  0.00     0.021 C 
BRANCH   2   3
ATOM      3  C   UNL     1      -2.601   8.511  -1.118  1.00  0.00     0.116 C 
BRANCH   3   4
ATOM      4  N   UNL     1      -1.188   8.529  -0.794  1.00  0.00    -0.356 N 
ATOM      5  C   UNL     1      -0.250   7.549  -0.951  1.00  0.00     0.224 C 
ATOM      6  O   UNL     1       0.930   7.825  -0.721  1.00  0.00    -0.275 OA
ATOM      7  H   UNL     1      -0.856   9.370  -0.404  1.00  0.00     0.163 HD
BRANCH   5   8
ATOM      8  C   UNL     1      -0.633   6.189  -1.513  1.00  0.00     0.138 C 
BRANCH   8   9
ATOM      9  C   UNL     1      -1.580   5.389  -0.663  1.00  0.00    -0.002 A 
ATOM     10  C   UNL     1      -1.397   4.971   0.651  1.00  0.00     0.093 A 
ATOM     11  N   UNL     1      -2.558   4.350   1.050  1.00  0.00    -0.351 N 
ATOM     12  C   UNL     1      -3.416   4.199  -0.010  1.00  0.00     0.048 A 
ATOM     13  H   UNL     1      -2.748   4.054   1.970  1.00  0.00     0.167 HD
ATOM     14  C   UNL     1      -2.834   4.842  -1.101  1.00  0.00     0.004 A 
ATOM     15  C   UNL     1      -4.659   3.557  -0.076  1.00  0.00     0.047 A 
ATOM     16  C   UNL     1      -3.534   4.842  -2.328  1.00  0.00     0.012 A 
ATOM     17  C   UNL     1      -5.322   3.567  -1.306  1.00  0.00     0.043 A 
ATOM     18  C   UNL     1      -4.775   4.199  -2.418  1.00  0.00     0.021 A 
ATOM     19  Cl  UNL     1      -6.842   2.773  -1.445  1.00  0.00    -0.084 Cl
BRANCH  10  20
ATOM     20  C   UNL     1      -0.266   5.170   1.540  1.00  0.00     0.227 C 
ATOM     21  O   UNL     1      -0.012   6.275   2.011  1.00  0.00    -0.285 OA
BRANCH  20  22
ATOM     22  C   UNL     1       0.569   3.964   1.911  1.00  0.00     0.113 A 
ATOM     23  C   UNL     1       1.083   1.592   1.821  1.00  0.00    -0.026 A 
ATOM     24  C   UNL     1       0.305   2.689   1.405  1.00  0.00     0.037 A 
ATOM     25  C   UNL     1       2.142   1.835   2.701  1.00  0.00     0.062 A 
ATOM     26  C   UNL     1       2.345   3.135   3.146  1.00  0.00     0.132 A 
ATOM     27  Cl  UNL     1       3.202   0.594   3.251  1.00  0.00    -0.082 Cl
ATOM     28  N   UNL     1       1.581   4.193   2.786  1.00  0.00    -0.251 NA
BRANCH  23  29
ATOM     29  C   UNL     1       0.747   0.220   1.288  1.00  0.00     0.034 C 
ATOM     30  C   UNL     1       1.454  -0.078  -0.025  1.00  0.00     0.009 C 
ENDBRANCH  23  29
ENDBRANCH  20  22
ENDBRANCH  10  20
ENDBRANCH   8   9
ENDBRANCH   5   8
ENDBRANCH   3   4
ENDBRANCH   2   3
ENDBRANCH   1   2
BRANCH   1  31
ATOM     31  C   UNL     1      -3.974  10.879   0.465  1.00  0.00     0.002 C 
BRANCH  31  32
ATOM     32  C   UNL     1      -5.324  10.849  -0.261  1.00  0.00     0.021 C 
BRANCH  32  33
ATOM     33  C   UNL     1      -6.516  10.379   0.573  1.00  0.00     0.116 C 
BRANCH  33  34
ATOM     34  N   UNL     1      -6.817  11.279   1.672  1.00  0.00    -0.352 N 
ATOM     35  C   UNL     1      -8.035  11.722   2.129  1.00  0.00     0.251 C 
ATOM     36  H   UNL     1      -6.034  11.621   2.161  1.00  0.00     0.163 HD
ATOM     37  O   UNL     1      -8.072  12.603   2.983  1.00  0.00    -0.269 OA
BRANCH  35  38
ATOM     38  C   UNL     1      -9.298  11.166   1.587  1.00  0.00     0.039 A 
ATOM     39  C   UNL     1     -10.339  12.050   1.278  1.00  0.00     0.014 A 
ATOM     40  C   UNL     1      -9.486   9.789   1.432  1.00  0.00     0.014 A 
ATOM     41  C   UNL     1     -11.547  11.561   0.769  1.00  0.00     0.010 A 
ATOM     42  C   UNL     1     -10.681   9.303   0.898  1.00  0.00     0.010 A 
ATOM     43  C   UNL     1     -11.720  10.185   0.562  1.00  0.00    -0.014 A 
BRANCH  43  44
ATOM     44  C   UNL     1     -12.987   9.648   0.006  1.00  0.00     0.031 A 
ATOM     45  C   UNL     1     -13.947   8.909   0.894  1.00  0.00     0.074 A 
ATOM     46  C   UNL     1     -13.236   9.756  -1.312  1.00  0.00     0.049 A 
ATOM     47  N   UNL     1     -15.041   8.265   0.576  1.00  0.00    -0.248 NA
ATOM     48  C   UNL     1     -13.616   8.872   2.325  1.00  0.00     0.031 C 
ATOM     49  C   UNL     1     -12.365  10.414  -2.288  1.00  0.00     0.029 A 
ATOM     50  N   UNL     1     -14.285   9.287  -2.061  1.00  0.00    -0.354 N 
ATOM     51  C   UNL     1     -15.517   7.719   1.762  1.00  0.00     0.074 A 
ATOM     52  C   UNL     1     -14.582   8.100   2.803  1.00  0.00     0.031 C 
ATOM     53  C   UNL     1     -12.906  10.288  -3.511  1.00  0.00     0.029 A 
ATOM     54  C   UNL     1     -14.149   9.529  -3.406  1.00  0.00     0.049 A 
ATOM     55  H   UNL     1     -15.060   8.822  -1.671  1.00  0.00     0.167 HD
ATOM     56  C   UNL     1     -16.629   6.969   1.967  1.00  0.00     0.034 A 
ATOM     57  C   UNL     1     -14.926   9.160  -4.441  1.00  0.00     0.034 A 
ATOM     58  C   UNL     1     -17.569   6.610   0.935  1.00  0.00     0.049 A 
ATOM     59  C   UNL     1     -16.174   8.365  -4.189  1.00  0.00     0.074 A 
ATOM     60  C   UNL     1     -18.759   5.911   1.052  1.00  0.00     0.029 A 
ATOM     61  N   UNL     1     -17.423   6.918  -0.410  1.00  0.00    -0.354 N 
ATOM     62  N   UNL     1     -16.622   7.874  -3.058  1.00  0.00    -0.248 NA
ATOM     63  C   UNL     1     -17.021   8.081  -5.354  1.00  0.00     0.031 C 
ATOM     64  C   UNL     1     -19.315   5.768  -0.227  1.00  0.00     0.029 A 
ATOM     65  C   UNL     1     -18.489   6.409  -1.135  1.00  0.00     0.049 A 
ATOM     66  H   UNL     1     -16.671   7.424  -0.793  1.00  0.00     0.167 HD
ATOM     67  C   UNL     1     -17.808   7.224  -3.376  1.00  0.00     0.074 A 
ATOM     68  C   UNL     1     -18.008   7.386  -4.803  1.00  0.00     0.031 C 
ATOM     69  C   UNL     1     -18.660   6.558  -2.558  1.00  0.00     0.034 A 
BRANCH  56  70
ATOM     70  C   UNL     1     -16.850   6.454   3.363  1.00  0.00     0.023 A 
ATOM     71  C   UNL     1     -17.195   7.314   4.420  1.00  0.00     0.031 A 
ATOM     72  C   UNL     1     -16.658   5.091   3.649  1.00  0.00     0.131 A 
ATOM     73  C   UNL     1     -17.274   6.812   5.727  1.00  0.00     0.055 A 
ATOM     74  C   UNL     1     -16.795   4.587   4.943  1.00  0.00     0.041 A 
ATOM     75  F   UNL     1     -16.307   4.233   2.678  1.00  0.00    -0.206 F 
ATOM     76  C   UNL     1     -17.091   5.452   5.994  1.00  0.00     0.022 A 
BRANCH  73  77
ATOM     77  S   UNL     1     -17.487   7.986   7.095  1.00  0.00     0.124 S 
ATOM     78  O   UNL     1     -16.351   8.882   6.899  1.00  0.00    -0.237 OA
ATOM     79  O   UNL     1     -18.803   8.549   6.822  1.00  0.00    -0.237 OA
ATOM     80  O   UNL     1     -17.405   7.141   8.285  1.00  0.00    -0.744 OA
ENDBRANCH  73  77
ENDBRANCH  56  70
BRANCH  57  81
ATOM     81  C   UNL     1     -14.515   9.498  -5.825  1.00  0.00     0.023 A 
ATOM     82  C   UNL     1     -15.063  10.602  -6.494  1.00  0.00     0.031 A 
ATOM     83  C   UNL     1     -13.563   8.709  -6.491  1.00  0.00     0.131 A 
ATOM     84  C   UNL     1     -14.662  10.880  -7.809  1.00  0.00     0.055 A 
ATOM     85  C   UNL     1     -13.157   8.998  -7.793  1.00  0.00     0.041 A 
ATOM     86  F   UNL     1     -13.007   7.654  -5.875  1.00  0.00    -0.206 F 
ATOM     87  C   UNL     1     -13.710  10.088  -8.461  1.00  0.00     0.022 A 
BRANCH  84  88
ATOM     88  S   UNL     1     -15.400  12.302  -8.662  1.00  0.00     0.124 S 
ATOM     89  O   UNL     1     -16.790  11.882  -8.795  1.00  0.00    -0.237 OA
ATOM     90  O   UNL     1     -15.144  13.388  -7.722  1.00  0.00    -0.237 OA
ATOM     91  O   UNL     1     -14.646  12.377  -9.911  1.00  0.00    -0.744 OA
ENDBRANCH  84  88
ENDBRANCH  57  81
BRANCH  69  92
ATOM     92  C   UNL     1     -19.891   5.983  -3.197  1.00  0.00     0.023 A 
ATOM     93  C   UNL     1     -19.844   4.777  -3.916  1.00  0.00     0.031 A 
ATOM     94  C   UNL     1     -21.116   6.663  -3.105  1.00  0.00     0.131 A 
ATOM     95  C   UNL     1     -21.003   4.299  -4.545  1.00  0.00     0.055 A 
ATOM     96  C   UNL     1     -22.272   6.171  -3.712  1.00  0.00     0.041 A 
ATOM     97  F   UNL     1     -21.203   7.822  -2.433  1.00  0.00    -0.206 F 
ATOM     98  C   UNL     1     -22.217   4.985  -4.442  1.00  0.00     0.022 A 
BRANCH  95  99
ATOM     99  S   UNL     1     -20.898   2.784  -5.539  1.00  0.00     0.124 S 
ATOM    100  O   UNL     1     -19.952   3.169  -6.581  1.00  0.00    -0.237 OA
ATOM    101  O   UNL     1     -20.417   1.805  -4.570  1.00  0.00    -0.237 OA
ATOM    102  O   UNL     1     -22.271   2.578  -5.995  1.00  0.00    -0.744 OA
ENDBRANCH  95  99
ENDBRANCH  69  92
ENDBRANCH  43  44
ENDBRANCH  35  38
ENDBRANCH  33  34
ENDBRANCH  32  33
ENDBRANCH  31  32
ENDBRANCH   1  31
TORSDOF 20
