REMARK SMILES CCOC(=O)c1ccc(NC(=O)[C@@H]2[C@H]3c4ccccc4[C@H](c4ccccc43)[C@@H]2C(=O)NCCCCCCNC(=O)c2ccc(-c3c4nc(c(-c5cc(S(=O)(=O)[O-])ccc5F)c5ccc([nH]5)c(-c5cc(S(=O)(=O)[O-])ccc5F)c5nc(c(-c6cc(S(=O)(=O)[O-])ccc6F)c6ccc3[nH]6)C=C5)C=C4)cc2)cc1
REMARK SMILES IDX 33 1 32 2 31 3 29 4 30 5 28 7 13 8 14 9 15 10 27 11 21 12
REMARK SMILES IDX 16 13 20 14 22 15 26 16 17 17 19 18 23 19 25 20 18 21 24 22
REMARK SMILES IDX 11 23 10 24 12 26 9 27 6 28 7 29 105 30 8 31 104 32 4 33
REMARK SMILES IDX 5 34 3 35 2 36 1 37 34 38 35 39 36 40 37 41 38 42 39 43
REMARK SMILES IDX 40 45 41 46 42 47 103 48 43 49 102 50 44 51 45 52 46 53
REMARK SMILES IDX 96 54 47 55 101 56 95 57 97 58 48 59 100 60 94 61 93 62
REMARK SMILES IDX 49 64 81 65 61 66 80 67 62 68 65 69 79 70 98 71 63 72 64 73
REMARK SMILES IDX 78 75 99 76 66 77 50 78 51 79 59 80 52 81 58 82 60 83 57 84
REMARK SMILES IDX 53 85 54 86 55 87 56 88 82 89 83 90 91 91 84 92 90 93 92 94
REMARK SMILES IDX 89 95 85 96 86 97 87 98 88 99 67 100 68 101 76 102 69 103
REMARK SMILES IDX 75 104 77 105 74 106 70 107 71 108 72 109 73 110
REMARK H PARENT 31 6 10 25 38 44 97 63 65 74
REMARK Flexibility Score: inf
ROOT
ATOM      1  C   UNL     1       4.397  -2.335   1.051  1.00  0.00     0.021 C 
ENDROOT
BRANCH   1   2
ATOM      2  C   UNL     1       4.481  -3.842   1.142  1.00  0.00     0.116 C 
BRANCH   2   3
ATOM      3  N   UNL     1       3.551  -4.545   0.290  1.00  0.00    -0.356 N 
ATOM      4  C   UNL     1       3.623  -5.840  -0.115  1.00  0.00     0.224 C 
ATOM      5  O   UNL     1       2.616  -6.352  -0.603  1.00  0.00    -0.275 OA
ATOM      6  H   UNL     1       2.778  -4.028  -0.033  1.00  0.00     0.163 HD
BRANCH   4   7
ATOM      7  C   UNL     1       4.956  -6.571   0.018  1.00  0.00     0.104 C 
ATOM      8  C   UNL     1       4.907  -7.937  -0.706  1.00  0.00     0.104 C 
ATOM      9  C   UNL     1       4.554  -9.053   0.393  1.00  0.00     0.063 C 
ATOM     10  C   UNL     1       5.914  -9.175   1.117  1.00  0.00    -0.036 A 
ATOM     11  C   UNL     1       3.593  -8.541   1.496  1.00  0.00    -0.036 A 
ATOM     12  C   UNL     1       5.326  -6.814   1.520  1.00  0.00     0.063 C 
ATOM     13  C   UNL     1       6.663 -10.324   1.299  1.00  0.00     0.004 A 
ATOM     14  C   UNL     1       6.368  -7.925   1.627  1.00  0.00    -0.036 A 
ATOM     15  C   UNL     1       4.059  -7.369   2.149  1.00  0.00    -0.036 A 
ATOM     16  C   UNL     1       2.446  -9.157   1.978  1.00  0.00     0.004 A 
ATOM     17  C   UNL     1       7.896 -10.210   1.947  1.00  0.00     0.000 A 
ATOM     18  C   UNL     1       7.604  -7.811   2.240  1.00  0.00     0.004 A 
ATOM     19  C   UNL     1       3.406  -6.810   3.242  1.00  0.00     0.004 A 
ATOM     20  C   UNL     1       1.778  -8.591   3.079  1.00  0.00     0.000 A 
ATOM     21  C   UNL     1       8.372  -8.964   2.390  1.00  0.00     0.000 A 
ATOM     22  C   UNL     1       2.252  -7.427   3.704  1.00  0.00     0.000 A 
BRANCH   8  23
ATOM     23  C   UNL     1       4.265  -8.141  -2.086  1.00  0.00     0.229 C 
ATOM     24  N   UNL     1       4.349  -7.246  -3.138  1.00  0.00    -0.326 N 
ATOM     25  H   UNL     1       4.642  -7.624  -3.998  1.00  0.00     0.169 HD
ATOM     26  O   UNL     1       3.867  -9.273  -2.402  1.00  0.00    -0.274 OA
BRANCH  24  27
ATOM     27  C   UNL     1       4.068  -5.862  -3.139  1.00  0.00     0.041 A 
ATOM     28  C   UNL     1       3.236  -3.177  -2.929  1.00  0.00     0.060 A 
ATOM     29  C   UNL     1       4.559  -3.539  -2.633  1.00  0.00     0.018 A 
ATOM     30  C   UNL     1       2.381  -4.138  -3.475  1.00  0.00     0.018 A 
ATOM     31  C   UNL     1       4.977  -4.882  -2.744  1.00  0.00     0.027 A 
ATOM     32  C   UNL     1       2.806  -5.466  -3.601  1.00  0.00     0.027 A 
BRANCH  28  33
ATOM     33  C   UNL     1       2.753  -1.793  -2.643  1.00  0.00     0.338 C 
ATOM     34  O   UNL     1       3.478  -0.810  -2.624  1.00  0.00    -0.246 OA
BRANCH  33  35
ATOM     35  O   UNL     1       1.425  -1.819  -2.352  1.00  0.00    -0.462 OA
BRANCH  35  36
ATOM     36  C   UNL     1       0.749  -0.556  -2.189  1.00  0.00     0.230 C 
ATOM     37  C   UNL     1       0.868   0.013  -0.787  1.00  0.00     0.049 C 
ENDBRANCH  35  36
ENDBRANCH  33  35
ENDBRANCH  28  33
ENDBRANCH  24  27
ENDBRANCH   8  23
ENDBRANCH   4   7
ENDBRANCH   2   3
ENDBRANCH   1   2
BRANCH   1  38
ATOM     38  C   UNL     1       2.980  -1.783   1.039  1.00  0.00     0.002 C 
BRANCH  38  39
ATOM     39  C   UNL     1       2.035  -2.272   2.137  1.00  0.00     0.002 C 
BRANCH  39  40
ATOM     40  C   UNL     1       2.480  -1.953   3.557  1.00  0.00     0.021 C 
BRANCH  40  41
ATOM     41  C   UNL     1       2.897  -0.506   3.781  1.00  0.00     0.116 C 
BRANCH  41  42
ATOM     42  N   UNL     1       1.872   0.449   3.381  1.00  0.00    -0.352 N 
ATOM     43  C   UNL     1       1.368   1.519   4.079  1.00  0.00     0.251 C 
ATOM     44  H   UNL     1       1.488   0.308   2.486  1.00  0.00     0.163 HD
ATOM     45  O   UNL     1       0.412   2.149   3.640  1.00  0.00    -0.269 OA
BRANCH  43  46
ATOM     46  C   UNL     1       1.966   1.862   5.385  1.00  0.00     0.039 A 
ATOM     47  C   UNL     1       1.127   2.017   6.488  1.00  0.00     0.014 A 
ATOM     48  C   UNL     1       3.354   1.946   5.529  1.00  0.00     0.014 A 
ATOM     49  C   UNL     1       1.687   2.165   7.758  1.00  0.00     0.010 A 
ATOM     50  C   UNL     1       3.908   2.006   6.803  1.00  0.00     0.010 A 
ATOM     51  C   UNL     1       3.080   2.103   7.931  1.00  0.00    -0.014 A 
BRANCH  51  52
ATOM     52  C   UNL     1       3.686   2.100   9.288  1.00  0.00     0.031 A 
ATOM     53  C   UNL     1       4.613   3.207   9.703  1.00  0.00     0.074 A 
ATOM     54  C   UNL     1       3.451   1.061  10.116  1.00  0.00     0.049 A 
ATOM     55  N   UNL     1       5.298   3.339  10.809  1.00  0.00    -0.248 NA
ATOM     56  C   UNL     1       4.817   4.295   8.735  1.00  0.00     0.031 C 
ATOM     57  C   UNL     1       2.598  -0.090   9.806  1.00  0.00     0.029 A 
ATOM     58  N   UNL     1       3.911   0.798  11.382  1.00  0.00    -0.354 N 
ATOM     59  C   UNL     1       6.019   4.520  10.670  1.00  0.00     0.074 A 
ATOM     60  C   UNL     1       5.735   5.030   9.345  1.00  0.00     0.031 C 
ATOM     61  C   UNL     1       2.575  -0.918  10.862  1.00  0.00     0.029 A 
ATOM     62  C   UNL     1       3.454  -0.393  11.901  1.00  0.00     0.049 A 
ATOM     63  H   UNL     1       4.512   1.403  11.873  1.00  0.00     0.167 HD
ATOM     64  C   UNL     1       6.825   5.130  11.573  1.00  0.00     0.034 A 
ATOM     65  C   UNL     1       3.728  -1.003  13.071  1.00  0.00     0.034 A 
ATOM     66  C   UNL     1       7.094   4.606  12.889  1.00  0.00     0.049 A 
ATOM     67  C   UNL     1       4.671  -0.328  14.036  1.00  0.00     0.074 A 
ATOM     68  C   UNL     1       7.850   5.170  13.902  1.00  0.00     0.029 A 
ATOM     69  N   UNL     1       6.632   3.388  13.373  1.00  0.00    -0.354 N 
ATOM     70  N   UNL     1       5.299   0.819  13.912  1.00  0.00    -0.248 NA
ATOM     71  C   UNL     1       4.937  -1.026  15.300  1.00  0.00     0.031 C 
ATOM     72  C   UNL     1       7.914   4.260  14.962  1.00  0.00     0.029 A 
ATOM     73  C   UNL     1       7.125   3.164  14.650  1.00  0.00     0.049 A 
ATOM     74  H   UNL     1       6.041   2.773  12.882  1.00  0.00     0.167 HD
ATOM     75  C   UNL     1       6.014   0.990  15.095  1.00  0.00     0.074 A 
ATOM     76  C   UNL     1       5.719  -0.160  15.926  1.00  0.00     0.031 C 
ATOM     77  C   UNL     1       6.839   2.003  15.461  1.00  0.00     0.034 A 
BRANCH  64  78
ATOM     78  C   UNL     1       7.495   6.417  11.152  1.00  0.00     0.023 A 
ATOM     79  C   UNL     1       6.754   7.565  10.822  1.00  0.00     0.031 A 
ATOM     80  C   UNL     1       8.897   6.494  11.067  1.00  0.00     0.131 A 
ATOM     81  C   UNL     1       7.410   8.714  10.358  1.00  0.00     0.055 A 
ATOM     82  C   UNL     1       9.549   7.668  10.685  1.00  0.00     0.041 A 
ATOM     83  F   UNL     1       9.659   5.425  11.345  1.00  0.00    -0.206 F 
ATOM     84  C   UNL     1       8.804   8.784  10.314  1.00  0.00     0.022 A 
BRANCH  81  85
ATOM     85  S   UNL     1       6.411  10.066   9.675  1.00  0.00     0.124 S 
ATOM     86  O   UNL     1       5.691   9.386   8.601  1.00  0.00    -0.237 OA
ATOM     87  O   UNL     1       5.610  10.476  10.822  1.00  0.00    -0.237 OA
ATOM     88  O   UNL     1       7.408  11.037   9.229  1.00  0.00    -0.744 OA
ENDBRANCH  81  85
ENDBRANCH  64  78
BRANCH  65  89
ATOM     89  C   UNL     1       3.134  -2.334  13.392  1.00  0.00     0.023 A 
ATOM     90  C   UNL     1       2.282  -2.500  14.496  1.00  0.00     0.031 A 
ATOM     91  C   UNL     1       3.451  -3.473  12.630  1.00  0.00     0.131 A 
ATOM     92  C   UNL     1       1.821  -3.781  14.838  1.00  0.00     0.055 A 
ATOM     93  C   UNL     1       2.938  -4.735  12.937  1.00  0.00     0.041 A 
ATOM     94  F   UNL     1       4.261  -3.374  11.564  1.00  0.00    -0.206 F 
ATOM     95  C   UNL     1       2.129  -4.896  14.057  1.00  0.00     0.022 A 
BRANCH  92  96
ATOM     96  S   UNL     1       0.894  -3.984  16.384  1.00  0.00     0.124 S 
ATOM     97  O   UNL     1       1.839  -3.466  17.366  1.00  0.00    -0.237 OA
ATOM     98  O   UNL     1      -0.289  -3.166  16.138  1.00  0.00    -0.237 OA
ATOM     99  O   UNL     1       0.652  -5.424  16.448  1.00  0.00    -0.744 OA
ENDBRANCH  92  96
ENDBRANCH  65  89
BRANCH  77 100
ATOM    100  C   UNL     1       7.455   1.922  16.838  1.00  0.00     0.023 A 
ATOM    101  C   UNL     1       8.372   0.912  17.178  1.00  0.00     0.031 A 
ATOM    102  C   UNL     1       7.112   2.862  17.826  1.00  0.00     0.131 A 
ATOM    103  C   UNL     1       8.867   0.829  18.488  1.00  0.00     0.055 A 
ATOM    104  C   UNL     1       7.661   2.816  19.108  1.00  0.00     0.041 A 
ATOM    105  F   UNL     1       6.237   3.846  17.561  1.00  0.00    -0.206 F 
ATOM    106  C   UNL     1       8.534   1.787  19.450  1.00  0.00     0.022 A 
BRANCH 103 107
ATOM    107  S   UNL     1       9.873  -0.608  18.948  1.00  0.00     0.124 S 
ATOM    108  O   UNL     1       8.966  -1.715  18.666  1.00  0.00    -0.237 OA
ATOM    109  O   UNL     1      11.022  -0.483  18.057  1.00  0.00    -0.237 OA
ATOM    110  O   UNL     1      10.161  -0.386  20.364  1.00  0.00    -0.744 OA
ENDBRANCH 103 107
ENDBRANCH  77 100
ENDBRANCH  51  52
ENDBRANCH  43  46
ENDBRANCH  41  42
ENDBRANCH  40  41
ENDBRANCH  39  40
ENDBRANCH  38  39
ENDBRANCH   1  38
TORSDOF 21
