REMARK SMILES Cc1c(CC(=O)NCCCCCCNC(=O)c2ccc(-c3c4nc(c(-c5cc(S(=O)(=O)[O-])ccc5F)c5ccc([nH]5)c(-c5cc(S(=O)(=O)[O-])ccc5F)c5nc(c(-c6cc(S(=O)(=O)[O-])ccc6F)c6ccc3[nH]6)C=C5)C=C4)cc2)cccc1-c1ccn(C(F)F)c(=O)c1
REMARK SMILES IDX 10 1 9 2 8 3 7 4 5 5 6 6 4 8 3 9 1 10 2 11 83 12 80 13 82 14
REMARK SMILES IDX 81 15 84 16 85 17 93 18 86 19 91 20 87 21 92 22 88 23 89 24
REMARK SMILES IDX 90 25 11 26 12 27 13 28 14 29 15 30 16 32 17 33 18 34 79 35
REMARK SMILES IDX 19 36 78 37 20 38 21 39 22 40 72 41 23 42 77 43 71 44 73 45
REMARK SMILES IDX 24 46 76 47 70 48 69 49 25 51 57 52 37 53 56 54 38 55 41 56
REMARK SMILES IDX 55 57 74 58 39 59 40 60 54 62 75 63 42 64 26 65 27 66 35 67
REMARK SMILES IDX 28 68 34 69 36 70 33 71 29 72 30 73 31 74 32 75 58 76 59 77
REMARK SMILES IDX 67 78 60 79 66 80 68 81 65 82 61 83 62 84 63 85 64 86 43 87
REMARK SMILES IDX 44 88 52 89 45 90 51 91 53 92 50 93 46 94 47 95 48 96 49 97
REMARK H PARENT 7 7 14 31 73 50 41 61
REMARK Flexibility Score: inf
ROOT
ATOM      1  C   UNL     1       0.474  -1.487   5.063  1.00  0.00     0.002 C 
ENDROOT
BRANCH   1   2
ATOM      2  C   UNL     1       0.658  -0.965   3.632  1.00  0.00     0.021 C 
BRANCH   2   3
ATOM      3  C   UNL     1       1.514  -1.857   2.736  1.00  0.00     0.116 C 
BRANCH   3   4
ATOM      4  N   UNL     1       0.801  -3.027   2.260  1.00  0.00    -0.356 N 
ATOM      5  C   UNL     1       0.496  -3.392   0.980  1.00  0.00     0.224 C 
ATOM      6  O   UNL     1      -0.082  -4.464   0.787  1.00  0.00    -0.275 OA
ATOM      7  H   UNL     1       0.494  -3.647   2.960  1.00  0.00     0.163 HD
BRANCH   5   8
ATOM      8  C   UNL     1       0.921  -2.519  -0.197  1.00  0.00     0.135 C 
BRANCH   8   9
ATOM      9  C   UNL     1       0.271  -1.147  -0.233  1.00  0.00    -0.035 A 
ATOM     10  C   UNL     1       2.515   0.028  -0.498  1.00  0.00     0.045 C 
ATOM     11  C   UNL     1       1.014   0.062  -0.307  1.00  0.00    -0.040 A 
ATOM     12  C   UNL     1       0.321   1.298  -0.228  1.00  0.00    -0.015 A 
ATOM     13  C   UNL     1      -1.134  -1.092  -0.163  1.00  0.00     0.004 A 
ATOM     14  C   UNL     1      -1.081   1.312  -0.144  1.00  0.00     0.009 A 
ATOM     15  C   UNL     1      -1.804   0.125  -0.123  1.00  0.00     0.001 A 
BRANCH  12  16
ATOM     16  C   UNL     1       1.030   2.594  -0.158  1.00  0.00    -0.011 A 
ATOM     17  C   UNL     1       1.758   3.166  -1.274  1.00  0.00     0.027 A 
ATOM     18  C   UNL     1       1.052   3.223   1.031  1.00  0.00     0.080 A 
ATOM     19  C   UNL     1       2.510   4.260  -1.101  1.00  0.00     0.095 A 
ATOM     20  C   UNL     1       1.853   4.462   1.228  1.00  0.00     0.255 A 
ATOM     21  N   UNL     1       2.578   4.891   0.127  1.00  0.00    -0.258 N 
ATOM     22  O   UNL     1       1.855   4.995   2.333  1.00  0.00    -0.269 OA
BRANCH  21  23
ATOM     23  C   UNL     1       3.418   6.044   0.314  1.00  0.00     0.451 C 
ATOM     24  F   UNL     1       2.692   7.141   0.636  1.00  0.00    -0.185 F 
ATOM     25  F   UNL     1       4.328   5.835   1.296  1.00  0.00    -0.185 F 
ENDBRANCH  21  23
ENDBRANCH  12  16
ENDBRANCH   8   9
ENDBRANCH   5   8
ENDBRANCH   3   4
ENDBRANCH   2   3
ENDBRANCH   1   2
BRANCH   1  26
ATOM     26  C   UNL     1       1.762  -1.857   5.818  1.00  0.00     0.002 C 
BRANCH  26  27
ATOM     27  C   UNL     1       2.863  -0.796   5.832  1.00  0.00     0.021 C 
BRANCH  27  28
ATOM     28  C   UNL     1       2.499   0.467   6.607  1.00  0.00     0.116 C 
BRANCH  28  29
ATOM     29  N   UNL     1       3.169   0.579   7.895  1.00  0.00    -0.352 N 
ATOM     30  C   UNL     1       3.120   1.617   8.819  1.00  0.00     0.251 C 
ATOM     31  H   UNL     1       3.735  -0.186   8.147  1.00  0.00     0.163 HD
ATOM     32  O   UNL     1       3.791   1.608   9.824  1.00  0.00    -0.269 OA
BRANCH  30  33
ATOM     33  C   UNL     1       2.098   2.679   8.616  1.00  0.00     0.039 A 
ATOM     34  C   UNL     1       1.188   2.881   9.660  1.00  0.00     0.014 A 
ATOM     35  C   UNL     1       1.894   3.277   7.377  1.00  0.00     0.014 A 
ATOM     36  C   UNL     1      -0.038   3.483   9.389  1.00  0.00     0.010 A 
ATOM     37  C   UNL     1       0.647   3.805   7.085  1.00  0.00     0.010 A 
ATOM     38  C   UNL     1      -0.342   3.838   8.072  1.00  0.00    -0.014 A 
BRANCH  38  39
ATOM     39  C   UNL     1      -1.710   4.110   7.641  1.00  0.00     0.031 A 
ATOM     40  C   UNL     1      -2.178   5.503   7.452  1.00  0.00     0.074 A 
ATOM     41  C   UNL     1      -2.579   3.088   7.449  1.00  0.00     0.049 A 
ATOM     42  N   UNL     1      -3.376   5.912   7.714  1.00  0.00    -0.248 NA
ATOM     43  C   UNL     1      -1.300   6.562   6.965  1.00  0.00     0.031 C 
ATOM     44  C   UNL     1      -3.940   3.192   6.923  1.00  0.00     0.029 A 
ATOM     45  N   UNL     1      -2.505   1.760   7.869  1.00  0.00    -0.354 N 
ATOM     46  C   UNL     1      -3.510   7.174   7.178  1.00  0.00     0.074 A 
ATOM     47  C   UNL     1      -2.171   7.561   6.790  1.00  0.00     0.031 C 
ATOM     48  C   UNL     1      -4.646   2.136   7.361  1.00  0.00     0.029 A 
ATOM     49  C   UNL     1      -3.794   1.415   8.292  1.00  0.00     0.049 A 
ATOM     50  H   UNL     1      -1.707   1.183   7.868  1.00  0.00     0.167 HD
ATOM     51  C   UNL     1      -4.748   7.708   6.969  1.00  0.00     0.034 A 
ATOM     52  C   UNL     1      -4.138   1.077   9.570  1.00  0.00     0.034 A 
ATOM     53  C   UNL     1      -5.815   6.792   7.364  1.00  0.00     0.049 A 
ATOM     54  C   UNL     1      -5.279   1.912  10.124  1.00  0.00     0.074 A 
ATOM     55  C   UNL     1      -6.604   5.920   6.630  1.00  0.00     0.029 A 
ATOM     56  N   UNL     1      -6.011   6.471   8.702  1.00  0.00    -0.354 N 
ATOM     57  N   UNL     1      -5.640   3.066   9.633  1.00  0.00    -0.248 NA
ATOM     58  C   UNL     1      -6.069   1.536  11.295  1.00  0.00     0.031 C 
ATOM     59  C   UNL     1      -7.227   5.026   7.535  1.00  0.00     0.029 A 
ATOM     60  C   UNL     1      -6.845   5.373   8.819  1.00  0.00     0.049 A 
ATOM     61  H   UNL     1      -5.613   6.956   9.460  1.00  0.00     0.167 HD
ATOM     62  C   UNL     1      -6.657   3.592  10.389  1.00  0.00     0.074 A 
ATOM     63  C   UNL     1      -6.907   2.582  11.403  1.00  0.00     0.031 C 
ATOM     64  C   UNL     1      -7.194   4.822  10.122  1.00  0.00     0.034 A 
BRANCH  51  65
ATOM     65  C   UNL     1      -4.980   8.916   6.086  1.00  0.00     0.023 A 
ATOM     66  C   UNL     1      -6.135   8.986   5.279  1.00  0.00     0.031 A 
ATOM     67  C   UNL     1      -4.090  10.000   5.965  1.00  0.00     0.131 A 
ATOM     68  C   UNL     1      -6.305  10.007   4.326  1.00  0.00     0.055 A 
ATOM     69  C   UNL     1      -4.223  10.982   4.973  1.00  0.00     0.041 A 
ATOM     70  F   UNL     1      -3.075  10.168   6.826  1.00  0.00    -0.206 F 
ATOM     71  C   UNL     1      -5.327  10.978   4.132  1.00  0.00     0.022 A 
BRANCH  68  72
ATOM     72  S   UNL     1      -7.830  10.052   3.342  1.00  0.00     0.124 S 
ATOM     73  O   UNL     1      -7.833   8.739   2.707  1.00  0.00    -0.237 OA
ATOM     74  O   UNL     1      -8.847  10.279   4.363  1.00  0.00    -0.237 OA
ATOM     75  O   UNL     1      -7.612  11.176   2.431  1.00  0.00    -0.744 OA
ENDBRANCH  68  72
ENDBRANCH  51  65
BRANCH  52  76
ATOM     76  C   UNL     1      -3.038   0.516  10.401  1.00  0.00     0.023 A 
ATOM     77  C   UNL     1      -2.405  -0.658   9.950  1.00  0.00     0.031 A 
ATOM     78  C   UNL     1      -2.399   1.267  11.397  1.00  0.00     0.131 A 
ATOM     79  C   UNL     1      -1.104  -0.966  10.371  1.00  0.00     0.055 A 
ATOM     80  C   UNL     1      -1.120   0.928  11.855  1.00  0.00     0.041 A 
ATOM     81  F   UNL     1      -2.945   2.402  11.855  1.00  0.00    -0.206 F 
ATOM     82  C   UNL     1      -0.448  -0.166  11.309  1.00  0.00     0.022 A 
BRANCH  79  83
ATOM     83  S   UNL     1      -0.178  -2.260   9.495  1.00  0.00     0.124 S 
ATOM     84  O   UNL     1      -0.412  -3.428  10.336  1.00  0.00    -0.237 OA
ATOM     85  O   UNL     1      -0.817  -2.288   8.182  1.00  0.00    -0.237 OA
ATOM     86  O   UNL     1       1.190  -1.746   9.491  1.00  0.00    -0.744 OA
ENDBRANCH  79  83
ENDBRANCH  52  76
BRANCH  64  87
ATOM     87  C   UNL     1      -8.180   5.559  11.003  1.00  0.00     0.023 A 
ATOM     88  C   UNL     1      -8.354   5.277  12.366  1.00  0.00     0.031 A 
ATOM     89  C   UNL     1      -8.945   6.639  10.500  1.00  0.00     0.131 A 
ATOM     90  C   UNL     1      -9.313   5.959  13.136  1.00  0.00     0.055 A 
ATOM     91  C   UNL     1      -9.838   7.373  11.288  1.00  0.00     0.041 A 
ATOM     92  F   UNL     1      -8.854   7.033   9.221  1.00  0.00    -0.206 F 
ATOM     93  C   UNL     1     -10.045   7.021  12.612  1.00  0.00     0.022 A 
BRANCH  90  94
ATOM     94  S   UNL     1      -9.637   5.370  14.820  1.00  0.00     0.124 S 
ATOM     95  O   UNL     1     -10.116   4.012  14.574  1.00  0.00    -0.237 OA
ATOM     96  O   UNL     1      -8.325   5.476  15.448  1.00  0.00    -0.237 OA
ATOM     97  O   UNL     1     -10.645   6.300  15.324  1.00  0.00    -0.744 OA
ENDBRANCH  90  94
ENDBRANCH  64  87
ENDBRANCH  38  39
ENDBRANCH  30  33
ENDBRANCH  28  29
ENDBRANCH  27  28
ENDBRANCH  26  27
ENDBRANCH   1  26
TORSDOF 19
