REMARK SMILES CCc1cc(=O)oc2c3c(cc(OCC(=O)NCC(=O)NCCCCCCNC(=O)c4ccc(-c5c6nc(c(-c7cc(S(=O)(=O)[O-])ccc7F)c7ccc([nH]7)c(-c7cc(S(=O)(=O)[O-])ccc7F)c7nc(c(-c8cc(S(=O)(=O)[O-])ccc8F)c8ccc5[nH]8)C=C7)C=C6)cc4)c12)OC(C)(C)CC3
REMARK SMILES IDX 23 1 22 2 21 3 19 4 20 5 18 7 17 8 15 9 16 10 14 12 13 13
REMARK SMILES IDX 12 14 3 15 4 16 94 17 5 18 8 19 6 20 7 21 9 22 11 23 10 24
REMARK SMILES IDX 100 25 95 26 99 27 96 28 97 29 98 30 2 31 1 32 24 33 25 34
REMARK SMILES IDX 26 35 27 36 28 37 29 38 30 40 31 41 32 42 93 43 33 44 92 45
REMARK SMILES IDX 34 46 35 47 36 48 86 49 37 50 91 51 85 52 87 53 38 54 90 55
REMARK SMILES IDX 84 56 83 57 39 59 71 60 51 61 70 62 52 63 55 64 69 65 88 66
REMARK SMILES IDX 53 67 54 68 68 70 89 71 56 72 40 73 41 74 49 75 42 76 48 77
REMARK SMILES IDX 50 78 47 79 43 80 44 81 45 82 46 83 72 84 73 85 81 86 74 87
REMARK SMILES IDX 80 88 82 89 79 90 75 91 76 92 77 93 78 94 57 95 58 96 66 97
REMARK SMILES IDX 59 98 65 99 67 100 64 101 60 102 61 103 62 104 63 105
REMARK H PARENT 21 6 17 11 28 39 87 58 55 69
REMARK Flexibility Score: inf
ROOT
ATOM      1  C   UNL     1       4.719  -0.836  -3.839  1.00  0.00     0.021 C 
ENDROOT
BRANCH   1   2
ATOM      2  C   UNL     1       4.024  -0.316  -2.582  1.00  0.00     0.116 C 
BRANCH   2   3
ATOM      3  N   UNL     1       4.889  -0.100  -1.440  1.00  0.00    -0.355 N 
ATOM      4  C   UNL     1       4.907   0.988  -0.603  1.00  0.00     0.239 C 
ATOM      5  O   UNL     1       5.505   0.893   0.471  1.00  0.00    -0.273 OA
ATOM      6  H   UNL     1       5.536  -0.815  -1.241  1.00  0.00     0.163 HD
BRANCH   4   7
ATOM      7  C   UNL     1       4.151   2.276  -0.974  1.00  0.00     0.216 C 
BRANCH   7   8
ATOM      8  N   UNL     1       4.671   2.901  -2.177  1.00  0.00    -0.344 N 
ATOM      9  C   UNL     1       4.020   3.699  -3.070  1.00  0.00     0.258 C 
ATOM     10  O   UNL     1       4.688   4.269  -3.934  1.00  0.00    -0.271 OA
ATOM     11  H   UNL     1       5.620   2.724  -2.374  1.00  0.00     0.164 HD
BRANCH   9  12
ATOM     12  C   UNL     1       2.496   3.902  -2.971  1.00  0.00     0.329 C 
BRANCH  12  13
ATOM     13  O   UNL     1       1.660   2.755  -2.978  1.00  0.00    -0.483 OA
BRANCH  13  14
ATOM     14  C   UNL     1       1.661   1.918  -4.065  1.00  0.00     0.135 A 
ATOM     15  C   UNL     1       0.388   0.085  -2.702  1.00  0.00    -0.026 A 
ATOM     16  C   UNL     1      -0.020  -1.197  -2.729  1.00  0.00     0.098 A 
ATOM     17  C   UNL     1       1.045   0.648  -3.924  1.00  0.00     0.063 A 
ATOM     18  C   UNL     1       0.136  -2.099  -3.868  1.00  0.00     0.336 A 
ATOM     19  C   UNL     1       1.173  -0.214  -5.032  1.00  0.00     0.149 A 
ATOM     20  O   UNL     1      -0.143  -3.285  -3.778  1.00  0.00    -0.246 OA
ATOM     21  O   UNL     1       0.645  -1.529  -5.010  1.00  0.00    -0.422 OA
ATOM     22  C   UNL     1       1.926   0.095  -6.186  1.00  0.00     0.038 A 
ATOM     23  C   UNL     1       2.349   2.255  -5.251  1.00  0.00     0.094 A 
ATOM     24  C   UNL     1       2.554   1.325  -6.263  1.00  0.00     0.130 A 
ATOM     25  C   UNL     1       2.221  -0.949  -7.213  1.00  0.00     0.047 C 
ATOM     26  O   UNL     1       3.439   1.686  -7.245  1.00  0.00    -0.487 OA
ATOM     27  C   UNL     1       2.889  -0.375  -8.444  1.00  0.00     0.053 C 
ATOM     28  C   UNL     1       3.968   0.643  -8.084  1.00  0.00     0.104 C 
ATOM     29  C   UNL     1       4.455   1.303  -9.382  1.00  0.00     0.056 C 
ATOM     30  C   UNL     1       5.204  -0.008  -7.434  1.00  0.00     0.056 C 
BRANCH  15  31
ATOM     31  C   UNL     1       0.160   0.833  -1.402  1.00  0.00     0.033 C 
ATOM     32  C   UNL     1       0.891   0.219  -0.203  1.00  0.00     0.009 C 
ENDBRANCH  15  31
ENDBRANCH  13  14
ENDBRANCH  12  13
ENDBRANCH   9  12
ENDBRANCH   7   8
ENDBRANCH   4   7
ENDBRANCH   2   3
ENDBRANCH   1   2
BRANCH   1  33
ATOM     33  C   UNL     1       5.069  -2.328  -3.916  1.00  0.00     0.002 C 
BRANCH  33  34
ATOM     34  C   UNL     1       3.912  -3.343  -3.913  1.00  0.00     0.002 C 
BRANCH  34  35
ATOM     35  C   UNL     1       3.256  -3.856  -5.223  1.00  0.00     0.021 C 
BRANCH  35  36
ATOM     36  C   UNL     1       4.106  -4.043  -6.493  1.00  0.00     0.116 C 
BRANCH  36  37
ATOM     37  N   UNL     1       3.855  -5.325  -7.141  1.00  0.00    -0.352 N 
ATOM     38  C   UNL     1       3.077  -5.745  -8.194  1.00  0.00     0.251 C 
ATOM     39  H   UNL     1       4.361  -6.062  -6.728  1.00  0.00     0.163 HD
ATOM     40  O   UNL     1       2.998  -6.963  -8.376  1.00  0.00    -0.269 OA
BRANCH  38  41
ATOM     41  C   UNL     1       2.322  -4.849  -9.113  1.00  0.00     0.039 A 
ATOM     42  C   UNL     1       1.054  -5.270  -9.539  1.00  0.00     0.014 A 
ATOM     43  C   UNL     1       2.866  -3.715  -9.711  1.00  0.00     0.014 A 
ATOM     44  C   UNL     1       0.327  -4.544 -10.501  1.00  0.00     0.010 A 
ATOM     45  C   UNL     1       2.110  -2.956 -10.637  1.00  0.00     0.010 A 
ATOM     46  C   UNL     1       0.824  -3.349 -11.046  1.00  0.00    -0.014 A 
BRANCH  46  47
ATOM     47  C   UNL     1      -0.001  -2.545 -12.021  1.00  0.00     0.031 A 
ATOM     48  C   UNL     1       0.496  -2.224 -13.418  1.00  0.00     0.074 A 
ATOM     49  C   UNL     1      -1.223  -2.084 -11.666  1.00  0.00     0.049 A 
ATOM     50  N   UNL     1      -0.101  -1.558 -14.380  1.00  0.00    -0.248 NA
ATOM     51  C   UNL     1       1.841  -2.693 -13.773  1.00  0.00     0.031 C 
ATOM     52  C   UNL     1      -1.841  -2.263 -10.351  1.00  0.00     0.029 A 
ATOM     53  N   UNL     1      -2.173  -1.379 -12.376  1.00  0.00    -0.354 N 
ATOM     54  C   UNL     1       0.797  -1.520 -15.446  1.00  0.00     0.074 A 
ATOM     55  C   UNL     1       2.002  -2.178 -14.983  1.00  0.00     0.031 C 
ATOM     56  C   UNL     1      -3.075  -1.734 -10.364  1.00  0.00     0.029 A 
ATOM     57  C   UNL     1      -3.327  -1.121 -11.665  1.00  0.00     0.049 A 
ATOM     58  H   UNL     1      -2.040  -1.087 -13.306  1.00  0.00     0.167 HD
ATOM     59  C   UNL     1       0.634  -1.016 -16.698  1.00  0.00     0.034 A 
ATOM     60  C   UNL     1      -4.458  -0.461 -12.001  1.00  0.00     0.034 A 
ATOM     61  C   UNL     1      -0.572  -0.379 -17.177  1.00  0.00     0.049 A 
ATOM     62  C   UNL     1      -4.600   0.132 -13.382  1.00  0.00     0.074 A 
ATOM     63  C   UNL     1      -0.849   0.088 -18.453  1.00  0.00     0.029 A 
ATOM     64  N   UNL     1      -1.694  -0.101 -16.409  1.00  0.00    -0.354 N 
ATOM     65  N   UNL     1      -3.759   0.092 -14.389  1.00  0.00    -0.248 NA
ATOM     66  C   UNL     1      -5.845   0.860 -13.673  1.00  0.00     0.031 C 
ATOM     67  C   UNL     1      -2.096   0.721 -18.435  1.00  0.00     0.029 A 
ATOM     68  C   UNL     1      -2.640   0.574 -17.171  1.00  0.00     0.049 A 
ATOM     69  H   UNL     1      -1.804  -0.346 -15.462  1.00  0.00     0.167 HD
ATOM     70  C   UNL     1      -4.387   0.767 -15.435  1.00  0.00     0.074 A 
ATOM     71  C   UNL     1      -5.682   1.185 -14.947  1.00  0.00     0.031 C 
ATOM     72  C   UNL     1      -3.928   1.013 -16.688  1.00  0.00     0.034 A 
BRANCH  59  73
ATOM     73  C   UNL     1       1.804  -1.114 -17.654  1.00  0.00     0.023 A 
ATOM     74  C   UNL     1       2.314  -2.355 -18.074  1.00  0.00     0.031 A 
ATOM     75  C   UNL     1       2.413   0.049 -18.161  1.00  0.00     0.131 A 
ATOM     76  C   UNL     1       3.442  -2.404 -18.908  1.00  0.00     0.055 A 
ATOM     77  C   UNL     1       3.480  -0.007 -19.061  1.00  0.00     0.041 A 
ATOM     78  F   UNL     1       1.980   1.265 -17.790  1.00  0.00    -0.206 F 
ATOM     79  C   UNL     1       4.012  -1.239 -19.427  1.00  0.00     0.022 A 
BRANCH  76  80
ATOM     80  S   UNL     1       4.243  -4.008 -19.185  1.00  0.00     0.124 S 
ATOM     81  O   UNL     1       4.541  -4.427 -17.817  1.00  0.00    -0.237 OA
ATOM     82  O   UNL     1       3.204  -4.764 -19.874  1.00  0.00    -0.237 OA
ATOM     83  O   UNL     1       5.413  -3.672 -19.994  1.00  0.00    -0.744 OA
ENDBRANCH  76  80
ENDBRANCH  59  73
BRANCH  60  84
ATOM     84  C   UNL     1      -5.558  -0.286 -11.001  1.00  0.00     0.023 A 
ATOM     85  C   UNL     1      -6.838  -0.823 -11.220  1.00  0.00     0.031 A 
ATOM     86  C   UNL     1      -5.359   0.482  -9.839  1.00  0.00     0.131 A 
ATOM     87  C   UNL     1      -7.878  -0.546 -10.318  1.00  0.00     0.055 A 
ATOM     88  C   UNL     1      -6.380   0.702  -8.913  1.00  0.00     0.041 A 
ATOM     89  F   UNL     1      -4.160   1.029  -9.583  1.00  0.00    -0.206 F 
ATOM     90  C   UNL     1      -7.653   0.197  -9.158  1.00  0.00     0.022 A 
BRANCH  87  91
ATOM     91  S   UNL     1      -9.560  -1.087 -10.733  1.00  0.00     0.124 S 
ATOM     92  O   UNL     1      -9.782  -0.413 -12.008  1.00  0.00    -0.237 OA
ATOM     93  O   UNL     1      -9.409  -2.537 -10.790  1.00  0.00    -0.237 OA
ATOM     94  O   UNL     1     -10.362  -0.590  -9.617  1.00  0.00    -0.744 OA
ENDBRANCH  87  91
ENDBRANCH  60  84
BRANCH  72  95
ATOM     95  C   UNL     1      -4.846   1.749 -17.638  1.00  0.00     0.023 A 
ATOM     96  C   UNL     1      -5.212   3.090 -17.427  1.00  0.00     0.031 A 
ATOM     97  C   UNL     1      -5.359   1.099 -18.776  1.00  0.00     0.131 A 
ATOM     98  C   UNL     1      -6.099   3.724 -18.313  1.00  0.00     0.055 A 
ATOM     99  C   UNL     1      -6.193   1.753 -19.686  1.00  0.00     0.041 A 
ATOM    100  F   UNL     1      -5.050  -0.183 -19.029  1.00  0.00    -0.206 F 
ATOM    101  C   UNL     1      -6.576   3.070 -19.451  1.00  0.00     0.022 A 
BRANCH  98 102
ATOM    102  S   UNL     1      -6.684   5.396 -17.919  1.00  0.00     0.124 S 
ATOM    103  O   UNL     1      -7.341   5.193 -16.632  1.00  0.00    -0.237 OA
ATOM    104  O   UNL     1      -5.443   6.163 -17.886  1.00  0.00    -0.237 OA
ATOM    105  O   UNL     1      -7.580   5.718 -19.029  1.00  0.00    -0.744 OA
ENDBRANCH  98 102
ENDBRANCH  72  95
ENDBRANCH  46  47
ENDBRANCH  38  41
ENDBRANCH  36  37
ENDBRANCH  35  36
ENDBRANCH  34  35
ENDBRANCH  33  34
ENDBRANCH   1  33
TORSDOF 21
