REMARK SMILES Cc1cccc(-n2c(C)cc(/C=N\c3ccc(O)c(C(=O)NCCCCCCNC(=O)c4ccc(-c5c6nc(c(-c7cc(S(=O)(=O)[O-])ccc7F)c7ccc([nH]7)c(-c7cc(S(=O)(=O)[O-])ccc7F)c7nc(c(-c8cc(S(=O)(=O)[O-])ccc8F)c8ccc5[nH]8)C=C7)C=C6)cc4)c3)c2C)c1
REMARK SMILES IDX 25 1 24 2 23 3 22 4 20 5 21 6 19 8 14 9 15 10 95 11 16 12
REMARK SMILES IDX 17 13 13 14 12 15 11 16 7 17 8 18 96 19 9 20 10 21 97 22
REMARK SMILES IDX 6 23 1 24 2 25 3 26 98 27 4 28 5 29 18 30 26 32 27 33 28 34
REMARK SMILES IDX 29 35 30 36 31 38 32 39 33 40 94 41 34 42 93 43 35 44 36 45
REMARK SMILES IDX 37 46 87 47 38 48 92 49 86 50 88 51 39 52 91 53 85 54 84 55
REMARK SMILES IDX 40 57 72 58 52 59 71 60 53 61 56 62 70 63 89 64 54 65 55 66
REMARK SMILES IDX 69 68 90 69 57 70 41 71 42 72 50 73 43 74 49 75 51 76 48 77
REMARK SMILES IDX 44 78 45 79 46 80 47 81 73 82 74 83 82 84 75 85 81 86 83 87
REMARK SMILES IDX 80 88 76 89 77 90 78 91 79 92 58 93 59 94 67 95 60 96 66 97
REMARK SMILES IDX 68 98 65 99 61 100 62 101 63 102 64 103
REMARK H PARENT 22 7 18 31 29 37 88 56 56 67
REMARK Flexibility Score: inf
ROOT
ATOM      1  C   UNL     1      -5.397  -3.481   7.505  1.00  0.00     0.002 C 
ENDROOT
BRANCH   1   2
ATOM      2  C   UNL     1      -4.493  -2.248   7.609  1.00  0.00     0.021 C 
BRANCH   2   3
ATOM      3  C   UNL     1      -4.210  -1.414   6.365  1.00  0.00     0.116 C 
BRANCH   3   4
ATOM      4  N   UNL     1      -5.357  -0.962   5.605  1.00  0.00    -0.352 N 
ATOM      5  C   UNL     1      -5.519   0.085   4.725  1.00  0.00     0.255 C 
ATOM      6  O   UNL     1      -6.605   0.161   4.143  1.00  0.00    -0.269 OA
ATOM      7  H   UNL     1      -6.169  -1.502   5.742  1.00  0.00     0.163 HD
BRANCH   5   8
ATOM      8  C   UNL     1      -4.487   1.136   4.431  1.00  0.00     0.083 A 
ATOM      9  C   UNL     1      -4.101   3.330   3.392  1.00  0.00     0.064 A 
ATOM     10  C   UNL     1      -2.753   3.264   3.726  1.00  0.00     0.032 A 
ATOM     11  C   UNL     1      -4.971   2.333   3.862  1.00  0.00     0.046 A 
ATOM     12  C   UNL     1      -2.247   2.098   4.288  1.00  0.00     0.049 A 
ATOM     13  C   UNL     1      -3.096   1.011   4.519  1.00  0.00     0.128 A 
BRANCH   9  14
ATOM     14  N   UNL     1      -4.609   4.343   2.574  1.00  0.00    -0.256 NA
ATOM     15  C   UNL     1      -4.231   4.519   1.339  1.00  0.00     0.121 C 
BRANCH  15  16
ATOM     16  C   UNL     1      -3.264   3.798   0.504  1.00  0.00     0.014 A 
ATOM     17  N   UNL     1      -1.876   2.294  -0.466  1.00  0.00    -0.318 N 
ATOM     18  C   UNL     1      -1.643   3.514  -1.081  1.00  0.00     0.021 A 
ATOM     19  C   UNL     1      -2.997   2.434   0.359  1.00  0.00     0.029 A 
ATOM     20  C   UNL     1      -0.722   3.692  -2.240  1.00  0.00     0.065 C 
ATOM     21  C   UNL     1      -2.452   4.449  -0.472  1.00  0.00     0.033 A 
ATOM     22  C   UNL     1      -3.660   1.260   0.989  1.00  0.00     0.065 C 
BRANCH  17  23
ATOM     23  C   UNL     1      -1.059   1.132  -0.600  1.00  0.00     0.046 A 
ATOM     24  C   UNL     1       2.587   0.167  -0.016  1.00  0.00     0.044 C 
ATOM     25  C   UNL     1       1.125   0.088  -0.344  1.00  0.00    -0.049 A 
ATOM     26  C   UNL     1       0.539  -1.161  -0.582  1.00  0.00     0.003 A 
ATOM     27  C   UNL     1       0.320   1.237  -0.358  1.00  0.00     0.030 A 
ATOM     28  C   UNL     1      -0.822  -1.260  -0.866  1.00  0.00     0.002 A 
ATOM     29  C   UNL     1      -1.619  -0.116  -0.886  1.00  0.00     0.026 A 
ENDBRANCH  17  23
ENDBRANCH  15  16
ENDBRANCH   9  14
BRANCH  13  30
ATOM     30  O   UNL     1      -2.439  -0.183   4.618  1.00  0.00    -0.507 OA
ATOM     31  H   UNL     1      -1.504  -0.200   4.674  1.00  0.00     0.293 HD
ENDBRANCH  13  30
ENDBRANCH   5   8
ENDBRANCH   3   4
ENDBRANCH   2   3
ENDBRANCH   1   2
BRANCH   1  32
ATOM     32  C   UNL     1      -5.232  -4.476   6.349  1.00  0.00     0.002 C 
BRANCH  32  33
ATOM     33  C   UNL     1      -3.830  -4.965   5.993  1.00  0.00     0.021 C 
BRANCH  33  34
ATOM     34  C   UNL     1      -2.994  -5.517   7.141  1.00  0.00     0.116 C 
BRANCH  34  35
ATOM     35  N   UNL     1      -2.942  -6.974   7.230  1.00  0.00    -0.352 N 
ATOM     36  C   UNL     1      -2.203  -7.744   8.108  1.00  0.00     0.251 C 
ATOM     37  H   UNL     1      -3.502  -7.467   6.587  1.00  0.00     0.163 HD
ATOM     38  O   UNL     1      -2.216  -8.971   8.054  1.00  0.00    -0.269 OA
BRANCH  36  39
ATOM     39  C   UNL     1      -1.457  -7.066   9.198  1.00  0.00     0.039 A 
ATOM     40  C   UNL     1      -1.748  -7.433  10.517  1.00  0.00     0.014 A 
ATOM     41  C   UNL     1      -0.661  -5.953   8.935  1.00  0.00     0.014 A 
ATOM     42  C   UNL     1      -1.437  -6.557  11.554  1.00  0.00     0.010 A 
ATOM     43  C   UNL     1      -0.435  -5.041   9.950  1.00  0.00     0.010 A 
ATOM     44  C   UNL     1      -0.885  -5.313  11.247  1.00  0.00    -0.014 A 
BRANCH  44  45
ATOM     45  C   UNL     1      -0.885  -4.190  12.181  1.00  0.00     0.031 A 
ATOM     46  C   UNL     1       0.363  -3.719  12.815  1.00  0.00     0.074 A 
ATOM     47  C   UNL     1      -2.044  -3.546  12.445  1.00  0.00     0.049 A 
ATOM     48  N   UNL     1       0.402  -2.989  13.880  1.00  0.00    -0.248 NA
ATOM     49  C   UNL     1       1.689  -4.116  12.350  1.00  0.00     0.031 C 
ATOM     50  C   UNL     1      -2.216  -2.258  13.111  1.00  0.00     0.029 A 
ATOM     51  N   UNL     1      -3.326  -4.091  12.408  1.00  0.00    -0.354 N 
ATOM     52  C   UNL     1       1.695  -2.556  14.040  1.00  0.00     0.074 A 
ATOM     53  C   UNL     1       2.468  -3.411  13.177  1.00  0.00     0.031 C 
ATOM     54  C   UNL     1      -3.442  -2.211  13.654  1.00  0.00     0.029 A 
ATOM     55  C   UNL     1      -4.044  -3.519  13.474  1.00  0.00     0.049 A 
ATOM     56  H   UNL     1      -3.664  -4.751  11.761  1.00  0.00     0.167 HD
ATOM     57  C   UNL     1       1.922  -1.420  14.757  1.00  0.00     0.034 A 
ATOM     58  C   UNL     1      -4.569  -4.290  14.469  1.00  0.00     0.034 A 
ATOM     59  C   UNL     1       0.753  -1.063  15.572  1.00  0.00     0.049 A 
ATOM     60  C   UNL     1      -4.052  -3.942  15.847  1.00  0.00     0.074 A 
ATOM     61  C   UNL     1      -0.172  -0.034  15.527  1.00  0.00     0.029 A 
ATOM     62  N   UNL     1       0.267  -1.981  16.504  1.00  0.00    -0.354 N 
ATOM     63  N   UNL     1      -2.999  -3.205  16.071  1.00  0.00    -0.248 NA
ATOM     64  C   UNL     1      -4.674  -4.412  17.081  1.00  0.00     0.031 C 
ATOM     65  C   UNL     1      -1.264  -0.389  16.369  1.00  0.00     0.029 A 
ATOM     66  C   UNL     1      -0.981  -1.607  16.965  1.00  0.00     0.049 A 
ATOM     67  H   UNL     1       0.749  -2.788  16.795  1.00  0.00     0.167 HD
ATOM     68  C   UNL     1      -2.776  -3.113  17.422  1.00  0.00     0.074 A 
ATOM     69  C   UNL     1      -3.873  -3.863  18.011  1.00  0.00     0.031 C 
ATOM     70  C   UNL     1      -1.699  -2.438  17.931  1.00  0.00     0.034 A 
BRANCH  57  71
ATOM     71  C   UNL     1       3.115  -0.486  14.561  1.00  0.00     0.023 A 
ATOM     72  C   UNL     1       3.142   0.747  15.256  1.00  0.00     0.031 A 
ATOM     73  C   UNL     1       4.164  -0.654  13.627  1.00  0.00     0.131 A 
ATOM     74  C   UNL     1       4.129   1.724  14.996  1.00  0.00     0.055 A 
ATOM     75  C   UNL     1       5.173   0.293  13.410  1.00  0.00     0.041 A 
ATOM     76  F   UNL     1       4.258  -1.712  12.817  1.00  0.00    -0.206 F 
ATOM     77  C   UNL     1       5.155   1.495  14.087  1.00  0.00     0.022 A 
BRANCH  74  78
ATOM     78  S   UNL     1       4.020   3.348  15.800  1.00  0.00     0.124 S 
ATOM     79  O   UNL     1       2.755   3.861  15.284  1.00  0.00    -0.237 OA
ATOM     80  O   UNL     1       4.053   2.999  17.215  1.00  0.00    -0.237 OA
ATOM     81  O   UNL     1       5.209   4.048  15.312  1.00  0.00    -0.744 OA
ENDBRANCH  74  78
ENDBRANCH  57  71
BRANCH  58  82
ATOM     82  C   UNL     1      -4.987  -5.643  14.003  1.00  0.00     0.023 A 
ATOM     83  C   UNL     1      -5.924  -5.688  12.947  1.00  0.00     0.031 A 
ATOM     84  C   UNL     1      -4.226  -6.790  14.255  1.00  0.00     0.131 A 
ATOM     85  C   UNL     1      -5.942  -6.775  12.066  1.00  0.00     0.055 A 
ATOM     86  C   UNL     1      -4.308  -7.912  13.419  1.00  0.00     0.041 A 
ATOM     87  F   UNL     1      -3.301  -6.799  15.226  1.00  0.00    -0.206 F 
ATOM     88  C   UNL     1      -5.130  -7.888  12.290  1.00  0.00     0.022 A 
BRANCH  85  89
ATOM     89  S   UNL     1      -6.806  -6.603  10.473  1.00  0.00     0.124 S 
ATOM     90  O   UNL     1      -8.059  -7.305  10.728  1.00  0.00    -0.237 OA
ATOM     91  O   UNL     1      -6.913  -5.156  10.306  1.00  0.00    -0.237 OA
ATOM     92  O   UNL     1      -5.896  -7.249   9.530  1.00  0.00    -0.744 OA
ENDBRANCH  85  89
ENDBRANCH  58  82
BRANCH  70  93
ATOM     93  C   UNL     1      -1.262  -2.427  19.387  1.00  0.00     0.023 A 
ATOM     94  C   UNL     1      -1.706  -3.351  20.346  1.00  0.00     0.031 A 
ATOM     95  C   UNL     1      -0.299  -1.493  19.848  1.00  0.00     0.131 A 
ATOM     96  C   UNL     1      -1.284  -3.277  21.689  1.00  0.00     0.055 A 
ATOM     97  C   UNL     1       0.175  -1.467  21.164  1.00  0.00     0.041 A 
ATOM     98  F   UNL     1       0.232  -0.567  19.036  1.00  0.00    -0.206 F 
ATOM     99  C   UNL     1      -0.331  -2.352  22.101  1.00  0.00     0.022 A 
BRANCH  96 100
ATOM    100  S   UNL     1      -2.057  -4.385  22.899  1.00  0.00     0.124 S 
ATOM    101  O   UNL     1      -3.452  -3.953  22.855  1.00  0.00    -0.237 OA
ATOM    102  O   UNL     1      -1.785  -5.703  22.337  1.00  0.00    -0.237 OA
ATOM    103  O   UNL     1      -1.354  -4.083  24.145  1.00  0.00    -0.744 OA
ENDBRANCH  96 100
ENDBRANCH  70  93
ENDBRANCH  44  45
ENDBRANCH  36  39
ENDBRANCH  34  35
ENDBRANCH  33  34
ENDBRANCH  32  33
ENDBRANCH   1  32
TORSDOF 20
