REMARK SMILES Cc1ccc([C@H]2C[C@]2([NH3+])C(=O)NCCCCCCNC(=O)c2ccc(-c3c4nc(c(-c5cc(S(=O)(=O)[O-])ccc5F)c5ccc([nH]5)c(-c5cc(S(=O)(=O)[O-])ccc5F)c5nc(c(-c6cc(S(=O)(=O)[O-])ccc6F)c6ccc3[nH]6)C=C5)C=C4)cc2)cc1C
REMARK SMILES IDX 16 1 15 2 14 3 13 4 12 5 10 6 11 7 8 9 6 10 7 11 5 12 1 13
REMARK SMILES IDX 2 14 3 15 86 16 4 17 85 18 87 19 9 20 17 24 18 25 19 26
REMARK SMILES IDX 20 27 21 29 22 30 23 31 84 32 24 33 83 34 25 35 26 36 27 37
REMARK SMILES IDX 77 38 28 39 82 40 76 41 78 42 29 43 81 44 75 45 74 46 30 48
REMARK SMILES IDX 62 49 42 50 61 51 43 52 46 53 60 54 79 55 44 56 45 57 59 59
REMARK SMILES IDX 80 60 47 61 31 62 32 63 40 64 33 65 39 66 41 67 38 68 34 69
REMARK SMILES IDX 35 70 36 71 37 72 63 73 64 74 72 75 65 76 71 77 73 78 70 79
REMARK SMILES IDX 66 80 67 81 68 82 69 83 48 84 49 85 57 86 50 87 56 88 58 89
REMARK SMILES IDX 55 90 51 91 52 92 53 93 54 94
REMARK H PARENT 12 8 9 21 9 22 9 23 19 28 78 47 46 58
REMARK Flexibility Score: inf
ROOT
ATOM      1  C   UNL     1      -5.010   3.071   4.557  1.00  0.00     0.002 C 
ENDROOT
BRANCH   1   2
ATOM      2  C   UNL     1      -3.683   2.736   3.870  1.00  0.00     0.002 C 
BRANCH   2   3
ATOM      3  C   UNL     1      -3.443   1.254   3.560  1.00  0.00     0.021 C 
BRANCH   3   4
ATOM      4  C   UNL     1      -4.534   0.566   2.742  1.00  0.00     0.116 C 
BRANCH   4   5
ATOM      5  N   UNL     1      -4.722   1.167   1.438  1.00  0.00    -0.351 N 
ATOM      6  C   UNL     1      -4.738   0.576   0.201  1.00  0.00     0.281 C 
ATOM      7  O   UNL     1      -4.967   1.262  -0.793  1.00  0.00    -0.268 OA
ATOM      8  H   UNL     1      -4.859   2.142   1.440  1.00  0.00     0.163 HD
BRANCH   6   9
ATOM      9  C   UNL     1      -4.454  -0.912   0.071  1.00  0.00     0.181 C 
ATOM     10  C   UNL     1      -2.998  -1.306  -0.143  1.00  0.00     0.097 C 
ATOM     11  C   UNL     1      -3.981  -1.430  -1.274  1.00  0.00     0.095 C 
BRANCH  10  12
ATOM     12  C   UNL     1      -2.328  -2.547   0.399  1.00  0.00    -0.038 A 
ATOM     13  C   UNL     1       0.067  -5.865   1.891  1.00  0.00     0.044 C 
ATOM     14  C   UNL     1      -0.800  -4.736   1.407  1.00  0.00    -0.048 A 
ATOM     15  C   UNL     1      -0.863  -4.471   0.033  1.00  0.00     0.004 A 
ATOM     16  C   UNL     1      -1.530  -3.920   2.288  1.00  0.00    -0.048 A 
ATOM     17  C   UNL     1      -1.613  -3.399  -0.456  1.00  0.00     0.004 A 
ATOM     18  C   UNL     1      -2.272  -2.838   1.770  1.00  0.00     0.008 A 
ATOM     19  C   UNL     1      -1.543  -4.127   3.779  1.00  0.00     0.044 C 
ENDBRANCH  10  12
BRANCH   9  20
ATOM     20  N   UNL     1      -5.459  -1.793   0.722  1.00  0.00    -0.344 N 
ATOM     21  H   UNL     1      -5.194  -2.769   0.587  1.00  0.00     0.345 HD
ATOM     22  H   UNL     1      -6.376  -1.629   0.305  1.00  0.00     0.345 HD
ATOM     23  H   UNL     1      -5.498  -1.585   1.720  1.00  0.00     0.345 HD
ENDBRANCH   9  20
ENDBRANCH   6   9
ENDBRANCH   4   5
ENDBRANCH   3   4
ENDBRANCH   2   3
ENDBRANCH   1   2
BRANCH   1  24
ATOM     24  C   UNL     1      -5.296   2.320   5.860  1.00  0.00     0.021 C 
BRANCH  24  25
ATOM     25  C   UNL     1      -4.234   2.456   6.947  1.00  0.00     0.116 C 
BRANCH  25  26
ATOM     26  N   UNL     1      -4.050   3.829   7.383  1.00  0.00    -0.352 N 
ATOM     27  C   UNL     1      -4.047   4.357   8.652  1.00  0.00     0.251 C 
ATOM     28  H   UNL     1      -3.906   4.481   6.660  1.00  0.00     0.163 HD
ATOM     29  O   UNL     1      -4.034   5.577   8.793  1.00  0.00    -0.269 OA
BRANCH  27  30
ATOM     30  C   UNL     1      -4.090   3.472   9.840  1.00  0.00     0.039 A 
ATOM     31  C   UNL     1      -4.912   3.831  10.913  1.00  0.00     0.014 A 
ATOM     32  C   UNL     1      -3.314   2.312   9.919  1.00  0.00     0.014 A 
ATOM     33  C   UNL     1      -5.000   3.001  12.033  1.00  0.00     0.010 A 
ATOM     34  C   UNL     1      -3.456   1.449  11.007  1.00  0.00     0.010 A 
ATOM     35  C   UNL     1      -4.298   1.785  12.078  1.00  0.00    -0.014 A 
BRANCH  35  36
ATOM     36  C   UNL     1      -4.438   0.864  13.239  1.00  0.00     0.031 A 
ATOM     37  C   UNL     1      -3.257   0.570  14.125  1.00  0.00     0.074 A 
ATOM     38  C   UNL     1      -5.620   0.258  13.469  1.00  0.00     0.049 A 
ATOM     39  N   UNL     1      -3.175  -0.230  15.158  1.00  0.00    -0.248 NA
ATOM     40  C   UNL     1      -1.995   1.244  13.786  1.00  0.00     0.031 C 
ATOM     41  C   UNL     1      -6.827   0.426  12.656  1.00  0.00     0.029 A 
ATOM     42  N   UNL     1      -6.003  -0.622  14.450  1.00  0.00    -0.354 N 
ATOM     43  C   UNL     1      -1.853  -0.162  15.588  1.00  0.00     0.074 A 
ATOM     44  C   UNL     1      -1.158   0.707  14.661  1.00  0.00     0.031 C 
ATOM     45  C   UNL     1      -7.820  -0.304  13.187  1.00  0.00     0.029 A 
ATOM     46  C   UNL     1      -7.316  -1.024  14.352  1.00  0.00     0.049 A 
ATOM     47  H   UNL     1      -5.395  -0.937  15.158  1.00  0.00     0.167 HD
ATOM     48  C   UNL     1      -1.278  -0.750  16.667  1.00  0.00     0.034 A 
ATOM     49  C   UNL     1      -8.031  -1.879  15.110  1.00  0.00     0.034 A 
ATOM     50  C   UNL     1      -1.986  -1.608  17.588  1.00  0.00     0.049 A 
ATOM     51  C   UNL     1      -7.367  -2.532  16.295  1.00  0.00     0.074 A 
ATOM     52  C   UNL     1      -1.516  -2.209  18.743  1.00  0.00     0.029 A 
ATOM     53  N   UNL     1      -3.315  -1.994  17.456  1.00  0.00    -0.354 N 
ATOM     54  N   UNL     1      -6.130  -2.412  16.721  1.00  0.00    -0.248 NA
ATOM     55  C   UNL     1      -8.201  -3.425  17.109  1.00  0.00     0.031 C 
ATOM     56  C   UNL     1      -2.536  -3.010  19.270  1.00  0.00     0.029 A 
ATOM     57  C   UNL     1      -3.669  -2.851  18.489  1.00  0.00     0.049 A 
ATOM     58  H   UNL     1      -3.917  -1.703  16.734  1.00  0.00     0.167 HD
ATOM     59  C   UNL     1      -6.047  -3.196  17.868  1.00  0.00     0.074 A 
ATOM     60  C   UNL     1      -7.364  -3.762  18.079  1.00  0.00     0.031 C 
ATOM     61  C   UNL     1      -4.980  -3.428  18.676  1.00  0.00     0.034 A 
BRANCH  48  62
ATOM     62  C   UNL     1       0.196  -0.502  16.890  1.00  0.00     0.023 A 
ATOM     63  C   UNL     1       0.699   0.788  17.137  1.00  0.00     0.031 A 
ATOM     64  C   UNL     1       1.117  -1.563  16.827  1.00  0.00     0.131 A 
ATOM     65  C   UNL     1       2.083   0.997  17.230  1.00  0.00     0.055 A 
ATOM     66  C   UNL     1       2.488  -1.361  17.006  1.00  0.00     0.041 A 
ATOM     67  F   UNL     1       0.702  -2.814  16.576  1.00  0.00    -0.206 F 
ATOM     68  C   UNL     1       2.980  -0.073  17.192  1.00  0.00     0.022 A 
BRANCH  65  69
ATOM     69  S   UNL     1       2.703   2.701  17.250  1.00  0.00     0.124 S 
ATOM     70  O   UNL     1       2.174   3.221  15.992  1.00  0.00    -0.237 OA
ATOM     71  O   UNL     1       2.106   3.240  18.467  1.00  0.00    -0.237 OA
ATOM     72  O   UNL     1       4.155   2.538  17.287  1.00  0.00    -0.744 OA
ENDBRANCH  65  69
ENDBRANCH  48  62
BRANCH  49  73
ATOM     73  C   UNL     1      -9.453  -2.178  14.776  1.00  0.00     0.023 A 
ATOM     74  C   UNL     1     -10.492  -1.819  15.649  1.00  0.00     0.031 A 
ATOM     75  C   UNL     1      -9.790  -2.867  13.598  1.00  0.00     0.131 A 
ATOM     76  C   UNL     1     -11.813  -2.194  15.356  1.00  0.00     0.055 A 
ATOM     77  C   UNL     1     -11.111  -3.191  13.285  1.00  0.00     0.041 A 
ATOM     78  F   UNL     1      -8.835  -3.228  12.725  1.00  0.00    -0.206 F 
ATOM     79  C   UNL     1     -12.131  -2.866  14.174  1.00  0.00     0.022 A 
BRANCH  76  80
ATOM     80  S   UNL     1     -13.103  -1.863  16.588  1.00  0.00     0.124 S 
ATOM     81  O   UNL     1     -12.595  -2.581  17.751  1.00  0.00    -0.237 OA
ATOM     82  O   UNL     1     -13.075  -0.406  16.670  1.00  0.00    -0.237 OA
ATOM     83  O   UNL     1     -14.306  -2.428  15.980  1.00  0.00    -0.744 OA
ENDBRANCH  76  80
ENDBRANCH  49  73
BRANCH  61  84
ATOM     84  C   UNL     1      -5.216  -4.310  19.879  1.00  0.00     0.023 A 
ATOM     85  C   UNL     1      -5.544  -5.671  19.743  1.00  0.00     0.031 A 
ATOM     86  C   UNL     1      -5.144  -3.775  21.177  1.00  0.00     0.131 A 
ATOM     87  C   UNL     1      -5.856  -6.432  20.879  1.00  0.00     0.055 A 
ATOM     88  C   UNL     1      -5.391  -4.554  22.309  1.00  0.00     0.041 A 
ATOM     89  F   UNL     1      -4.837  -2.482  21.368  1.00  0.00    -0.206 F 
ATOM     90  C   UNL     1      -5.765  -5.887  22.163  1.00  0.00     0.022 A 
BRANCH  87  91
ATOM     91  S   UNL     1      -6.491  -8.116  20.651  1.00  0.00     0.124 S 
ATOM     92  O   UNL     1      -7.662  -7.887  19.810  1.00  0.00    -0.237 OA
ATOM     93  O   UNL     1      -5.366  -8.789  20.008  1.00  0.00    -0.237 OA
ATOM     94  O   UNL     1      -6.782  -8.561  22.012  1.00  0.00    -0.744 OA
ENDBRANCH  87  91
ENDBRANCH  61  84
ENDBRANCH  35  36
ENDBRANCH  27  30
ENDBRANCH  25  26
ENDBRANCH  24  25
ENDBRANCH   1  24
TORSDOF 18
