REMARK SMILES CC(C)(C)OCC[C@@H]1CCC[C@]1([NH2+]C1CC1)C(=O)NCCCCCCNC(=O)c1ccc(-c2c3nc(c(-c4cc(S(=O)(=O)[O-])ccc4F)c4ccc([nH]4)c(-c4cc(S(=O)(=O)[O-])ccc4F)c4nc(c(-c5cc(S(=O)(=O)[O-])ccc5F)c5ccc2[nH]5)C=C4)C=C3)cc1
REMARK SMILES IDX 22 1 21 2 20 3 19 4 17 5 18 6 12 8 8 9 9 10 10 11 11 12 7 13
REMARK SMILES IDX 6 14 5 15 2 16 1 17 3 18 4 19 13 20 14 23 15 24 16 25 23 26
REMARK SMILES IDX 24 27 25 28 26 29 27 30 28 32 29 33 30 34 91 35 31 36 90 37
REMARK SMILES IDX 32 38 33 39 34 40 84 41 35 42 89 43 83 44 85 45 36 46 88 47
REMARK SMILES IDX 82 48 81 49 37 51 69 52 49 53 68 54 50 55 53 56 67 57 86 58
REMARK SMILES IDX 51 59 52 60 66 62 87 63 54 64 38 65 39 66 47 67 40 68 46 69
REMARK SMILES IDX 48 70 45 71 41 72 42 73 43 74 44 75 70 76 71 77 79 78 72 79
REMARK SMILES IDX 78 80 80 81 77 82 73 83 74 84 75 85 76 86 55 87 56 88 64 89
REMARK SMILES IDX 57 90 63 91 65 92 62 93 58 94 59 95 60 96 61 97
REMARK H PARENT 19 7 13 21 13 22 26 31 85 50 53 61
REMARK Flexibility Score: inf
ROOT
ATOM      1  C   UNL     1      -1.040  -0.380  -7.498  1.00  0.00     0.002 C 
ENDROOT
BRANCH   1   2
ATOM      2  C   UNL     1      -0.453  -0.718  -6.128  1.00  0.00     0.021 C 
BRANCH   2   3
ATOM      3  C   UNL     1      -1.509  -1.103  -5.094  1.00  0.00     0.116 C 
BRANCH   3   4
ATOM      4  N   UNL     1      -1.778  -2.518  -5.157  1.00  0.00    -0.351 N 
ATOM      5  C   UNL     1      -1.583  -3.505  -4.244  1.00  0.00     0.281 C 
ATOM      6  O   UNL     1      -1.910  -4.637  -4.630  1.00  0.00    -0.268 OA
ATOM      7  H   UNL     1      -2.170  -2.821  -6.007  1.00  0.00     0.163 HD
BRANCH   5   8
ATOM      8  C   UNL     1      -0.999  -3.272  -2.800  1.00  0.00     0.178 C 
ATOM      9  C   UNL     1       0.558  -3.100  -2.696  1.00  0.00     0.063 C 
ATOM     10  C   UNL     1       1.051  -4.486  -3.141  1.00  0.00     0.011 C 
ATOM     11  C   UNL     1       0.102  -5.454  -2.442  1.00  0.00     0.008 C 
ATOM     12  C   UNL     1      -1.111  -4.616  -2.014  1.00  0.00     0.079 C 
BRANCH   9  13
ATOM     13  C   UNL     1       1.369  -1.986  -3.366  1.00  0.00     0.039 C 
BRANCH  13  14
ATOM     14  C   UNL     1       1.229  -0.535  -2.874  1.00  0.00     0.161 C 
BRANCH  14  15
ATOM     15  O   UNL     1       1.838  -0.270  -1.618  1.00  0.00    -0.376 OA
BRANCH  15  16
ATOM     16  C   UNL     1       1.053  -0.027  -0.441  1.00  0.00     0.060 C 
ATOM     17  C   UNL     1       1.852   0.998   0.386  1.00  0.00     0.042 C 
ATOM     18  C   UNL     1       1.006  -1.323   0.375  1.00  0.00     0.042 C 
ATOM     19  C   UNL     1      -0.347   0.574  -0.643  1.00  0.00     0.042 C 
ENDBRANCH  15  16
ENDBRANCH  14  15
ENDBRANCH  13  14
ENDBRANCH   9  13
BRANCH   8  20
ATOM     20  N   UNL     1      -1.708  -2.206  -2.079  1.00  0.00    -0.331 N 
ATOM     21  H   UNL     1      -1.328  -1.325  -2.425  1.00  0.00     0.347 HD
ATOM     22  H   UNL     1      -1.552  -2.467  -1.105  1.00  0.00     0.347 HD
BRANCH  20  23
ATOM     23  C   UNL     1      -3.164  -2.068  -2.126  1.00  0.00     0.183 C 
ATOM     24  C   UNL     1      -4.174  -3.146  -2.369  1.00  0.00     0.071 C 
ATOM     25  C   UNL     1      -3.944  -2.658  -0.974  1.00  0.00     0.071 C 
ENDBRANCH  20  23
ENDBRANCH   8  20
ENDBRANCH   5   8
ENDBRANCH   3   4
ENDBRANCH   2   3
ENDBRANCH   1   2
BRANCH   1  26
ATOM     26  C   UNL     1      -1.829   0.931  -7.539  1.00  0.00     0.002 C 
BRANCH  26  27
ATOM     27  C   UNL     1      -1.055   2.175  -7.091  1.00  0.00     0.021 C 
BRANCH  27  28
ATOM     28  C   UNL     1       0.276   2.400  -7.806  1.00  0.00     0.116 C 
BRANCH  28  29
ATOM     29  N   UNL     1       0.108   2.486  -9.246  1.00  0.00    -0.352 N 
ATOM     30  C   UNL     1       0.423   3.506 -10.108  1.00  0.00     0.251 C 
ATOM     31  H   UNL     1      -0.292   1.691  -9.668  1.00  0.00     0.163 HD
ATOM     32  O   UNL     1      -0.012   3.482 -11.254  1.00  0.00    -0.269 OA
BRANCH  30  33
ATOM     33  C   UNL     1       1.270   4.630  -9.653  1.00  0.00     0.039 A 
ATOM     34  C   UNL     1       0.932   5.929 -10.043  1.00  0.00     0.014 A 
ATOM     35  C   UNL     1       2.417   4.405  -8.886  1.00  0.00     0.014 A 
ATOM     36  C   UNL     1       1.721   7.005  -9.629  1.00  0.00     0.010 A 
ATOM     37  C   UNL     1       3.163   5.484  -8.417  1.00  0.00     0.010 A 
ATOM     38  C   UNL     1       2.832   6.794  -8.796  1.00  0.00    -0.014 A 
BRANCH  38  39
ATOM     39  C   UNL     1       3.685   7.926  -8.350  1.00  0.00     0.031 A 
ATOM     40  C   UNL     1       5.118   8.006  -8.805  1.00  0.00     0.074 A 
ATOM     41  C   UNL     1       3.189   8.851  -7.505  1.00  0.00     0.049 A 
ATOM     42  N   UNL     1       6.050   8.860  -8.468  1.00  0.00    -0.248 NA
ATOM     43  C   UNL     1       5.569   6.966  -9.743  1.00  0.00     0.031 C 
ATOM     44  C   UNL     1       1.823   8.866  -6.976  1.00  0.00     0.029 A 
ATOM     45  N   UNL     1       3.776   9.954  -6.938  1.00  0.00    -0.354 N 
ATOM     46  C   UNL     1       7.198   8.455  -9.141  1.00  0.00     0.074 A 
ATOM     47  C   UNL     1       6.859   7.242  -9.853  1.00  0.00     0.031 C 
ATOM     48  C   UNL     1       1.673   9.937  -6.180  1.00  0.00     0.029 A 
ATOM     49  C   UNL     1       2.938  10.660  -6.104  1.00  0.00     0.049 A 
ATOM     50  H   UNL     1       4.709  10.216  -7.110  1.00  0.00     0.167 HD
ATOM     51  C   UNL     1       8.415   9.053  -9.182  1.00  0.00     0.034 A 
ATOM     52  C   UNL     1       3.170  11.758  -5.357  1.00  0.00     0.034 A 
ATOM     53  C   UNL     1       8.733  10.271  -8.476  1.00  0.00     0.049 A 
ATOM     54  C   UNL     1       4.539  12.391  -5.398  1.00  0.00     0.074 A 
ATOM     55  C   UNL     1       9.921  10.981  -8.471  1.00  0.00     0.029 A 
ATOM     56  N   UNL     1       7.856  10.961  -7.648  1.00  0.00    -0.354 N 
ATOM     57  N   UNL     1       5.606  12.013  -6.064  1.00  0.00    -0.248 NA
ATOM     58  C   UNL     1       4.731  13.606  -4.596  1.00  0.00     0.031 C 
ATOM     59  C   UNL     1       9.783  12.063  -7.595  1.00  0.00     0.029 A 
ATOM     60  C   UNL     1       8.485  12.075  -7.112  1.00  0.00     0.049 A 
ATOM     61  H   UNL     1       6.925  10.697  -7.467  1.00  0.00     0.167 HD
ATOM     62  C   UNL     1       6.581  12.969  -5.793  1.00  0.00     0.074 A 
ATOM     63  C   UNL     1       5.972  13.944  -4.913  1.00  0.00     0.031 C 
ATOM     64  C   UNL     1       7.862  13.040  -6.236  1.00  0.00     0.034 A 
BRANCH  51  65
ATOM     65  C   UNL     1       9.492   8.380 -10.000  1.00  0.00     0.023 A 
ATOM     66  C   UNL     1       9.366   8.214 -11.390  1.00  0.00     0.031 A 
ATOM     67  C   UNL     1      10.648   7.873  -9.380  1.00  0.00     0.131 A 
ATOM     68  C   UNL     1      10.336   7.491 -12.101  1.00  0.00     0.055 A 
ATOM     69  C   UNL     1      11.651   7.229 -10.107  1.00  0.00     0.041 A 
ATOM     70  F   UNL     1      10.817   7.982  -8.053  1.00  0.00    -0.206 F 
ATOM     71  C   UNL     1      11.491   7.020 -11.474  1.00  0.00     0.022 A 
BRANCH  68  72
ATOM     72  S   UNL     1       9.996   7.053 -13.828  1.00  0.00     0.124 S 
ATOM     73  O   UNL     1       8.774   6.262 -13.695  1.00  0.00    -0.237 OA
ATOM     74  O   UNL     1       9.847   8.357 -14.463  1.00  0.00    -0.237 OA
ATOM     75  O   UNL     1      11.179   6.294 -14.229  1.00  0.00    -0.744 OA
ENDBRANCH  68  72
ENDBRANCH  51  65
BRANCH  52  76
ATOM     76  C   UNL     1       2.093  12.336  -4.502  1.00  0.00     0.023 A 
ATOM     77  C   UNL     1       1.595  13.626  -4.742  1.00  0.00     0.031 A 
ATOM     78  C   UNL     1       1.587  11.630  -3.396  1.00  0.00     0.131 A 
ATOM     79  C   UNL     1       0.664  14.194  -3.857  1.00  0.00     0.055 A 
ATOM     80  C   UNL     1       0.619  12.177  -2.551  1.00  0.00     0.041 A 
ATOM     81  F   UNL     1       2.024  10.390  -3.122  1.00  0.00    -0.206 F 
ATOM     82  C   UNL     1       0.164  13.473  -2.771  1.00  0.00     0.022 A 
BRANCH  79  83
ATOM     83  S   UNL     1       0.194  15.930  -4.091  1.00  0.00     0.124 S 
ATOM     84  O   UNL     1       1.489  16.598  -4.037  1.00  0.00    -0.237 OA
ATOM     85  O   UNL     1      -0.456  15.893  -5.397  1.00  0.00    -0.237 OA
ATOM     86  O   UNL     1      -0.695  16.196  -2.962  1.00  0.00    -0.744 OA
ENDBRANCH  79  83
ENDBRANCH  52  76
BRANCH  64  87
ATOM     87  C   UNL     1       8.666  14.249  -5.824  1.00  0.00     0.023 A 
ATOM     88  C   UNL     1       9.039  14.474  -4.487  1.00  0.00     0.031 A 
ATOM     89  C   UNL     1       9.052  15.197  -6.788  1.00  0.00     0.131 A 
ATOM     90  C   UNL     1       9.726  15.648  -4.143  1.00  0.00     0.055 A 
ATOM     91  C   UNL     1       9.788  16.333  -6.448  1.00  0.00     0.041 A 
ATOM     92  F   UNL     1       8.721  15.033  -8.079  1.00  0.00    -0.206 F 
ATOM     93  C   UNL     1      10.117  16.571  -5.117  1.00  0.00     0.022 A 
BRANCH  90  94
ATOM     94  S   UNL     1      10.021  16.002  -2.388  1.00  0.00     0.124 S 
ATOM     95  O   UNL     1       8.666  16.005  -1.846  1.00  0.00    -0.237 OA
ATOM     96  O   UNL     1      10.867  14.884  -1.983  1.00  0.00    -0.237 OA
ATOM     97  O   UNL     1      10.684  17.305  -2.407  1.00  0.00    -0.744 OA
ENDBRANCH  90  94
ENDBRANCH  64  87
ENDBRANCH  38  39
ENDBRANCH  30  33
ENDBRANCH  28  29
ENDBRANCH  27  28
ENDBRANCH  26  27
ENDBRANCH   1  26
TORSDOF 22
