REMARK SMILES NC(=O)c1c(F)cccc1N1CCC[C@H](CC(=O)NCCCCCCNC(=O)c2ccc(-c3c4nc(c(-c5cc(S(=O)(=O)[O-])ccc5F)c5ccc([nH]5)c(-c5cc(S(=O)(=O)[O-])ccc5F)c5nc(c(-c6cc(S(=O)(=O)[O-])ccc6F)c6ccc3[nH]6)C=C5)C=C4)cc2)C1
REMARK SMILES IDX 22 1 21 2 20 3 19 4 17 5 18 6 16 8 15 9 11 10 12 11 92 12
REMARK SMILES IDX 13 13 14 14 10 15 4 16 5 17 6 18 7 19 9 20 8 21 2 22 1 23
REMARK SMILES IDX 3 26 23 27 24 28 25 29 26 30 27 31 28 33 29 34 30 35 91 36
REMARK SMILES IDX 31 37 90 38 32 39 33 40 34 41 84 42 35 43 89 44 83 45 85 46
REMARK SMILES IDX 36 47 88 48 82 49 81 50 37 52 69 53 49 54 68 55 50 56 53 57
REMARK SMILES IDX 67 58 86 59 51 60 52 61 66 63 87 64 54 65 38 66 39 67 47 68
REMARK SMILES IDX 40 69 46 70 48 71 45 72 41 73 42 74 43 75 44 76 70 77 71 78
REMARK SMILES IDX 79 79 72 80 78 81 80 82 77 83 73 84 74 85 75 86 76 87 55 88
REMARK SMILES IDX 56 89 64 90 57 91 63 92 65 93 62 94 58 95 59 96 60 97 61 98
REMARK H PARENT 19 7 1 24 1 25 26 32 85 51 53 62
REMARK Flexibility Score: inf
ROOT
ATOM      1  C   UNL     1      -2.490  10.260   1.132  1.00  0.00     0.002 C 
ENDROOT
BRANCH   1   2
ATOM      2  C   UNL     1      -2.129   8.805   0.848  1.00  0.00     0.021 C 
BRANCH   2   3
ATOM      3  C   UNL     1      -0.685   8.615   0.381  1.00  0.00     0.116 C 
BRANCH   3   4
ATOM      4  N   UNL     1       0.159   8.236   1.495  1.00  0.00    -0.356 N 
ATOM      5  C   UNL     1       0.711   7.027   1.787  1.00  0.00     0.220 C 
ATOM      6  O   UNL     1       1.291   6.891   2.866  1.00  0.00    -0.275 OA
ATOM      7  H   UNL     1       0.363   8.957   2.133  1.00  0.00     0.163 HD
BRANCH   5   8
ATOM      8  C   UNL     1       0.647   5.891   0.787  1.00  0.00     0.105 C 
BRANCH   8   9
ATOM      9  C   UNL     1      -0.502   4.887   1.028  1.00  0.00     0.018 C 
ATOM     10  N   UNL     1      -0.077   3.702  -1.037  1.00  0.00    -0.371 N 
ATOM     11  C   UNL     1      -1.340   4.023  -1.698  1.00  0.00     0.116 C 
ATOM     12  C   UNL     1      -0.123   3.529   0.413  1.00  0.00     0.120 C 
ATOM     13  C   UNL     1      -1.872   5.327  -1.106  1.00  0.00     0.022 C 
ATOM     14  C   UNL     1      -1.863   5.295   0.429  1.00  0.00     0.008 C 
BRANCH  10  15
ATOM     15  C   UNL     1       0.918   3.098  -1.786  1.00  0.00     0.053 A 
ATOM     16  C   UNL     1       1.261   1.735  -1.733  1.00  0.00     0.098 A 
ATOM     17  C   UNL     1       2.354   1.265  -2.469  1.00  0.00     0.138 A 
ATOM     18  F   UNL     1       2.707  -0.030  -2.425  1.00  0.00    -0.206 F 
ATOM     19  C   UNL     1       3.114   2.120  -3.264  1.00  0.00     0.040 A 
ATOM     20  C   UNL     1       1.685   3.941  -2.614  1.00  0.00     0.027 A 
ATOM     21  C   UNL     1       2.775   3.465  -3.343  1.00  0.00     0.005 A 
BRANCH  16  22
ATOM     22  C   UNL     1       0.462   0.764  -0.956  1.00  0.00     0.253 C 
ATOM     23  N   UNL     1       1.149  -0.065  -0.116  1.00  0.00    -0.365 N 
ATOM     24  H   UNL     1       0.665  -0.730   0.425  1.00  0.00     0.159 HD
ATOM     25  H   UNL     1       2.130   0.002  -0.051  1.00  0.00     0.159 HD
ATOM     26  O   UNL     1      -0.763   0.701  -1.030  1.00  0.00    -0.269 OA
ENDBRANCH  16  22
ENDBRANCH  10  15
ENDBRANCH   8   9
ENDBRANCH   5   8
ENDBRANCH   3   4
ENDBRANCH   2   3
ENDBRANCH   1   2
BRANCH   1  27
ATOM     27  C   UNL     1      -2.499  11.157  -0.110  1.00  0.00     0.002 C 
BRANCH  27  28
ATOM     28  C   UNL     1      -3.417  10.688  -1.244  1.00  0.00     0.021 C 
BRANCH  28  29
ATOM     29  C   UNL     1      -4.872  10.481  -0.835  1.00  0.00     0.116 C 
BRANCH  29  30
ATOM     30  N   UNL     1      -5.452  11.701  -0.293  1.00  0.00    -0.352 N 
ATOM     31  C   UNL     1      -6.476  12.466  -0.792  1.00  0.00     0.251 C 
ATOM     32  H   UNL     1      -5.054  12.022   0.548  1.00  0.00     0.163 HD
ATOM     33  O   UNL     1      -6.657  13.604  -0.370  1.00  0.00    -0.269 OA
BRANCH  31  34
ATOM     34  C   UNL     1      -7.348  11.906  -1.843  1.00  0.00     0.039 A 
ATOM     35  C   UNL     1      -7.655  12.677  -2.966  1.00  0.00     0.014 A 
ATOM     36  C   UNL     1      -7.856  10.610  -1.712  1.00  0.00     0.014 A 
ATOM     37  C   UNL     1      -8.424  12.122  -3.991  1.00  0.00     0.010 A 
ATOM     38  C   UNL     1      -8.561  10.036  -2.763  1.00  0.00     0.010 A 
ATOM     39  C   UNL     1      -8.853  10.786  -3.913  1.00  0.00    -0.014 A 
BRANCH  39  40
ATOM     40  C   UNL     1      -9.617  10.145  -5.011  1.00  0.00     0.031 A 
ATOM     41  C   UNL     1     -11.020   9.665  -4.761  1.00  0.00     0.074 A 
ATOM     42  C   UNL     1      -9.026   9.929  -6.203  1.00  0.00     0.049 A 
ATOM     43  N   UNL     1     -11.799   8.952  -5.532  1.00  0.00    -0.248 NA
ATOM     44  C   UNL     1     -11.616  10.012  -3.460  1.00  0.00     0.031 C 
ATOM     45  C   UNL     1      -7.665  10.339  -6.560  1.00  0.00     0.029 A 
ATOM     46  N   UNL     1      -9.489   9.303  -7.332  1.00  0.00    -0.354 N 
ATOM     47  C   UNL     1     -12.968   8.752  -4.807  1.00  0.00     0.074 A 
ATOM     48  C   UNL     1     -12.777   9.377  -3.516  1.00  0.00     0.031 C 
ATOM     49  C   UNL     1      -7.416   9.976  -7.828  1.00  0.00     0.029 A 
ATOM     50  C   UNL     1      -8.572   9.259  -8.356  1.00  0.00     0.049 A 
ATOM     51  H   UNL     1     -10.394   8.920  -7.403  1.00  0.00     0.167 HD
ATOM     52  C   UNL     1     -14.103   8.122  -5.193  1.00  0.00     0.034 A 
ATOM     53  C   UNL     1      -8.645   8.688  -9.575  1.00  0.00     0.034 A 
ATOM     54  C   UNL     1     -14.288   7.522  -6.490  1.00  0.00     0.049 A 
ATOM     55  C   UNL     1      -9.901   7.955  -9.963  1.00  0.00     0.074 A 
ATOM     56  C   UNL     1     -15.413   6.892  -6.992  1.00  0.00     0.029 A 
ATOM     57  N   UNL     1     -13.326   7.477  -7.490  1.00  0.00    -0.354 N 
ATOM     58  N   UNL     1     -10.996   7.769  -9.263  1.00  0.00    -0.248 NA
ATOM     59  C   UNL     1      -9.931   7.355 -11.302  1.00  0.00     0.031 C 
ATOM     60  C   UNL     1     -15.112   6.412  -8.270  1.00  0.00     0.029 A 
ATOM     61  C   UNL     1     -13.824   6.806  -8.596  1.00  0.00     0.049 A 
ATOM     62  H   UNL     1     -12.424   7.865  -7.424  1.00  0.00     0.167 HD
ATOM     63  C   UNL     1     -11.853   7.044 -10.086  1.00  0.00     0.074 A 
ATOM     64  C   UNL     1     -11.152   6.840 -11.338  1.00  0.00     0.031 C 
ATOM     65  C   UNL     1     -13.106   6.591  -9.830  1.00  0.00     0.034 A 
BRANCH  52  66
ATOM     66  C   UNL     1     -15.230   8.036  -4.196  1.00  0.00     0.023 A 
ATOM     67  C   UNL     1     -15.932   9.180  -3.779  1.00  0.00     0.031 A 
ATOM     68  C   UNL     1     -15.623   6.791  -3.675  1.00  0.00     0.131 A 
ATOM     69  C   UNL     1     -16.966   9.060  -2.839  1.00  0.00     0.055 A 
ATOM     70  C   UNL     1     -16.695   6.671  -2.789  1.00  0.00     0.041 A 
ATOM     71  F   UNL     1     -14.973   5.669  -4.023  1.00  0.00    -0.206 F 
ATOM     72  C   UNL     1     -17.369   7.811  -2.361  1.00  0.00     0.022 A 
BRANCH  69  73
ATOM     73  S   UNL     1     -17.731  10.570  -2.190  1.00  0.00     0.124 S 
ATOM     74  O   UNL     1     -16.610  11.188  -1.486  1.00  0.00    -0.237 OA
ATOM     75  O   UNL     1     -18.174  11.248  -3.403  1.00  0.00    -0.237 OA
ATOM     76  O   UNL     1     -18.801  10.070  -1.330  1.00  0.00    -0.744 OA
ENDBRANCH  69  73
ENDBRANCH  52  66
BRANCH  53  77
ATOM     77  C   UNL     1      -7.489   8.775 -10.509  1.00  0.00     0.023 A 
ATOM     78  C   UNL     1      -7.571   9.535 -11.686  1.00  0.00     0.031 A 
ATOM     79  C   UNL     1      -6.285   8.100 -10.239  1.00  0.00     0.131 A 
ATOM     80  C   UNL     1      -6.476   9.585 -12.562  1.00  0.00     0.055 A 
ATOM     81  C   UNL     1      -5.185   8.185 -11.093  1.00  0.00     0.041 A 
ATOM     82  F   UNL     1      -6.155   7.368  -9.121  1.00  0.00    -0.206 F 
ATOM     83  C   UNL     1      -5.279   8.927 -12.267  1.00  0.00     0.022 A 
BRANCH  80  84
ATOM     84  S   UNL     1      -6.644  10.507 -14.115  1.00  0.00     0.124 S 
ATOM     85  O   UNL     1      -7.673   9.738 -14.806  1.00  0.00    -0.237 OA
ATOM     86  O   UNL     1      -7.038  11.830 -13.643  1.00  0.00    -0.237 OA
ATOM     87  O   UNL     1      -5.307  10.431 -14.701  1.00  0.00    -0.744 OA
ENDBRANCH  80  84
ENDBRANCH  53  77
BRANCH  65  88
ATOM     88  C   UNL     1     -13.811   5.849 -10.937  1.00  0.00     0.023 A 
ATOM     89  C   UNL     1     -13.383   4.578 -11.356  1.00  0.00     0.031 A 
ATOM     90  C   UNL     1     -14.935   6.412 -11.565  1.00  0.00     0.131 A 
ATOM     91  C   UNL     1     -14.050   3.929 -12.406  1.00  0.00     0.055 A 
ATOM     92  C   UNL     1     -15.630   5.737 -12.569  1.00  0.00     0.041 A 
ATOM     93  F   UNL     1     -15.385   7.624 -11.202  1.00  0.00    -0.206 F 
ATOM     94  C   UNL     1     -15.182   4.492 -13.002  1.00  0.00     0.022 A 
BRANCH  91  95
ATOM     95  S   UNL     1     -13.377   2.365 -13.029  1.00  0.00     0.124 S 
ATOM     96  O   UNL     1     -12.060   2.773 -13.507  1.00  0.00    -0.237 OA
ATOM     97  O   UNL     1     -13.390   1.521 -11.838  1.00  0.00    -0.237 OA
ATOM     98  O   UNL     1     -14.324   1.976 -14.073  1.00  0.00    -0.744 OA
ENDBRANCH  91  95
ENDBRANCH  65  88
ENDBRANCH  39  40
ENDBRANCH  31  34
ENDBRANCH  29  30
ENDBRANCH  28  29
ENDBRANCH  27  28
ENDBRANCH   1  27
TORSDOF 19
