REMARK SMILES O=C(NCCCCCCNC(=O)c1ccc(F)cc1-c1ccc(F)c(Cl)c1)c1ccc(-c2c3nc(c(-c4cc(S(=O)(=O)[O-])ccc4F)c4ccc([nH]4)c(-c4cc(S(=O)(=O)[O-])ccc4F)c4nc(c(-c5cc(S(=O)(=O)[O-])ccc5F)c5ccc2[nH]5)C=C4)C=C3)cc1
REMARK SMILES IDX 5 1 4 2 3 3 1 4 2 5 28 7 29 8 90 9 30 10 89 11 31 12 32 13
REMARK SMILES IDX 33 14 83 15 34 16 88 17 82 18 84 19 35 20 87 21 81 22 80 23
REMARK SMILES IDX 36 25 68 26 48 27 67 28 49 29 52 30 66 31 85 32 50 33 51 34
REMARK SMILES IDX 65 36 86 37 53 38 37 39 38 40 46 41 39 42 45 43 47 44 44 45
REMARK SMILES IDX 40 46 41 47 42 48 43 49 69 50 70 51 78 52 71 53 77 54 79 55
REMARK SMILES IDX 76 56 72 57 73 58 74 59 75 60 54 61 55 62 63 63 56 64 62 65
REMARK SMILES IDX 64 66 61 67 57 68 58 69 59 70 60 71 6 72 7 73 8 74 9 75
REMARK SMILES IDX 10 76 11 77 12 79 13 80 14 81 19 82 15 83 18 84 16 85 17 86
REMARK SMILES IDX 20 87 21 88 27 89 22 90 25 91 23 92 26 93 24 94
REMARK H PARENT 3 6 84 24 52 35 10 78
REMARK Flexibility Score: inf
ROOT
ATOM      1  C   UNL     1       4.747  -1.662   1.987  1.00  0.00     0.021 C 
ENDROOT
BRANCH   1   2
ATOM      2  C   UNL     1       4.499  -1.078   0.601  1.00  0.00     0.116 C 
BRANCH   2   3
ATOM      3  N   UNL     1       3.085  -0.975   0.281  1.00  0.00    -0.352 N 
ATOM      4  O   UNL     1       1.138   0.052  -0.202  1.00  0.00    -0.269 OA
ATOM      5  C   UNL     1       2.363   0.122  -0.123  1.00  0.00     0.251 C 
ATOM      6  H   UNL     1       2.571  -1.811   0.365  1.00  0.00     0.163 HD
BRANCH   5   7
ATOM      7  C   UNL     1       3.056   1.390  -0.440  1.00  0.00     0.039 A 
ATOM      8  C   UNL     1       4.207   1.399  -1.232  1.00  0.00     0.014 A 
ATOM      9  C   UNL     1       2.536   2.592   0.051  1.00  0.00     0.014 A 
ATOM     10  C   UNL     1       4.906   2.588  -1.427  1.00  0.00     0.010 A 
ATOM     11  C   UNL     1       3.200   3.795  -0.207  1.00  0.00     0.010 A 
ATOM     12  C   UNL     1       4.404   3.801  -0.929  1.00  0.00    -0.014 A 
BRANCH  12  13
ATOM     13  C   UNL     1       5.122   5.069  -1.217  1.00  0.00     0.031 A 
ATOM     14  C   UNL     1       5.761   5.865  -0.113  1.00  0.00     0.074 A 
ATOM     15  C   UNL     1       5.220   5.484  -2.496  1.00  0.00     0.049 A 
ATOM     16  N   UNL     1       6.397   7.007  -0.185  1.00  0.00    -0.248 NA
ATOM     17  C   UNL     1       5.676   5.312   1.248  1.00  0.00     0.031 C 
ATOM     18  C   UNL     1       4.655   4.785  -3.653  1.00  0.00     0.029 A 
ATOM     19  N   UNL     1       5.840   6.579  -3.042  1.00  0.00    -0.354 N 
ATOM     20  C   UNL     1       6.778   7.317   1.116  1.00  0.00     0.074 A 
ATOM     21  C   UNL     1       6.281   6.252   1.962  1.00  0.00     0.031 C 
ATOM     22  C   UNL     1       4.993   5.441  -4.772  1.00  0.00     0.029 A 
ATOM     23  C   UNL     1       5.735   6.644  -4.412  1.00  0.00     0.049 A 
ATOM     24  H   UNL     1       6.315   7.253  -2.505  1.00  0.00     0.167 HD
ATOM     25  C   UNL     1       7.482   8.387   1.558  1.00  0.00     0.034 A 
ATOM     26  C   UNL     1       6.164   7.578  -5.283  1.00  0.00     0.034 A 
ATOM     27  C   UNL     1       7.979   9.437   0.703  1.00  0.00     0.049 A 
ATOM     28  C   UNL     1       6.887   8.786  -4.757  1.00  0.00     0.074 A 
ATOM     29  C   UNL     1       8.717  10.555   1.055  1.00  0.00     0.029 A 
ATOM     30  N   UNL     1       7.790   9.504  -0.670  1.00  0.00    -0.354 N 
ATOM     31  N   UNL     1       7.208   9.077  -3.519  1.00  0.00    -0.248 NA
ATOM     32  C   UNL     1       7.293   9.796  -5.742  1.00  0.00     0.031 C 
ATOM     33  C   UNL     1       8.925  11.324  -0.095  1.00  0.00     0.029 A 
ATOM     34  C   UNL     1       8.373  10.655  -1.175  1.00  0.00     0.049 A 
ATOM     35  H   UNL     1       7.312   8.831  -1.207  1.00  0.00     0.167 HD
ATOM     36  C   UNL     1       7.861  10.303  -3.577  1.00  0.00     0.074 A 
ATOM     37  C   UNL     1       7.901  10.689  -4.973  1.00  0.00     0.031 C 
ATOM     38  C   UNL     1       8.383  11.039  -2.565  1.00  0.00     0.034 A 
BRANCH  25  39
ATOM     39  C   UNL     1       7.733   8.501   3.039  1.00  0.00     0.023 A 
ATOM     40  C   UNL     1       8.625   7.642   3.704  1.00  0.00     0.031 A 
ATOM     41  C   UNL     1       7.102   9.511   3.787  1.00  0.00     0.131 A 
ATOM     42  C   UNL     1       8.837   7.789   5.083  1.00  0.00     0.055 A 
ATOM     43  C   UNL     1       7.361   9.688   5.147  1.00  0.00     0.041 A 
ATOM     44  F   UNL     1       6.230  10.348   3.203  1.00  0.00    -0.206 F 
ATOM     45  C   UNL     1       8.229   8.821   5.804  1.00  0.00     0.022 A 
BRANCH  42  46
ATOM     46  S   UNL     1       9.874   6.574   5.940  1.00  0.00     0.124 S 
ATOM     47  O   UNL     1       9.080   5.356   5.799  1.00  0.00    -0.237 OA
ATOM     48  O   UNL     1      11.115   6.617   5.175  1.00  0.00    -0.237 OA
ATOM     49  O   UNL     1       9.965   7.098   7.301  1.00  0.00    -0.744 OA
ENDBRANCH  42  46
ENDBRANCH  25  39
BRANCH  26  50
ATOM     50  C   UNL     1       5.880   7.423  -6.735  1.00  0.00     0.023 A 
ATOM     51  C   UNL     1       6.914   7.181  -7.652  1.00  0.00     0.031 A 
ATOM     52  C   UNL     1       4.564   7.508  -7.223  1.00  0.00     0.131 A 
ATOM     53  C   UNL     1       6.615   7.049  -9.017  1.00  0.00     0.055 A 
ATOM     54  C   UNL     1       4.268   7.336  -8.575  1.00  0.00     0.041 A 
ATOM     55  F   UNL     1       3.542   7.730  -6.381  1.00  0.00    -0.206 F 
ATOM     56  C   UNL     1       5.299   7.111  -9.482  1.00  0.00     0.022 A 
BRANCH  53  57
ATOM     57  S   UNL     1       7.981   6.821 -10.187  1.00  0.00     0.124 S 
ATOM     58  O   UNL     1       8.707   8.077 -10.044  1.00  0.00    -0.237 OA
ATOM     59  O   UNL     1       8.641   5.632  -9.658  1.00  0.00    -0.237 OA
ATOM     60  O   UNL     1       7.303   6.633 -11.468  1.00  0.00    -0.744 OA
ENDBRANCH  53  57
ENDBRANCH  26  50
BRANCH  38  61
ATOM     61  C   UNL     1       9.059  12.331  -2.936  1.00  0.00     0.023 A 
ATOM     62  C   UNL     1       8.319  13.450  -3.352  1.00  0.00     0.031 A 
ATOM     63  C   UNL     1      10.456  12.450  -2.848  1.00  0.00     0.131 A 
ATOM     64  C   UNL     1       8.985  14.635  -3.697  1.00  0.00     0.055 A 
ATOM     65  C   UNL     1      11.110  13.645  -3.148  1.00  0.00     0.041 A 
ATOM     66  F   UNL     1      11.206  11.408  -2.454  1.00  0.00    -0.206 F 
ATOM     67  C   UNL     1      10.374  14.744  -3.582  1.00  0.00     0.022 A 
BRANCH  64  68
ATOM     68  S   UNL     1       8.015  16.028  -4.335  1.00  0.00     0.124 S 
ATOM     69  O   UNL     1       7.513  15.493  -5.596  1.00  0.00    -0.237 OA
ATOM     70  O   UNL     1       7.020  16.227  -3.286  1.00  0.00    -0.237 OA
ATOM     71  O   UNL     1       8.999  17.101  -4.463  1.00  0.00    -0.744 OA
ENDBRANCH  64  68
ENDBRANCH  38  61
ENDBRANCH  12  13
ENDBRANCH   5   7
ENDBRANCH   2   3
ENDBRANCH   1   2
BRANCH   1  72
ATOM     72  C   UNL     1       4.282  -3.106   2.184  1.00  0.00     0.002 C 
BRANCH  72  73
ATOM     73  C   UNL     1       4.836  -4.127   1.186  1.00  0.00     0.002 C 
BRANCH  73  74
ATOM     74  C   UNL     1       6.360  -4.162   1.034  1.00  0.00     0.021 C 
BRANCH  74  75
ATOM     75  C   UNL     1       7.149  -4.335   2.329  1.00  0.00     0.116 C 
BRANCH  75  76
ATOM     76  N   UNL     1       6.826  -5.574   3.017  1.00  0.00    -0.352 N 
ATOM     77  C   UNL     1       7.664  -6.564   3.462  1.00  0.00     0.251 C 
ATOM     78  H   UNL     1       5.868  -5.723   3.189  1.00  0.00     0.163 HD
ATOM     79  O   UNL     1       7.213  -7.564   4.013  1.00  0.00    -0.269 OA
BRANCH  77  80
ATOM     80  C   UNL     1       9.125  -6.416   3.278  1.00  0.00     0.047 A 
ATOM     81  C   UNL     1       9.768  -5.353   3.937  1.00  0.00     0.017 A 
ATOM     82  C   UNL     1       9.856  -7.344   2.505  1.00  0.00    -0.003 A 
ATOM     83  C   UNL     1      11.140  -5.171   3.790  1.00  0.00     0.040 A 
ATOM     84  C   UNL     1      11.241  -7.138   2.377  1.00  0.00     0.048 A 
ATOM     85  C   UNL     1      11.862  -6.062   3.007  1.00  0.00     0.123 A 
ATOM     86  F   UNL     1      13.182  -5.891   2.862  1.00  0.00    -0.207 F 
BRANCH  82  87
ATOM     87  C   UNL     1       9.236  -8.508   1.851  1.00  0.00    -0.016 A 
ATOM     88  C   UNL     1       8.340  -8.353   0.779  1.00  0.00     0.012 A 
ATOM     89  C   UNL     1       9.526  -9.809   2.301  1.00  0.00     0.032 A 
ATOM     90  C   UNL     1       7.740  -9.465   0.183  1.00  0.00     0.041 A 
ATOM     91  C   UNL     1       8.927 -10.919   1.703  1.00  0.00     0.077 A 
ATOM     92  C   UNL     1       8.036 -10.742   0.649  1.00  0.00     0.141 A 
ATOM     93  Cl  UNL     1       9.303 -12.498   2.280  1.00  0.00    -0.081 Cl
ATOM     94  F   UNL     1       7.449 -11.796   0.062  1.00  0.00    -0.205 F 
ENDBRANCH  82  87
ENDBRANCH  77  80
ENDBRANCH  75  76
ENDBRANCH  74  75
ENDBRANCH  73  74
ENDBRANCH  72  73
ENDBRANCH   1  72
TORSDOF 17
