REMARK SMILES CC1=C(C(=O)OCC(C)C)[C@@H](c2ccc(C(=O)NCCCCCCNC(=O)c3ccc(-c4c5nc(c(-c6cc(S(=O)(=O)[O-])ccc6F)c6ccc([nH]6)c(-c6cc(S(=O)(=O)[O-])ccc6F)c6nc(c(-c7cc(S(=O)(=O)[O-])ccc7F)c7ccc4[nH]7)C=C6)C=C5)cc3)cc2)c2c(n(C)c(=O)n(C)c2=O)N1
REMARK SMILES IDX 20 1 19 2 18 3 16 4 17 5 15 7 12 8 13 9 92 10 14 11 91 12
REMARK SMILES IDX 11 13 1 14 2 15 3 16 103 17 94 18 93 20 95 21 101 22 96 23
REMARK SMILES IDX 97 24 99 25 102 26 98 27 100 28 4 29 5 30 6 31 7 32 8 33
REMARK SMILES IDX 9 34 10 35 21 36 22 37 23 38 24 39 25 40 26 41 27 43 28 44
REMARK SMILES IDX 29 45 90 46 30 47 89 48 31 49 32 50 33 51 83 52 34 53 88 54
REMARK SMILES IDX 82 55 84 56 35 57 87 58 81 59 80 60 36 62 68 63 48 64 67 65
REMARK SMILES IDX 49 66 52 67 66 68 85 69 50 70 51 71 65 73 86 74 53 75 37 76
REMARK SMILES IDX 38 77 46 78 39 79 45 80 47 81 44 82 40 83 41 84 42 85 43 86
REMARK SMILES IDX 69 87 70 88 78 89 71 90 77 91 79 92 76 93 72 94 73 95 74 96
REMARK SMILES IDX 75 97 54 98 55 99 63 100 56 101 62 102 64 103 61 104 57 105
REMARK SMILES IDX 58 106 59 107 60 108
REMARK H PARENT 18 6 103 19 25 42 84 61 52 72
REMARK Flexibility Score: inf
ROOT
ATOM      1  C   UNL     1      -7.676  -2.641   4.301  1.00  0.00     0.021 C 
ENDROOT
BRANCH   1   2
ATOM      2  C   UNL     1      -7.138  -3.839   3.515  1.00  0.00     0.116 C 
BRANCH   2   3
ATOM      3  N   UNL     1      -7.228  -3.571   2.094  1.00  0.00    -0.352 N 
ATOM      4  C   UNL     1      -6.317  -3.125   1.175  1.00  0.00     0.251 C 
ATOM      5  O   UNL     1      -6.724  -2.948   0.024  1.00  0.00    -0.269 OA
ATOM      6  H   UNL     1      -8.120  -3.742   1.715  1.00  0.00     0.163 HD
BRANCH   4   7
ATOM      7  C   UNL     1      -4.872  -2.908   1.472  1.00  0.00     0.039 A 
ATOM      8  C   UNL     1      -2.076  -2.667   1.829  1.00  0.00    -0.035 A 
ATOM      9  C   UNL     1      -2.618  -2.831   0.547  1.00  0.00     0.005 A 
ATOM     10  C   UNL     1      -2.949  -2.560   2.917  1.00  0.00     0.005 A 
ATOM     11  C   UNL     1      -3.997  -2.964   0.376  1.00  0.00     0.014 A 
ATOM     12  C   UNL     1      -4.333  -2.642   2.733  1.00  0.00     0.014 A 
BRANCH   8  13
ATOM     13  C   UNL     1      -0.565  -2.567   2.056  1.00  0.00     0.098 C 
ATOM     14  C   UNL     1       1.397   0.102  -0.057  1.00  0.00     0.065 C 
ATOM     15  C   UNL     1       0.814  -1.166   0.511  1.00  0.00     0.025 C 
ATOM     16  C   UNL     1      -0.056  -1.225   1.543  1.00  0.00     0.068 C 
ATOM     17  N   UNL     1       1.272  -2.345  -0.064  1.00  0.00    -0.344 N 
ATOM     18  C   UNL     1       1.012  -3.626   0.405  1.00  0.00     0.123 A 
ATOM     19  H   UNL     1       1.827  -2.266  -0.873  1.00  0.00     0.168 HD
ATOM     20  C   UNL     1       0.157  -3.755   1.435  1.00  0.00     0.071 A 
ATOM     21  N   UNL     1       1.599  -4.757  -0.143  1.00  0.00    -0.282 N 
ATOM     22  C   UNL     1      -0.106  -5.084   2.021  1.00  0.00     0.262 A 
ATOM     23  C   UNL     1       2.570  -4.616  -1.220  1.00  0.00     0.157 C 
ATOM     24  C   UNL     1       1.295  -6.052   0.278  1.00  0.00     0.332 A 
ATOM     25  N   UNL     1       0.402  -6.161   1.331  1.00  0.00    -0.263 N 
ATOM     26  O   UNL     1      -0.738  -5.182   3.071  1.00  0.00    -0.269 OA
ATOM     27  O   UNL     1       1.799  -7.048  -0.246  1.00  0.00    -0.247 OA
ATOM     28  C   UNL     1       0.077  -7.498   1.791  1.00  0.00     0.158 C 
BRANCH  16  29
ATOM     29  C   UNL     1      -0.554  -0.057   2.310  1.00  0.00     0.336 C 
ATOM     30  O   UNL     1      -0.627  -0.053   3.527  1.00  0.00    -0.246 OA
BRANCH  29  31
ATOM     31  O   UNL     1      -0.963   0.936   1.480  1.00  0.00    -0.462 OA
BRANCH  31  32
ATOM     32  C   UNL     1      -1.453   2.131   2.116  1.00  0.00     0.236 C 
BRANCH  32  33
ATOM     33  C   UNL     1      -2.966   2.279   1.903  1.00  0.00     0.021 C 
ATOM     34  C   UNL     1      -3.745   1.135   2.548  1.00  0.00     0.011 C 
ATOM     35  C   UNL     1      -3.452   3.619   2.453  1.00  0.00     0.011 C 
ENDBRANCH  32  33
ENDBRANCH  31  32
ENDBRANCH  29  31
ENDBRANCH  16  29
ENDBRANCH   8  13
ENDBRANCH   4   7
ENDBRANCH   2   3
ENDBRANCH   1   2
BRANCH   1  36
ATOM     36  C   UNL     1      -9.209  -2.616   4.369  1.00  0.00     0.002 C 
BRANCH  36  37
ATOM     37  C   UNL     1      -9.834  -3.829   5.070  1.00  0.00     0.002 C 
BRANCH  37  38
ATOM     38  C   UNL     1      -9.295  -4.099   6.478  1.00  0.00     0.021 C 
BRANCH  38  39
ATOM     39  C   UNL     1      -9.545  -2.960   7.460  1.00  0.00     0.116 C 
BRANCH  39  40
ATOM     40  N   UNL     1     -10.969  -2.752   7.672  1.00  0.00    -0.352 N 
ATOM     41  C   UNL     1     -11.685  -2.830   8.839  1.00  0.00     0.251 C 
ATOM     42  H   UNL     1     -11.490  -2.525   6.868  1.00  0.00     0.163 HD
ATOM     43  O   UNL     1     -12.909  -2.906   8.806  1.00  0.00    -0.269 OA
BRANCH  41  44
ATOM     44  C   UNL     1     -10.965  -2.827  10.129  1.00  0.00     0.039 A 
ATOM     45  C   UNL     1     -11.332  -3.742  11.117  1.00  0.00     0.014 A 
ATOM     46  C   UNL     1      -9.929  -1.915  10.355  1.00  0.00     0.014 A 
ATOM     47  C   UNL     1     -10.620  -3.777  12.317  1.00  0.00     0.010 A 
ATOM     48  C   UNL     1      -9.179  -1.997  11.522  1.00  0.00     0.010 A 
ATOM     49  C   UNL     1      -9.521  -2.925  12.517  1.00  0.00    -0.014 A 
BRANCH  49  50
ATOM     50  C   UNL     1      -8.723  -2.978  13.767  1.00  0.00     0.031 A 
ATOM     51  C   UNL     1      -8.721  -1.800  14.701  1.00  0.00     0.074 A 
ATOM     52  C   UNL     1      -7.980  -4.068  14.038  1.00  0.00     0.049 A 
ATOM     53  N   UNL     1      -8.034  -1.621  15.799  1.00  0.00    -0.248 NA
ATOM     54  C   UNL     1      -9.592  -0.668  14.345  1.00  0.00     0.031 C 
ATOM     55  C   UNL     1      -7.901  -5.267  13.199  1.00  0.00     0.029 A 
ATOM     56  N   UNL     1      -7.153  -4.349  15.095  1.00  0.00    -0.354 N 
ATOM     57  C   UNL     1      -8.393  -0.363  16.268  1.00  0.00     0.074 A 
ATOM     58  C   UNL     1      -9.309   0.204  15.303  1.00  0.00     0.031 C 
ATOM     59  C   UNL     1      -7.106  -6.169  13.797  1.00  0.00     0.029 A 
ATOM     60  C   UNL     1      -6.577  -5.597  15.031  1.00  0.00     0.049 A 
ATOM     61  H   UNL     1      -6.987  -3.718  15.832  1.00  0.00     0.167 HD
ATOM     62  C   UNL     1      -8.014   0.250  17.415  1.00  0.00     0.034 A 
ATOM     63  C   UNL     1      -5.717  -6.208  15.870  1.00  0.00     0.034 A 
ATOM     64  C   UNL     1      -7.108  -0.328  18.373  1.00  0.00     0.049 A 
ATOM     65  C   UNL     1      -5.261  -5.476  17.105  1.00  0.00     0.074 A 
ATOM     66  C   UNL     1      -6.664   0.208  19.569  1.00  0.00     0.029 A 
ATOM     67  N   UNL     1      -6.512  -1.576  18.251  1.00  0.00    -0.354 N 
ATOM     68  N   UNL     1      -5.595  -4.278  17.523  1.00  0.00    -0.248 NA
ATOM     69  C   UNL     1      -4.314  -6.179  17.981  1.00  0.00     0.031 C 
ATOM     70  C   UNL     1      -5.758  -0.689  20.142  1.00  0.00     0.029 A 
ATOM     71  C   UNL     1      -5.691  -1.817  19.340  1.00  0.00     0.049 A 
ATOM     72  H   UNL     1      -6.651  -2.197  17.500  1.00  0.00     0.167 HD
ATOM     73  C   UNL     1      -4.925  -4.097  18.729  1.00  0.00     0.074 A 
ATOM     74  C   UNL     1      -4.169  -5.309  18.971  1.00  0.00     0.031 C 
ATOM     75  C   UNL     1      -4.941  -3.029  19.565  1.00  0.00     0.034 A 
BRANCH  62  76
ATOM     76  C   UNL     1      -8.579   1.618  17.696  1.00  0.00     0.023 A 
ATOM     77  C   UNL     1      -9.944   1.800  17.976  1.00  0.00     0.031 A 
ATOM     78  C   UNL     1      -7.741   2.747  17.716  1.00  0.00     0.131 A 
ATOM     79  C   UNL     1     -10.439   3.087  18.230  1.00  0.00     0.055 A 
ATOM     80  C   UNL     1      -8.229   4.016  18.032  1.00  0.00     0.041 A 
ATOM     81  F   UNL     1      -6.433   2.632  17.437  1.00  0.00    -0.206 F 
ATOM     82  C   UNL     1      -9.586   4.192  18.286  1.00  0.00     0.022 A 
BRANCH  79  83
ATOM     83  S   UNL     1     -12.228   3.309  18.419  1.00  0.00     0.124 S 
ATOM     84  O   UNL     1     -12.711   2.943  17.089  1.00  0.00    -0.237 OA
ATOM     85  O   UNL     1     -12.552   2.379  19.494  1.00  0.00    -0.237 OA
ATOM     86  O   UNL     1     -12.364   4.724  18.757  1.00  0.00    -0.744 OA
ENDBRANCH  79  83
ENDBRANCH  62  76
BRANCH  63  87
ATOM     87  C   UNL     1      -5.238  -7.588  15.579  1.00  0.00     0.023 A 
ATOM     88  C   UNL     1      -5.603  -8.662  16.405  1.00  0.00     0.031 A 
ATOM     89  C   UNL     1      -4.402  -7.853  14.479  1.00  0.00     0.131 A 
ATOM     90  C   UNL     1      -5.110  -9.948  16.137  1.00  0.00     0.055 A 
ATOM     91  C   UNL     1      -3.950  -9.142  14.192  1.00  0.00     0.041 A 
ATOM     92  F   UNL     1      -4.031  -6.861  13.655  1.00  0.00    -0.206 F 
ATOM     93  C   UNL     1      -4.298 -10.198  15.029  1.00  0.00     0.022 A 
BRANCH  90  94
ATOM     94  S   UNL     1      -5.512 -11.290  17.290  1.00  0.00     0.124 S 
ATOM     95  O   UNL     1      -4.884 -10.822  18.520  1.00  0.00    -0.237 OA
ATOM     96  O   UNL     1      -6.971 -11.281  17.270  1.00  0.00    -0.237 OA
ATOM     97  O   UNL     1      -4.891 -12.461  16.677  1.00  0.00    -0.744 OA
ENDBRANCH  90  94
ENDBRANCH  63  87
BRANCH  75  98
ATOM     98  C   UNL     1      -4.152  -3.136  20.843  1.00  0.00     0.023 A 
ATOM     99  C   UNL     1      -2.748  -3.136  20.846  1.00  0.00     0.031 A 
ATOM    100  C   UNL     1      -4.821  -3.197  22.079  1.00  0.00     0.131 A 
ATOM    101  C   UNL     1      -2.055  -3.231  22.062  1.00  0.00     0.055 A 
ATOM    102  C   UNL     1      -4.127  -3.239  23.288  1.00  0.00     0.041 A 
ATOM    103  F   UNL     1      -6.163  -3.197  22.130  1.00  0.00    -0.206 F 
ATOM    104  C   UNL     1      -2.735  -3.264  23.283  1.00  0.00     0.022 A 
BRANCH 101 105
ATOM    105  S   UNL     1      -0.247  -3.358  22.026  1.00  0.00     0.124 S 
ATOM    106  O   UNL     1      -0.046  -4.614  21.311  1.00  0.00    -0.237 OA
ATOM    107  O   UNL     1       0.140  -2.147  21.308  1.00  0.00    -0.237 OA
ATOM    108  O   UNL     1       0.124  -3.383  23.440  1.00  0.00    -0.744 OA
ENDBRANCH 101 105
ENDBRANCH  75  98
ENDBRANCH  49  50
ENDBRANCH  41  44
ENDBRANCH  39  40
ENDBRANCH  38  39
ENDBRANCH  37  38
ENDBRANCH  36  37
ENDBRANCH   1  36
TORSDOF 21
