REMARK SMILES O=C(NCCCCCCNC(=O)c1sccc1NS(=O)(=O)N1CCCC1)c1ccc(-c2c3nc(c(-c4cc(S(=O)(=O)[O-])ccc4F)c4ccc([nH]4)c(-c4cc(S(=O)(=O)[O-])ccc4F)c4nc(c(-c5cc(S(=O)(=O)[O-])ccc5F)c5ccc2[nH]5)C=C4)C=C3)cc1
REMARK SMILES IDX 6 1 5 2 4 3 3 4 1 5 2 6 27 8 28 9 89 10 29 11 88 12 30 13
REMARK SMILES IDX 31 14 32 15 82 16 33 17 87 18 81 19 83 20 34 21 86 22 80 23
REMARK SMILES IDX 79 24 35 26 67 27 47 28 66 29 48 30 51 31 65 32 84 33 49 34
REMARK SMILES IDX 50 35 64 37 85 38 52 39 36 40 37 41 45 42 38 43 44 44 46 45
REMARK SMILES IDX 43 46 39 47 40 48 41 49 42 50 68 51 69 52 77 53 70 54 76 55
REMARK SMILES IDX 78 56 75 57 71 58 72 59 73 60 74 61 53 62 54 63 62 64 55 65
REMARK SMILES IDX 61 66 63 67 60 68 56 69 57 70 58 71 59 72 7 73 8 74 9 75
REMARK SMILES IDX 10 76 11 77 12 79 13 80 14 81 17 82 15 83 16 84 18 85 19 87
REMARK SMILES IDX 20 88 21 89 22 90 23 91 26 92 24 93 25 94
REMARK H PARENT 3 7 83 25 51 36 10 78 18 86
REMARK Flexibility Score: inf
ROOT
ATOM      1  C   UNL     1       4.176  -2.736   2.582  1.00  0.00     0.002 C 
ENDROOT
BRANCH   1   2
ATOM      2  C   UNL     1       4.695  -1.358   2.166  1.00  0.00     0.021 C 
BRANCH   2   3
ATOM      3  C   UNL     1       4.434  -0.988   0.712  1.00  0.00     0.116 C 
BRANCH   3   4
ATOM      4  N   UNL     1       3.014  -0.955   0.398  1.00  0.00    -0.352 N 
ATOM      5  O   UNL     1       1.035  -0.012  -0.125  1.00  0.00    -0.269 OA
ATOM      6  C   UNL     1       2.259   0.082  -0.091  1.00  0.00     0.251 C 
ATOM      7  H   UNL     1       2.526  -1.795   0.558  1.00  0.00     0.163 HD
BRANCH   6   8
ATOM      8  C   UNL     1       2.927   1.313  -0.561  1.00  0.00     0.039 A 
ATOM      9  C   UNL     1       4.054   1.241  -1.385  1.00  0.00     0.014 A 
ATOM     10  C   UNL     1       2.418   2.554  -0.173  1.00  0.00     0.014 A 
ATOM     11  C   UNL     1       4.748   2.400  -1.711  1.00  0.00     0.010 A 
ATOM     12  C   UNL     1       3.068   3.723  -0.575  1.00  0.00     0.010 A 
ATOM     13  C   UNL     1       4.254   3.655  -1.325  1.00  0.00    -0.014 A 
BRANCH  13  14
ATOM     14  C   UNL     1       4.957   4.892  -1.752  1.00  0.00     0.031 A 
ATOM     15  C   UNL     1       5.559   5.824  -0.738  1.00  0.00     0.074 A 
ATOM     16  C   UNL     1       5.042   5.174  -3.066  1.00  0.00     0.049 A 
ATOM     17  N   UNL     1       6.142   6.981  -0.922  1.00  0.00    -0.248 NA
ATOM     18  C   UNL     1       5.482   5.406   0.668  1.00  0.00     0.031 C 
ATOM     19  C   UNL     1       4.506   4.336  -4.142  1.00  0.00     0.029 A 
ATOM     20  N   UNL     1       5.606   6.237  -3.724  1.00  0.00    -0.354 N 
ATOM     21  C   UNL     1       6.487   7.441   0.344  1.00  0.00     0.074 A 
ATOM     22  C   UNL     1       6.009   6.452   1.288  1.00  0.00     0.031 C 
ATOM     23  C   UNL     1       4.788   4.903  -5.323  1.00  0.00     0.029 A 
ATOM     24  C   UNL     1       5.450   6.181  -5.090  1.00  0.00     0.049 A 
ATOM     25  H   UNL     1       6.076   6.970  -3.264  1.00  0.00     0.167 HD
ATOM     26  C   UNL     1       7.147   8.579   0.681  1.00  0.00     0.034 A 
ATOM     27  C   UNL     1       5.766   7.074  -6.047  1.00  0.00     0.034 A 
ATOM     28  C   UNL     1       7.603   9.556  -0.282  1.00  0.00     0.049 A 
ATOM     29  C   UNL     1       6.426   8.365  -5.645  1.00  0.00     0.074 A 
ATOM     30  C   UNL     1       8.301  10.729  -0.055  1.00  0.00     0.029 A 
ATOM     31  N   UNL     1       7.390   9.485  -1.655  1.00  0.00    -0.354 N 
ATOM     32  N   UNL     1       6.754   8.785  -4.445  1.00  0.00    -0.248 NA
ATOM     33  C   UNL     1       6.762   9.300  -6.725  1.00  0.00     0.031 C 
ATOM     34  C   UNL     1       8.431  11.407  -1.272  1.00  0.00     0.029 A 
ATOM     35  C   UNL     1       7.909  10.611  -2.279  1.00  0.00     0.049 A 
ATOM     36  H   UNL     1       6.938   8.742  -2.118  1.00  0.00     0.167 HD
ATOM     37  C   UNL     1       7.369  10.020  -4.630  1.00  0.00     0.074 A 
ATOM     38  C   UNL     1       7.369  10.271  -6.058  1.00  0.00     0.031 C 
ATOM     39  C   UNL     1       7.896  10.861  -3.704  1.00  0.00     0.034 A 
BRANCH  26  40
ATOM     40  C   UNL     1       7.357   8.852   2.154  1.00  0.00     0.023 A 
ATOM     41  C   UNL     1       8.102   7.984   2.972  1.00  0.00     0.031 A 
ATOM     42  C   UNL     1       6.771   9.978   2.760  1.00  0.00     0.131 A 
ATOM     43  C   UNL     1       8.165   8.206   4.357  1.00  0.00     0.055 A 
ATOM     44  C   UNL     1       6.916  10.244   4.123  1.00  0.00     0.041 A 
ATOM     45  F   UNL     1       6.030  10.835   2.039  1.00  0.00    -0.206 F 
ATOM     46  C   UNL     1       7.600   9.345   4.934  1.00  0.00     0.022 A 
BRANCH  43  47
ATOM     47  S   UNL     1       8.839   6.893   5.413  1.00  0.00     0.124 S 
ATOM     48  O   UNL     1       7.996   5.758   5.047  1.00  0.00    -0.237 OA
ATOM     49  O   UNL     1      10.230   6.823   4.980  1.00  0.00    -0.237 OA
ATOM     50  O   UNL     1       8.632   7.402   6.767  1.00  0.00    -0.744 OA
ENDBRANCH  43  47
ENDBRANCH  26  40
BRANCH  27  51
ATOM     51  C   UNL     1       5.422   6.791  -7.469  1.00  0.00     0.023 A 
ATOM     52  C   UNL     1       6.421   6.633  -8.441  1.00  0.00     0.031 A 
ATOM     53  C   UNL     1       4.079   6.681  -7.878  1.00  0.00     0.131 A 
ATOM     54  C   UNL     1       6.063   6.410  -9.779  1.00  0.00     0.055 A 
ATOM     55  C   UNL     1       3.730   6.399  -9.198  1.00  0.00     0.041 A 
ATOM     56  F   UNL     1       3.084   6.820  -6.987  1.00  0.00    -0.206 F 
ATOM     57  C   UNL     1       4.726   6.273 -10.161  1.00  0.00     0.022 A 
BRANCH  54  58
ATOM     58  S   UNL     1       7.372   6.374 -11.033  1.00  0.00     0.124 S 
ATOM     59  O   UNL     1       7.968   7.696 -10.875  1.00  0.00    -0.237 OA
ATOM     60  O   UNL     1       8.185   5.246 -10.591  1.00  0.00    -0.237 OA
ATOM     61  O   UNL     1       6.642   6.163 -12.281  1.00  0.00    -0.744 OA
ENDBRANCH  54  58
ENDBRANCH  27  51
BRANCH  39  62
ATOM     62  C   UNL     1       8.580  12.108  -4.213  1.00  0.00     0.023 A 
ATOM     63  C   UNL     1       7.877  13.137  -4.863  1.00  0.00     0.031 A 
ATOM     64  C   UNL     1       9.967  12.265  -4.039  1.00  0.00     0.131 A 
ATOM     65  C   UNL     1       8.570  14.253  -5.358  1.00  0.00     0.055 A 
ATOM     66  C   UNL     1      10.641  13.407  -4.473  1.00  0.00     0.041 A 
ATOM     67  F   UNL     1      10.693  11.310  -3.434  1.00  0.00    -0.206 F 
ATOM     68  C   UNL     1       9.944  14.404  -5.148  1.00  0.00     0.022 A 
BRANCH  65  69
ATOM     69  S   UNL     1       7.673  15.464  -6.367  1.00  0.00     0.124 S 
ATOM     70  O   UNL     1       7.170  14.635  -7.458  1.00  0.00    -0.237 OA
ATOM     71  O   UNL     1       6.670  15.967  -5.434  1.00  0.00    -0.237 OA
ATOM     72  O   UNL     1       8.705  16.427  -6.746  1.00  0.00    -0.744 OA
ENDBRANCH  65  69
ENDBRANCH  39  62
ENDBRANCH  13  14
ENDBRANCH   6   8
ENDBRANCH   3   4
ENDBRANCH   2   3
ENDBRANCH   1   2
BRANCH   1  73
ATOM     73  C   UNL     1       4.652  -3.907   1.717  1.00  0.00     0.002 C 
BRANCH  73  74
ATOM     74  C   UNL     1       6.167  -4.013   1.537  1.00  0.00     0.021 C 
BRANCH  74  75
ATOM     75  C   UNL     1       6.962  -4.052   2.836  1.00  0.00     0.116 C 
BRANCH  75  76
ATOM     76  N   UNL     1       6.682  -5.249   3.621  1.00  0.00    -0.351 N 
ATOM     77  C   UNL     1       7.554  -6.242   4.015  1.00  0.00     0.263 C 
ATOM     78  H   UNL     1       5.747  -5.363   3.908  1.00  0.00     0.163 HD
ATOM     79  O   UNL     1       7.084  -7.257   4.529  1.00  0.00    -0.268 OA
BRANCH  77  80
ATOM     80  C   UNL     1       8.967  -6.015   3.804  1.00  0.00     0.116 A 
ATOM     81  S   UNL     1       9.891  -7.216   3.014  1.00  0.00    -0.136 S 
ATOM     82  C   UNL     1       9.732  -4.920   4.174  1.00  0.00     0.073 A 
ATOM     83  C   UNL     1      11.248  -6.184   2.931  1.00  0.00     0.068 A 
ATOM     84  C   UNL     1      11.007  -4.970   3.536  1.00  0.00     0.039 A 
BRANCH  82  85
ATOM     85  N   UNL     1       9.263  -3.923   5.043  1.00  0.00    -0.269 N 
ATOM     86  H   UNL     1       8.445  -4.158   5.538  1.00  0.00     0.181 HD
BRANCH  85  87
ATOM     87  S   UNL     1       9.864  -2.415   5.372  1.00  0.00     0.301 S 
ATOM     88  O   UNL     1       9.595  -1.577   4.232  1.00  0.00    -0.189 OA
ATOM     89  O   UNL     1       9.348  -2.084   6.683  1.00  0.00    -0.189 OA
BRANCH  87  90
ATOM     90  N   UNL     1      11.530  -2.620   5.511  1.00  0.00    -0.185 NA
ATOM     91  C   UNL     1      12.018  -3.717   6.377  1.00  0.00     0.104 C 
ATOM     92  C   UNL     1      12.233  -1.367   5.944  1.00  0.00     0.104 C 
ATOM     93  C   UNL     1      12.475  -3.047   7.649  1.00  0.00     0.018 C 
ATOM     94  C   UNL     1      13.095  -1.763   7.140  1.00  0.00     0.018 C 
ENDBRANCH  87  90
ENDBRANCH  85  87
ENDBRANCH  82  85
ENDBRANCH  77  80
ENDBRANCH  75  76
ENDBRANCH  74  75
ENDBRANCH  73  74
ENDBRANCH   1  73
TORSDOF 19
