REMARK SMILES CC/C=C/C/C=C/C/C=C/C/C=C/CC/C=C/COCC(=O)NCCCCCCNC(=O)c1ccc(-c2c3nc(c(-c4cc(S(=O)(=O)[O-])ccc4F)c4ccc([nH]4)c(-c4cc(S(=O)(=O)[O-])ccc4F)c4nc(c(-c5cc(S(=O)(=O)[O-])ccc5F)c5ccc2[nH]5)C=C4)C=C3)cc1
REMARK SMILES IDX 20 1 19 2 18 3 17 4 16 5 15 6 14 7 13 8 12 9 11 10 10 11
REMARK SMILES IDX 9 12 8 13 7 14 6 15 5 16 4 17 3 18 2 19 1 20 21 21 22 22
REMARK SMILES IDX 23 23 24 25 25 26 26 27 27 28 28 29 29 30 30 31 31 32 32 34
REMARK SMILES IDX 33 35 34 36 95 37 35 38 94 39 36 40 37 41 38 42 88 43 39 44
REMARK SMILES IDX 93 45 87 46 89 47 40 48 92 49 86 50 85 51 41 53 73 54 53 55
REMARK SMILES IDX 72 56 54 57 57 58 71 59 90 60 55 61 56 62 70 64 91 65 58 66
REMARK SMILES IDX 42 67 43 68 51 69 44 70 50 71 52 72 49 73 45 74 46 75 47 76
REMARK SMILES IDX 48 77 74 78 75 79 83 80 76 81 82 82 84 83 81 84 77 85 78 86
REMARK SMILES IDX 79 87 80 88 59 89 60 90 68 91 61 92 67 93 69 94 66 95 62 96
REMARK SMILES IDX 63 97 64 98 65 99
REMARK H PARENT 23 24 30 33 89 52 57 63
REMARK Flexibility Score: inf
ROOT
ATOM      1  C   UNL     1      -9.820   8.526 -10.529  1.00  0.00     0.260 C 
ENDROOT
BRANCH   1   2
ATOM      2  O   UNL     1      -9.314   9.524 -11.406  1.00  0.00    -0.368 OA
BRANCH   2   3
ATOM      3  C   UNL     1      -7.891   9.544 -11.511  1.00  0.00     0.188 C 
BRANCH   3   4
ATOM      4  C   UNL     1      -7.286   9.927 -10.196  1.00  0.00    -0.003 C 
ATOM      5  C   UNL     1      -6.487   9.107  -9.496  1.00  0.00    -0.029 C 
BRANCH   5   6
ATOM      6  C   UNL     1      -6.004   9.378  -8.100  1.00  0.00     0.031 C 
BRANCH   6   7
ATOM      7  C   UNL     1      -6.591   8.391  -7.077  1.00  0.00     0.031 C 
BRANCH   7   8
ATOM      8  C   UNL     1      -6.143   6.972  -7.306  1.00  0.00    -0.031 C 
ATOM      9  C   UNL     1      -5.332   6.291  -6.483  1.00  0.00    -0.027 C 
BRANCH   9  10
ATOM     10  C   UNL     1      -4.850   4.895  -6.758  1.00  0.00     0.054 C 
BRANCH  10  11
ATOM     11  C   UNL     1      -3.349   4.859  -6.788  1.00  0.00    -0.027 C 
ATOM     12  C   UNL     1      -2.597   4.104  -5.970  1.00  0.00    -0.027 C 
BRANCH  12  13
ATOM     13  C   UNL     1      -1.096   4.102  -5.968  1.00  0.00     0.054 C 
BRANCH  13  14
ATOM     14  C   UNL     1      -0.572   4.513  -4.622  1.00  0.00    -0.027 C 
ATOM     15  C   UNL     1       0.200   3.737  -3.843  1.00  0.00    -0.027 C 
BRANCH  15  16
ATOM     16  C   UNL     1       0.699   4.137  -2.485  1.00  0.00     0.054 C 
BRANCH  16  17
ATOM     17  C   UNL     1       0.226   3.170  -1.438  1.00  0.00    -0.027 C 
ATOM     18  C   UNL     1       1.042   2.433  -0.667  1.00  0.00    -0.031 C 
BRANCH  18  19
ATOM     19  C   UNL     1       0.562   1.459   0.368  1.00  0.00     0.023 C 
ATOM     20  C   UNL     1       1.046   0.049   0.064  1.00  0.00     0.008 C 
ENDBRANCH  18  19
ENDBRANCH  16  17
ENDBRANCH  15  16
ENDBRANCH  13  14
ENDBRANCH  12  13
ENDBRANCH  10  11
ENDBRANCH   9  10
ENDBRANCH   7   8
ENDBRANCH   6   7
ENDBRANCH   5   6
ENDBRANCH   3   4
ENDBRANCH   2   3
ENDBRANCH   1   2
BRANCH   1  21
ATOM     21  C   UNL     1      -9.463   7.065 -10.830  1.00  0.00     0.246 C 
ATOM     22  O   UNL     1      -8.832   6.367 -10.034  1.00  0.00    -0.272 OA
ATOM     23  N   UNL     1      -9.883   6.515 -12.007  1.00  0.00    -0.354 N 
ATOM     24  H   UNL     1      -9.701   5.555 -12.124  1.00  0.00     0.163 HD
BRANCH  23  25
ATOM     25  C   UNL     1     -10.565   7.172 -13.106  1.00  0.00     0.116 C 
BRANCH  25  26
ATOM     26  C   UNL     1      -9.683   7.222 -14.352  1.00  0.00     0.021 C 
BRANCH  26  27
ATOM     27  C   UNL     1      -9.329   5.845 -14.931  1.00  0.00     0.002 C 
BRANCH  27  28
ATOM     28  C   UNL     1     -10.527   4.957 -15.282  1.00  0.00     0.002 C 
BRANCH  28  29
ATOM     29  C   UNL     1     -11.535   5.580 -16.252  1.00  0.00     0.021 C 
BRANCH  29  30
ATOM     30  C   UNL     1     -10.954   5.986 -17.603  1.00  0.00     0.116 C 
BRANCH  30  31
ATOM     31  N   UNL     1     -10.449   4.845 -18.350  1.00  0.00    -0.352 N 
ATOM     32  C   UNL     1     -10.788   4.402 -19.606  1.00  0.00     0.251 C 
ATOM     33  H   UNL     1      -9.763   4.311 -17.888  1.00  0.00     0.163 HD
ATOM     34  O   UNL     1     -10.397   3.303 -19.990  1.00  0.00    -0.269 OA
BRANCH  32  35
ATOM     35  C   UNL     1     -11.647   5.235 -20.476  1.00  0.00     0.039 A 
ATOM     36  C   UNL     1     -12.715   4.634 -21.146  1.00  0.00     0.014 A 
ATOM     37  C   UNL     1     -11.411   6.606 -20.621  1.00  0.00     0.014 A 
ATOM     38  C   UNL     1     -13.596   5.421 -21.890  1.00  0.00     0.010 A 
ATOM     39  C   UNL     1     -12.329   7.399 -21.306  1.00  0.00     0.010 A 
ATOM     40  C   UNL     1     -13.441   6.817 -21.935  1.00  0.00    -0.014 A 
BRANCH  40  41
ATOM     41  C   UNL     1     -14.459   7.683 -22.589  1.00  0.00     0.031 A 
ATOM     42  C   UNL     1     -14.096   8.521 -23.784  1.00  0.00     0.074 A 
ATOM     43  C   UNL     1     -15.696   7.762 -22.058  1.00  0.00     0.049 A 
ATOM     44  N   UNL     1     -14.826   9.389 -24.436  1.00  0.00    -0.248 NA
ATOM     45  C   UNL     1     -12.726   8.380 -24.299  1.00  0.00     0.031 C 
ATOM     46  C   UNL     1     -16.156   7.024 -20.878  1.00  0.00     0.029 A 
ATOM     47  N   UNL     1     -16.791   8.503 -22.428  1.00  0.00    -0.354 N 
ATOM     48  C   UNL     1     -14.005   9.905 -25.433  1.00  0.00     0.074 A 
ATOM     49  C   UNL     1     -12.706   9.288 -25.264  1.00  0.00     0.031 C 
ATOM     50  C   UNL     1     -17.440   7.332 -20.638  1.00  0.00     0.029 A 
ATOM     51  C   UNL     1     -17.881   8.331 -21.605  1.00  0.00     0.049 A 
ATOM     52  H   UNL     1     -16.796   9.102 -23.210  1.00  0.00     0.167 HD
ATOM     53  C   UNL     1     -14.315  10.795 -26.409  1.00  0.00     0.034 A 
ATOM     54  C   UNL     1     -19.092   8.925 -21.612  1.00  0.00     0.034 A 
ATOM     55  C   UNL     1     -15.617  11.398 -26.564  1.00  0.00     0.049 A 
ATOM     56  C   UNL     1     -19.392   9.950 -22.677  1.00  0.00     0.074 A 
ATOM     57  C   UNL     1     -16.052  12.263 -27.553  1.00  0.00     0.029 A 
ATOM     58  N   UNL     1     -16.690  11.215 -25.701  1.00  0.00    -0.354 N 
ATOM     59  N   UNL     1     -18.622  10.379 -23.651  1.00  0.00    -0.248 NA
ATOM     60  C   UNL     1     -20.725  10.567 -22.648  1.00  0.00     0.031 C 
ATOM     61  C   UNL     1     -17.354  12.667 -27.243  1.00  0.00     0.029 A 
ATOM     62  C   UNL     1     -17.768  11.987 -26.109  1.00  0.00     0.049 A 
ATOM     63  H   UNL     1     -16.686  10.624 -24.913  1.00  0.00     0.167 HD
ATOM     64  C   UNL     1     -19.390  11.297 -24.363  1.00  0.00     0.074 A 
ATOM     65  C   UNL     1     -20.687  11.340 -23.722  1.00  0.00     0.031 C 
ATOM     66  C   UNL     1     -19.053  12.036 -25.451  1.00  0.00     0.034 A 
BRANCH  53  67
ATOM     67  C   UNL     1     -13.217  11.194 -27.367  1.00  0.00     0.023 A 
ATOM     68  C   UNL     1     -12.616  10.265 -28.234  1.00  0.00     0.031 A 
ATOM     69  C   UNL     1     -12.769  12.527 -27.418  1.00  0.00     0.131 A 
ATOM     70  C   UNL     1     -11.560  10.665 -29.067  1.00  0.00     0.055 A 
ATOM     71  C   UNL     1     -11.772  12.935 -28.306  1.00  0.00     0.041 A 
ATOM     72  F   UNL     1     -13.289  13.455 -26.600  1.00  0.00    -0.206 F 
ATOM     73  C   UNL     1     -11.152  12.000 -29.129  1.00  0.00     0.022 A 
BRANCH  70  74
ATOM     74  S   UNL     1     -10.639   9.392 -29.972  1.00  0.00     0.124 S 
ATOM     75  O   UNL     1     -10.163   8.542 -28.884  1.00  0.00    -0.237 OA
ATOM     76  O   UNL     1     -11.665   8.813 -30.833  1.00  0.00    -0.237 OA
ATOM     77  O   UNL     1      -9.597  10.148 -30.664  1.00  0.00    -0.744 OA
ENDBRANCH  70  74
ENDBRANCH  53  67
BRANCH  54  78
ATOM     78  C   UNL     1     -20.103   8.600 -20.563  1.00  0.00     0.023 A 
ATOM     79  C   UNL     1     -21.342   8.033 -20.902  1.00  0.00     0.031 A 
ATOM     80  C   UNL     1     -19.869   8.906 -19.210  1.00  0.00     0.131 A 
ATOM     81  C   UNL     1     -22.319   7.841 -19.913  1.00  0.00     0.055 A 
ATOM     82  C   UNL     1     -20.820   8.653 -18.220  1.00  0.00     0.041 A 
ATOM     83  F   UNL     1     -18.702   9.450 -18.828  1.00  0.00    -0.206 F 
ATOM     84  C   UNL     1     -22.060   8.132 -18.572  1.00  0.00     0.022 A 
BRANCH  81  85
ATOM     85  S   UNL     1     -23.976   7.306 -20.421  1.00  0.00     0.124 S 
ATOM     86  O   UNL     1     -24.346   8.351 -21.369  1.00  0.00    -0.237 OA
ATOM     87  O   UNL     1     -23.707   5.990 -20.990  1.00  0.00    -0.237 OA
ATOM     88  O   UNL     1     -24.730   7.301 -19.170  1.00  0.00    -0.744 OA
ENDBRANCH  81  85
ENDBRANCH  54  78
BRANCH  66  89
ATOM     89  C   UNL     1     -20.122  12.931 -26.031  1.00  0.00     0.023 A 
ATOM     90  C   UNL     1     -20.629  14.033 -25.320  1.00  0.00     0.031 A 
ATOM     91  C   UNL     1     -20.647  12.673 -27.310  1.00  0.00     0.131 A 
ATOM     92  C   UNL     1     -21.669  14.800 -25.867  1.00  0.00     0.055 A 
ATOM     93  C   UNL     1     -21.634  13.480 -27.877  1.00  0.00     0.041 A 
ATOM     94  F   UNL     1     -20.204  11.632 -28.033  1.00  0.00    -0.206 F 
ATOM     95  C   UNL     1     -22.160  14.543 -27.149  1.00  0.00     0.022 A 
BRANCH  92  96
ATOM     96  S   UNL     1     -22.437  16.084 -24.841  1.00  0.00     0.124 S 
ATOM     97  O   UNL     1     -22.922  15.311 -23.702  1.00  0.00    -0.237 OA
ATOM     98  O   UNL     1     -21.318  16.981 -24.572  1.00  0.00    -0.237 OA
ATOM     99  O   UNL     1     -23.479  16.636 -25.704  1.00  0.00    -0.744 OA
ENDBRANCH  92  96
ENDBRANCH  66  89
ENDBRANCH  40  41
ENDBRANCH  32  35
ENDBRANCH  30  31
ENDBRANCH  29  30
ENDBRANCH  28  29
ENDBRANCH  27  28
ENDBRANCH  26  27
ENDBRANCH  25  26
ENDBRANCH  23  25
ENDBRANCH   1  21
TORSDOF 29
