REMARK SMILES C[C@H](Nc1cccc(F)c1C(=O)NCCCCCCNC(=O)c1ccc(-c2c3nc(c(-c4cc(S(=O)(=O)[O-])ccc4F)c4ccc([nH]4)c(-c4cc(S(=O)(=O)[O-])ccc4F)c4nc(c(-c5cc(S(=O)(=O)[O-])ccc5F)c5ccc2[nH]5)C=C4)C=C3)cc1)c1nccs1
REMARK SMILES IDX 16 1 15 2 14 3 13 4 11 5 12 6 10 8 4 9 5 10 6 11 8 12 7 13
REMARK SMILES IDX 9 14 3 15 2 17 1 18 86 19 87 20 90 21 88 22 89 23 17 24
REMARK SMILES IDX 18 25 19 26 20 27 21 28 22 30 23 31 24 32 85 33 25 34 84 35
REMARK SMILES IDX 26 36 27 37 28 38 78 39 29 40 83 41 77 42 79 43 30 44 82 45
REMARK SMILES IDX 76 46 75 47 31 49 63 50 43 51 62 52 44 53 47 54 61 55 80 56
REMARK SMILES IDX 45 57 46 58 60 60 81 61 48 62 32 63 33 64 41 65 34 66 40 67
REMARK SMILES IDX 42 68 39 69 35 70 36 71 37 72 38 73 64 74 65 75 73 76 66 77
REMARK SMILES IDX 72 78 74 79 71 80 67 81 68 82 69 83 70 84 49 85 50 86 58 87
REMARK SMILES IDX 51 88 57 89 59 90 56 91 52 92 53 93 54 94 55 95
REMARK H PARENT 13 7 3 16 20 29 79 48 47 59
REMARK Flexibility Score: inf
ROOT
ATOM      1  C   UNL     1       1.530   5.616  -4.266  1.00  0.00     0.002 C 
ENDROOT
BRANCH   1   2
ATOM      2  C   UNL     1       2.615   4.601  -3.896  1.00  0.00     0.021 C 
BRANCH   2   3
ATOM      3  C   UNL     1       2.761   4.261  -2.416  1.00  0.00     0.116 C 
BRANCH   3   4
ATOM      4  N   UNL     1       1.576   3.647  -1.853  1.00  0.00    -0.352 N 
ATOM      5  C   UNL     1       1.404   2.608  -0.973  1.00  0.00     0.256 C 
ATOM      6  O   UNL     1       0.233   2.303  -0.731  1.00  0.00    -0.269 OA
ATOM      7  H   UNL     1       0.733   4.052  -2.160  1.00  0.00     0.163 HD
BRANCH   5   8
ATOM      8  C   UNL     1       2.515   1.799  -0.380  1.00  0.00     0.098 A 
ATOM      9  C   UNL     1       2.281   0.441  -0.024  1.00  0.00     0.050 A 
ATOM     10  C   UNL     1       3.361  -0.346   0.417  1.00  0.00     0.027 A 
ATOM     11  C   UNL     1       4.633   0.200   0.584  1.00  0.00     0.005 A 
ATOM     12  C   UNL     1       3.767   2.346  -0.088  1.00  0.00     0.138 A 
ATOM     13  C   UNL     1       4.825   1.557   0.363  1.00  0.00     0.040 A 
ATOM     14  F   UNL     1       3.987   3.667  -0.155  1.00  0.00    -0.206 F 
BRANCH   9  15
ATOM     15  N   UNL     1       0.987  -0.093   0.008  1.00  0.00    -0.375 N 
ATOM     16  H   UNL     1       0.447  -0.075  -0.815  1.00  0.00     0.161 HD
BRANCH  15  17
ATOM     17  C   UNL     1       0.400  -0.683   1.232  1.00  0.00     0.135 C 
ATOM     18  C   UNL     1       0.889   0.006   2.520  1.00  0.00     0.039 C 
BRANCH  17  19
ATOM     19  C   UNL     1      -1.131  -0.691   1.226  1.00  0.00     0.115 A 
ATOM     20  N   UNL     1      -1.881  -1.778   1.276  1.00  0.00    -0.247 NA
ATOM     21  S   UNL     1      -2.013   0.796   1.167  1.00  0.00    -0.125 S 
ATOM     22  C   UNL     1      -3.217  -1.426   1.239  1.00  0.00     0.123 A 
ATOM     23  C   UNL     1      -3.481  -0.076   1.182  1.00  0.00     0.087 A 
ENDBRANCH  17  19
ENDBRANCH  15  17
ENDBRANCH   9  15
ENDBRANCH   5   8
ENDBRANCH   3   4
ENDBRANCH   2   3
ENDBRANCH   1   2
BRANCH   1  24
ATOM     24  C   UNL     1       1.573   6.963  -3.539  1.00  0.00     0.002 C 
BRANCH  24  25
ATOM     25  C   UNL     1       2.919   7.690  -3.537  1.00  0.00     0.021 C 
BRANCH  25  26
ATOM     26  C   UNL     1       3.561   7.904  -4.904  1.00  0.00     0.116 C 
BRANCH  26  27
ATOM     27  N   UNL     1       2.741   8.711  -5.789  1.00  0.00    -0.352 N 
ATOM     28  C   UNL     1       3.071   9.843  -6.496  1.00  0.00     0.251 C 
ATOM     29  H   UNL     1       1.813   8.402  -5.899  1.00  0.00     0.163 HD
ATOM     30  O   UNL     1       2.188  10.480  -7.060  1.00  0.00    -0.269 OA
BRANCH  28  31
ATOM     31  C   UNL     1       4.477  10.305  -6.554  1.00  0.00     0.039 A 
ATOM     32  C   UNL     1       4.741  11.669  -6.400  1.00  0.00     0.014 A 
ATOM     33  C   UNL     1       5.530   9.412  -6.775  1.00  0.00     0.014 A 
ATOM     34  C   UNL     1       6.062  12.126  -6.409  1.00  0.00     0.010 A 
ATOM     35  C   UNL     1       6.849   9.859  -6.711  1.00  0.00     0.010 A 
ATOM     36  C   UNL     1       7.130  11.221  -6.529  1.00  0.00    -0.014 A 
BRANCH  36  37
ATOM     37  C   UNL     1       8.540  11.690  -6.464  1.00  0.00     0.031 A 
ATOM     38  C   UNL     1       9.446  11.543  -7.658  1.00  0.00     0.074 A 
ATOM     39  C   UNL     1       9.014  12.222  -5.319  1.00  0.00     0.049 A 
ATOM     40  N   UNL     1      10.713  11.848  -7.773  1.00  0.00    -0.248 NA
ATOM     41  C   UNL     1       8.858  10.958  -8.875  1.00  0.00     0.031 C 
ATOM     42  C   UNL     1       8.240  12.395  -4.087  1.00  0.00     0.029 A 
ATOM     43  N   UNL     1      10.253  12.721  -5.001  1.00  0.00    -0.354 N 
ATOM     44  C   UNL     1      11.074  11.492  -9.067  1.00  0.00     0.074 A 
ATOM     45  C   UNL     1       9.908  10.898  -9.683  1.00  0.00     0.031 C 
ATOM     46  C   UNL     1       9.009  12.995  -3.164  1.00  0.00     0.029 A 
ATOM     47  C   UNL     1      10.344  13.204  -3.715  1.00  0.00     0.049 A 
ATOM     48  H   UNL     1      11.007  12.732  -5.634  1.00  0.00     0.167 HD
ATOM     49  C   UNL     1      12.263  11.668  -9.692  1.00  0.00     0.034 A 
ATOM     50  C   UNL     1      11.384  13.746  -3.049  1.00  0.00     0.034 A 
ATOM     51  C   UNL     1      13.412  12.284  -9.078  1.00  0.00     0.049 A 
ATOM     52  C   UNL     1      12.706  13.895  -3.754  1.00  0.00     0.074 A 
ATOM     53  C   UNL     1      14.646  12.550  -9.645  1.00  0.00     0.029 A 
ATOM     54  N   UNL     1      13.472  12.728  -7.765  1.00  0.00    -0.354 N 
ATOM     55  N   UNL     1      13.024  13.562  -4.984  1.00  0.00    -0.248 NA
ATOM     56  C   UNL     1      13.810  14.489  -2.987  1.00  0.00     0.031 C 
ATOM     57  C   UNL     1      15.472  13.092  -8.658  1.00  0.00     0.029 A 
ATOM     58  C   UNL     1      14.732  13.236  -7.496  1.00  0.00     0.049 A 
ATOM     59  H   UNL     1      12.729  12.687  -7.120  1.00  0.00     0.167 HD
ATOM     60  C   UNL     1      14.356  13.929  -5.144  1.00  0.00     0.074 A 
ATOM     61  C   UNL     1      14.784  14.510  -3.889  1.00  0.00     0.031 C 
ATOM     62  C   UNL     1      15.148  13.804  -6.237  1.00  0.00     0.034 A 
BRANCH  49  63
ATOM     63  C   UNL     1      12.395  11.183 -11.112  1.00  0.00     0.023 A 
ATOM     64  C   UNL     1      11.708  11.807 -12.167  1.00  0.00     0.031 A 
ATOM     65  C   UNL     1      13.261  10.120 -11.421  1.00  0.00     0.131 A 
ATOM     66  C   UNL     1      11.876  11.341 -13.480  1.00  0.00     0.055 A 
ATOM     67  C   UNL     1      13.470   9.701 -12.736  1.00  0.00     0.041 A 
ATOM     68  F   UNL     1      13.929   9.479 -10.448  1.00  0.00    -0.206 F 
ATOM     69  C   UNL     1      12.771  10.310 -13.774  1.00  0.00     0.022 A 
BRANCH  66  70
ATOM     70  S   UNL     1      10.859  12.063 -14.796  1.00  0.00     0.124 S 
ATOM     71  O   UNL     1       9.518  11.649 -14.392  1.00  0.00    -0.237 OA
ATOM     72  O   UNL     1      11.150  13.488 -14.678  1.00  0.00    -0.237 OA
ATOM     73  O   UNL     1      11.364  11.423 -16.009  1.00  0.00    -0.744 OA
ENDBRANCH  66  70
ENDBRANCH  49  63
BRANCH  50  74
ATOM     74  C   UNL     1      11.218  14.178  -1.633  1.00  0.00     0.023 A 
ATOM     75  C   UNL     1      11.266  15.535  -1.278  1.00  0.00     0.031 A 
ATOM     76  C   UNL     1      11.002  13.235  -0.612  1.00  0.00     0.131 A 
ATOM     77  C   UNL     1      11.123  15.911   0.067  1.00  0.00     0.055 A 
ATOM     78  C   UNL     1      10.818  13.616   0.718  1.00  0.00     0.041 A 
ATOM     79  F   UNL     1      10.940  11.925  -0.900  1.00  0.00    -0.206 F 
ATOM     80  C   UNL     1      10.885  14.962   1.065  1.00  0.00     0.022 A 
BRANCH  77  81
ATOM     81  S   UNL     1      11.289  17.663   0.506  1.00  0.00     0.124 S 
ATOM     82  O   UNL     1      12.673  17.932   0.135  1.00  0.00    -0.237 OA
ATOM     83  O   UNL     1      10.267  18.285  -0.330  1.00  0.00    -0.237 OA
ATOM     84  O   UNL     1      11.011  17.682   1.940  1.00  0.00    -0.744 OA
ENDBRANCH  77  81
ENDBRANCH  50  74
BRANCH  62  85
ATOM     85  C   UNL     1      16.556  14.331  -6.148  1.00  0.00     0.023 A 
ATOM     86  C   UNL     1      17.542  13.671  -5.398  1.00  0.00     0.031 A 
ATOM     87  C   UNL     1      16.928  15.467  -6.889  1.00  0.00     0.131 A 
ATOM     88  C   UNL     1      18.855  14.164  -5.392  1.00  0.00     0.055 A 
ATOM     89  C   UNL     1      18.245  15.925  -6.916  1.00  0.00     0.041 A 
ATOM     90  F   UNL     1      16.021  16.129  -7.626  1.00  0.00    -0.206 F 
ATOM     91  C   UNL     1      19.217  15.274  -6.162  1.00  0.00     0.022 A 
BRANCH  88  92
ATOM     92  S   UNL     1      20.091  13.343  -4.349  1.00  0.00     0.124 S 
ATOM     93  O   UNL     1      19.577  13.606  -3.009  1.00  0.00    -0.237 OA
ATOM     94  O   UNL     1      20.016  11.957  -4.799  1.00  0.00    -0.237 OA
ATOM     95  O   UNL     1      21.336  14.033  -4.683  1.00  0.00    -0.744 OA
ENDBRANCH  88  92
ENDBRANCH  62  85
ENDBRANCH  36  37
ENDBRANCH  28  31
ENDBRANCH  26  27
ENDBRANCH  25  26
ENDBRANCH  24  25
ENDBRANCH   1  24
TORSDOF 19
