REMARK SMILES CCCOC(=O)c1c(NC(=O)[C@@H]2CC=CC[C@H]2C(=O)NCCCCCCNC(=O)c2ccc(-c3c4nc(c(-c5cc(S(=O)(=O)[O-])ccc5F)c5ccc([nH]5)c(-c5cc(S(=O)(=O)[O-])ccc5F)c5nc(c(-c6cc(S(=O)(=O)[O-])ccc6F)c6ccc3[nH]6)C=C5)C=C4)cc2)sc2c1CCCC2
REMARK SMILES IDX 22 1 21 2 20 3 18 4 19 5 17 7 12 8 13 9 14 10 16 11 15 12
REMARK SMILES IDX 10 13 9 14 11 16 8 17 7 18 95 19 93 20 94 21 96 22 99 23
REMARK SMILES IDX 97 24 98 25 5 26 6 27 4 28 3 29 2 30 1 31 23 32 24 33 25 34
REMARK SMILES IDX 26 35 27 36 28 37 29 39 30 40 31 41 92 42 32 43 91 44 33 45
REMARK SMILES IDX 34 46 35 47 85 48 36 49 90 50 84 51 86 52 37 53 89 54 83 55
REMARK SMILES IDX 82 56 38 58 70 59 50 60 69 61 51 62 54 63 68 64 87 65 52 66
REMARK SMILES IDX 53 67 67 69 88 70 55 71 39 72 40 73 48 74 41 75 47 76 49 77
REMARK SMILES IDX 46 78 42 79 43 80 44 81 45 82 71 83 72 84 80 85 73 86 79 87
REMARK SMILES IDX 81 88 78 89 74 90 75 91 76 92 77 93 56 94 57 95 65 96 58 97
REMARK SMILES IDX 64 98 66 99 63 100 59 101 60 102 61 103 62 104
REMARK H PARENT 20 6 9 15 27 38 86 57 54 68
REMARK Flexibility Score: inf
ROOT
ATOM      1  C   UNL     1      -2.220   4.464  -1.503  1.00  0.00     0.021 C 
ENDROOT
BRANCH   1   2
ATOM      2  C   UNL     1      -0.839   4.690  -0.913  1.00  0.00     0.116 C 
BRANCH   2   3
ATOM      3  N   UNL     1      -0.855   4.994   0.500  1.00  0.00    -0.356 N 
ATOM      4  C   UNL     1      -0.193   4.420   1.543  1.00  0.00     0.224 C 
ATOM      5  O   UNL     1      -0.341   4.936   2.655  1.00  0.00    -0.275 OA
ATOM      6  H   UNL     1      -1.443   5.742   0.751  1.00  0.00     0.163 HD
BRANCH   4   7
ATOM      7  C   UNL     1       0.747   3.215   1.374  1.00  0.00     0.095 C 
ATOM      8  C   UNL     1      -0.001   1.961   0.872  1.00  0.00     0.095 C 
ATOM      9  C   UNL     1       0.289   1.446  -0.540  1.00  0.00     0.041 C 
ATOM     10  C   UNL     1       1.323   2.212  -1.292  1.00  0.00    -0.030 C 
ATOM     11  C   UNL     1       1.997   3.669   0.608  1.00  0.00     0.041 C 
ATOM     12  C   UNL     1       2.098   3.177  -0.793  1.00  0.00    -0.030 C 
BRANCH   8  13
ATOM     13  C   UNL     1       0.013   0.787   1.841  1.00  0.00     0.229 C 
ATOM     14  N   UNL     1       1.028  -0.144   1.849  1.00  0.00    -0.317 N 
ATOM     15  H   UNL     1       0.832  -1.080   1.615  1.00  0.00     0.170 HD
ATOM     16  O   UNL     1      -0.952   0.590   2.589  1.00  0.00    -0.274 OA
BRANCH  14  17
ATOM     17  C   UNL     1       2.318   0.221   2.182  1.00  0.00     0.110 A 
ATOM     18  C   UNL     1       3.472   0.622   1.527  1.00  0.00     0.098 A 
ATOM     19  C   UNL     1       4.439   1.068   2.549  1.00  0.00    -0.017 A 
ATOM     20  S   UNL     1       2.531   0.027   3.875  1.00  0.00    -0.122 S 
ATOM     21  C   UNL     1       4.014   0.825   3.839  1.00  0.00     0.011 A 
ATOM     22  C   UNL     1       5.756   1.762   2.298  1.00  0.00     0.038 C 
ATOM     23  C   UNL     1       4.761   1.158   5.094  1.00  0.00     0.047 C 
ATOM     24  C   UNL     1       6.662   1.773   3.537  1.00  0.00     0.005 C 
ATOM     25  C   UNL     1       5.890   2.155   4.803  1.00  0.00     0.006 C 
BRANCH  18  26
ATOM     26  C   UNL     1       3.799   0.715   0.084  1.00  0.00     0.341 C 
ATOM     27  O   UNL     1       4.725   1.433  -0.288  1.00  0.00    -0.246 OA
BRANCH  26  28
ATOM     28  O   UNL     1       3.102  -0.080  -0.811  1.00  0.00    -0.462 OA
BRANCH  28  29
ATOM     29  C   UNL     1       3.671   0.037  -2.145  1.00  0.00     0.233 C 
BRANCH  29  30
ATOM     30  C   UNL     1       2.864  -0.614  -3.280  1.00  0.00     0.038 C 
ATOM     31  C   UNL     1       2.010   0.346  -4.111  1.00  0.00     0.007 C 
ENDBRANCH  29  30
ENDBRANCH  28  29
ENDBRANCH  26  28
ENDBRANCH  18  26
ENDBRANCH  14  17
ENDBRANCH   8  13
ENDBRANCH   4   7
ENDBRANCH   2   3
ENDBRANCH   1   2
BRANCH   1  32
ATOM     32  C   UNL     1      -3.054   5.735  -1.593  1.00  0.00     0.002 C 
BRANCH  32  33
ATOM     33  C   UNL     1      -2.387   6.873  -2.373  1.00  0.00     0.002 C 
BRANCH  33  34
ATOM     34  C   UNL     1      -1.987   6.531  -3.812  1.00  0.00     0.021 C 
BRANCH  34  35
ATOM     35  C   UNL     1      -3.112   5.955  -4.667  1.00  0.00     0.116 C 
BRANCH  35  36
ATOM     36  N   UNL     1      -4.300   6.792  -4.634  1.00  0.00    -0.352 N 
ATOM     37  C   UNL     1      -5.021   7.325  -5.675  1.00  0.00     0.251 C 
ATOM     38  H   UNL     1      -4.637   7.009  -3.735  1.00  0.00     0.163 HD
ATOM     39  O   UNL     1      -5.873   8.171  -5.466  1.00  0.00    -0.269 OA
BRANCH  37  40
ATOM     40  C   UNL     1      -4.729   6.865  -7.046  1.00  0.00     0.039 A 
ATOM     41  C   UNL     1      -4.512   7.815  -8.046  1.00  0.00     0.014 A 
ATOM     42  C   UNL     1      -4.648   5.498  -7.328  1.00  0.00     0.014 A 
ATOM     43  C   UNL     1      -4.150   7.391  -9.325  1.00  0.00     0.010 A 
ATOM     44  C   UNL     1      -4.229   5.081  -8.585  1.00  0.00     0.010 A 
ATOM     45  C   UNL     1      -3.973   6.025  -9.593  1.00  0.00    -0.014 A 
BRANCH  45  46
ATOM     46  C   UNL     1      -3.517   5.551 -10.922  1.00  0.00     0.031 A 
ATOM     47  C   UNL     1      -4.432   4.714 -11.768  1.00  0.00     0.074 A 
ATOM     48  C   UNL     1      -2.255   5.805 -11.319  1.00  0.00     0.049 A 
ATOM     49  N   UNL     1      -4.186   4.100 -12.896  1.00  0.00    -0.248 NA
ATOM     50  C   UNL     1      -5.798   4.517 -11.259  1.00  0.00     0.031 C 
ATOM     51  C   UNL     1      -1.270   6.581 -10.560  1.00  0.00     0.029 A 
ATOM     52  N   UNL     1      -1.576   5.423 -12.448  1.00  0.00    -0.354 N 
ATOM     53  C   UNL     1      -5.359   3.431 -13.225  1.00  0.00     0.074 A 
ATOM     54  C   UNL     1      -6.297   3.671 -12.148  1.00  0.00     0.031 C 
ATOM     55  C   UNL     1      -0.119   6.625 -11.250  1.00  0.00     0.029 A 
ATOM     56  C   UNL     1      -0.266   5.842 -12.473  1.00  0.00     0.049 A 
ATOM     57  H   UNL     1      -1.988   4.898 -13.172  1.00  0.00     0.167 HD
ATOM     58  C   UNL     1      -5.633   2.701 -14.335  1.00  0.00     0.034 A 
ATOM     59  C   UNL     1       0.711   5.602 -13.370  1.00  0.00     0.034 A 
ATOM     60  C   UNL     1      -4.686   2.487 -15.402  1.00  0.00     0.049 A 
ATOM     61  C   UNL     1       0.396   4.754 -14.575  1.00  0.00     0.074 A 
ATOM     62  C   UNL     1      -4.875   1.827 -16.603  1.00  0.00     0.029 A 
ATOM     63  N   UNL     1      -3.366   2.921 -15.391  1.00  0.00    -0.354 N 
ATOM     64  N   UNL     1      -0.735   4.171 -14.900  1.00  0.00    -0.248 NA
ATOM     65  C   UNL     1       1.485   4.534 -15.534  1.00  0.00     0.031 C 
ATOM     66  C   UNL     1      -3.655   1.803 -17.286  1.00  0.00     0.029 A 
ATOM     67  C   UNL     1      -2.720   2.509 -16.545  1.00  0.00     0.049 A 
ATOM     68  H   UNL     1      -2.951   3.445 -14.668  1.00  0.00     0.167 HD
ATOM     69  C   UNL     1      -0.497   3.533 -16.113  1.00  0.00     0.074 A 
ATOM     70  C   UNL     1       0.879   3.814 -16.468  1.00  0.00     0.031 C 
ATOM     71  C   UNL     1      -1.340   2.785 -16.870  1.00  0.00     0.034 A 
BRANCH  58  72
ATOM     72  C   UNL     1      -6.997   2.064 -14.428  1.00  0.00     0.023 A 
ATOM     73  C   UNL     1      -8.171   2.836 -14.482  1.00  0.00     0.031 A 
ATOM     74  C   UNL     1      -7.130   0.664 -14.435  1.00  0.00     0.131 A 
ATOM     75  C   UNL     1      -9.425   2.208 -14.462  1.00  0.00     0.055 A 
ATOM     76  C   UNL     1      -8.379   0.044 -14.498  1.00  0.00     0.041 A 
ATOM     77  F   UNL     1      -6.047  -0.126 -14.366  1.00  0.00    -0.206 F 
ATOM     78  C   UNL     1      -9.537   0.816 -14.495  1.00  0.00     0.022 A 
BRANCH  75  79
ATOM     79  S   UNL     1     -10.904   3.235 -14.250  1.00  0.00     0.124 S 
ATOM     80  O   UNL     1     -10.628   3.887 -12.971  1.00  0.00    -0.237 OA
ATOM     81  O   UNL     1     -10.863   4.095 -15.427  1.00  0.00    -0.237 OA
ATOM     82  O   UNL     1     -11.995   2.264 -14.223  1.00  0.00    -0.744 OA
ENDBRANCH  75  79
ENDBRANCH  58  72
BRANCH  59  83
ATOM     83  C   UNL     1       2.082   6.144 -13.154  1.00  0.00     0.023 A 
ATOM     84  C   UNL     1       2.627   7.098 -14.027  1.00  0.00     0.031 A 
ATOM     85  C   UNL     1       2.882   5.689 -12.090  1.00  0.00     0.131 A 
ATOM     86  C   UNL     1       3.948   7.537 -13.846  1.00  0.00     0.055 A 
ATOM     87  C   UNL     1       4.178   6.166 -11.885  1.00  0.00     0.041 A 
ATOM     88  F   UNL     1       2.407   4.781 -11.222  1.00  0.00    -0.206 F 
ATOM     89  C   UNL     1       4.722   7.087 -12.774  1.00  0.00     0.022 A 
BRANCH  86  90
ATOM     90  S   UNL     1       4.669   8.651 -15.083  1.00  0.00     0.124 S 
ATOM     91  O   UNL     1       4.533   7.866 -16.304  1.00  0.00    -0.237 OA
ATOM     92  O   UNL     1       3.807   9.823 -14.972  1.00  0.00    -0.237 OA
ATOM     93  O   UNL     1       6.039   8.841 -14.611  1.00  0.00    -0.744 OA
ENDBRANCH  86  90
ENDBRANCH  59  83
BRANCH  71  94
ATOM     94  C   UNL     1      -0.797   2.248 -18.169  1.00  0.00     0.023 A 
ATOM     95  C   UNL     1       0.178   1.236 -18.196  1.00  0.00     0.031 A 
ATOM     96  C   UNL     1      -1.268   2.752 -19.394  1.00  0.00     0.131 A 
ATOM     97  C   UNL     1       0.683   0.788 -19.426  1.00  0.00     0.055 A 
ATOM     98  C   UNL     1      -0.800   2.265 -20.615  1.00  0.00     0.041 A 
ATOM     99  F   UNL     1      -2.198   3.720 -19.423  1.00  0.00    -0.206 F 
ATOM    100  C   UNL     1       0.188   1.284 -20.635  1.00  0.00     0.022 A 
BRANCH  97 101
ATOM    101  S   UNL     1       2.043  -0.410 -19.424  1.00  0.00     0.124 S 
ATOM    102  O   UNL     1       3.102   0.333 -18.748  1.00  0.00    -0.237 OA
ATOM    103  O   UNL     1       1.476  -1.530 -18.680  1.00  0.00    -0.237 OA
ATOM    104  O   UNL     1       2.276  -0.667 -20.844  1.00  0.00    -0.744 OA
ENDBRANCH  97 101
ENDBRANCH  71  94
ENDBRANCH  45  46
ENDBRANCH  37  40
ENDBRANCH  35  36
ENDBRANCH  34  35
ENDBRANCH  33  34
ENDBRANCH  32  33
ENDBRANCH   1  32
TORSDOF 22
