REMARK SMILES C[C@@H]1[NH2+]CC[C@H]1C(=O)NCc1cccc(C(=O)NCCCCCCNC(=O)c2ccc(-c3c4nc(c(-c5cc(S(=O)(=O)[O-])ccc5F)c5ccc([nH]5)c(-c5cc(S(=O)(=O)[O-])ccc5F)c5nc(c(-c6cc(S(=O)(=O)[O-])ccc6F)c6ccc3[nH]6)C=C5)C=C4)cc2)c1
REMARK SMILES IDX 21 1 20 2 19 3 18 4 16 5 17 6 15 8 11 9 12 10 91 11 13 12
REMARK SMILES IDX 14 13 10 14 9 15 7 16 8 17 6 19 1 20 2 21 3 22 4 23 5 26
REMARK SMILES IDX 22 27 23 28 24 29 25 30 26 31 27 33 28 34 29 35 90 36 30 37
REMARK SMILES IDX 89 38 31 39 32 40 33 41 83 42 34 43 88 44 82 45 84 46 35 47
REMARK SMILES IDX 87 48 81 49 80 50 36 52 68 53 48 54 67 55 49 56 52 57 66 58
REMARK SMILES IDX 85 59 50 60 51 61 65 63 86 64 53 65 37 66 38 67 46 68 39 69
REMARK SMILES IDX 45 70 47 71 44 72 40 73 41 74 42 75 43 76 69 77 70 78 78 79
REMARK SMILES IDX 71 80 77 81 79 82 76 83 72 84 73 85 74 86 75 87 54 88 55 89
REMARK SMILES IDX 63 90 56 91 62 92 64 93 61 94 57 95 58 96 59 97 60 98
REMARK H PARENT 18 7 9 18 3 24 3 25 25 32 84 51 52 62
REMARK Flexibility Score: inf
ROOT
ATOM      1  C   UNL     1       1.063   5.407   7.102  1.00  0.00     0.002 C 
ENDROOT
BRANCH   1   2
ATOM      2  C   UNL     1       0.242   4.267   6.511  1.00  0.00     0.021 C 
BRANCH   2   3
ATOM      3  C   UNL     1       1.016   3.182   5.776  1.00  0.00     0.116 C 
BRANCH   3   4
ATOM      4  N   UNL     1       1.908   2.383   6.604  1.00  0.00    -0.352 N 
ATOM      5  C   UNL     1       2.186   1.029   6.602  1.00  0.00     0.251 C 
ATOM      6  O   UNL     1       3.002   0.594   7.413  1.00  0.00    -0.269 OA
ATOM      7  H   UNL     1       2.399   2.898   7.285  1.00  0.00     0.163 HD
BRANCH   5   8
ATOM      8  C   UNL     1       1.462   0.070   5.716  1.00  0.00     0.040 A 
ATOM      9  C   UNL     1      -0.088  -0.311   3.888  1.00  0.00    -0.028 A 
ATOM     10  C   UNL     1      -0.315  -1.610   4.359  1.00  0.00     0.005 A 
ATOM     11  C   UNL     1       0.922   0.448   4.490  1.00  0.00     0.019 A 
ATOM     12  C   UNL     1       0.385  -2.087   5.468  1.00  0.00     0.001 A 
ATOM     13  C   UNL     1       1.232  -1.232   6.176  1.00  0.00     0.014 A 
BRANCH   9  14
ATOM     14  C   UNL     1      -1.049   0.306   2.895  1.00  0.00     0.151 C 
BRANCH  14  15
ATOM     15  N   UNL     1      -0.657   1.628   2.450  1.00  0.00    -0.352 N 
ATOM     16  C   UNL     1      -0.142   2.063   1.272  1.00  0.00     0.229 C 
ATOM     17  O   UNL     1       0.260   3.229   1.237  1.00  0.00    -0.275 OA
ATOM     18  H   UNL     1      -0.788   2.337   3.121  1.00  0.00     0.163 HD
BRANCH  16  19
ATOM     19  C   UNL     1      -0.061   1.171   0.047  1.00  0.00     0.142 C 
ATOM     20  C   UNL     1       2.069   0.003  -0.675  1.00  0.00     0.076 C 
ATOM     21  C   UNL     1       0.850  -0.041   0.241  1.00  0.00     0.192 C 
ATOM     22  N   UNL     1       0.060  -1.246  -0.067  1.00  0.00    -0.343 N 
ATOM     23  C   UNL     1      -1.164  -0.820  -0.746  1.00  0.00     0.261 C 
ATOM     24  H   UNL     1      -0.175  -1.737   0.796  1.00  0.00     0.346 HD
ATOM     25  H   UNL     1       0.595  -1.879  -0.661  1.00  0.00     0.346 HD
ATOM     26  C   UNL     1      -1.415   0.631  -0.386  1.00  0.00     0.081 C 
ENDBRANCH  16  19
ENDBRANCH  14  15
ENDBRANCH   9  14
ENDBRANCH   5   8
ENDBRANCH   3   4
ENDBRANCH   2   3
ENDBRANCH   1   2
BRANCH   1  27
ATOM     27  C   UNL     1       2.002   6.133   6.136  1.00  0.00     0.002 C 
BRANCH  27  28
ATOM     28  C   UNL     1       1.374   6.653   4.840  1.00  0.00     0.021 C 
BRANCH  28  29
ATOM     29  C   UNL     1       0.152   7.551   5.008  1.00  0.00     0.116 C 
BRANCH  29  30
ATOM     30  N   UNL     1       0.438   8.742   5.790  1.00  0.00    -0.352 N 
ATOM     31  C   UNL     1       0.247  10.066   5.470  1.00  0.00     0.251 C 
ATOM     32  H   UNL     1       0.826   8.577   6.679  1.00  0.00     0.163 HD
ATOM     33  O   UNL     1       0.722  10.938   6.188  1.00  0.00    -0.269 OA
BRANCH  31  34
ATOM     34  C   UNL     1      -0.507  10.431   4.249  1.00  0.00     0.039 A 
ATOM     35  C   UNL     1      -0.001  11.434   3.418  1.00  0.00     0.014 A 
ATOM     36  C   UNL     1      -1.708   9.793   3.925  1.00  0.00     0.014 A 
ATOM     37  C   UNL     1      -0.663  11.747   2.228  1.00  0.00     0.010 A 
ATOM     38  C   UNL     1      -2.324  10.054   2.704  1.00  0.00     0.010 A 
ATOM     39  C   UNL     1      -1.808  11.032   1.840  1.00  0.00    -0.014 A 
BRANCH  39  40
ATOM     40  C   UNL     1      -2.472  11.287   0.533  1.00  0.00     0.031 A 
ATOM     41  C   UNL     1      -3.886  11.800   0.490  1.00  0.00     0.074 A 
ATOM     42  C   UNL     1      -1.822  11.002  -0.613  1.00  0.00     0.049 A 
ATOM     43  N   UNL     1      -4.660  12.009  -0.544  1.00  0.00    -0.248 NA
ATOM     44  C   UNL     1      -4.521  12.089   1.784  1.00  0.00     0.031 C 
ATOM     45  C   UNL     1      -0.459  10.471  -0.699  1.00  0.00     0.029 A 
ATOM     46  N   UNL     1      -2.218  11.108  -1.923  1.00  0.00    -0.354 N 
ATOM     47  C   UNL     1      -5.875  12.446  -0.027  1.00  0.00     0.074 A 
ATOM     48  C   UNL     1      -5.752  12.406   1.415  1.00  0.00     0.031 C 
ATOM     49  C   UNL     1      -0.124  10.327  -1.991  1.00  0.00     0.029 A 
ATOM     50  C   UNL     1      -1.263  10.699  -2.825  1.00  0.00     0.049 A 
ATOM     51  H   UNL     1      -3.103  11.446  -2.192  1.00  0.00     0.167 HD
ATOM     52  C   UNL     1      -6.981  12.864  -0.693  1.00  0.00     0.034 A 
ATOM     53  C   UNL     1      -1.304  10.614  -4.170  1.00  0.00     0.034 A 
ATOM     54  C   UNL     1      -7.084  12.897  -2.133  1.00  0.00     0.049 A 
ATOM     55  C   UNL     1      -2.564  11.030  -4.887  1.00  0.00     0.074 A 
ATOM     56  C   UNL     1      -8.138  13.343  -2.911  1.00  0.00     0.029 A 
ATOM     57  N   UNL     1      -6.104  12.454  -3.014  1.00  0.00    -0.354 N 
ATOM     58  N   UNL     1      -3.690  11.484  -4.385  1.00  0.00    -0.248 NA
ATOM     59  C   UNL     1      -2.556  10.929  -6.352  1.00  0.00     0.031 C 
ATOM     60  C   UNL     1      -7.831  13.095  -4.253  1.00  0.00     0.029 A 
ATOM     61  C   UNL     1      -6.547  12.579  -4.322  1.00  0.00     0.049 A 
ATOM     62  H   UNL     1      -5.224  12.103  -2.747  1.00  0.00     0.167 HD
ATOM     63  C   UNL     1      -4.510  11.754  -5.477  1.00  0.00     0.074 A 
ATOM     64  C   UNL     1      -3.745  11.425  -6.662  1.00  0.00     0.031 C 
ATOM     65  C   UNL     1      -5.779  12.236  -5.498  1.00  0.00     0.034 A 
BRANCH  52  66
ATOM     66  C   UNL     1      -8.173  13.288   0.134  1.00  0.00     0.023 A 
ATOM     67  C   UNL     1      -8.102  14.367   1.033  1.00  0.00     0.031 A 
ATOM     68  C   UNL     1      -9.389  12.588   0.047  1.00  0.00     0.131 A 
ATOM     69  C   UNL     1      -9.192  14.660   1.866  1.00  0.00     0.055 A 
ATOM     70  C   UNL     1     -10.501  12.942   0.813  1.00  0.00     0.041 A 
ATOM     71  F   UNL     1      -9.514  11.534  -0.775  1.00  0.00    -0.206 F 
ATOM     72  C   UNL     1     -10.402  13.973   1.743  1.00  0.00     0.022 A 
BRANCH  69  73
ATOM     73  S   UNL     1      -8.951  15.839   3.223  1.00  0.00     0.124 S 
ATOM     74  O   UNL     1      -7.848  15.223   3.956  1.00  0.00    -0.237 OA
ATOM     75  O   UNL     1      -8.639  17.075   2.516  1.00  0.00    -0.237 OA
ATOM     76  O   UNL     1     -10.236  15.825   3.921  1.00  0.00    -0.744 OA
ENDBRANCH  69  73
ENDBRANCH  52  66
BRANCH  53  77
ATOM     77  C   UNL     1      -0.127  10.102  -4.932  1.00  0.00     0.023 A 
ATOM     78  C   UNL     1       0.555  10.922  -5.846  1.00  0.00     0.031 A 
ATOM     79  C   UNL     1       0.307   8.772  -4.790  1.00  0.00     0.131 A 
ATOM     80  C   UNL     1       1.601  10.392  -6.616  1.00  0.00     0.055 A 
ATOM     81  C   UNL     1       1.389   8.267  -5.514  1.00  0.00     0.041 A 
ATOM     82  F   UNL     1      -0.310   7.944  -3.932  1.00  0.00    -0.206 F 
ATOM     83  C   UNL     1       2.034   9.075  -6.444  1.00  0.00     0.022 A 
BRANCH  80  84
ATOM     84  S   UNL     1       2.329  11.423  -7.919  1.00  0.00     0.124 S 
ATOM     85  O   UNL     1       1.164  11.723  -8.744  1.00  0.00    -0.237 OA
ATOM     86  O   UNL     1       2.877  12.537  -7.153  1.00  0.00    -0.237 OA
ATOM     87  O   UNL     1       3.320  10.544  -8.535  1.00  0.00    -0.744 OA
ENDBRANCH  80  84
ENDBRANCH  53  77
BRANCH  65  88
ATOM     88  C   UNL     1      -6.401  12.482  -6.853  1.00  0.00     0.023 A 
ATOM     89  C   UNL     1      -6.691  11.432  -7.741  1.00  0.00     0.031 A 
ATOM     90  C   UNL     1      -6.706  13.794  -7.261  1.00  0.00     0.131 A 
ATOM     91  C   UNL     1      -7.215  11.714  -9.011  1.00  0.00     0.055 A 
ATOM     92  C   UNL     1      -7.290  14.063  -8.499  1.00  0.00     0.041 A 
ATOM     93  F   UNL     1      -6.447  14.838  -6.457  1.00  0.00    -0.206 F 
ATOM     94  C   UNL     1      -7.536  13.021  -9.388  1.00  0.00     0.022 A 
BRANCH  91  95
ATOM     95  S   UNL     1      -7.386  10.359 -10.205  1.00  0.00     0.124 S 
ATOM     96  O   UNL     1      -6.014   9.872 -10.309  1.00  0.00    -0.237 OA
ATOM     97  O   UNL     1      -8.329   9.470  -9.536  1.00  0.00    -0.237 OA
ATOM     98  O   UNL     1      -7.901  11.020 -11.403  1.00  0.00    -0.744 OA
ENDBRANCH  91  95
ENDBRANCH  65  88
ENDBRANCH  39  40
ENDBRANCH  31  34
ENDBRANCH  29  30
ENDBRANCH  28  29
ENDBRANCH  27  28
ENDBRANCH   1  27
TORSDOF 19
