REMARK SMILES Cc1ccc(NC(=O)c2cnn3c2NC2=C(C(=O)CCC2)[C@H]3c2ccc(C(=O)NCCCCCCNC(=O)c3ccc(-c4c5nc(c(-c6cc(S(=O)(=O)[O-])ccc6F)c6ccc([nH]6)c(-c6cc(S(=O)(=O)[O-])ccc6F)c6nc(c(-c7cc(S(=O)(=O)[O-])ccc7F)c7ccc4[nH]7)C=C6)C=C5)cc3)cc2)cc1
REMARK SMILES IDX 32 1 31 2 30 3 29 4 27 5 28 6 26 8 23 9 24 10 103 11 25 12
REMARK SMILES IDX 102 13 22 14 9 15 10 16 13 17 11 18 12 19 14 20 15 21 16 23
REMARK SMILES IDX 21 24 17 25 20 26 18 27 19 28 7 29 6 30 8 32 5 33 1 34 2 35
REMARK SMILES IDX 3 36 105 37 4 38 104 39 33 40 34 41 35 42 36 43 37 44 38 46
REMARK SMILES IDX 39 47 40 48 101 49 41 50 100 51 42 52 43 53 44 54 94 55
REMARK SMILES IDX 45 56 99 57 93 58 95 59 46 60 98 61 92 62 91 63 47 65 79 66
REMARK SMILES IDX 59 67 78 68 60 69 63 70 77 71 96 72 61 73 62 74 76 76 97 77
REMARK SMILES IDX 64 78 48 79 49 80 57 81 50 82 56 83 58 84 55 85 51 86 52 87
REMARK SMILES IDX 53 88 54 89 80 90 81 91 89 92 82 93 88 94 90 95 87 96 83 97
REMARK SMILES IDX 84 98 85 99 86 100 65 101 66 102 74 103 67 104 73 105 75 106
REMARK SMILES IDX 72 107 68 108 69 109 70 110 71 111
REMARK H PARENT 29 7 14 22 6 31 36 45 95 64 63 75
REMARK Flexibility Score: inf
ROOT
ATOM      1  C   UNL     1      -0.008  -1.680  -8.267  1.00  0.00     0.002 C 
ENDROOT
BRANCH   1   2
ATOM      2  C   UNL     1      -0.332  -2.087  -6.817  1.00  0.00     0.021 C 
BRANCH   2   3
ATOM      3  C   UNL     1      -1.602  -2.923  -6.628  1.00  0.00     0.116 C 
BRANCH   3   4
ATOM      4  N   UNL     1      -1.424  -4.292  -7.082  1.00  0.00    -0.352 N 
ATOM      5  C   UNL     1      -1.368  -5.511  -6.454  1.00  0.00     0.251 C 
ATOM      6  O   UNL     1      -1.363  -6.510  -7.180  1.00  0.00    -0.269 OA
ATOM      7  H   UNL     1      -1.320  -4.359  -8.059  1.00  0.00     0.163 HD
BRANCH   5   8
ATOM      8  C   UNL     1      -1.384  -5.718  -4.973  1.00  0.00     0.039 A 
ATOM      9  C   UNL     1      -1.790  -6.217  -2.192  1.00  0.00    -0.019 A 
ATOM     10  C   UNL     1      -2.010  -7.226  -3.140  1.00  0.00     0.007 A 
ATOM     11  C   UNL     1      -1.148  -5.048  -2.651  1.00  0.00     0.007 A 
ATOM     12  C   UNL     1      -1.828  -6.969  -4.508  1.00  0.00     0.014 A 
ATOM     13  C   UNL     1      -0.961  -4.793  -4.023  1.00  0.00     0.014 A 
BRANCH   9  14
ATOM     14  C   UNL     1      -2.408  -6.328  -0.758  1.00  0.00     0.175 C 
ATOM     15  C   UNL     1      -3.474  -2.954  -0.252  1.00  0.00     0.102 A 
ATOM     16  C   UNL     1      -2.575  -3.200   0.831  1.00  0.00     0.151 A 
ATOM     17  C   UNL     1      -3.712  -4.216  -0.751  1.00  0.00     0.142 A 
ATOM     18  N   UNL     1      -2.081  -4.442   0.837  1.00  0.00    -0.178 NA
ATOM     19  N   UNL     1      -2.680  -4.984  -0.234  1.00  0.00    -0.237 N 
ATOM     20  N   UNL     1      -4.616  -4.839  -1.573  1.00  0.00    -0.343 N 
ATOM     21  C   UNL     1      -4.774  -6.232  -1.466  1.00  0.00     0.026 C 
ATOM     22  H   UNL     1      -5.144  -4.321  -2.223  1.00  0.00     0.168 HD
ATOM     23  C   UNL     1      -3.800  -6.931  -0.830  1.00  0.00     0.044 C 
ATOM     24  C   UNL     1      -6.111  -6.874  -1.713  1.00  0.00     0.055 C 
ATOM     25  C   UNL     1      -4.316  -7.699   0.336  1.00  0.00     0.163 C 
ATOM     26  C   UNL     1      -6.674  -7.541  -0.454  1.00  0.00     0.014 C 
ATOM     27  O   UNL     1      -3.575  -8.412   1.004  1.00  0.00    -0.294 OA
ATOM     28  C   UNL     1      -5.751  -7.392   0.750  1.00  0.00     0.081 C 
BRANCH  15  29
ATOM     29  C   UNL     1      -4.064  -1.705  -0.671  1.00  0.00     0.261 C 
ATOM     30  N   UNL     1      -3.308  -0.548  -0.615  1.00  0.00    -0.322 N 
ATOM     31  H   UNL     1      -3.839   0.281  -0.639  1.00  0.00     0.170 HD
ATOM     32  O   UNL     1      -5.239  -1.639  -1.037  1.00  0.00    -0.269 OA
BRANCH  30  33
ATOM     33  C   UNL     1      -1.912  -0.338  -0.530  1.00  0.00     0.041 A 
ATOM     34  C   UNL     1       2.317   0.406   0.030  1.00  0.00     0.044 C 
ATOM     35  C   UNL     1       0.851   0.178  -0.206  1.00  0.00    -0.051 A 
ATOM     36  C   UNL     1       0.409  -1.065  -0.657  1.00  0.00     0.005 A 
ATOM     37  C   UNL     1      -0.096   1.175   0.045  1.00  0.00     0.005 A 
ATOM     38  C   UNL     1      -0.955  -1.301  -0.851  1.00  0.00     0.026 A 
ATOM     39  C   UNL     1      -1.465   0.922  -0.124  1.00  0.00     0.026 A 
ENDBRANCH  30  33
ENDBRANCH  15  29
ENDBRANCH   9  14
ENDBRANCH   5   8
ENDBRANCH   3   4
ENDBRANCH   2   3
ENDBRANCH   1   2
BRANCH   1  40
ATOM     40  C   UNL     1      -1.087  -0.907  -9.047  1.00  0.00     0.002 C 
BRANCH  40  41
ATOM     41  C   UNL     1      -1.714   0.291  -8.333  1.00  0.00     0.021 C 
BRANCH  41  42
ATOM     42  C   UNL     1      -0.782   1.487  -8.172  1.00  0.00     0.116 C 
BRANCH  42  43
ATOM     43  N   UNL     1      -0.986   2.548  -9.155  1.00  0.00    -0.352 N 
ATOM     44  C   UNL     1      -0.324   3.758  -9.304  1.00  0.00     0.251 C 
ATOM     45  H   UNL     1      -1.700   2.379  -9.811  1.00  0.00     0.163 HD
ATOM     46  O   UNL     1      -0.710   4.580 -10.118  1.00  0.00    -0.269 OA
BRANCH  44  47
ATOM     47  C   UNL     1       0.920   4.008  -8.533  1.00  0.00     0.039 A 
ATOM     48  C   UNL     1       2.042   4.498  -9.218  1.00  0.00     0.014 A 
ATOM     49  C   UNL     1       1.034   3.590  -7.214  1.00  0.00     0.014 A 
ATOM     50  C   UNL     1       3.311   4.350  -8.656  1.00  0.00     0.010 A 
ATOM     51  C   UNL     1       2.288   3.331  -6.710  1.00  0.00     0.010 A 
ATOM     52  C   UNL     1       3.429   3.668  -7.449  1.00  0.00    -0.014 A 
BRANCH  52  53
ATOM     53  C   UNL     1       4.675   3.159  -6.893  1.00  0.00     0.031 A 
ATOM     54  C   UNL     1       5.191   3.694  -5.614  1.00  0.00     0.074 A 
ATOM     55  C   UNL     1       5.208   2.039  -7.427  1.00  0.00     0.049 A 
ATOM     56  N   UNL     1       6.347   3.418  -5.120  1.00  0.00    -0.248 NA
ATOM     57  C   UNL     1       4.437   4.635  -4.794  1.00  0.00     0.031 C 
ATOM     58  C   UNL     1       6.132   1.106  -6.789  1.00  0.00     0.029 A 
ATOM     59  N   UNL     1       5.189   1.649  -8.765  1.00  0.00    -0.354 N 
ATOM     60  C   UNL     1       6.381   3.880  -3.824  1.00  0.00     0.074 A 
ATOM     61  C   UNL     1       5.196   4.691  -3.695  1.00  0.00     0.031 C 
ATOM     62  C   UNL     1       6.780   0.416  -7.739  1.00  0.00     0.029 A 
ATOM     63  C   UNL     1       6.417   1.005  -9.014  1.00  0.00     0.049 A 
ATOM     64  H   UNL     1       4.459   1.794  -9.410  1.00  0.00     0.167 HD
ATOM     65  C   UNL     1       7.351   3.410  -2.988  1.00  0.00     0.034 A 
ATOM     66  C   UNL     1       7.310   1.521  -9.909  1.00  0.00     0.034 A 
ATOM     67  C   UNL     1       8.315   2.585  -3.719  1.00  0.00     0.049 A 
ATOM     68  C   UNL     1       8.646   1.883  -9.300  1.00  0.00     0.074 A 
ATOM     69  C   UNL     1       8.504   1.217  -3.838  1.00  0.00     0.029 A 
ATOM     70  N   UNL     1       9.101   3.176  -4.701  1.00  0.00    -0.354 N 
ATOM     71  N   UNL     1       8.853   2.045  -8.021  1.00  0.00    -0.248 NA
ATOM     72  C   UNL     1       9.857   2.087 -10.086  1.00  0.00     0.031 C 
ATOM     73  C   UNL     1       9.376   0.990  -4.937  1.00  0.00     0.029 A 
ATOM     74  C   UNL     1       9.740   2.218  -5.462  1.00  0.00     0.049 A 
ATOM     75  H   UNL     1       9.190   4.147  -4.836  1.00  0.00     0.167 HD
ATOM     76  C   UNL     1      10.170   2.369  -7.798  1.00  0.00     0.074 A 
ATOM     77  C   UNL     1      10.758   2.365  -9.126  1.00  0.00     0.031 C 
ATOM     78  C   UNL     1      10.643   2.615  -6.536  1.00  0.00     0.034 A 
BRANCH  65  79
ATOM     79  C   UNL     1       7.316   3.470  -1.473  1.00  0.00     0.023 A 
ATOM     80  C   UNL     1       8.065   2.519  -0.742  1.00  0.00     0.031 A 
ATOM     81  C   UNL     1       6.558   4.358  -0.687  1.00  0.00     0.131 A 
ATOM     82  C   UNL     1       7.974   2.421   0.660  1.00  0.00     0.055 A 
ATOM     83  C   UNL     1       6.438   4.240   0.706  1.00  0.00     0.041 A 
ATOM     84  F   UNL     1       5.936   5.420  -1.208  1.00  0.00    -0.206 F 
ATOM     85  C   UNL     1       7.139   3.260   1.387  1.00  0.00     0.022 A 
BRANCH  82  86
ATOM     86  S   UNL     1       8.956   1.163   1.522  1.00  0.00     0.124 S 
ATOM     87  O   UNL     1       8.441  -0.074   0.945  1.00  0.00    -0.237 OA
ATOM     88  O   UNL     1      10.319   1.531   1.159  1.00  0.00    -0.237 OA
ATOM     89  O   UNL     1       8.614   1.375   2.928  1.00  0.00    -0.744 OA
ENDBRANCH  82  86
ENDBRANCH  65  79
BRANCH  66  90
ATOM     90  C   UNL     1       6.645   2.214 -11.048  1.00  0.00     0.023 A 
ATOM     91  C   UNL     1       5.812   1.428 -11.873  1.00  0.00     0.031 A 
ATOM     92  C   UNL     1       6.454   3.603 -11.054  1.00  0.00     0.131 A 
ATOM     93  C   UNL     1       4.724   2.011 -12.537  1.00  0.00     0.055 A 
ATOM     94  C   UNL     1       5.400   4.187 -11.769  1.00  0.00     0.041 A 
ATOM     95  F   UNL     1       7.191   4.397 -10.262  1.00  0.00    -0.206 F 
ATOM     96  C   UNL     1       4.502   3.387 -12.478  1.00  0.00     0.022 A 
BRANCH  93  97
ATOM     97  S   UNL     1       3.469   0.907 -13.252  1.00  0.00     0.124 S 
ATOM     98  O   UNL     1       4.129   0.446 -14.469  1.00  0.00    -0.237 OA
ATOM     99  O   UNL     1       3.297  -0.093 -12.201  1.00  0.00    -0.237 OA
ATOM    100  O   UNL     1       2.317   1.782 -13.456  1.00  0.00    -0.744 OA
ENDBRANCH  93  97
ENDBRANCH  66  90
BRANCH  78 101
ATOM    101  C   UNL     1      12.004   3.186  -6.157  1.00  0.00     0.023 A 
ATOM    102  C   UNL     1      12.925   3.698  -7.080  1.00  0.00     0.031 A 
ATOM    103  C   UNL     1      12.395   3.297  -4.795  1.00  0.00     0.131 A 
ATOM    104  C   UNL     1      14.168   4.220  -6.667  1.00  0.00     0.055 A 
ATOM    105  C   UNL     1      13.598   3.880  -4.382  1.00  0.00     0.041 A 
ATOM    106  F   UNL     1      11.621   2.856  -3.793  1.00  0.00    -0.206 F 
ATOM    107  C   UNL     1      14.502   4.335  -5.322  1.00  0.00     0.022 A 
BRANCH 104 108
ATOM    108  S   UNL     1      15.364   4.696  -7.943  1.00  0.00     0.124 S 
ATOM    109  O   UNL     1      15.599   3.426  -8.624  1.00  0.00    -0.237 OA
ATOM    110  O   UNL     1      14.623   5.696  -8.706  1.00  0.00    -0.237 OA
ATOM    111  O   UNL     1      16.498   5.211  -7.180  1.00  0.00    -0.744 OA
ENDBRANCH 104 108
ENDBRANCH  78 101
ENDBRANCH  52  53
ENDBRANCH  44  47
ENDBRANCH  42  43
ENDBRANCH  41  42
ENDBRANCH  40  41
ENDBRANCH   1  40
TORSDOF 19
