REMARK SMILES Cc1c(C(=O)Nc2ccc(C(=O)Nc3ccccc3C(=O)NCCCCCCNC(=O)c3ccc(-c4c5nc(c(-c6cc(S(=O)(=O)[O-])ccc6F)c6ccc([nH]6)c(-c6cc(S(=O)(=O)[O-])ccc6F)c6nc(c(-c7cc(S(=O)(=O)[O-])ccc7F)c7ccc4[nH]7)C=C6)C=C5)cc3)cc2)cccc1[N+](=O)[O-]
REMARK SMILES IDX 24 1 23 2 22 3 20 4 21 5 19 7 14 8 15 9 16 10 18 11 17 12
REMARK SMILES IDX 13 13 11 14 12 15 10 17 7 18 8 19 96 20 9 21 95 22 6 23 4 24
REMARK SMILES IDX 5 25 3 27 1 28 2 29 100 30 97 31 99 32 98 33 101 34 102 35
REMARK SMILES IDX 103 36 25 37 26 38 27 39 28 40 29 41 30 42 31 44 32 45 33 46
REMARK SMILES IDX 94 47 34 48 93 49 35 50 36 51 37 52 87 53 38 54 92 55 86 56
REMARK SMILES IDX 88 57 39 58 91 59 85 60 84 61 40 63 72 64 52 65 71 66 53 67
REMARK SMILES IDX 56 68 70 69 89 70 54 71 55 72 69 74 90 75 57 76 41 77 42 78
REMARK SMILES IDX 50 79 43 80 49 81 51 82 48 83 44 84 45 85 46 86 47 87 73 88
REMARK SMILES IDX 74 89 82 90 75 91 81 92 83 93 80 94 76 95 77 96 78 97 79 98
REMARK SMILES IDX 58 99 59 100 67 101 60 102 66 103 68 104 65 105 61 106
REMARK SMILES IDX 62 107 63 108 64 109
REMARK H PARENT 22 6 13 16 6 26 29 43 88 62 56 73
REMARK Flexibility Score: inf
ROOT
ATOM      1  C   UNL     1       3.240  -1.808   3.881  1.00  0.00     0.021 C 
ENDROOT
BRANCH   1   2
ATOM      2  C   UNL     1       3.494  -0.343   4.244  1.00  0.00     0.116 C 
BRANCH   2   3
ATOM      3  N   UNL     1       4.775   0.200   3.831  1.00  0.00    -0.352 N 
ATOM      4  C   UNL     1       5.150   1.480   3.489  1.00  0.00     0.253 C 
ATOM      5  O   UNL     1       6.343   1.728   3.326  1.00  0.00    -0.269 OA
ATOM      6  H   UNL     1       5.503  -0.462   3.788  1.00  0.00     0.163 HD
BRANCH   4   7
ATOM      7  C   UNL     1       4.156   2.570   3.291  1.00  0.00     0.063 A 
ATOM      8  C   UNL     1       4.244   3.456   2.192  1.00  0.00     0.054 A 
ATOM      9  C   UNL     1       3.350   4.537   2.103  1.00  0.00     0.027 A 
ATOM     10  C   UNL     1       2.329   4.697   3.038  1.00  0.00     0.002 A 
ATOM     11  C   UNL     1       3.170   2.796   4.266  1.00  0.00     0.016 A 
ATOM     12  C   UNL     1       2.238   3.827   4.119  1.00  0.00     0.001 A 
BRANCH   8  13
ATOM     13  N   UNL     1       5.117   3.331   1.092  1.00  0.00    -0.321 N 
ATOM     14  C   UNL     1       5.529   2.229   0.369  1.00  0.00     0.255 C 
ATOM     15  O   UNL     1       6.468   2.364  -0.420  1.00  0.00    -0.269 OA
ATOM     16  H   UNL     1       5.503   4.183   0.784  1.00  0.00     0.170 HD
BRANCH  14  17
ATOM     17  C   UNL     1       4.752   0.954   0.348  1.00  0.00     0.040 A 
ATOM     18  C   UNL     1       3.199  -1.355  -0.095  1.00  0.00     0.041 A 
ATOM     19  C   UNL     1       2.688  -0.287   0.625  1.00  0.00     0.027 A 
ATOM     20  C   UNL     1       4.552  -1.341  -0.444  1.00  0.00     0.027 A 
ATOM     21  C   UNL     1       3.418   0.887   0.749  1.00  0.00     0.016 A 
ATOM     22  C   UNL     1       5.326  -0.191  -0.221  1.00  0.00     0.016 A 
BRANCH  18  23
ATOM     23  N   UNL     1       2.385  -2.392  -0.583  1.00  0.00    -0.322 N 
ATOM     24  C   UNL     1       1.024  -2.438  -0.840  1.00  0.00     0.256 C 
ATOM     25  O   UNL     1       0.511  -3.487  -1.223  1.00  0.00    -0.269 OA
ATOM     26  H   UNL     1       2.865  -3.230  -0.775  1.00  0.00     0.170 HD
BRANCH  24  27
ATOM     27  C   UNL     1       0.134  -1.252  -0.680  1.00  0.00     0.049 A 
ATOM     28  C   UNL     1       1.381   0.175  -2.379  1.00  0.00     0.053 C 
ATOM     29  C   UNL     1       0.372   0.010  -1.273  1.00  0.00     0.039 A 
ATOM     30  C   UNL     1      -0.375   1.101  -0.772  1.00  0.00     0.273 A 
ATOM     31  C   UNL     1      -0.972  -1.441   0.169  1.00  0.00     0.014 A 
ATOM     32  C   UNL     1      -1.459   0.914   0.103  1.00  0.00     0.086 A 
ATOM     33  C   UNL     1      -1.786  -0.369   0.530  1.00  0.00     0.008 A 
BRANCH  30  34
ATOM     34  N   UNL     1       0.023   2.489  -1.040  1.00  0.00     0.063 N 
ATOM     35  O   UNL     1      -0.876   3.337  -1.132  1.00  0.00    -0.258 OA
ATOM     36  O   UNL     1       1.235   2.746  -1.080  1.00  0.00    -0.258 OA
ENDBRANCH  30  34
ENDBRANCH  24  27
ENDBRANCH  18  23
ENDBRANCH  14  17
ENDBRANCH   8  13
ENDBRANCH   4   7
ENDBRANCH   2   3
ENDBRANCH   1   2
BRANCH   1  37
ATOM     37  C   UNL     1       4.372  -2.822   4.071  1.00  0.00     0.002 C 
BRANCH  37  38
ATOM     38  C   UNL     1       5.044  -2.899   5.446  1.00  0.00     0.002 C 
BRANCH  38  39
ATOM     39  C   UNL     1       4.123  -2.936   6.662  1.00  0.00     0.021 C 
BRANCH  39  40
ATOM     40  C   UNL     1       3.139  -4.098   6.695  1.00  0.00     0.116 C 
BRANCH  40  41
ATOM     41  N   UNL     1       3.528  -5.191   7.567  1.00  0.00    -0.352 N 
ATOM     42  C   UNL     1       2.800  -6.298   7.967  1.00  0.00     0.251 C 
ATOM     43  H   UNL     1       4.443  -5.137   7.926  1.00  0.00     0.163 HD
ATOM     44  O   UNL     1       3.212  -7.025   8.862  1.00  0.00    -0.269 OA
BRANCH  42  45
ATOM     45  C   UNL     1       1.589  -6.700   7.200  1.00  0.00     0.039 A 
ATOM     46  C   UNL     1       1.485  -8.054   6.850  1.00  0.00     0.014 A 
ATOM     47  C   UNL     1       0.700  -5.778   6.656  1.00  0.00     0.014 A 
ATOM     48  C   UNL     1       0.661  -8.436   5.793  1.00  0.00     0.010 A 
ATOM     49  C   UNL     1      -0.053  -6.134   5.554  1.00  0.00     0.010 A 
ATOM     50  C   UNL     1      -0.023  -7.448   5.087  1.00  0.00    -0.014 A 
BRANCH  50  51
ATOM     51  C   UNL     1      -0.626  -7.673   3.782  1.00  0.00     0.031 A 
ATOM     52  C   UNL     1      -2.079  -7.857   3.640  1.00  0.00     0.074 A 
ATOM     53  C   UNL     1       0.154  -7.676   2.680  1.00  0.00     0.049 A 
ATOM     54  N   UNL     1      -2.628  -8.550   2.702  1.00  0.00    -0.248 NA
ATOM     55  C   UNL     1      -3.040  -7.289   4.577  1.00  0.00     0.031 C 
ATOM     56  C   UNL     1      -0.273  -7.668   1.285  1.00  0.00     0.029 A 
ATOM     57  N   UNL     1       1.518  -7.945   2.627  1.00  0.00    -0.354 N 
ATOM     58  C   UNL     1      -3.976  -8.289   2.726  1.00  0.00     0.074 A 
ATOM     59  C   UNL     1      -4.193  -7.560   3.957  1.00  0.00     0.031 C 
ATOM     60  C   UNL     1       0.714  -8.175   0.530  1.00  0.00     0.029 A 
ATOM     61  C   UNL     1       1.752  -8.644   1.430  1.00  0.00     0.049 A 
ATOM     62  H   UNL     1       2.192  -7.693   3.299  1.00  0.00     0.167 HD
ATOM     63  C   UNL     1      -4.738  -8.585   1.637  1.00  0.00     0.034 A 
ATOM     64  C   UNL     1       2.279  -9.902   1.450  1.00  0.00     0.034 A 
ATOM     65  C   UNL     1      -3.944  -9.182   0.564  1.00  0.00     0.049 A 
ATOM     66  C   UNL     1       1.376 -10.943   0.825  1.00  0.00     0.074 A 
ATOM     67  C   UNL     1      -3.409  -8.671  -0.608  1.00  0.00     0.029 A 
ATOM     68  N   UNL     1      -3.354 -10.427   0.751  1.00  0.00    -0.354 N 
ATOM     69  N   UNL     1       0.108 -10.764   0.572  1.00  0.00    -0.248 NA
ATOM     70  C   UNL     1       1.829 -12.277   0.451  1.00  0.00     0.031 C 
ATOM     71  C   UNL     1      -2.475  -9.612  -1.115  1.00  0.00     0.029 A 
ATOM     72  C   UNL     1      -2.460 -10.704  -0.266  1.00  0.00     0.049 A 
ATOM     73  H   UNL     1      -3.548 -11.029   1.505  1.00  0.00     0.167 HD
ATOM     74  C   UNL     1      -0.430 -11.907   0.027  1.00  0.00     0.074 A 
ATOM     75  C   UNL     1       0.700 -12.819  -0.040  1.00  0.00     0.031 C 
ATOM     76  C   UNL     1      -1.758 -11.984  -0.306  1.00  0.00     0.034 A 
BRANCH  63  77
ATOM     77  C   UNL     1      -6.137  -8.052   1.430  1.00  0.00     0.023 A 
ATOM     78  C   UNL     1      -6.585  -7.763   0.124  1.00  0.00     0.031 A 
ATOM     79  C   UNL     1      -7.058  -7.780   2.459  1.00  0.00     0.131 A 
ATOM     80  C   UNL     1      -7.821  -7.134  -0.107  1.00  0.00     0.055 A 
ATOM     81  C   UNL     1      -8.263  -7.100   2.238  1.00  0.00     0.041 A 
ATOM     82  F   UNL     1      -6.848  -8.201   3.715  1.00  0.00    -0.206 F 
ATOM     83  C   UNL     1      -8.645  -6.758   0.949  1.00  0.00     0.022 A 
BRANCH  80  84
ATOM     84  S   UNL     1      -8.344  -6.818  -1.816  1.00  0.00     0.124 S 
ATOM     85  O   UNL     1      -7.265  -5.974  -2.319  1.00  0.00    -0.237 OA
ATOM     86  O   UNL     1      -8.424  -8.165  -2.368  1.00  0.00    -0.237 OA
ATOM     87  O   UNL     1      -9.630  -6.141  -1.656  1.00  0.00    -0.744 OA
ENDBRANCH  80  84
ENDBRANCH  63  77
BRANCH  64  88
ATOM     88  C   UNL     1       3.223 -10.115   2.588  1.00  0.00     0.023 A 
ATOM     89  C   UNL     1       4.314  -9.220   2.688  1.00  0.00     0.031 A 
ATOM     90  C   UNL     1       2.859 -10.832   3.735  1.00  0.00     0.131 A 
ATOM     91  C   UNL     1       4.873  -8.920   3.938  1.00  0.00     0.055 A 
ATOM     92  C   UNL     1       3.482 -10.592   4.968  1.00  0.00     0.041 A 
ATOM     93  F   UNL     1       1.816 -11.675   3.714  1.00  0.00    -0.206 F 
ATOM     94  C   UNL     1       4.457  -9.598   5.084  1.00  0.00     0.022 A 
BRANCH  91  95
ATOM     95  S   UNL     1       5.919  -7.436   4.097  1.00  0.00     0.124 S 
ATOM     96  O   UNL     1       7.258  -7.989   3.930  1.00  0.00    -0.237 OA
ATOM     97  O   UNL     1       5.444  -6.581   3.010  1.00  0.00    -0.237 OA
ATOM     98  O   UNL     1       5.602  -6.934   5.433  1.00  0.00    -0.744 OA
ENDBRANCH  91  95
ENDBRANCH  64  88
BRANCH  76  99
ATOM     99  C   UNL     1      -2.539 -13.211  -0.767  1.00  0.00     0.023 A 
ATOM    100  C   UNL     1      -2.005 -14.504  -0.856  1.00  0.00     0.031 A 
ATOM    101  C   UNL     1      -3.918 -13.115  -1.104  1.00  0.00     0.131 A 
ATOM    102  C   UNL     1      -2.783 -15.599  -1.287  1.00  0.00     0.055 A 
ATOM    103  C   UNL     1      -4.704 -14.210  -1.481  1.00  0.00     0.041 A 
ATOM    104  F   UNL     1      -4.582 -11.950  -1.073  1.00  0.00    -0.206 F 
ATOM    105  C   UNL     1      -4.135 -15.465  -1.582  1.00  0.00     0.022 A 
BRANCH 102 106
ATOM    106  S   UNL     1      -1.968 -17.206  -1.486  1.00  0.00     0.124 S 
ATOM    107  O   UNL     1      -0.991 -16.922  -2.533  1.00  0.00    -0.237 OA
ATOM    108  O   UNL     1      -1.418 -17.443  -0.155  1.00  0.00    -0.237 OA
ATOM    109  O   UNL     1      -3.055 -18.100  -1.877  1.00  0.00    -0.744 OA
ENDBRANCH 102 106
ENDBRANCH  76  99
ENDBRANCH  50  51
ENDBRANCH  42  45
ENDBRANCH  40  41
ENDBRANCH  39  40
ENDBRANCH  38  39
ENDBRANCH  37  38
ENDBRANCH   1  37
TORSDOF 21
