REMARK SMILES O=C(CCCNC(=O)[C@@H]1CCCN(S(=O)(=O)c2ccc(F)cc2)C1)NCCCCCCNC(=O)c1ccc(-c2c3nc(c(-c4cc(S(=O)(=O)[O-])ccc4F)c4ccc([nH]4)c(-c4cc(S(=O)(=O)[O-])ccc4F)c4nc(c(-c5cc(S(=O)(=O)[O-])ccc5F)c5ccc2[nH]5)C=C4)C=C3)cc1
REMARK SMILES IDX 27 1 26 2 25 3 1 4 2 5 3 7 4 8 5 9 6 10 7 11 8 13 9 14 10 15
REMARK SMILES IDX 24 16 11 17 13 18 12 19 14 20 15 21 16 22 17 23 18 24 23 25
REMARK SMILES IDX 19 26 22 27 20 28 21 29 28 30 29 31 30 32 31 33 32 34 33 35
REMARK SMILES IDX 34 37 35 38 36 39 97 40 37 41 96 42 38 43 39 44 40 45 90 46
REMARK SMILES IDX 41 47 95 48 89 49 91 50 42 51 94 52 88 53 87 54 43 56 75 57
REMARK SMILES IDX 55 58 74 59 56 60 59 61 73 62 92 63 57 64 58 65 72 67 93 68
REMARK SMILES IDX 60 69 44 70 45 71 53 72 46 73 52 74 54 75 51 76 47 77 48 78
REMARK SMILES IDX 49 79 50 80 76 81 77 82 85 83 78 84 84 85 86 86 83 87 79 88
REMARK SMILES IDX 80 89 81 90 82 91 61 92 62 93 70 94 63 95 69 96 71 97 68 98
REMARK SMILES IDX 64 99 65 100 66 101 67 102
REMARK H PARENT 25 6 6 12 32 36 91 55 59 66
REMARK Flexibility Score: inf
ROOT
ATOM      1  C   UNL     1       2.610   3.561   0.236  1.00  0.00     0.021 C 
ENDROOT
BRANCH   1   2
ATOM      2  C   UNL     1       2.058   2.336  -0.493  1.00  0.00     0.116 C 
BRANCH   2   3
ATOM      3  N   UNL     1       2.658   1.109  -0.007  1.00  0.00    -0.356 N 
ATOM      4  O   UNL     1       0.854  -0.250  -0.437  1.00  0.00    -0.275 OA
ATOM      5  C   UNL     1       1.992  -0.093  -0.011  1.00  0.00     0.220 C 
ATOM      6  H   UNL     1       3.578   1.139   0.340  1.00  0.00     0.163 HD
BRANCH   5   7
ATOM      7  C   UNL     1       2.803  -1.239   0.554  1.00  0.00     0.102 C 
BRANCH   7   8
ATOM      8  C   UNL     1       3.687  -1.912  -0.494  1.00  0.00     0.031 C 
BRANCH   8   9
ATOM      9  C   UNL     1       4.835  -1.065  -1.044  1.00  0.00     0.116 C 
BRANCH   9  10
ATOM     10  N   UNL     1       5.719  -0.559  -0.006  1.00  0.00    -0.356 N 
ATOM     11  C   UNL     1       7.059  -0.296  -0.055  1.00  0.00     0.224 C 
ATOM     12  H   UNL     1       5.288  -0.379   0.861  1.00  0.00     0.163 HD
ATOM     13  O   UNL     1       7.545   0.311   0.897  1.00  0.00    -0.275 OA
BRANCH  11  14
ATOM     14  C   UNL     1       7.888  -0.839  -1.213  1.00  0.00     0.093 C 
ATOM     15  C   UNL     1       8.313  -2.278  -0.920  1.00  0.00     0.016 C 
ATOM     16  C   UNL     1       9.079   0.060  -1.553  1.00  0.00     0.116 C 
ATOM     17  C   UNL     1       9.459  -2.323   0.083  1.00  0.00     0.018 C 
ATOM     18  N   UNL     1      10.251  -0.080  -0.630  1.00  0.00    -0.197 NA
ATOM     19  C   UNL     1      10.644  -1.494  -0.397  1.00  0.00     0.102 C 
BRANCH  18  20
ATOM     20  S   UNL     1      11.549   0.943  -1.134  1.00  0.00     0.243 S 
ATOM     21  O   UNL     1      12.285   0.232  -2.159  1.00  0.00    -0.207 OA
ATOM     22  O   UNL     1      11.006   2.259  -1.397  1.00  0.00    -0.207 OA
BRANCH  20  23
ATOM     23  C   UNL     1      12.604   1.076   0.294  1.00  0.00     0.082 A 
ATOM     24  C   UNL     1      13.577   0.096   0.529  1.00  0.00     0.025 A 
ATOM     25  C   UNL     1      12.548   2.226   1.092  1.00  0.00     0.025 A 
ATOM     26  C   UNL     1      14.457   0.241   1.601  1.00  0.00     0.040 A 
ATOM     27  C   UNL     1      13.448   2.375   2.150  1.00  0.00     0.040 A 
ATOM     28  C   UNL     1      14.387   1.378   2.400  1.00  0.00     0.123 A 
ATOM     29  F   UNL     1      15.249   1.522   3.415  1.00  0.00    -0.207 F 
ENDBRANCH  20  23
ENDBRANCH  18  20
ENDBRANCH  11  14
ENDBRANCH   9  10
ENDBRANCH   8   9
ENDBRANCH   7   8
ENDBRANCH   5   7
ENDBRANCH   2   3
ENDBRANCH   1   2
BRANCH   1  30
ATOM     30  C   UNL     1       4.117   3.801   0.062  1.00  0.00     0.002 C 
BRANCH  30  31
ATOM     31  C   UNL     1       4.588   4.024  -1.378  1.00  0.00     0.002 C 
BRANCH  31  32
ATOM     32  C   UNL     1       3.934   5.200  -2.109  1.00  0.00     0.021 C 
BRANCH  32  33
ATOM     33  C   UNL     1       4.047   6.555  -1.412  1.00  0.00     0.116 C 
BRANCH  33  34
ATOM     34  N   UNL     1       5.422   6.999  -1.258  1.00  0.00    -0.352 N 
ATOM     35  C   UNL     1       5.968   8.238  -1.499  1.00  0.00     0.251 C 
ATOM     36  H   UNL     1       6.052   6.316  -0.934  1.00  0.00     0.163 HD
ATOM     37  O   UNL     1       7.185   8.390  -1.430  1.00  0.00    -0.269 OA
BRANCH  35  38
ATOM     38  C   UNL     1       5.098   9.376  -1.876  1.00  0.00     0.039 A 
ATOM     39  C   UNL     1       5.469  10.172  -2.963  1.00  0.00     0.014 A 
ATOM     40  C   UNL     1       3.926   9.659  -1.169  1.00  0.00     0.014 A 
ATOM     41  C   UNL     1       4.625  11.202  -3.389  1.00  0.00     0.010 A 
ATOM     42  C   UNL     1       3.060  10.653  -1.627  1.00  0.00     0.010 A 
ATOM     43  C   UNL     1       3.394  11.424  -2.752  1.00  0.00    -0.014 A 
BRANCH  43  44
ATOM     44  C   UNL     1       2.430  12.431  -3.269  1.00  0.00     0.031 A 
ATOM     45  C   UNL     1       2.090  13.650  -2.456  1.00  0.00     0.074 A 
ATOM     46  C   UNL     1       1.823  12.221  -4.456  1.00  0.00     0.049 A 
ATOM     47  N   UNL     1       1.201  14.579  -2.697  1.00  0.00    -0.248 NA
ATOM     48  C   UNL     1       2.833  13.841  -1.201  1.00  0.00     0.031 C 
ATOM     49  C   UNL     1       2.058  11.072  -5.333  1.00  0.00     0.029 A 
ATOM     50  N   UNL     1       0.884  12.962  -5.129  1.00  0.00    -0.354 N 
ATOM     51  C   UNL     1       1.271  15.460  -1.625  1.00  0.00     0.074 A 
ATOM     52  C   UNL     1       2.265  14.935  -0.713  1.00  0.00     0.031 C 
ATOM     53  C   UNL     1       1.306  11.199  -6.438  1.00  0.00     0.029 A 
ATOM     54  C   UNL     1       0.499  12.411  -6.330  1.00  0.00     0.049 A 
ATOM     55  H   UNL     1       0.519  13.809  -4.785  1.00  0.00     0.167 HD
ATOM     56  C   UNL     1       0.580  16.609  -1.428  1.00  0.00     0.034 A 
ATOM     57  C   UNL     1      -0.409  12.824  -7.237  1.00  0.00     0.034 A 
ATOM     58  C   UNL     1      -0.394  17.138  -2.349  1.00  0.00     0.049 A 
ATOM     59  C   UNL     1      -1.180  14.092  -6.980  1.00  0.00     0.074 A 
ATOM     60  C   UNL     1      -1.131  18.306  -2.243  1.00  0.00     0.029 A 
ATOM     61  N   UNL     1      -0.761  16.544  -3.547  1.00  0.00    -0.354 N 
ATOM     62  N   UNL     1      -1.115  14.899  -5.947  1.00  0.00    -0.248 NA
ATOM     63  C   UNL     1      -2.145  14.506  -8.008  1.00  0.00     0.031 C 
ATOM     64  C   UNL     1      -1.974  18.396  -3.354  1.00  0.00     0.029 A 
ATOM     65  C   UNL     1      -1.721  17.316  -4.183  1.00  0.00     0.049 A 
ATOM     66  H   UNL     1      -0.394  15.700  -3.895  1.00  0.00     0.167 HD
ATOM     67  C   UNL     1      -2.009  15.930  -6.217  1.00  0.00     0.074 A 
ATOM     68  C   UNL     1      -2.602  15.645  -7.506  1.00  0.00     0.031 C 
ATOM     69  C   UNL     1      -2.305  17.019  -5.466  1.00  0.00     0.034 A 
BRANCH  56  70
ATOM     70  C   UNL     1       0.838  17.374  -0.159  1.00  0.00     0.023 A 
ATOM     71  C   UNL     1       2.039  18.075   0.041  1.00  0.00     0.031 A 
ATOM     72  C   UNL     1      -0.149  17.446   0.839  1.00  0.00     0.131 A 
ATOM     73  C   UNL     1       2.234  18.797   1.227  1.00  0.00     0.055 A 
ATOM     74  C   UNL     1       0.029  18.211   1.992  1.00  0.00     0.041 A 
ATOM     75  F   UNL     1      -1.308  16.783   0.701  1.00  0.00    -0.206 F 
ATOM     76  C   UNL     1       1.228  18.890   2.193  1.00  0.00     0.022 A 
BRANCH  73  77
ATOM     77  S   UNL     1       3.841  19.584   1.516  1.00  0.00     0.124 S 
ATOM     78  O   UNL     1       4.705  18.423   1.712  1.00  0.00    -0.237 OA
ATOM     79  O   UNL     1       4.055  20.338   0.286  1.00  0.00    -0.237 OA
ATOM     80  O   UNL     1       3.614  20.395   2.711  1.00  0.00    -0.744 OA
ENDBRANCH  73  77
ENDBRANCH  56  70
BRANCH  57  81
ATOM     81  C   UNL     1      -0.652  12.028  -8.471  1.00  0.00     0.023 A 
ATOM     82  C   UNL     1      -0.286  12.523  -9.732  1.00  0.00     0.031 A 
ATOM     83  C   UNL     1      -1.277  10.770  -8.409  1.00  0.00     0.131 A 
ATOM     84  C   UNL     1      -0.577  11.780 -10.886  1.00  0.00     0.055 A 
ATOM     85  C   UNL     1      -1.527  10.015  -9.556  1.00  0.00     0.041 A 
ATOM     86  F   UNL     1      -1.639  10.250  -7.225  1.00  0.00    -0.206 F 
ATOM     87  C   UNL     1      -1.184  10.524 -10.805  1.00  0.00     0.022 A 
BRANCH  84  88
ATOM     88  S   UNL     1      -0.194  12.500 -12.505  1.00  0.00     0.124 S 
ATOM     89  O   UNL     1      -1.050  13.681 -12.514  1.00  0.00    -0.237 OA
ATOM     90  O   UNL     1       1.240  12.747 -12.397  1.00  0.00    -0.237 OA
ATOM     91  O   UNL     1      -0.573  11.446 -13.444  1.00  0.00    -0.744 OA
ENDBRANCH  84  88
ENDBRANCH  57  81
BRANCH  69  92
ATOM     92  C   UNL     1      -3.277  18.013  -6.041  1.00  0.00     0.023 A 
ATOM     93  C   UNL     1      -4.653  17.742  -6.112  1.00  0.00     0.031 A 
ATOM     94  C   UNL     1      -2.818  19.265  -6.486  1.00  0.00     0.131 A 
ATOM     95  C   UNL     1      -5.524  18.704  -6.645  1.00  0.00     0.055 A 
ATOM     96  C   UNL     1      -3.693  20.233  -6.977  1.00  0.00     0.041 A 
ATOM     97  F   UNL     1      -1.512  19.570  -6.434  1.00  0.00    -0.206 F 
ATOM     98  C   UNL     1      -5.054  19.953  -7.063  1.00  0.00     0.022 A 
BRANCH  95  99
ATOM     99  S   UNL     1      -7.282  18.295  -6.811  1.00  0.00     0.124 S 
ATOM    100  O   UNL     1      -7.252  17.228  -7.807  1.00  0.00    -0.237 OA
ATOM    101  O   UNL     1      -7.643  17.890  -5.456  1.00  0.00    -0.237 OA
ATOM    102  O   UNL     1      -7.886  19.548  -7.262  1.00  0.00    -0.744 OA
ENDBRANCH  95  99
ENDBRANCH  69  92
ENDBRANCH  43  44
ENDBRANCH  35  38
ENDBRANCH  33  34
ENDBRANCH  32  33
ENDBRANCH  31  32
ENDBRANCH  30  31
ENDBRANCH   1  30
TORSDOF 22
