REMARK SMILES Cc1cc(F)c(C(=O)NCCCCCCNC(=O)c2ccc(-c3c4nc(c(-c5cc(S(=O)(=O)[O-])ccc5F)c5ccc([nH]5)c(-c5cc(S(=O)(=O)[O-])ccc5F)c5nc(c(-c6cc(S(=O)(=O)[O-])ccc6F)c6ccc3[nH]6)C=C5)C=C4)cc2)cc1F
REMARK SMILES IDX 14 1 13 2 12 3 11 4 10 5 9 6 7 7 8 8 6 10 1 11 2 12 3 13
REMARK SMILES IDX 83 14 4 15 82 16 84 17 5 18 15 19 16 20 17 21 18 23 19 24
REMARK SMILES IDX 20 25 81 26 21 27 80 28 22 29 23 30 24 31 74 32 25 33 79 34
REMARK SMILES IDX 73 35 75 36 26 37 78 38 72 39 71 40 27 42 59 43 39 44 58 45
REMARK SMILES IDX 40 46 43 47 57 48 76 49 41 50 42 51 56 53 77 54 44 55 28 56
REMARK SMILES IDX 29 57 37 58 30 59 36 60 38 61 35 62 31 63 32 64 33 65 34 66
REMARK SMILES IDX 60 67 61 68 69 69 62 70 68 71 70 72 67 73 63 74 64 75 65 76
REMARK SMILES IDX 66 77 45 78 46 79 54 80 47 81 53 82 55 83 52 84 48 85 49 86
REMARK SMILES IDX 50 87 51 88
REMARK H PARENT 9 9 16 22 75 41 43 52
REMARK Flexibility Score: inf
ROOT
ATOM      1  C   UNL     1      -3.812  -0.284   8.119  1.00  0.00     0.021 C 
ENDROOT
BRANCH   1   2
ATOM      2  C   UNL     1      -3.643  -1.793   7.948  1.00  0.00     0.002 C 
BRANCH   2   3
ATOM      3  C   UNL     1      -4.205  -2.413   6.667  1.00  0.00     0.002 C 
BRANCH   3   4
ATOM      4  C   UNL     1      -3.806  -1.764   5.338  1.00  0.00     0.021 C 
BRANCH   4   5
ATOM      5  C   UNL     1      -2.316  -1.550   5.086  1.00  0.00     0.116 C 
BRANCH   5   6
ATOM      6  N   UNL     1      -1.531  -2.770   5.130  1.00  0.00    -0.352 N 
ATOM      7  C   UNL     1      -0.487  -3.193   4.343  1.00  0.00     0.254 C 
ATOM      8  O   UNL     1       0.050  -4.269   4.599  1.00  0.00    -0.269 OA
ATOM      9  H   UNL     1      -1.790  -3.398   5.842  1.00  0.00     0.163 HD
BRANCH   7  10
ATOM     10  C   UNL     1      -0.003  -2.390   3.198  1.00  0.00     0.078 A 
ATOM     11  C   UNL     1       1.320  -0.146  -0.244  1.00  0.00     0.047 C 
ATOM     12  C   UNL     1       0.872  -0.933   0.949  1.00  0.00    -0.012 A 
ATOM     13  C   UNL     1       0.746  -2.325   0.885  1.00  0.00     0.046 A 
ATOM     14  C   UNL     1       0.620  -0.298   2.169  1.00  0.00     0.127 A 
ATOM     15  C   UNL     1       0.304  -3.041   2.000  1.00  0.00     0.136 A 
ATOM     16  C   UNL     1       0.206  -1.011   3.292  1.00  0.00     0.056 A 
ATOM     17  F   UNL     1       0.767   1.029   2.270  1.00  0.00    -0.207 F 
ATOM     18  F   UNL     1       0.159  -4.368   1.872  1.00  0.00    -0.206 F 
ENDBRANCH   7  10
ENDBRANCH   5   6
ENDBRANCH   4   5
ENDBRANCH   3   4
ENDBRANCH   2   3
ENDBRANCH   1   2
BRANCH   1  19
ATOM     19  C   UNL     1      -5.222   0.266   7.940  1.00  0.00     0.116 C 
BRANCH  19  20
ATOM     20  N   UNL     1      -6.170  -0.212   8.931  1.00  0.00    -0.352 N 
ATOM     21  C   UNL     1      -7.064   0.503   9.700  1.00  0.00     0.251 C 
ATOM     22  H   UNL     1      -6.176  -1.187   9.073  1.00  0.00     0.163 HD
ATOM     23  O   UNL     1      -7.737  -0.073  10.547  1.00  0.00    -0.269 OA
BRANCH  21  24
ATOM     24  C   UNL     1      -7.168   1.973   9.536  1.00  0.00     0.039 A 
ATOM     25  C   UNL     1      -7.245   2.557   8.270  1.00  0.00     0.014 A 
ATOM     26  C   UNL     1      -7.143   2.783  10.676  1.00  0.00     0.014 A 
ATOM     27  C   UNL     1      -7.110   3.937   8.136  1.00  0.00     0.010 A 
ATOM     28  C   UNL     1      -7.089   4.174  10.541  1.00  0.00     0.010 A 
ATOM     29  C   UNL     1      -7.011   4.761   9.269  1.00  0.00    -0.014 A 
BRANCH  29  30
ATOM     30  C   UNL     1      -6.805   6.226   9.105  1.00  0.00     0.031 A 
ATOM     31  C   UNL     1      -5.529   6.879   9.569  1.00  0.00     0.074 A 
ATOM     32  C   UNL     1      -7.752   6.965   8.494  1.00  0.00     0.049 A 
ATOM     33  N   UNL     1      -5.172   8.136   9.492  1.00  0.00    -0.248 NA
ATOM     34  C   UNL     1      -4.522   6.011  10.201  1.00  0.00     0.031 C 
ATOM     35  C   UNL     1      -9.022   6.442   7.992  1.00  0.00     0.029 A 
ATOM     36  N   UNL     1      -7.791   8.300   8.174  1.00  0.00    -0.354 N 
ATOM     37  C   UNL     1      -3.913   8.214  10.078  1.00  0.00     0.074 A 
ATOM     38  C   UNL     1      -3.580   6.883  10.536  1.00  0.00     0.031 C 
ATOM     39  C   UNL     1      -9.695   7.431   7.388  1.00  0.00     0.029 A 
ATOM     40  C   UNL     1      -8.940   8.675   7.516  1.00  0.00     0.049 A 
ATOM     41  H   UNL     1      -7.066   8.928   8.395  1.00  0.00     0.167 HD
ATOM     42  C   UNL     1      -3.102   9.292  10.206  1.00  0.00     0.034 A 
ATOM     43  C   UNL     1      -9.350   9.883   7.076  1.00  0.00     0.034 A 
ATOM     44  C   UNL     1      -3.435  10.610   9.727  1.00  0.00     0.049 A 
ATOM     45  C   UNL     1      -8.446  11.074   7.262  1.00  0.00     0.074 A 
ATOM     46  C   UNL     1      -2.667  11.759   9.789  1.00  0.00     0.029 A 
ATOM     47  N   UNL     1      -4.621  10.957   9.097  1.00  0.00    -0.354 N 
ATOM     48  N   UNL     1      -7.242  11.120   7.782  1.00  0.00    -0.248 NA
ATOM     49  C   UNL     1      -8.950  12.377   6.806  1.00  0.00     0.031 C 
ATOM     50  C   UNL     1      -3.408  12.811   9.248  1.00  0.00     0.029 A 
ATOM     51  C   UNL     1      -4.614  12.308   8.787  1.00  0.00     0.049 A 
ATOM     52  H   UNL     1      -5.359  10.336   8.899  1.00  0.00     0.167 HD
ATOM     53  C   UNL     1      -6.839  12.450   7.700  1.00  0.00     0.074 A 
ATOM     54  C   UNL     1      -7.916  13.171   7.055  1.00  0.00     0.031 C 
ATOM     55  C   UNL     1      -5.685  13.020   8.130  1.00  0.00     0.034 A 
BRANCH  42  56
ATOM     56  C   UNL     1      -1.761   9.114  10.874  1.00  0.00     0.023 A 
ATOM     57  C   UNL     1      -1.478   9.785  12.079  1.00  0.00     0.031 A 
ATOM     58  C   UNL     1      -0.725   8.391  10.258  1.00  0.00     0.131 A 
ATOM     59  C   UNL     1      -0.184   9.745  12.613  1.00  0.00     0.055 A 
ATOM     60  C   UNL     1       0.554   8.322  10.813  1.00  0.00     0.041 A 
ATOM     61  F   UNL     1      -0.944   7.733   9.107  1.00  0.00    -0.206 F 
ATOM     62  C   UNL     1       0.832   9.012  11.989  1.00  0.00     0.022 A 
BRANCH  59  63
ATOM     63  S   UNL     1       0.251  10.688  14.100  1.00  0.00     0.124 S 
ATOM     64  O   UNL     1       0.696   9.630  15.005  1.00  0.00    -0.237 OA
ATOM     65  O   UNL     1       1.305  11.569  13.605  1.00  0.00    -0.237 OA
ATOM     66  O   UNL     1      -0.996  11.344  14.477  1.00  0.00    -0.744 OA
ENDBRANCH  59  63
ENDBRANCH  42  56
BRANCH  43  67
ATOM     67  C   UNL     1     -10.665   9.991   6.379  1.00  0.00     0.023 A 
ATOM     68  C   UNL     1     -11.862   9.646   7.035  1.00  0.00     0.031 A 
ATOM     69  C   UNL     1     -10.732  10.327   5.017  1.00  0.00     0.131 A 
ATOM     70  C   UNL     1     -13.057   9.567   6.309  1.00  0.00     0.055 A 
ATOM     71  C   UNL     1     -11.939  10.320   4.315  1.00  0.00     0.041 A 
ATOM     72  F   UNL     1      -9.617  10.652   4.345  1.00  0.00    -0.206 F 
ATOM     73  C   UNL     1     -13.107   9.918   4.957  1.00  0.00     0.022 A 
BRANCH  70  74
ATOM     74  S   UNL     1     -14.553   8.864   7.059  1.00  0.00     0.124 S 
ATOM     75  O   UNL     1     -15.485   9.983   6.984  1.00  0.00    -0.237 OA
ATOM     76  O   UNL     1     -14.836   7.744   6.163  1.00  0.00    -0.237 OA
ATOM     77  O   UNL     1     -14.121   8.488   8.401  1.00  0.00    -0.744 OA
ENDBRANCH  70  74
ENDBRANCH  43  67
BRANCH  55  78
ATOM     78  C   UNL     1      -5.492  14.503   7.928  1.00  0.00     0.023 A 
ATOM     79  C   UNL     1      -4.448  14.973   7.107  1.00  0.00     0.031 A 
ATOM     80  C   UNL     1      -6.231  15.442   8.667  1.00  0.00     0.131 A 
ATOM     81  C   UNL     1      -4.145  16.340   7.079  1.00  0.00     0.055 A 
ATOM     82  C   UNL     1      -5.954  16.808   8.600  1.00  0.00     0.041 A 
ATOM     83  F   UNL     1      -7.229  15.043   9.472  1.00  0.00    -0.206 F 
ATOM     84  C   UNL     1      -4.897  17.261   7.816  1.00  0.00     0.022 A 
BRANCH  81  85
ATOM     85  S   UNL     1      -2.710  16.963   6.159  1.00  0.00     0.124 S 
ATOM     86  O   UNL     1      -3.337  17.868   5.199  1.00  0.00    -0.237 OA
ATOM     87  O   UNL     1      -1.929  17.611   7.209  1.00  0.00    -0.237 OA
ATOM     88  O   UNL     1      -2.112  15.763   5.583  1.00  0.00    -0.744 OA
ENDBRANCH  81  85
ENDBRANCH  55  78
ENDBRANCH  29  30
ENDBRANCH  21  24
ENDBRANCH  19  20
ENDBRANCH   1  19
TORSDOF 16
