REMARK SMILES O=C(NCCCCCCNC(=O)[C@H]1CC2(CCN(C(=O)c3cc4ccccc4[nH]3)CC2)CN1C(=O)C1CC1)c1ccc(-c2c3nc(c(-c4cc(S(=O)(=O)[O-])ccc4F)c4ccc([nH]4)c(-c4cc(S(=O)(=O)[O-])ccc4F)c4nc(c(-c5cc(S(=O)(=O)[O-])ccc5F)c5ccc2[nH]5)C=C4)C=C3)cc1
REMARK SMILES IDX 6 1 5 2 4 3 3 4 1 5 2 6 39 8 40 9 101 10 41 11 100 12 42 13
REMARK SMILES IDX 43 14 44 15 94 16 45 17 99 18 93 19 95 20 46 21 98 22 92 23
REMARK SMILES IDX 91 24 47 26 79 27 59 28 78 29 60 30 63 31 77 32 96 33 61 34
REMARK SMILES IDX 62 35 76 37 97 38 64 39 48 40 49 41 57 42 50 43 56 44 58 45
REMARK SMILES IDX 55 46 51 47 52 48 53 49 54 50 80 51 81 52 89 53 82 54 88 55
REMARK SMILES IDX 90 56 87 57 83 58 84 59 85 60 86 61 65 62 66 63 74 64 67 65
REMARK SMILES IDX 73 66 75 67 72 68 68 69 69 70 70 71 71 72 7 73 8 74 9 75
REMARK SMILES IDX 10 76 11 77 12 79 13 80 14 81 33 82 15 83 32 84 16 85 31 86
REMARK SMILES IDX 17 87 30 88 18 89 19 90 20 91 34 92 35 93 36 94 37 95 38 96
REMARK SMILES IDX 21 97 22 98 29 99 23 100 28 101 24 103 27 104 25 105 26 106
REMARK H PARENT 3 7 95 25 63 36 10 78 29 102
REMARK Flexibility Score: inf
ROOT
ATOM      1  C   UNL     1       6.040   8.891   3.811  1.00  0.00     0.002 C 
ENDROOT
BRANCH   1   2
ATOM      2  C   UNL     1       4.752   9.293   4.530  1.00  0.00     0.021 C 
BRANCH   2   3
ATOM      3  C   UNL     1       4.870  10.523   5.424  1.00  0.00     0.116 C 
BRANCH   3   4
ATOM      4  N   UNL     1       5.092  11.742   4.666  1.00  0.00    -0.352 N 
ATOM      5  O   UNL     1       4.701  13.897   4.101  1.00  0.00    -0.269 OA
ATOM      6  C   UNL     1       4.545  12.980   4.902  1.00  0.00     0.251 C 
ATOM      7  H   UNL     1       5.703  11.674   3.897  1.00  0.00     0.163 HD
BRANCH   6   8
ATOM      8  C   UNL     1       3.747  13.182   6.129  1.00  0.00     0.039 A 
ATOM      9  C   UNL     1       4.288  12.870   7.381  1.00  0.00     0.014 A 
ATOM     10  C   UNL     1       2.446  13.680   6.020  1.00  0.00     0.014 A 
ATOM     11  C   UNL     1       3.503  12.996   8.524  1.00  0.00     0.010 A 
ATOM     12  C   UNL     1       1.675  13.845   7.172  1.00  0.00     0.010 A 
ATOM     13  C   UNL     1       2.196  13.501   8.430  1.00  0.00    -0.014 A 
BRANCH  13  14
ATOM     14  C   UNL     1       1.419  13.776   9.663  1.00  0.00     0.031 A 
ATOM     15  C   UNL     1       0.213  12.957  10.021  1.00  0.00     0.074 A 
ATOM     16  C   UNL     1       1.799  14.811  10.436  1.00  0.00     0.049 A 
ATOM     17  N   UNL     1      -0.614  13.107  11.023  1.00  0.00    -0.248 NA
ATOM     18  C   UNL     1      -0.111  11.829   9.135  1.00  0.00     0.031 C 
ATOM     19  C   UNL     1       2.950  15.680  10.168  1.00  0.00     0.029 A 
ATOM     20  N   UNL     1       1.259  15.322  11.587  1.00  0.00    -0.354 N 
ATOM     21  C   UNL     1      -1.568  12.105  10.885  1.00  0.00     0.074 A 
ATOM     22  C   UNL     1      -1.223  11.362   9.690  1.00  0.00     0.031 C 
ATOM     23  C   UNL     1       3.026  16.616  11.125  1.00  0.00     0.029 A 
ATOM     24  C   UNL     1       1.903  16.449  12.040  1.00  0.00     0.049 A 
ATOM     25  H   UNL     1       0.485  14.921  12.045  1.00  0.00     0.167 HD
ATOM     26  C   UNL     1      -2.630  11.838  11.685  1.00  0.00     0.034 A 
ATOM     27  C   UNL     1       1.601  17.282  13.053  1.00  0.00     0.034 A 
ATOM     28  C   UNL     1      -2.948  12.588  12.876  1.00  0.00     0.049 A 
ATOM     29  C   UNL     1       0.388  16.990  13.892  1.00  0.00     0.074 A 
ATOM     30  C   UNL     1      -3.938  12.341  13.812  1.00  0.00     0.029 A 
ATOM     31  N   UNL     1      -2.299  13.745  13.284  1.00  0.00    -0.354 N 
ATOM     32  N   UNL     1      -0.468  16.002  13.783  1.00  0.00    -0.248 NA
ATOM     33  C   UNL     1       0.100  17.926  14.985  1.00  0.00     0.031 C 
ATOM     34  C   UNL     1      -3.928  13.383  14.748  1.00  0.00     0.029 A 
ATOM     35  C   UNL     1      -2.897  14.251  14.429  1.00  0.00     0.049 A 
ATOM     36  H   UNL     1      -1.526  14.149  12.827  1.00  0.00     0.167 HD
ATOM     37  C   UNL     1      -1.396  16.194  14.800  1.00  0.00     0.074 A 
ATOM     38  C   UNL     1      -0.983  17.381  15.522  1.00  0.00     0.031 C 
ATOM     39  C   UNL     1      -2.490  15.455  15.111  1.00  0.00     0.034 A 
BRANCH  26  40
ATOM     40  C   UNL     1      -3.552  10.718  11.276  1.00  0.00     0.023 A 
ATOM     41  C   UNL     1      -3.149   9.373  11.312  1.00  0.00     0.031 A 
ATOM     42  C   UNL     1      -4.863  11.006  10.855  1.00  0.00     0.131 A 
ATOM     43  C   UNL     1      -4.034   8.367  10.890  1.00  0.00     0.055 A 
ATOM     44  C   UNL     1      -5.757   9.998  10.491  1.00  0.00     0.041 A 
ATOM     45  F   UNL     1      -5.293  12.276  10.786  1.00  0.00    -0.206 F 
ATOM     46  C   UNL     1      -5.341   8.669  10.499  1.00  0.00     0.022 A 
BRANCH  43  47
ATOM     47  S   UNL     1      -3.423   6.664  10.768  1.00  0.00     0.124 S 
ATOM     48  O   UNL     1      -2.334   6.807   9.805  1.00  0.00    -0.237 OA
ATOM     49  O   UNL     1      -3.025   6.372  12.141  1.00  0.00    -0.237 OA
ATOM     50  O   UNL     1      -4.581   5.916  10.282  1.00  0.00    -0.744 OA
ENDBRANCH  43  47
ENDBRANCH  26  40
BRANCH  27  51
ATOM     51  C   UNL     1       2.421  18.503  13.284  1.00  0.00     0.023 A 
ATOM     52  C   UNL     1       3.197  18.648  14.442  1.00  0.00     0.031 A 
ATOM     53  C   UNL     1       2.423  19.551  12.345  1.00  0.00     0.131 A 
ATOM     54  C   UNL     1       3.924  19.831  14.647  1.00  0.00     0.055 A 
ATOM     55  C   UNL     1       3.182  20.706  12.533  1.00  0.00     0.041 A 
ATOM     56  F   UNL     1       1.700  19.454  11.218  1.00  0.00    -0.206 F 
ATOM     57  C   UNL     1       3.931  20.855  13.696  1.00  0.00     0.022 A 
BRANCH  54  58
ATOM     58  S   UNL     1       4.812  20.043  16.214  1.00  0.00     0.124 S 
ATOM     59  O   UNL     1       3.748  19.842  17.191  1.00  0.00    -0.237 OA
ATOM     60  O   UNL     1       5.817  18.988  16.135  1.00  0.00    -0.237 OA
ATOM     61  O   UNL     1       5.332  21.406  16.129  1.00  0.00    -0.744 OA
ENDBRANCH  54  58
ENDBRANCH  27  51
BRANCH  39  62
ATOM     62  C   UNL     1      -3.297  15.919  16.293  1.00  0.00     0.023 A 
ATOM     63  C   UNL     1      -4.083  17.083  16.226  1.00  0.00     0.031 A 
ATOM     64  C   UNL     1      -3.256  15.210  17.505  1.00  0.00     0.131 A 
ATOM     65  C   UNL     1      -4.761  17.531  17.369  1.00  0.00     0.055 A 
ATOM     66  C   UNL     1      -3.971  15.635  18.625  1.00  0.00     0.041 A 
ATOM     67  F   UNL     1      -2.517  14.095  17.619  1.00  0.00    -0.206 F 
ATOM     68  C   UNL     1      -4.721  16.807  18.564  1.00  0.00     0.022 A 
BRANCH  65  69
ATOM     69  S   UNL     1      -5.647  19.111  17.293  1.00  0.00     0.124 S 
ATOM     70  O   UNL     1      -4.560  20.056  17.056  1.00  0.00    -0.237 OA
ATOM     71  O   UNL     1      -6.566  18.904  16.178  1.00  0.00    -0.237 OA
ATOM     72  O   UNL     1      -6.282  19.211  18.606  1.00  0.00    -0.744 OA
ENDBRANCH  65  69
ENDBRANCH  39  62
ENDBRANCH  13  14
ENDBRANCH   6   8
ENDBRANCH   3   4
ENDBRANCH   2   3
ENDBRANCH   1   2
BRANCH   1  73
ATOM     73  C   UNL     1       7.256   8.672   4.715  1.00  0.00     0.002 C 
BRANCH  73  74
ATOM     74  C   UNL     1       7.066   7.647   5.844  1.00  0.00     0.021 C 
BRANCH  74  75
ATOM     75  C   UNL     1       6.788   6.219   5.370  1.00  0.00     0.116 C 
BRANCH  75  76
ATOM     76  N   UNL     1       7.805   5.720   4.453  1.00  0.00    -0.354 N 
ATOM     77  C   UNL     1       8.898   4.919   4.649  1.00  0.00     0.242 C 
ATOM     78  H   UNL     1       7.685   6.014   3.521  1.00  0.00     0.163 HD
ATOM     79  O   UNL     1       9.606   4.680   3.668  1.00  0.00    -0.273 OA
BRANCH  77  80
ATOM     80  C   UNL     1       9.169   4.314   6.042  1.00  0.00     0.175 C 
ATOM     81  C   UNL     1       9.282   2.784   5.800  1.00  0.00     0.044 C 
ATOM     82  N   UNL     1      10.337   4.505   6.913  1.00  0.00    -0.330 N 
ATOM     83  C   UNL     1       9.790   2.185   7.133  1.00  0.00    -0.006 C 
ATOM     84  C   UNL     1      10.295   3.422   7.892  1.00  0.00     0.127 C 
ATOM     85  C   UNL     1      10.977   1.212   6.945  1.00  0.00     0.030 C 
ATOM     86  C   UNL     1       8.645   1.458   7.871  1.00  0.00     0.030 C 
ATOM     87  C   UNL     1      10.565  -0.104   6.304  1.00  0.00     0.120 C 
ATOM     88  C   UNL     1       8.290   0.111   7.224  1.00  0.00     0.120 C 
ATOM     89  N   UNL     1       9.479  -0.721   7.063  1.00  0.00    -0.337 N 
ATOM     90  C   UNL     1       9.400  -2.080   7.370  1.00  0.00     0.270 C 
ATOM     91  O   UNL     1       8.324  -2.624   7.624  1.00  0.00    -0.267 OA
BRANCH  82  92
ATOM     92  C   UNL     1      10.907   5.685   7.376  1.00  0.00     0.226 C 
ATOM     93  O   UNL     1      11.113   5.853   8.579  1.00  0.00    -0.275 OA
BRANCH  92  94
ATOM     94  C   UNL     1      11.524   6.694   6.469  1.00  0.00     0.079 C 
ATOM     95  C   UNL     1      11.834   6.500   5.012  1.00  0.00     0.014 C 
ATOM     96  C   UNL     1      10.772   7.475   5.438  1.00  0.00     0.014 C 
ENDBRANCH  92  94
ENDBRANCH  82  92
BRANCH  90  97
ATOM     97  C   UNL     1      10.636  -2.829   7.400  1.00  0.00     0.105 A 
ATOM     98  C   UNL     1      10.913  -4.061   6.832  1.00  0.00     0.042 A 
ATOM     99  N   UNL     1      11.757  -2.467   8.114  1.00  0.00    -0.351 N 
ATOM    100  C   UNL     1      12.259  -4.401   7.132  1.00  0.00     0.000 A 
ATOM    101  C   UNL     1      12.768  -3.383   7.938  1.00  0.00     0.046 A 
ATOM    102  H   UNL     1      11.825  -1.660   8.674  1.00  0.00     0.167 HD
ATOM    103  C   UNL     1      13.094  -5.484   6.798  1.00  0.00     0.010 A 
ATOM    104  C   UNL     1      14.077  -3.396   8.434  1.00  0.00     0.026 A 
ATOM    105  C   UNL     1      14.409  -5.508   7.277  1.00  0.00     0.001 A 
ATOM    106  C   UNL     1      14.890  -4.478   8.083  1.00  0.00     0.002 A 
ENDBRANCH  90  97
ENDBRANCH  77  80
ENDBRANCH  75  76
ENDBRANCH  74  75
ENDBRANCH  73  74
ENDBRANCH   1  73
TORSDOF 19
