REMARK SMILES O=C(NCCCCCCNC(=O)[C@@H]1[C@@H](C(=O)NCCCn2ccnc2)[C@@H]2C=C[C@H]1C2)c1ccc(-c2c3nc(c(-c4cc(S(=O)(=O)[O-])ccc4F)c4ccc([nH]4)c(-c4cc(S(=O)(=O)[O-])ccc4F)c4nc(c(-c5cc(S(=O)(=O)[O-])ccc5F)c5ccc2[nH]5)C=C4)C=C3)cc1
REMARK SMILES IDX 7 1 6 2 5 3 4 4 3 5 1 6 2 7 31 9 32 10 93 11 33 12 92 13
REMARK SMILES IDX 34 14 35 15 36 16 86 17 37 18 91 19 85 20 87 21 38 22 90 23
REMARK SMILES IDX 84 24 83 25 39 27 71 28 51 29 70 30 52 31 55 32 69 33 88 34
REMARK SMILES IDX 53 35 54 36 68 38 89 39 56 40 40 41 41 42 49 43 42 44 48 45
REMARK SMILES IDX 50 46 47 47 43 48 44 49 45 50 46 51 72 52 73 53 81 54 74 55
REMARK SMILES IDX 80 56 82 57 79 58 75 59 76 60 77 61 78 62 57 63 58 64 66 65
REMARK SMILES IDX 59 66 65 67 67 68 64 69 60 70 61 71 62 72 63 73 8 74 9 75
REMARK SMILES IDX 10 76 11 77 12 79 13 80 14 81 29 82 26 83 28 84 30 85 27 86
REMARK SMILES IDX 15 87 16 88 17 89 18 91 19 92 20 93 21 94 22 95 25 96 23 97
REMARK SMILES IDX 24 98
REMARK H PARENT 3 8 87 26 55 37 10 78 17 90
REMARK Flexibility Score: inf
ROOT
ATOM      1  C   UNL     1       4.900  -2.193  -3.570  1.00  0.00     0.002 C 
ENDROOT
BRANCH   1   2
ATOM      2  C   UNL     1       4.317  -2.700  -2.247  1.00  0.00     0.002 C 
BRANCH   2   3
ATOM      3  C   UNL     1       4.861  -2.016  -0.988  1.00  0.00     0.021 C 
BRANCH   3   4
ATOM      4  C   UNL     1       4.727  -0.493  -0.987  1.00  0.00     0.116 C 
BRANCH   4   5
ATOM      5  N   UNL     1       3.372  -0.018  -1.159  1.00  0.00    -0.352 N 
ATOM      6  O   UNL     1       1.347   0.781  -0.809  1.00  0.00    -0.269 OA
ATOM      7  C   UNL     1       2.322   0.206  -0.314  1.00  0.00     0.251 C 
ATOM      8  H   UNL     1       3.158   0.191  -2.098  1.00  0.00     0.163 HD
BRANCH   7   9
ATOM      9  C   UNL     1       2.249  -0.250   1.101  1.00  0.00     0.039 A 
ATOM     10  C   UNL     1       3.303  -0.782   1.847  1.00  0.00     0.014 A 
ATOM     11  C   UNL     1       0.975  -0.181   1.695  1.00  0.00     0.014 A 
ATOM     12  C   UNL     1       3.070  -1.334   3.103  1.00  0.00     0.010 A 
ATOM     13  C   UNL     1       0.739  -0.716   2.955  1.00  0.00     0.010 A 
ATOM     14  C   UNL     1       1.781  -1.336   3.637  1.00  0.00    -0.014 A 
BRANCH  14  15
ATOM     15  C   UNL     1       1.587  -1.859   4.987  1.00  0.00     0.031 A 
ATOM     16  C   UNL     1       2.250  -1.057   6.054  1.00  0.00     0.074 A 
ATOM     17  C   UNL     1       0.755  -2.881   5.273  1.00  0.00     0.049 A 
ATOM     18  N   UNL     1       3.176  -1.424   6.877  1.00  0.00    -0.248 NA
ATOM     19  C   UNL     1       1.937   0.381   6.121  1.00  0.00     0.031 C 
ATOM     20  C   UNL     1      -0.155  -3.579   4.362  1.00  0.00     0.029 A 
ATOM     21  N   UNL     1       0.464  -3.444   6.481  1.00  0.00    -0.354 N 
ATOM     22  C   UNL     1       3.404  -0.333   7.715  1.00  0.00     0.074 A 
ATOM     23  C   UNL     1       2.757   0.787   7.089  1.00  0.00     0.031 C 
ATOM     24  C   UNL     1      -1.051  -4.291   5.084  1.00  0.00     0.029 A 
ATOM     25  C   UNL     1      -0.703  -4.205   6.494  1.00  0.00     0.049 A 
ATOM     26  H   UNL     1       1.031  -3.322   7.277  1.00  0.00     0.167 HD
ATOM     27  C   UNL     1       3.914  -0.490   8.969  1.00  0.00     0.034 A 
ATOM     28  C   UNL     1      -1.375  -4.669   7.584  1.00  0.00     0.034 A 
ATOM     29  C   UNL     1       4.573  -1.769   9.105  1.00  0.00     0.049 A 
ATOM     30  C   UNL     1      -0.409  -4.688   8.710  1.00  0.00     0.074 A 
ATOM     31  C   UNL     1       5.631  -2.388   8.466  1.00  0.00     0.029 A 
ATOM     32  N   UNL     1       3.917  -2.777   9.776  1.00  0.00    -0.354 N 
ATOM     33  N   UNL     1       0.636  -5.469   8.740  1.00  0.00    -0.248 NA
ATOM     34  C   UNL     1      -0.321  -3.507   9.557  1.00  0.00     0.031 C 
ATOM     35  C   UNL     1       5.239  -3.755   8.352  1.00  0.00     0.029 A 
ATOM     36  C   UNL     1       4.008  -3.902   8.995  1.00  0.00     0.049 A 
ATOM     37  H   UNL     1       3.468  -2.704  10.649  1.00  0.00     0.167 HD
ATOM     38  C   UNL     1       1.660  -4.680   9.239  1.00  0.00     0.074 A 
ATOM     39  C   UNL     1       0.991  -3.513   9.814  1.00  0.00     0.031 C 
ATOM     40  C   UNL     1       2.963  -4.902   8.892  1.00  0.00     0.034 A 
BRANCH  27  41
ATOM     41  C   UNL     1       3.495   0.327  10.177  1.00  0.00     0.023 A 
ATOM     42  C   UNL     1       4.059  -0.032  11.417  1.00  0.00     0.031 A 
ATOM     43  C   UNL     1       2.379   1.192  10.244  1.00  0.00     0.131 A 
ATOM     44  C   UNL     1       3.443   0.332  12.627  1.00  0.00     0.055 A 
ATOM     45  C   UNL     1       1.812   1.611  11.452  1.00  0.00     0.041 A 
ATOM     46  F   UNL     1       1.716   1.613   9.162  1.00  0.00    -0.206 F 
ATOM     47  C   UNL     1       2.317   1.147  12.653  1.00  0.00     0.022 A 
BRANCH  44  48
ATOM     48  S   UNL     1       4.021  -0.458  14.151  1.00  0.00     0.124 S 
ATOM     49  O   UNL     1       3.973  -1.870  13.784  1.00  0.00    -0.237 OA
ATOM     50  O   UNL     1       5.350   0.124  14.303  1.00  0.00    -0.237 OA
ATOM     51  O   UNL     1       3.036  -0.037  15.144  1.00  0.00    -0.744 OA
ENDBRANCH  44  48
ENDBRANCH  27  41
BRANCH  28  52
ATOM     52  C   UNL     1      -2.857  -4.726   7.766  1.00  0.00     0.023 A 
ATOM     53  C   UNL     1      -3.498  -5.536   8.731  1.00  0.00     0.031 A 
ATOM     54  C   UNL     1      -3.667  -3.767   7.114  1.00  0.00     0.131 A 
ATOM     55  C   UNL     1      -4.883  -5.374   8.995  1.00  0.00     0.055 A 
ATOM     56  C   UNL     1      -5.030  -3.614   7.376  1.00  0.00     0.041 A 
ATOM     57  F   UNL     1      -3.139  -2.881   6.254  1.00  0.00    -0.206 F 
ATOM     58  C   UNL     1      -5.643  -4.413   8.324  1.00  0.00     0.022 A 
BRANCH  55  59
ATOM     59  S   UNL     1      -5.715  -6.363  10.285  1.00  0.00     0.124 S 
ATOM     60  O   UNL     1      -5.665  -7.712   9.722  1.00  0.00    -0.237 OA
ATOM     61  O   UNL     1      -4.887  -6.118  11.455  1.00  0.00    -0.237 OA
ATOM     62  O   UNL     1      -7.057  -5.782  10.351  1.00  0.00    -0.744 OA
ENDBRANCH  55  59
ENDBRANCH  28  52
BRANCH  40  63
ATOM     63  C   UNL     1       3.308  -6.181   8.156  1.00  0.00     0.023 A 
ATOM     64  C   UNL     1       2.761  -6.567   6.910  1.00  0.00     0.031 A 
ATOM     65  C   UNL     1       4.336  -6.977   8.691  1.00  0.00     0.131 A 
ATOM     66  C   UNL     1       3.241  -7.720   6.256  1.00  0.00     0.055 A 
ATOM     67  C   UNL     1       4.821  -8.105   8.032  1.00  0.00     0.041 A 
ATOM     68  F   UNL     1       4.920  -6.644   9.854  1.00  0.00    -0.206 F 
ATOM     69  C   UNL     1       4.270  -8.485   6.814  1.00  0.00     0.022 A 
BRANCH  66  70
ATOM     70  S   UNL     1       2.532  -8.253   4.663  1.00  0.00     0.124 S 
ATOM     71  O   UNL     1       1.094  -8.230   4.904  1.00  0.00    -0.237 OA
ATOM     72  O   UNL     1       3.043  -7.246   3.735  1.00  0.00    -0.237 OA
ATOM     73  O   UNL     1       3.095  -9.591   4.470  1.00  0.00    -0.744 OA
ENDBRANCH  66  70
ENDBRANCH  40  63
ENDBRANCH  14  15
ENDBRANCH   7   9
ENDBRANCH   4   5
ENDBRANCH   3   4
ENDBRANCH   2   3
ENDBRANCH   1   2
BRANCH   1  74
ATOM     74  C   UNL     1       6.423  -2.292  -3.678  1.00  0.00     0.021 C 
BRANCH  74  75
ATOM     75  C   UNL     1       6.957  -3.716  -3.537  1.00  0.00     0.116 C 
BRANCH  75  76
ATOM     76  N   UNL     1       6.572  -4.543  -4.673  1.00  0.00    -0.356 N 
ATOM     77  C   UNL     1       7.371  -5.158  -5.601  1.00  0.00     0.224 C 
ATOM     78  H   UNL     1       5.603  -4.679  -4.790  1.00  0.00     0.163 HD
ATOM     79  O   UNL     1       6.862  -5.695  -6.582  1.00  0.00    -0.275 OA
BRANCH  77  80
ATOM     80  C   UNL     1       8.866  -5.101  -5.348  1.00  0.00     0.098 C 
ATOM     81  C   UNL     1       9.790  -5.521  -6.510  1.00  0.00     0.098 C 
ATOM     82  C   UNL     1       9.307  -6.073  -4.210  1.00  0.00     0.025 C 
ATOM     83  C   UNL     1      10.533  -6.764  -5.944  1.00  0.00     0.025 C 
ATOM     84  C   UNL     1       8.813  -7.455  -4.572  1.00  0.00    -0.027 C 
ATOM     85  C   UNL     1      10.792  -6.337  -4.500  1.00  0.00     0.017 C 
ATOM     86  C   UNL     1       9.527  -7.856  -5.637  1.00  0.00    -0.027 C 
BRANCH  81  87
ATOM     87  C   UNL     1      10.790  -4.456  -6.980  1.00  0.00     0.224 C 
ATOM     88  O   UNL     1      11.217  -4.510  -8.141  1.00  0.00    -0.275 OA
ATOM     89  N   UNL     1      11.343  -3.474  -6.212  1.00  0.00    -0.356 N 
ATOM     90  H   UNL     1      12.083  -3.012  -6.668  1.00  0.00     0.163 HD
BRANCH  89  91
ATOM     91  C   UNL     1      11.096  -2.947  -4.869  1.00  0.00     0.117 C 
BRANCH  91  92
ATOM     92  C   UNL     1      12.359  -2.549  -4.113  1.00  0.00     0.043 C 
BRANCH  92  93
ATOM     93  C   UNL     1      13.133  -1.376  -4.704  1.00  0.00     0.125 C 
BRANCH  93  94
ATOM     94  N   UNL     1      12.491  -0.092  -4.516  1.00  0.00    -0.337 N 
ATOM     95  C   UNL     1      11.382   0.378  -5.160  1.00  0.00     0.107 A 
ATOM     96  C   UNL     1      12.926   0.895  -3.677  1.00  0.00     0.199 A 
ATOM     97  C   UNL     1      11.151   1.618  -4.613  1.00  0.00     0.130 A 
ATOM     98  N   UNL     1      12.126   1.936  -3.705  1.00  0.00    -0.245 NA
ENDBRANCH  93  94
ENDBRANCH  92  93
ENDBRANCH  91  92
ENDBRANCH  89  91
ENDBRANCH  81  87
ENDBRANCH  77  80
ENDBRANCH  75  76
ENDBRANCH  74  75
ENDBRANCH   1  74
TORSDOF 21
