REMARK SMILES N#Cc1cc2c(nc1N(CC(=O)NCCCCCCNC(=O)c1ccc(-c3c4nc(c(-c5cc(S(=O)(=O)[O-])ccc5F)c5ccc([nH]5)c(-c5cc(S(=O)(=O)[O-])ccc5F)c5nc(c(-c6cc(S(=O)(=O)[O-])ccc6F)c6ccc3[nH]6)C=C5)C=C4)cc1)CC(F)(F)F)CCC2
REMARK SMILES IDX 16 1 15 2 14 3 13 4 11 5 12 6 10 8 9 9 8 10 3 11 4 12 5 13
REMARK SMILES IDX 7 14 6 15 93 16 91 17 92 18 2 19 1 20 86 21 87 22 88 23
REMARK SMILES IDX 89 24 90 25 17 26 18 27 19 28 20 29 21 30 22 32 23 33 24 34
REMARK SMILES IDX 85 35 25 36 84 37 26 38 27 39 28 40 78 41 29 42 83 43 77 44
REMARK SMILES IDX 79 45 30 46 82 47 76 48 75 49 31 51 63 52 43 53 62 54 44 55
REMARK SMILES IDX 47 56 61 57 80 58 45 59 46 60 60 62 81 63 48 64 32 65 33 66
REMARK SMILES IDX 41 67 34 68 40 69 42 70 39 71 35 72 36 73 37 74 38 75 64 76
REMARK SMILES IDX 65 77 73 78 66 79 72 80 74 81 71 82 67 83 68 84 69 85 70 86
REMARK SMILES IDX 49 87 50 88 58 89 51 90 57 91 59 92 56 93 52 94 53 95 54 96
REMARK SMILES IDX 55 97
REMARK H PARENT 13 7 20 31 79 50 47 61
REMARK Flexibility Score: inf
ROOT
ATOM      1  C   UNL     1       3.845  -2.725   4.922  1.00  0.00     0.002 C 
ENDROOT
BRANCH   1   2
ATOM      2  C   UNL     1       4.198  -2.116   3.561  1.00  0.00     0.021 C 
BRANCH   2   3
ATOM      3  C   UNL     1       5.166  -2.972   2.749  1.00  0.00     0.116 C 
BRANCH   3   4
ATOM      4  N   UNL     1       4.527  -4.186   2.281  1.00  0.00    -0.355 N 
ATOM      5  C   UNL     1       4.109  -4.489   1.018  1.00  0.00     0.239 C 
ATOM      6  O   UNL     1       3.486  -5.539   0.836  1.00  0.00    -0.273 OA
ATOM      7  H   UNL     1       4.377  -4.881   2.961  1.00  0.00     0.163 HD
BRANCH   5   8
ATOM      8  C   UNL     1       4.416  -3.540  -0.147  1.00  0.00     0.218 C 
BRANCH   8   9
ATOM      9  N   UNL     1       3.569  -2.316  -0.146  1.00  0.00    -0.337 N 
BRANCH   9  10
ATOM     10  C   UNL     1       4.209  -1.084  -0.207  1.00  0.00     0.147 A 
ATOM     11  C   UNL     1       3.600   0.191  -0.301  1.00  0.00     0.095 A 
ATOM     12  C   UNL     1       4.374   1.368  -0.199  1.00  0.00     0.029 A 
ATOM     13  C   UNL     1       5.737   1.256  -0.081  1.00  0.00    -0.025 A 
ATOM     14  N   UNL     1       5.570  -1.142  -0.137  1.00  0.00    -0.234 NA
ATOM     15  C   UNL     1       6.285  -0.005  -0.082  1.00  0.00     0.046 A 
ATOM     16  C   UNL     1       6.782   2.307   0.084  1.00  0.00     0.038 C 
ATOM     17  C   UNL     1       7.782   0.057   0.045  1.00  0.00     0.057 C 
ATOM     18  C   UNL     1       8.044   1.528  -0.318  1.00  0.00     0.011 C 
BRANCH  11  19
ATOM     19  C   UNL     1       2.208   0.400  -0.558  1.00  0.00     0.103 C 
ATOM     20  N   UNL     1       1.087   0.572  -0.795  1.00  0.00    -0.192 NA
ENDBRANCH  11  19
ENDBRANCH   9  10
BRANCH   9  21
ATOM     21  C   UNL     1       2.100  -2.562  -0.183  1.00  0.00     0.234 C 
BRANCH  21  22
ATOM     22  C   UNL     1       1.308  -2.306   1.114  1.00  0.00     0.405 C 
ATOM     23  F   UNL     1       1.597  -1.113   1.678  1.00  0.00    -0.169 F 
ATOM     24  F   UNL     1      -0.024  -2.323   0.866  1.00  0.00    -0.169 F 
ATOM     25  F   UNL     1       1.544  -3.261   2.042  1.00  0.00    -0.169 F 
ENDBRANCH  21  22
ENDBRANCH   9  21
ENDBRANCH   8   9
ENDBRANCH   5   8
ENDBRANCH   3   4
ENDBRANCH   2   3
ENDBRANCH   1   2
BRANCH   1  26
ATOM     26  C   UNL     1       5.040  -2.856   5.871  1.00  0.00     0.002 C 
BRANCH  26  27
ATOM     27  C   UNL     1       5.800  -1.549   6.108  1.00  0.00     0.021 C 
BRANCH  27  28
ATOM     28  C   UNL     1       4.928  -0.421   6.649  1.00  0.00     0.116 C 
BRANCH  28  29
ATOM     29  N   UNL     1       4.408  -0.741   7.968  1.00  0.00    -0.352 N 
ATOM     30  C   UNL     1       4.649  -0.104   9.160  1.00  0.00     0.251 C 
ATOM     31  H   UNL     1       3.803  -1.516   8.013  1.00  0.00     0.163 HD
ATOM     32  O   UNL     1       4.356  -0.646  10.221  1.00  0.00    -0.269 OA
BRANCH  30  33
ATOM     33  C   UNL     1       5.280   1.230   9.143  1.00  0.00     0.039 A 
ATOM     34  C   UNL     1       6.346   1.490  10.005  1.00  0.00     0.014 A 
ATOM     35  C   UNL     1       4.828   2.213   8.256  1.00  0.00     0.014 A 
ATOM     36  C   UNL     1       6.994   2.724   9.939  1.00  0.00     0.010 A 
ATOM     37  C   UNL     1       5.526   3.409   8.136  1.00  0.00     0.010 A 
ATOM     38  C   UNL     1       6.609   3.681   8.984  1.00  0.00    -0.014 A 
BRANCH  38  39
ATOM     39  C   UNL     1       7.312   4.984   8.883  1.00  0.00     0.031 A 
ATOM     40  C   UNL     1       6.574   6.257   9.193  1.00  0.00     0.074 A 
ATOM     41  C   UNL     1       8.603   5.019   8.497  1.00  0.00     0.049 A 
ATOM     42  N   UNL     1       7.001   7.491   9.132  1.00  0.00    -0.248 NA
ATOM     43  C   UNL     1       5.167   6.129   9.607  1.00  0.00     0.031 C 
ATOM     44  C   UNL     1       9.415   3.849   8.156  1.00  0.00     0.029 A 
ATOM     45  N   UNL     1       9.464   6.076   8.336  1.00  0.00    -0.354 N 
ATOM     46  C   UNL     1       5.922   8.283   9.506  1.00  0.00     0.074 A 
ATOM     47  C   UNL     1       4.801   7.397   9.724  1.00  0.00     0.031 C 
ATOM     48  C   UNL     1      10.665   4.248   7.872  1.00  0.00     0.029 A 
ATOM     49  C   UNL     1      10.734   5.704   7.959  1.00  0.00     0.049 A 
ATOM     50  H   UNL     1       9.198   7.013   8.478  1.00  0.00     0.167 HD
ATOM     51  C   UNL     1       5.880   9.624   9.681  1.00  0.00     0.034 A 
ATOM     52  C   UNL     1      11.828   6.450   7.706  1.00  0.00     0.034 A 
ATOM     53  C   UNL     1       7.008  10.495   9.477  1.00  0.00     0.049 A 
ATOM     54  C   UNL     1      11.737   7.947   7.848  1.00  0.00     0.074 A 
ATOM     55  C   UNL     1       7.077  11.864   9.660  1.00  0.00     0.029 A 
ATOM     56  N   UNL     1       8.262  10.085   9.047  1.00  0.00    -0.354 N 
ATOM     57  N   UNL     1      10.710   8.678   8.217  1.00  0.00    -0.248 NA
ATOM     58  C   UNL     1      12.947   8.721   7.538  1.00  0.00     0.031 C 
ATOM     59  C   UNL     1       8.348  12.293   9.270  1.00  0.00     0.029 A 
ATOM     60  C   UNL     1       9.099  11.182   8.921  1.00  0.00     0.049 A 
ATOM     61  H   UNL     1       8.519   9.154   8.859  1.00  0.00     0.167 HD
ATOM     62  C   UNL     1      11.159   9.995   8.206  1.00  0.00     0.074 A 
ATOM     63  C   UNL     1      12.550   9.959   7.803  1.00  0.00     0.031 C 
ATOM     64  C   UNL     1      10.480  11.131   8.506  1.00  0.00     0.034 A 
BRANCH  51  65
ATOM     65  C   UNL     1       4.573  10.238  10.110  1.00  0.00     0.023 A 
ATOM     66  C   UNL     1       4.032   9.994  11.383  1.00  0.00     0.031 A 
ATOM     67  C   UNL     1       3.881  11.110   9.252  1.00  0.00     0.131 A 
ATOM     68  C   UNL     1       2.818  10.590  11.752  1.00  0.00     0.055 A 
ATOM     69  C   UNL     1       2.707  11.751   9.648  1.00  0.00     0.041 A 
ATOM     70  F   UNL     1       4.344  11.362   8.017  1.00  0.00    -0.206 F 
ATOM     71  C   UNL     1       2.165  11.487  10.903  1.00  0.00     0.022 A 
BRANCH  68  72
ATOM     72  S   UNL     1       2.066  10.122  13.334  1.00  0.00     0.124 S 
ATOM     73  O   UNL     1       1.804   8.700  13.125  1.00  0.00    -0.237 OA
ATOM     74  O   UNL     1       3.116  10.444  14.292  1.00  0.00    -0.237 OA
ATOM     75  O   UNL     1       0.874  10.965  13.408  1.00  0.00    -0.744 OA
ENDBRANCH  68  72
ENDBRANCH  51  65
BRANCH  52  76
ATOM     76  C   UNL     1      13.100   5.794   7.291  1.00  0.00     0.023 A 
ATOM     77  C   UNL     1      14.233   5.825   8.120  1.00  0.00     0.031 A 
ATOM     78  C   UNL     1      13.202   5.126   6.057  1.00  0.00     0.131 A 
ATOM     79  C   UNL     1      15.426   5.218   7.695  1.00  0.00     0.055 A 
ATOM     80  C   UNL     1      14.377   4.487   5.659  1.00  0.00     0.041 A 
ATOM     81  F   UNL     1      12.146   5.063   5.230  1.00  0.00    -0.206 F 
ATOM     82  C   UNL     1      15.501   4.537   6.478  1.00  0.00     0.022 A 
BRANCH  79  83
ATOM     83  S   UNL     1      16.898   5.365   8.743  1.00  0.00     0.124 S 
ATOM     84  O   UNL     1      17.119   6.806   8.744  1.00  0.00    -0.237 OA
ATOM     85  O   UNL     1      16.437   4.784  10.000  1.00  0.00    -0.237 OA
ATOM     86  O   UNL     1      17.902   4.578   8.029  1.00  0.00    -0.744 OA
ENDBRANCH  79  83
ENDBRANCH  52  76
BRANCH  64  87
ATOM     87  C   UNL     1      11.231  12.435   8.430  1.00  0.00     0.023 A 
ATOM     88  C   UNL     1      11.634  12.975   7.198  1.00  0.00     0.031 A 
ATOM     89  C   UNL     1      11.487  13.176   9.597  1.00  0.00     0.131 A 
ATOM     90  C   UNL     1      12.298  14.210   7.163  1.00  0.00     0.055 A 
ATOM     91  C   UNL     1      12.100  14.428   9.551  1.00  0.00     0.041 A 
ATOM     92  F   UNL     1      11.117  12.705  10.800  1.00  0.00    -0.206 F 
ATOM     93  C   UNL     1      12.514  14.949   8.329  1.00  0.00     0.022 A 
BRANCH  90  94
ATOM     94  S   UNL     1      12.910  14.822   5.570  1.00  0.00     0.124 S 
ATOM     95  O   UNL     1      13.882  13.796   5.206  1.00  0.00    -0.237 OA
ATOM     96  O   UNL     1      11.696  14.865   4.761  1.00  0.00    -0.237 OA
ATOM     97  O   UNL     1      13.480  16.127   5.900  1.00  0.00    -0.744 OA
ENDBRANCH  90  94
ENDBRANCH  64  87
ENDBRANCH  38  39
ENDBRANCH  30  33
ENDBRANCH  28  29
ENDBRANCH  27  28
ENDBRANCH  26  27
ENDBRANCH   1  26
TORSDOF 21
