REMARK SMILES CS(=O)(=O)c1ccc(N2N=C(C(=O)NCCCCCCNC(=O)c3ccc(-c4c5nc(c(-c6cc(S(=O)(=O)[O-])ccc6F)c6ccc([nH]6)c(-c6cc(S(=O)(=O)[O-])ccc6F)c6nc(c(-c7cc(S(=O)(=O)[O-])ccc7F)c7ccc4[nH]7)C=C6)C=C5)cc3)C[C@H]2c2cccs2)cc1
REMARK SMILES IDX 18 1 17 2 16 3 15 4 14 5 12 6 13 7 11 9 9 10 10 11 88 12
REMARK SMILES IDX 87 13 8 14 5 15 6 16 95 17 7 18 94 19 2 20 1 21 3 22 4 23
REMARK SMILES IDX 89 24 90 25 93 26 91 27 92 28 19 29 20 30 21 31 22 32 23 34
REMARK SMILES IDX 24 35 25 36 86 37 26 38 85 39 27 40 28 41 29 42 79 43 30 44
REMARK SMILES IDX 84 45 78 46 80 47 31 48 83 49 77 50 76 51 32 53 64 54 44 55
REMARK SMILES IDX 63 56 45 57 48 58 62 59 81 60 46 61 47 62 61 64 82 65 49 66
REMARK SMILES IDX 33 67 34 68 42 69 35 70 41 71 43 72 40 73 36 74 37 75 38 76
REMARK SMILES IDX 39 77 65 78 66 79 74 80 67 81 73 82 75 83 72 84 68 85 69 86
REMARK SMILES IDX 70 87 71 88 50 89 51 90 59 91 52 92 58 93 60 94 57 95 53 96
REMARK SMILES IDX 54 97 55 98 56 99
REMARK H PARENT 14 8 21 33 80 52 48 63
REMARK Flexibility Score: inf
ROOT
ATOM      1  C   UNL     1       4.447   1.730 -14.207  1.00  0.00     0.002 C 
ENDROOT
BRANCH   1   2
ATOM      2  C   UNL     1       4.753   0.365 -13.584  1.00  0.00     0.002 C 
BRANCH   2   3
ATOM      3  C   UNL     1       5.091   0.387 -12.093  1.00  0.00     0.021 C 
BRANCH   3   4
ATOM      4  C   UNL     1       4.018   1.004 -11.203  1.00  0.00     0.116 C 
BRANCH   4   5
ATOM      5  N   UNL     1       2.888   0.113 -11.041  1.00  0.00    -0.351 N 
ATOM      6  C   UNL     1       2.217  -0.388  -9.955  1.00  0.00     0.267 C 
ATOM      7  O   UNL     1       1.327  -1.209 -10.167  1.00  0.00    -0.268 OA
ATOM      8  H   UNL     1       2.521  -0.203 -11.898  1.00  0.00     0.163 HD
BRANCH   6   9
ATOM      9  C   UNL     1       2.475   0.047  -8.519  1.00  0.00     0.128 C 
ATOM     10  N   UNL     1       2.095   0.296  -6.435  1.00  0.00    -0.256 N 
ATOM     11  N   UNL     1       1.719  -0.379  -7.551  1.00  0.00    -0.171 NA
ATOM     12  C   UNL     1       3.267   1.153  -6.620  1.00  0.00     0.154 C 
ATOM     13  C   UNL     1       3.581   0.959  -8.107  1.00  0.00     0.097 C 
BRANCH  10  14
ATOM     14  C   UNL     1       1.687  -0.143  -5.183  1.00  0.00     0.060 A 
ATOM     15  C   UNL     1       0.865  -0.969  -2.632  1.00  0.00     0.067 A 
ATOM     16  C   UNL     1       1.526  -1.869  -3.470  1.00  0.00     0.022 A 
ATOM     17  C   UNL     1       0.586   0.328  -3.062  1.00  0.00     0.022 A 
ATOM     18  C   UNL     1       1.922  -1.454  -4.746  1.00  0.00     0.029 A 
ATOM     19  C   UNL     1       1.005   0.732  -4.328  1.00  0.00     0.029 A 
BRANCH  15  20
ATOM     20  S   UNL     1       0.358  -1.464  -1.006  1.00  0.00     0.175 S 
ATOM     21  C   UNL     1       1.091  -0.253   0.065  1.00  0.00     0.163 C 
ATOM     22  O   UNL     1       0.983  -2.734  -0.708  1.00  0.00    -0.224 OA
ATOM     23  O   UNL     1      -1.086  -1.305  -0.944  1.00  0.00    -0.224 OA
ENDBRANCH  15  20
ENDBRANCH  10  14
BRANCH  12  24
ATOM     24  C   UNL     1       3.128   2.603  -6.181  1.00  0.00     0.030 A 
ATOM     25  C   UNL     1       3.381   3.110  -4.916  1.00  0.00     0.017 A 
ATOM     26  S   UNL     1       2.579   3.852  -7.226  1.00  0.00    -0.147 S 
ATOM     27  C   UNL     1       3.173   4.515  -4.828  1.00  0.00     0.012 A 
ATOM     28  C   UNL     1       2.785   5.052  -6.033  1.00  0.00     0.065 A 
ENDBRANCH  12  24
ENDBRANCH   6   9
ENDBRANCH   4   5
ENDBRANCH   3   4
ENDBRANCH   2   3
ENDBRANCH   1   2
BRANCH   1  29
ATOM     29  C   UNL     1       5.474   2.831 -13.929  1.00  0.00     0.021 C 
BRANCH  29  30
ATOM     30  C   UNL     1       6.909   2.492 -14.322  1.00  0.00     0.116 C 
BRANCH  30  31
ATOM     31  N   UNL     1       7.041   2.233 -15.743  1.00  0.00    -0.352 N 
ATOM     32  C   UNL     1       7.917   2.780 -16.648  1.00  0.00     0.251 C 
ATOM     33  H   UNL     1       6.412   1.571 -16.112  1.00  0.00     0.163 HD
ATOM     34  O   UNL     1       7.747   2.586 -17.848  1.00  0.00    -0.269 OA
BRANCH  32  35
ATOM     35  C   UNL     1       9.044   3.616 -16.176  1.00  0.00     0.039 A 
ATOM     36  C   UNL     1       9.341   4.795 -16.863  1.00  0.00     0.014 A 
ATOM     37  C   UNL     1       9.817   3.232 -15.076  1.00  0.00     0.014 A 
ATOM     38  C   UNL     1      10.384   5.612 -16.420  1.00  0.00     0.010 A 
ATOM     39  C   UNL     1      10.808   4.083 -14.592  1.00  0.00     0.010 A 
ATOM     40  C   UNL     1      11.110   5.277 -15.265  1.00  0.00    -0.014 A 
BRANCH  40  41
ATOM     41  C   UNL     1      12.210   6.145 -14.768  1.00  0.00     0.031 A 
ATOM     42  C   UNL     1      13.623   5.626 -14.745  1.00  0.00     0.074 A 
ATOM     43  C   UNL     1      11.932   7.375 -14.293  1.00  0.00     0.049 A 
ATOM     44  N   UNL     1      14.707   6.193 -14.281  1.00  0.00    -0.248 NA
ATOM     45  C   UNL     1      13.837   4.277 -15.289  1.00  0.00     0.031 C 
ATOM     46  C   UNL     1      10.598   7.978 -14.236  1.00  0.00     0.029 A 
ATOM     47  N   UNL     1      12.753   8.340 -13.764  1.00  0.00    -0.354 N 
ATOM     48  C   UNL     1      15.729   5.267 -14.466  1.00  0.00     0.074 A 
ATOM     49  C   UNL     1      15.118   4.077 -15.021  1.00  0.00     0.031 C 
ATOM     50  C   UNL     1      10.696   9.216 -13.727  1.00  0.00     0.029 A 
ATOM     51  C   UNL     1      12.088   9.481 -13.377  1.00  0.00     0.049 A 
ATOM     52  H   UNL     1      13.726   8.226 -13.670  1.00  0.00     0.167 HD
ATOM     53  C   UNL     1      17.056   5.405 -14.223  1.00  0.00     0.034 A 
ATOM     54  C   UNL     1      12.547  10.608 -12.797  1.00  0.00     0.034 A 
ATOM     55  C   UNL     1      17.650   6.603 -13.681  1.00  0.00     0.049 A 
ATOM     56  C   UNL     1      14.023  10.728 -12.507  1.00  0.00     0.074 A 
ATOM     57  C   UNL     1      18.986   6.867 -13.430  1.00  0.00     0.029 A 
ATOM     58  N   UNL     1      16.945   7.739 -13.302  1.00  0.00    -0.354 N 
ATOM     59  N   UNL     1      14.982   9.857 -12.723  1.00  0.00    -0.248 NA
ATOM     60  C   UNL     1      14.480  11.989 -11.908  1.00  0.00     0.031 C 
ATOM     61  C   UNL     1      19.081   8.131 -12.839  1.00  0.00     0.029 A 
ATOM     62  C   UNL     1      17.815   8.693 -12.795  1.00  0.00     0.049 A 
ATOM     63  H   UNL     1      15.971   7.851 -13.381  1.00  0.00     0.167 HD
ATOM     64  C   UNL     1      16.160  10.482 -12.321  1.00  0.00     0.074 A 
ATOM     65  C   UNL     1      15.791  11.805 -11.863  1.00  0.00     0.031 C 
ATOM     66  C   UNL     1      17.432  10.008 -12.337  1.00  0.00     0.034 A 
BRANCH  53  67
ATOM     67  C   UNL     1      17.944   4.218 -14.519  1.00  0.00     0.023 A 
ATOM     68  C   UNL     1      18.075   3.702 -15.821  1.00  0.00     0.031 A 
ATOM     69  C   UNL     1      18.644   3.573 -13.485  1.00  0.00     0.131 A 
ATOM     70  C   UNL     1      18.815   2.530 -16.040  1.00  0.00     0.055 A 
ATOM     71  C   UNL     1      19.452   2.459 -13.725  1.00  0.00     0.041 A 
ATOM     72  F   UNL     1      18.544   4.004 -12.218  1.00  0.00    -0.206 F 
ATOM     73  C   UNL     1      19.527   1.920 -15.006  1.00  0.00     0.022 A 
BRANCH  70  74
ATOM     74  S   UNL     1      18.704   1.729 -17.664  1.00  0.00     0.124 S 
ATOM     75  O   UNL     1      17.269   1.474 -17.767  1.00  0.00    -0.237 OA
ATOM     76  O   UNL     1      19.237   2.750 -18.557  1.00  0.00    -0.237 OA
ATOM     77  O   UNL     1      19.532   0.534 -17.514  1.00  0.00    -0.744 OA
ENDBRANCH  70  74
ENDBRANCH  53  67
BRANCH  54  78
ATOM     78  C   UNL     1      11.611  11.714 -12.444  1.00  0.00     0.023 A 
ATOM     79  C   UNL     1      11.720  12.975 -13.052  1.00  0.00     0.031 A 
ATOM     80  C   UNL     1      10.624  11.543 -11.457  1.00  0.00     0.131 A 
ATOM     81  C   UNL     1      10.895  14.029 -12.631  1.00  0.00     0.055 A 
ATOM     82  C   UNL     1       9.767  12.579 -11.082  1.00  0.00     0.041 A 
ATOM     83  F   UNL     1      10.472  10.356 -10.846  1.00  0.00    -0.206 F 
ATOM     84  C   UNL     1       9.910  13.836 -11.660  1.00  0.00     0.022 A 
BRANCH  81  85
ATOM     85  S   UNL     1      11.193  15.687 -13.305  1.00  0.00     0.124 S 
ATOM     86  O   UNL     1      12.586  15.911 -12.935  1.00  0.00    -0.237 OA
ATOM     87  O   UNL     1      10.929  15.486 -14.726  1.00  0.00    -0.237 OA
ATOM     88  O   UNL     1      10.218  16.519 -12.603  1.00  0.00    -0.744 OA
ENDBRANCH  81  85
ENDBRANCH  54  78
BRANCH  66  89
ATOM     89  C   UNL     1      18.523  10.955 -11.895  1.00  0.00     0.023 A 
ATOM     90  C   UNL     1      18.621  11.411 -10.569  1.00  0.00     0.031 A 
ATOM     91  C   UNL     1      19.474  11.415 -12.824  1.00  0.00     0.131 A 
ATOM     92  C   UNL     1      19.610  12.344 -10.223  1.00  0.00     0.055 A 
ATOM     93  C   UNL     1      20.494  12.293 -12.459  1.00  0.00     0.041 A 
ATOM     94  F   UNL     1      19.428  11.014 -14.105  1.00  0.00    -0.206 F 
ATOM     95  C   UNL     1      20.558  12.775 -11.155  1.00  0.00     0.022 A 
BRANCH  92  96
ATOM     96  S   UNL     1      19.582  13.065  -8.558  1.00  0.00     0.124 S 
ATOM     97  O   UNL     1      18.250  13.659  -8.507  1.00  0.00    -0.237 OA
ATOM     98  O   UNL     1      19.792  11.897  -7.709  1.00  0.00    -0.237 OA
ATOM     99  O   UNL     1      20.687  14.021  -8.580  1.00  0.00    -0.744 OA
ENDBRANCH  92  96
ENDBRANCH  66  89
ENDBRANCH  40  41
ENDBRANCH  32  35
ENDBRANCH  30  31
ENDBRANCH  29  30
ENDBRANCH   1  29
TORSDOF 19
