REMARK SMILES CC(C)Cc1cc2c(cc1Cl)C=C(C(=O)NCCCCCCNC(=O)c1ccc(-c3c4nc(c(-c5cc(S(=O)(=O)[O-])ccc5F)c5ccc([nH]5)c(-c5cc(S(=O)(=O)[O-])ccc5F)c5nc(c(-c6cc(S(=O)(=O)[O-])ccc6F)c6ccc3[nH]6)C=C5)C=C4)cc1)[C@H](C(F)(F)F)O2
REMARK SMILES IDX 20 1 19 2 18 3 17 4 16 5 14 6 15 7 13 9 5 10 6 11 10 12 7 13
REMARK SMILES IDX 9 14 11 15 8 16 94 17 12 18 89 19 4 20 2 21 1 22 3 23 90 24
REMARK SMILES IDX 91 25 92 26 93 27 21 28 22 29 23 30 24 31 25 33 26 34 27 35
REMARK SMILES IDX 88 36 28 37 87 38 29 39 30 40 31 41 81 42 32 43 86 44 80 45
REMARK SMILES IDX 82 46 33 47 85 48 79 49 78 50 34 52 66 53 46 54 65 55 47 56
REMARK SMILES IDX 50 57 64 58 83 59 48 60 49 61 63 63 84 64 51 65 35 66 36 67
REMARK SMILES IDX 44 68 37 69 43 70 45 71 42 72 38 73 39 74 40 75 41 76 67 77
REMARK SMILES IDX 68 78 76 79 69 80 75 81 77 82 74 83 70 84 71 85 72 86 73 87
REMARK SMILES IDX 52 88 53 89 61 90 54 91 60 92 62 93 59 94 55 95 56 96 57 97
REMARK SMILES IDX 58 98
REMARK H PARENT 16 8 23 32 82 51 50 62
REMARK Flexibility Score: inf
ROOT
ATOM      1  C   UNL     1      -5.672   3.494   9.477  1.00  0.00     0.002 C 
ENDROOT
BRANCH   1   2
ATOM      2  C   UNL     1      -4.201   3.640   9.069  1.00  0.00     0.002 C 
BRANCH   2   3
ATOM      3  C   UNL     1      -3.773   2.834   7.839  1.00  0.00     0.021 C 
BRANCH   3   4
ATOM      4  C   UNL     1      -4.530   3.185   6.559  1.00  0.00     0.116 C 
BRANCH   4   5
ATOM      5  N   UNL     1      -3.951   4.341   5.895  1.00  0.00    -0.352 N 
ATOM      6  C   UNL     1      -3.328   4.609   4.725  1.00  0.00     0.251 C 
ATOM      7  O   UNL     1      -3.011   5.793   4.563  1.00  0.00    -0.270 OA
ATOM      8  H   UNL     1      -4.035   5.150   6.449  1.00  0.00     0.163 HD
BRANCH   6   9
ATOM      9  C   UNL     1      -3.007   3.612   3.658  1.00  0.00     0.067 C 
ATOM     10  C   UNL     1      -1.345   1.467  -0.605  1.00  0.00    -0.025 A 
ATOM     11  C   UNL     1      -2.009   1.000   0.540  1.00  0.00     0.052 A 
ATOM     12  C   UNL     1      -1.144   2.850  -0.740  1.00  0.00     0.045 A 
ATOM     13  C   UNL     1      -2.405   1.881   1.543  1.00  0.00     0.128 A 
ATOM     14  C   UNL     1      -1.556   3.733   0.266  1.00  0.00     0.032 A 
ATOM     15  Cl  UNL     1      -0.392   3.532  -2.139  1.00  0.00    -0.084 Cl
ATOM     16  C   UNL     1      -2.174   3.247   1.420  1.00  0.00     0.019 A 
ATOM     17  O   UNL     1      -3.042   1.331   2.614  1.00  0.00    -0.475 OA
ATOM     18  C   UNL     1      -2.587   4.140   2.493  1.00  0.00     0.025 C 
ATOM     19  C   UNL     1      -3.066   2.118   3.837  1.00  0.00     0.314 C 
BRANCH  10  20
ATOM     20  C   UNL     1      -0.835   0.450  -1.600  1.00  0.00     0.040 C 
BRANCH  20  21
ATOM     21  C   UNL     1       0.685   0.196  -1.504  1.00  0.00    -0.013 C 
ATOM     22  C   UNL     1       1.116  -0.310  -0.124  1.00  0.00     0.008 C 
ATOM     23  C   UNL     1       1.108  -0.811  -2.575  1.00  0.00     0.008 C 
ENDBRANCH  20  21
ENDBRANCH  10  20
BRANCH  19  24
ATOM     24  C   UNL     1      -1.999   1.573   4.803  1.00  0.00     0.429 C 
ATOM     25  F   UNL     1      -1.571   2.499   5.690  1.00  0.00    -0.167 F 
ATOM     26  F   UNL     1      -2.500   0.542   5.529  1.00  0.00    -0.167 F 
ATOM     27  F   UNL     1      -0.899   1.118   4.159  1.00  0.00    -0.167 F 
ENDBRANCH  19  24
ENDBRANCH   6   9
ENDBRANCH   4   5
ENDBRANCH   3   4
ENDBRANCH   2   3
ENDBRANCH   1   2
BRANCH   1  28
ATOM     28  C   UNL     1      -6.191   2.058   9.578  1.00  0.00     0.021 C 
BRANCH  28  29
ATOM     29  C   UNL     1      -5.409   1.152  10.523  1.00  0.00     0.116 C 
BRANCH  29  30
ATOM     30  N   UNL     1      -5.478   1.597  11.905  1.00  0.00    -0.352 N 
ATOM     31  C   UNL     1      -5.901   0.913  13.019  1.00  0.00     0.251 C 
ATOM     32  H   UNL     1      -5.179   2.522  12.065  1.00  0.00     0.163 HD
ATOM     33  O   UNL     1      -6.049   1.508  14.083  1.00  0.00    -0.269 OA
BRANCH  31  34
ATOM     34  C   UNL     1      -6.209  -0.530  12.919  1.00  0.00     0.039 A 
ATOM     35  C   UNL     1      -5.334  -1.403  12.269  1.00  0.00     0.014 A 
ATOM     36  C   UNL     1      -7.405  -1.008  13.461  1.00  0.00     0.014 A 
ATOM     37  C   UNL     1      -5.726  -2.715  12.020  1.00  0.00     0.010 A 
ATOM     38  C   UNL     1      -7.763  -2.346  13.275  1.00  0.00     0.010 A 
ATOM     39  C   UNL     1      -6.950  -3.198  12.510  1.00  0.00    -0.014 A 
BRANCH  39  40
ATOM     40  C   UNL     1      -7.374  -4.590  12.203  1.00  0.00     0.031 A 
ATOM     41  C   UNL     1      -8.580  -4.848  11.340  1.00  0.00     0.074 A 
ATOM     42  C   UNL     1      -6.646  -5.622  12.673  1.00  0.00     0.049 A 
ATOM     43  N   UNL     1      -9.103  -5.990  10.975  1.00  0.00    -0.248 NA
ATOM     44  C   UNL     1      -9.294  -3.671  10.817  1.00  0.00     0.031 C 
ATOM     45  C   UNL     1      -5.448  -5.489  13.501  1.00  0.00     0.029 A 
ATOM     46  N   UNL     1      -6.792  -6.978  12.513  1.00  0.00    -0.354 N 
ATOM     47  C   UNL     1     -10.211  -5.674  10.197  1.00  0.00     0.074 A 
ATOM     48  C   UNL     1     -10.306  -4.231  10.168  1.00  0.00     0.031 C 
ATOM     49  C   UNL     1      -4.941  -6.707  13.738  1.00  0.00     0.029 A 
ATOM     50  C   UNL     1      -5.815  -7.715  13.142  1.00  0.00     0.049 A 
ATOM     51  H   UNL     1      -7.525  -7.384  11.996  1.00  0.00     0.167 HD
ATOM     52  C   UNL     1     -11.059  -6.511   9.553  1.00  0.00     0.034 A 
ATOM     53  C   UNL     1      -5.647  -9.050  13.244  1.00  0.00     0.034 A 
ATOM     54  C   UNL     1     -10.939  -7.947   9.577  1.00  0.00     0.049 A 
ATOM     55  C   UNL     1      -6.631  -9.960  12.556  1.00  0.00     0.074 A 
ATOM     56  C   UNL     1     -11.743  -8.880   8.947  1.00  0.00     0.029 A 
ATOM     57  N   UNL     1      -9.956  -8.656  10.251  1.00  0.00    -0.354 N 
ATOM     58  N   UNL     1      -7.657  -9.643  11.802  1.00  0.00    -0.248 NA
ATOM     59  C   UNL     1      -6.441 -11.407  12.729  1.00  0.00     0.031 C 
ATOM     60  C   UNL     1     -11.281 -10.153   9.284  1.00  0.00     0.029 A 
ATOM     61  C   UNL     1     -10.146 -10.016  10.069  1.00  0.00     0.049 A 
ATOM     62  H   UNL     1      -9.230  -8.253  10.781  1.00  0.00     0.167 HD
ATOM     63  C   UNL     1      -8.220 -10.848  11.392  1.00  0.00     0.074 A 
ATOM     64  C   UNL     1      -7.407 -11.901  11.964  1.00  0.00     0.031 C 
ATOM     65  C   UNL     1      -9.315 -11.060  10.619  1.00  0.00     0.034 A 
BRANCH  52  66
ATOM     66  C   UNL     1     -12.192  -5.921   8.750  1.00  0.00     0.023 A 
ATOM     67  C   UNL     1     -13.526  -6.178   9.119  1.00  0.00     0.031 A 
ATOM     68  C   UNL     1     -11.955  -5.226   7.552  1.00  0.00     0.131 A 
ATOM     69  C   UNL     1     -14.571  -5.774   8.278  1.00  0.00     0.055 A 
ATOM     70  C   UNL     1     -13.001  -4.791   6.737  1.00  0.00     0.041 A 
ATOM     71  F   UNL     1     -10.700  -4.954   7.158  1.00  0.00    -0.206 F 
ATOM     72  C   UNL     1     -14.316  -5.077   7.092  1.00  0.00     0.022 A 
BRANCH  69  73
ATOM     73  S   UNL     1     -16.296  -6.189   8.656  1.00  0.00     0.124 S 
ATOM     74  O   UNL     1     -16.914  -4.867   8.719  1.00  0.00    -0.237 OA
ATOM     75  O   UNL     1     -16.674  -7.000   7.502  1.00  0.00    -0.237 OA
ATOM     76  O   UNL     1     -16.216  -6.898   9.928  1.00  0.00    -0.744 OA
ENDBRANCH  69  73
ENDBRANCH  52  66
BRANCH  53  77
ATOM     77  C   UNL     1      -4.471  -9.581  13.995  1.00  0.00     0.023 A 
ATOM     78  C   UNL     1      -4.293  -9.295  15.361  1.00  0.00     0.031 A 
ATOM     79  C   UNL     1      -3.455 -10.290  13.331  1.00  0.00     0.131 A 
ATOM     80  C   UNL     1      -3.096  -9.649  15.998  1.00  0.00     0.055 A 
ATOM     81  C   UNL     1      -2.296 -10.706  13.990  1.00  0.00     0.041 A 
ATOM     82  F   UNL     1      -3.573 -10.577  12.026  1.00  0.00    -0.206 F 
ATOM     83  C   UNL     1      -2.104 -10.368  15.326  1.00  0.00     0.022 A 
BRANCH  80  84
ATOM     84  S   UNL     1      -2.729  -9.062  17.676  1.00  0.00     0.124 S 
ATOM     85  O   UNL     1      -2.614 -10.314  18.417  1.00  0.00    -0.237 OA
ATOM     86  O   UNL     1      -1.480  -8.333  17.471  1.00  0.00    -0.237 OA
ATOM     87  O   UNL     1      -3.882  -8.233  18.010  1.00  0.00    -0.744 OA
ENDBRANCH  80  84
ENDBRANCH  53  77
BRANCH  65  88
ATOM     88  C   UNL     1      -9.721 -12.480  10.310  1.00  0.00     0.023 A 
ATOM     89  C   UNL     1      -9.715 -12.935   8.977  1.00  0.00     0.031 A 
ATOM     90  C   UNL     1     -10.273 -13.314  11.297  1.00  0.00     0.131 A 
ATOM     91  C   UNL     1     -10.296 -14.169   8.660  1.00  0.00     0.055 A 
ATOM     92  C   UNL     1     -10.807 -14.564  10.982  1.00  0.00     0.041 A 
ATOM     93  F   UNL     1     -10.310 -12.918  12.579  1.00  0.00    -0.206 F 
ATOM     94  C   UNL     1     -10.836 -14.989   9.657  1.00  0.00     0.022 A 
BRANCH  91  95
ATOM     95  S   UNL     1     -10.459 -14.712   6.937  1.00  0.00     0.124 S 
ATOM     96  O   UNL     1      -9.707 -15.965   6.942  1.00  0.00    -0.237 OA
ATOM     97  O   UNL     1     -11.905 -14.853   6.794  1.00  0.00    -0.237 OA
ATOM     98  O   UNL     1      -9.854 -13.629   6.167  1.00  0.00    -0.744 OA
ENDBRANCH  91  95
ENDBRANCH  65  88
ENDBRANCH  39  40
ENDBRANCH  31  34
ENDBRANCH  29  30
ENDBRANCH  28  29
ENDBRANCH   1  28
TORSDOF 19
