REMARK SMILES C[C@@](NC(=O)CCOC1CC[NH2+]CC1)(C(=O)NCCCCCCNC(=O)c1ccc(-c2c3nc(c(-c4cc(S(=O)(=O)[O-])ccc4F)c4ccc([nH]4)c(-c4cc(S(=O)(=O)[O-])ccc4F)c4nc(c(-c5cc(S(=O)(=O)[O-])ccc5F)c5ccc2[nH]5)C=C4)C=C3)cc1)C(F)(F)F
REMARK SMILES IDX 19 1 18 2 17 3 15 4 16 5 2 7 1 8 3 9 4 10 5 12 6 13 7 14
REMARK SMILES IDX 8 15 9 16 10 17 14 18 11 19 13 20 12 21 90 24 91 25 92 26
REMARK SMILES IDX 93 27 20 28 21 29 22 30 23 31 24 32 25 33 26 35 27 36 28 37
REMARK SMILES IDX 89 38 29 39 88 40 30 41 31 42 32 43 82 44 33 45 87 46 81 47
REMARK SMILES IDX 83 48 34 49 86 50 80 51 79 52 35 54 67 55 47 56 66 57 48 58
REMARK SMILES IDX 51 59 65 60 84 61 49 62 50 63 64 65 85 66 52 67 36 68 37 69
REMARK SMILES IDX 45 70 38 71 44 72 46 73 43 74 39 75 40 76 41 77 42 78 68 79
REMARK SMILES IDX 69 80 77 81 70 82 76 83 78 84 75 85 71 86 72 87 73 88 74 89
REMARK SMILES IDX 53 90 54 91 62 92 55 93 61 94 63 95 60 96 56 97 57 98 58 99
REMARK SMILES IDX 59 100
REMARK H PARENT 17 6 3 11 12 22 12 23 24 34 83 53 51 64
REMARK Flexibility Score: inf
ROOT
ATOM      1  C   UNL     1      -2.843  -0.113   2.497  1.00  0.00     0.021 C 
ENDROOT
BRANCH   1   2
ATOM      2  C   UNL     1      -1.658  -0.725   1.768  1.00  0.00     0.116 C 
BRANCH   2   3
ATOM      3  N   UNL     1      -1.336  -0.207   0.410  1.00  0.00    -0.354 N 
ATOM      4  C   UNL     1      -0.603  -1.054  -0.555  1.00  0.00     0.254 C 
ATOM      5  O   UNL     1      -1.539  -1.931  -0.593  1.00  0.00    -0.272 OA
ATOM      6  H   UNL     1      -1.613   0.702   0.153  1.00  0.00     0.163 HD
BRANCH   4   7
ATOM      7  C   UNL     1       1.174  -0.888  -1.776  1.00  0.00     0.212 C 
ATOM      8  C   UNL     1       2.754  -0.606  -1.217  1.00  0.00     0.056 C 
BRANCH   7   9
ATOM      9  N   UNL     1       1.632  -2.441  -2.807  1.00  0.00    -0.334 N 
ATOM     10  C   UNL     1       1.197  -3.858  -2.801  1.00  0.00     0.223 C 
ATOM     11  H   UNL     1       2.309  -2.253  -3.497  1.00  0.00     0.164 HD
ATOM     12  O   UNL     1       1.748  -4.596  -3.629  1.00  0.00    -0.275 OA
BRANCH  10  13
ATOM     13  C   UNL     1      -0.101  -4.567  -1.760  1.00  0.00     0.128 C 
BRANCH  13  14
ATOM     14  C   UNL     1      -0.621  -4.230  -0.044  1.00  0.00     0.170 C 
BRANCH  14  15
ATOM     15  O   UNL     1      -0.125  -3.057   1.002  1.00  0.00    -0.377 OA
BRANCH  15  16
ATOM     16  C   UNL     1       0.892  -2.039   0.581  1.00  0.00     0.129 C 
ATOM     17  C   UNL     1       0.948  -0.104   0.532  1.00  0.00     0.093 C 
ATOM     18  C   UNL     1       0.838  -2.613  -0.838  1.00  0.00     0.093 C 
ATOM     19  C   UNL     1       0.137   0.882  -0.943  1.00  0.00     0.263 C 
ATOM     20  C   UNL     1      -0.426  -1.930  -2.339  1.00  0.00     0.263 C 
ATOM     21  N   UNL     1      -0.751  -0.064  -2.260  1.00  0.00    -0.346 N 
ATOM     22  H   UNL     1      -0.484   0.335  -3.160  1.00  0.00     0.346 HD
ATOM     23  H   UNL     1      -1.742   0.025  -2.032  1.00  0.00     0.346 HD
ENDBRANCH  15  16
ENDBRANCH  14  15
ENDBRANCH  13  14
ENDBRANCH  10  13
ENDBRANCH   7   9
BRANCH   7  24
ATOM     24  C   UNL     1       1.495   0.132  -3.191  1.00  0.00     0.420 C 
ATOM     25  F   UNL     1       1.953   1.376  -2.915  1.00  0.00    -0.168 F 
ATOM     26  F   UNL     1       2.544  -0.444  -3.882  1.00  0.00    -0.168 F 
ATOM     27  F   UNL     1       0.529   0.245  -4.129  1.00  0.00    -0.168 F 
ENDBRANCH   7  24
ENDBRANCH   4   7
ENDBRANCH   2   3
ENDBRANCH   1   2
BRANCH   1  28
ATOM     28  C   UNL     1      -4.120  -0.963   2.477  1.00  0.00     0.002 C 
BRANCH  28  29
ATOM     29  C   UNL     1      -4.014  -2.498   2.524  1.00  0.00     0.002 C 
BRANCH  29  30
ATOM     30  C   UNL     1      -3.110  -3.192   3.555  1.00  0.00     0.021 C 
BRANCH  30  31
ATOM     31  C   UNL     1      -3.170  -2.729   5.004  1.00  0.00     0.116 C 
BRANCH  31  32
ATOM     32  N   UNL     1      -4.486  -2.854   5.592  1.00  0.00    -0.352 N 
ATOM     33  C   UNL     1      -4.894  -3.386   6.791  1.00  0.00     0.251 C 
ATOM     34  H   UNL     1      -5.216  -2.497   5.036  1.00  0.00     0.163 HD
ATOM     35  O   UNL     1      -6.103  -3.446   7.012  1.00  0.00    -0.269 OA
BRANCH  33  36
ATOM     36  C   UNL     1      -3.940  -3.916   7.806  1.00  0.00     0.039 A 
ATOM     37  C   UNL     1      -4.351  -5.018   8.569  1.00  0.00     0.014 A 
ATOM     38  C   UNL     1      -2.698  -3.333   8.078  1.00  0.00     0.014 A 
ATOM     39  C   UNL     1      -3.515  -5.557   9.555  1.00  0.00     0.010 A 
ATOM     40  C   UNL     1      -1.839  -3.906   9.026  1.00  0.00     0.010 A 
ATOM     41  C   UNL     1      -2.240  -5.020   9.780  1.00  0.00    -0.014 A 
BRANCH  41  42
ATOM     42  C   UNL     1      -1.335  -5.612  10.804  1.00  0.00     0.031 A 
ATOM     43  C   UNL     1      -0.996  -4.854  12.061  1.00  0.00     0.074 A 
ATOM     44  C   UNL     1      -0.786  -6.824  10.593  1.00  0.00     0.049 A 
ATOM     45  N   UNL     1      -0.217  -5.202  13.055  1.00  0.00    -0.248 NA
ATOM     46  C   UNL     1      -1.594  -3.521  12.204  1.00  0.00     0.031 C 
ATOM     47  C   UNL     1      -0.993  -7.651   9.403  1.00  0.00     0.029 A 
ATOM     48  N   UNL     1       0.065  -7.569  11.372  1.00  0.00    -0.354 N 
ATOM     49  C   UNL     1      -0.215  -4.125  13.935  1.00  0.00     0.074 A 
ATOM     50  C   UNL     1      -1.040  -3.097  13.331  1.00  0.00     0.031 C 
ATOM     51  C   UNL     1      -0.301  -8.795   9.539  1.00  0.00     0.029 A 
ATOM     52  C   UNL     1       0.414  -8.774  10.811  1.00  0.00     0.049 A 
ATOM     53  H   UNL     1       0.393  -7.268  12.250  1.00  0.00     0.167 HD
ATOM     54  C   UNL     1       0.401  -4.005  15.139  1.00  0.00     0.034 A 
ATOM     55  C   UNL     1       1.220  -9.753  11.266  1.00  0.00     0.034 A 
ATOM     56  C   UNL     1       1.202  -5.039  15.750  1.00  0.00     0.049 A 
ATOM     57  C   UNL     1       1.884  -9.606  12.607  1.00  0.00     0.074 A 
ATOM     58  C   UNL     1       1.796  -5.048  17.002  1.00  0.00     0.029 A 
ATOM     59  N   UNL     1       1.532  -6.247  15.150  1.00  0.00    -0.354 N 
ATOM     60  N   UNL     1       1.831  -8.602  13.450  1.00  0.00    -0.248 NA
ATOM     61  C   UNL     1       2.711 -10.734  13.060  1.00  0.00     0.031 C 
ATOM     62  C   UNL     1       2.523  -6.238  17.139  1.00  0.00     0.029 A 
ATOM     63  C   UNL     1       2.343  -6.994  15.992  1.00  0.00     0.049 A 
ATOM     64  H   UNL     1       1.233  -6.532  14.257  1.00  0.00     0.167 HD
ATOM     65  C   UNL     1       2.603  -8.986  14.541  1.00  0.00     0.074 A 
ATOM     66  C   UNL     1       3.106 -10.314  14.253  1.00  0.00     0.031 C 
ATOM     67  C   UNL     1       2.863  -8.304  15.685  1.00  0.00     0.034 A 
BRANCH  54  68
ATOM     68  C   UNL     1       0.251  -2.686  15.855  1.00  0.00     0.023 A 
ATOM     69  C   UNL     1      -0.995  -2.242  16.331  1.00  0.00     0.031 A 
ATOM     70  C   UNL     1       1.361  -1.839  16.020  1.00  0.00     0.131 A 
ATOM     71  C   UNL     1      -1.117  -0.953  16.873  1.00  0.00     0.055 A 
ATOM     72  C   UNL     1       1.247  -0.587  16.628  1.00  0.00     0.041 A 
ATOM     73  F   UNL     1       2.572  -2.205  15.570  1.00  0.00    -0.206 F 
ATOM     74  C   UNL     1      -0.001  -0.131  17.042  1.00  0.00     0.022 A 
BRANCH  71  75
ATOM     75  S   UNL     1      -2.779  -0.311  17.211  1.00  0.00     0.124 S 
ATOM     76  O   UNL     1      -3.414  -0.428  15.901  1.00  0.00    -0.237 OA
ATOM     77  O   UNL     1      -3.264  -1.221  18.241  1.00  0.00    -0.237 OA
ATOM     78  O   UNL     1      -2.533   1.060  17.654  1.00  0.00    -0.744 OA
ENDBRANCH  71  75
ENDBRANCH  54  68
BRANCH  55  79
ATOM     79  C   UNL     1       1.453 -10.967  10.443  1.00  0.00     0.023 A 
ATOM     80  C   UNL     1       0.873 -12.196  10.793  1.00  0.00     0.031 A 
ATOM     81  C   UNL     1       2.282 -10.917   9.310  1.00  0.00     0.131 A 
ATOM     82  C   UNL     1       1.153 -13.338  10.029  1.00  0.00     0.055 A 
ATOM     83  C   UNL     1       2.536 -12.051   8.538  1.00  0.00     0.041 A 
ATOM     84  F   UNL     1       2.850  -9.759   8.936  1.00  0.00    -0.206 F 
ATOM     85  C   UNL     1       1.975 -13.273   8.900  1.00  0.00     0.022 A 
BRANCH  82  86
ATOM     86  S   UNL     1       0.452 -14.926  10.553  1.00  0.00     0.124 S 
ATOM     87  O   UNL     1       1.058 -15.101  11.868  1.00  0.00    -0.237 OA
ATOM     88  O   UNL     1      -0.980 -14.645  10.538  1.00  0.00    -0.237 OA
ATOM     89  O   UNL     1       0.911 -15.857   9.524  1.00  0.00    -0.744 OA
ENDBRANCH  82  86
ENDBRANCH  55  79
BRANCH  67  90
ATOM     90  C   UNL     1       3.709  -9.008  16.712  1.00  0.00     0.023 A 
ATOM     91  C   UNL     1       5.088  -9.205  16.518  1.00  0.00     0.031 A 
ATOM     92  C   UNL     1       3.119  -9.526  17.878  1.00  0.00     0.131 A 
ATOM     93  C   UNL     1       5.825  -9.943  17.457  1.00  0.00     0.055 A 
ATOM     94  C   UNL     1       3.865 -10.226  18.827  1.00  0.00     0.041 A 
ATOM     95  F   UNL     1       1.806  -9.368  18.105  1.00  0.00    -0.206 F 
ATOM     96  C   UNL     1       5.223 -10.448  18.614  1.00  0.00     0.022 A 
BRANCH  93  97
ATOM     97  S   UNL     1       7.568 -10.307  17.108  1.00  0.00     0.124 S 
ATOM     98  O   UNL     1       7.486 -10.998  15.825  1.00  0.00    -0.237 OA
ATOM     99  O   UNL     1       8.164  -8.975  17.079  1.00  0.00    -0.237 OA
ATOM    100  O   UNL     1       7.977 -11.143  18.236  1.00  0.00    -0.744 OA
ENDBRANCH  93  97
ENDBRANCH  67  90
ENDBRANCH  41  42
ENDBRANCH  33  36
ENDBRANCH  31  32
ENDBRANCH  30  31
ENDBRANCH  29  30
ENDBRANCH  28  29
ENDBRANCH   1  28
TORSDOF 22
