REMARK SMILES C[C@H]1OCC[C@@H]1C(=O)Nc1sc2c(c1C(=O)NCCCCCCNC(=O)c1ccc(-c3c4nc(c(-c5cc(S(=O)(=O)[O-])ccc5F)c5ccc([nH]5)c(-c5cc(S(=O)(=O)[O-])ccc5F)c5nc(c(-c6cc(S(=O)(=O)[O-])ccc6F)c6ccc3[nH]6)C=C5)C=C4)cc1)CCC2
REMARK SMILES IDX 21 1 20 2 19 3 18 4 17 5 15 6 16 7 14 9 10 10 11 11 12 12
REMARK SMILES IDX 13 13 92 14 90 15 91 16 9 17 7 18 8 19 6 21 1 22 2 23 3 24
REMARK SMILES IDX 4 25 5 26 22 27 23 28 24 29 25 30 26 32 27 33 28 34 89 35
REMARK SMILES IDX 29 36 88 37 30 38 31 39 32 40 82 41 33 42 87 43 81 44 83 45
REMARK SMILES IDX 34 46 86 47 80 48 79 49 35 51 67 52 47 53 66 54 48 55 51 56
REMARK SMILES IDX 65 57 84 58 49 59 50 60 64 62 85 63 52 64 36 65 37 66 45 67
REMARK SMILES IDX 38 68 44 69 46 70 43 71 39 72 40 73 41 74 42 75 68 76 69 77
REMARK SMILES IDX 77 78 70 79 76 80 78 81 75 82 71 83 72 84 73 85 74 86 53 87
REMARK SMILES IDX 54 88 62 89 55 90 61 91 63 92 60 93 56 94 57 95 58 96 59 97
REMARK H PARENT 17 8 9 20 24 31 83 50 51 61
REMARK Flexibility Score: inf
ROOT
ATOM      1  C   UNL     1      -6.048   2.953  -1.144  1.00  0.00     0.002 C 
ENDROOT
BRANCH   1   2
ATOM      2  C   UNL     1      -4.521   2.793  -1.249  1.00  0.00     0.002 C 
BRANCH   2   3
ATOM      3  C   UNL     1      -3.784   2.813   0.095  1.00  0.00     0.021 C 
BRANCH   3   4
ATOM      4  C   UNL     1      -4.317   1.791   1.095  1.00  0.00     0.116 C 
BRANCH   4   5
ATOM      5  N   UNL     1      -3.882   0.442   0.867  1.00  0.00    -0.352 N 
ATOM      6  C   UNL     1      -3.073  -0.406   1.575  1.00  0.00     0.254 C 
ATOM      7  O   UNL     1      -3.290  -1.602   1.349  1.00  0.00    -0.269 OA
ATOM      8  H   UNL     1      -4.235   0.049   0.036  1.00  0.00     0.163 HD
BRANCH   6   9
ATOM      9  C   UNL     1      -2.017  -0.005   2.519  1.00  0.00     0.078 A 
ATOM     10  C   UNL     1      -0.993  -0.913   2.833  1.00  0.00     0.108 A 
ATOM     11  S   UNL     1      -0.204  -0.583   4.319  1.00  0.00    -0.122 S 
ATOM     12  C   UNL     1      -0.914   0.918   4.361  1.00  0.00     0.011 A 
ATOM     13  C   UNL     1      -1.816   1.158   3.351  1.00  0.00    -0.019 A 
ATOM     14  C   UNL     1      -0.772   2.003   5.359  1.00  0.00     0.047 C 
ATOM     15  C   UNL     1      -2.382   2.526   3.555  1.00  0.00     0.038 C 
ATOM     16  C   UNL     1      -1.441   3.175   4.608  1.00  0.00     0.010 C 
BRANCH  10  17
ATOM     17  N   UNL     1      -0.579  -2.121   2.324  1.00  0.00    -0.317 N 
ATOM     18  C   UNL     1      -0.102  -2.459   1.098  1.00  0.00     0.230 C 
ATOM     19  O   UNL     1       0.153  -3.663   0.929  1.00  0.00    -0.274 OA
ATOM     20  H   UNL     1      -0.639  -2.871   2.959  1.00  0.00     0.170 HD
BRANCH  18  21
ATOM     21  C   UNL     1       0.271  -1.494  -0.024  1.00  0.00     0.110 C 
ATOM     22  C   UNL     1       2.363  -0.128  -0.430  1.00  0.00     0.039 C 
ATOM     23  C   UNL     1       1.103  -0.299   0.420  1.00  0.00     0.127 C 
ATOM     24  O   UNL     1       0.271   0.855   0.242  1.00  0.00    -0.378 OA
ATOM     25  C   UNL     1      -0.658   0.569  -0.802  1.00  0.00     0.161 C 
ATOM     26  C   UNL     1      -0.863  -0.927  -0.839  1.00  0.00     0.044 C 
ENDBRANCH  18  21
ENDBRANCH  10  17
ENDBRANCH   6   9
ENDBRANCH   4   5
ENDBRANCH   3   4
ENDBRANCH   2   3
ENDBRANCH   1   2
BRANCH   1  27
ATOM     27  C   UNL     1      -6.533   4.085  -0.223  1.00  0.00     0.021 C 
BRANCH  27  28
ATOM     28  C   UNL     1      -6.163   5.471  -0.731  1.00  0.00     0.116 C 
BRANCH  28  29
ATOM     29  N   UNL     1      -6.902   5.793  -1.942  1.00  0.00    -0.352 N 
ATOM     30  C   UNL     1      -6.902   6.963  -2.667  1.00  0.00     0.251 C 
ATOM     31  H   UNL     1      -7.481   5.077  -2.289  1.00  0.00     0.163 HD
ATOM     32  O   UNL     1      -7.852   7.223  -3.391  1.00  0.00    -0.269 OA
BRANCH  30  33
ATOM     33  C   UNL     1      -5.757   7.889  -2.560  1.00  0.00     0.039 A 
ATOM     34  C   UNL     1      -5.971   9.269  -2.614  1.00  0.00     0.014 A 
ATOM     35  C   UNL     1      -4.462   7.378  -2.449  1.00  0.00     0.014 A 
ATOM     36  C   UNL     1      -4.884  10.130  -2.489  1.00  0.00     0.010 A 
ATOM     37  C   UNL     1      -3.397   8.227  -2.237  1.00  0.00     0.010 A 
ATOM     38  C   UNL     1      -3.599   9.603  -2.281  1.00  0.00    -0.014 A 
BRANCH  38  39
ATOM     39  C   UNL     1      -2.496  10.480  -1.890  1.00  0.00     0.031 A 
ATOM     40  C   UNL     1      -2.784  11.266  -0.662  1.00  0.00     0.074 A 
ATOM     41  C   UNL     1      -1.259  10.435  -2.434  1.00  0.00     0.049 A 
ATOM     42  N   UNL     1      -2.984  12.539  -0.589  1.00  0.00    -0.248 NA
ATOM     43  C   UNL     1      -3.081  10.553   0.592  1.00  0.00     0.031 C 
ATOM     44  C   UNL     1      -0.780   9.542  -3.490  1.00  0.00     0.029 A 
ATOM     45  N   UNL     1      -0.126  11.109  -2.078  1.00  0.00    -0.354 N 
ATOM     46  C   UNL     1      -3.149  12.823   0.761  1.00  0.00     0.074 A 
ATOM     47  C   UNL     1      -3.441  11.563   1.387  1.00  0.00     0.031 C 
ATOM     48  C   UNL     1       0.572   9.566  -3.525  1.00  0.00     0.029 A 
ATOM     49  C   UNL     1       1.057  10.566  -2.586  1.00  0.00     0.049 A 
ATOM     50  H   UNL     1      -0.142  11.912  -1.509  1.00  0.00     0.167 HD
ATOM     51  C   UNL     1      -2.754  14.025   1.267  1.00  0.00     0.034 A 
ATOM     52  C   UNL     1       2.339  10.891  -2.249  1.00  0.00     0.034 A 
ATOM     53  C   UNL     1      -2.516  14.972   0.193  1.00  0.00     0.049 A 
ATOM     54  C   UNL     1       2.290  12.274  -1.712  1.00  0.00     0.074 A 
ATOM     55  C   UNL     1      -3.281  15.454  -0.854  1.00  0.00     0.029 A 
ATOM     56  N   UNL     1      -1.208  15.247  -0.150  1.00  0.00    -0.354 N 
ATOM     57  N   UNL     1       1.974  13.305  -2.448  1.00  0.00    -0.248 NA
ATOM     58  C   UNL     1       2.084  12.453  -0.282  1.00  0.00     0.031 C 
ATOM     59  C   UNL     1      -2.389  15.506  -1.964  1.00  0.00     0.029 A 
ATOM     60  C   UNL     1      -1.109  15.172  -1.517  1.00  0.00     0.049 A 
ATOM     61  H   UNL     1      -0.477  15.458   0.475  1.00  0.00     0.167 HD
ATOM     62  C   UNL     1       1.103  14.044  -1.662  1.00  0.00     0.074 A 
ATOM     63  C   UNL     1       1.299  13.536  -0.304  1.00  0.00     0.031 C 
ATOM     64  C   UNL     1       0.096  14.777  -2.224  1.00  0.00     0.034 A 
BRANCH  51  65
ATOM     65  C   UNL     1      -2.184  14.245   2.654  1.00  0.00     0.023 A 
ATOM     66  C   UNL     1      -1.741  15.549   2.949  1.00  0.00     0.031 A 
ATOM     67  C   UNL     1      -1.771  13.243   3.560  1.00  0.00     0.131 A 
ATOM     68  C   UNL     1      -0.814  15.785   3.976  1.00  0.00     0.055 A 
ATOM     69  C   UNL     1      -0.906  13.496   4.629  1.00  0.00     0.041 A 
ATOM     70  F   UNL     1      -2.103  11.955   3.426  1.00  0.00    -0.206 F 
ATOM     71  C   UNL     1      -0.387  14.765   4.818  1.00  0.00     0.022 A 
BRANCH  68  72
ATOM     72  S   UNL     1      -0.024  17.411   4.046  1.00  0.00     0.124 S 
ATOM     73  O   UNL     1       0.539  17.511   2.704  1.00  0.00    -0.237 OA
ATOM     74  O   UNL     1      -1.157  18.282   4.337  1.00  0.00    -0.237 OA
ATOM     75  O   UNL     1       0.948  17.268   5.126  1.00  0.00    -0.744 OA
ENDBRANCH  68  72
ENDBRANCH  51  65
BRANCH  52  76
ATOM     76  C   UNL     1       3.543  10.005  -2.147  1.00  0.00     0.023 A 
ATOM     77  C   UNL     1       4.862  10.501  -1.989  1.00  0.00     0.031 A 
ATOM     78  C   UNL     1       3.377   8.615  -1.947  1.00  0.00     0.131 A 
ATOM     79  C   UNL     1       5.925   9.628  -1.639  1.00  0.00     0.055 A 
ATOM     80  C   UNL     1       4.428   7.761  -1.603  1.00  0.00     0.041 A 
ATOM     81  F   UNL     1       2.164   8.043  -1.988  1.00  0.00    -0.206 F 
ATOM     82  C   UNL     1       5.705   8.265  -1.433  1.00  0.00     0.022 A 
BRANCH  79  83
ATOM     83  S   UNL     1       7.612  10.261  -1.331  1.00  0.00     0.124 S 
ATOM     84  O   UNL     1       8.099  10.518  -2.682  1.00  0.00    -0.237 OA
ATOM     85  O   UNL     1       7.368  11.429  -0.494  1.00  0.00    -0.237 OA
ATOM     86  O   UNL     1       8.273   9.149  -0.644  1.00  0.00    -0.744 OA
ENDBRANCH  79  83
ENDBRANCH  52  76
BRANCH  64  87
ATOM     87  C   UNL     1       0.121  15.029  -3.720  1.00  0.00     0.023 A 
ATOM     88  C   UNL     1       0.171  14.026  -4.716  1.00  0.00     0.031 A 
ATOM     89  C   UNL     1      -0.045  16.359  -4.147  1.00  0.00     0.131 A 
ATOM     90  C   UNL     1       0.069  14.378  -6.078  1.00  0.00     0.055 A 
ATOM     91  C   UNL     1      -0.175  16.700  -5.491  1.00  0.00     0.041 A 
ATOM     92  F   UNL     1      -0.125  17.357  -3.250  1.00  0.00    -0.206 F 
ATOM     93  C   UNL     1      -0.112  15.710  -6.464  1.00  0.00     0.022 A 
BRANCH  90  94
ATOM     94  S   UNL     1       0.190  13.110  -7.381  1.00  0.00     0.124 S 
ATOM     95  O   UNL     1       1.373  12.345  -7.005  1.00  0.00    -0.237 OA
ATOM     96  O   UNL     1      -1.087  12.411  -7.265  1.00  0.00    -0.237 OA
ATOM     97  O   UNL     1       0.340  13.896  -8.608  1.00  0.00    -0.744 OA
ENDBRANCH  90  94
ENDBRANCH  64  87
ENDBRANCH  38  39
ENDBRANCH  30  33
ENDBRANCH  28  29
ENDBRANCH  27  28
ENDBRANCH   1  27
TORSDOF 18
