REMARK SMILES Cc1ccc(C(=O)N2C[C@@H](C(=O)NCCCCCCNC(=O)c3ccc(-c4c5nc(c(-c6cc(S(=O)(=O)[O-])ccc6F)c6ccc([nH]6)c(-c6cc(S(=O)(=O)[O-])ccc6F)c6nc(c(-c7cc(S(=O)(=O)[O-])ccc7F)c7ccc4[nH]7)C=C6)C=C5)cc3)C[C@H](C(=O)N3CCOCC3)C2)cc1F
REMARK SMILES IDX 17 1 16 2 15 3 14 4 13 5 11 6 12 7 10 9 8 10 9 11 96 12
REMARK SMILES IDX 87 13 86 14 6 15 7 16 5 17 1 18 2 19 3 20 98 21 4 22 97 23
REMARK SMILES IDX 99 24 88 25 89 26 90 27 91 28 95 29 92 30 94 31 93 32 18 33
REMARK SMILES IDX 19 34 20 35 21 36 22 38 23 39 24 40 85 41 25 42 84 43 26 44
REMARK SMILES IDX 27 45 28 46 78 47 29 48 83 49 77 50 79 51 30 52 82 53 76 54
REMARK SMILES IDX 75 55 31 57 63 58 43 59 62 60 44 61 47 62 61 63 80 64 45 65
REMARK SMILES IDX 46 66 60 68 81 69 48 70 32 71 33 72 41 73 34 74 40 75 42 76
REMARK SMILES IDX 39 77 35 78 36 79 37 80 38 81 64 82 65 83 73 84 66 85 72 86
REMARK SMILES IDX 74 87 71 88 67 89 68 90 69 91 70 92 49 93 50 94 58 95 51 96
REMARK SMILES IDX 57 97 59 98 56 99 52 100 53 101 54 102 55 103
REMARK H PARENT 13 8 20 37 79 56 47 67
REMARK Flexibility Score: inf
ROOT
ATOM      1  C   UNL     1      -9.396   1.694   3.923  1.00  0.00     0.002 C 
ENDROOT
BRANCH   1   2
ATOM      2  C   UNL     1     -10.145   1.274   2.646  1.00  0.00     0.002 C 
BRANCH   2   3
ATOM      3  C   UNL     1      -9.259   1.144   1.408  1.00  0.00     0.021 C 
BRANCH   3   4
ATOM      4  C   UNL     1      -7.961   0.422   1.701  1.00  0.00     0.116 C 
BRANCH   4   5
ATOM      5  N   UNL     1      -8.225  -0.916   2.175  1.00  0.00    -0.356 N 
ATOM      6  C   UNL     1      -7.658  -2.077   1.792  1.00  0.00     0.224 C 
ATOM      7  O   UNL     1      -8.073  -3.133   2.270  1.00  0.00    -0.275 OA
ATOM      8  H   UNL     1      -8.913  -0.990   2.875  1.00  0.00     0.163 HD
BRANCH   6   9
ATOM      9  C   UNL     1      -6.533  -2.060   0.794  1.00  0.00     0.099 C 
ATOM     10  N   UNL     1      -4.261  -1.203   0.333  1.00  0.00    -0.337 N 
ATOM     11  C   UNL     1      -5.331  -1.291   1.310  1.00  0.00     0.133 C 
ATOM     12  C   UNL     1      -4.629  -0.755  -1.012  1.00  0.00     0.133 C 
ATOM     13  C   UNL     1      -5.826  -1.528  -1.609  1.00  0.00     0.099 C 
ATOM     14  C   UNL     1      -6.980  -1.736  -0.634  1.00  0.00     0.030 C 
BRANCH  10  15
ATOM     15  C   UNL     1      -2.970  -1.353   0.824  1.00  0.00     0.254 C 
ATOM     16  O   UNL     1      -2.715  -2.058   1.801  1.00  0.00    -0.269 OA
BRANCH  15  17
ATOM     17  C   UNL     1      -1.849  -0.570   0.264  1.00  0.00     0.042 A 
ATOM     18  C   UNL     1       1.704   1.798  -0.215  1.00  0.00     0.047 C 
ATOM     19  C   UNL     1       0.449   0.982  -0.137  1.00  0.00    -0.015 A 
ATOM     20  C   UNL     1      -0.812   1.590  -0.095  1.00  0.00     0.007 A 
ATOM     21  C   UNL     1       0.532  -0.409  -0.030  1.00  0.00     0.126 A 
ATOM     22  C   UNL     1      -1.960   0.818   0.112  1.00  0.00     0.014 A 
ATOM     23  C   UNL     1      -0.599  -1.187   0.176  1.00  0.00     0.053 A 
ATOM     24  F   UNL     1       1.731  -1.009  -0.059  1.00  0.00    -0.207 F 
ENDBRANCH  15  17
ENDBRANCH  10  15
BRANCH  13  25
ATOM     25  C   UNL     1      -5.326  -2.735  -2.412  1.00  0.00     0.227 C 
ATOM     26  O   UNL     1      -5.098  -2.578  -3.617  1.00  0.00    -0.275 OA
ATOM     27  N   UNL     1      -4.885  -3.868  -1.773  1.00  0.00    -0.338 N 
ATOM     28  C   UNL     1      -5.612  -4.737  -0.845  1.00  0.00     0.148 C 
ATOM     29  C   UNL     1      -3.621  -4.457  -2.197  1.00  0.00     0.148 C 
ATOM     30  C   UNL     1      -4.721  -5.055   0.370  1.00  0.00     0.181 C 
ATOM     31  C   UNL     1      -2.781  -4.758  -0.951  1.00  0.00     0.181 C 
ATOM     32  O   UNL     1      -3.482  -5.650  -0.063  1.00  0.00    -0.378 OA
ENDBRANCH  13  25
ENDBRANCH   6   9
ENDBRANCH   4   5
ENDBRANCH   3   4
ENDBRANCH   2   3
ENDBRANCH   1   2
BRANCH   1  33
ATOM     33  C   UNL     1      -8.459   2.904   3.781  1.00  0.00     0.021 C 
BRANCH  33  34
ATOM     34  C   UNL     1      -9.197   4.121   3.301  1.00  0.00     0.116 C 
BRANCH  34  35
ATOM     35  N   UNL     1     -10.100   4.571   4.344  1.00  0.00    -0.352 N 
ATOM     36  C   UNL     1     -10.642   5.819   4.440  1.00  0.00     0.251 C 
ATOM     37  H   UNL     1     -10.341   3.920   5.042  1.00  0.00     0.163 HD
ATOM     38  O   UNL     1     -11.056   6.224   5.531  1.00  0.00    -0.269 OA
BRANCH  36  39
ATOM     39  C   UNL     1     -10.773   6.564   3.189  1.00  0.00     0.039 A 
ATOM     40  C   UNL     1     -10.478   7.920   3.064  1.00  0.00     0.014 A 
ATOM     41  C   UNL     1     -11.202   5.807   2.098  1.00  0.00     0.014 A 
ATOM     42  C   UNL     1     -10.696   8.535   1.837  1.00  0.00     0.010 A 
ATOM     43  C   UNL     1     -11.176   6.350   0.857  1.00  0.00     0.010 A 
ATOM     44  C   UNL     1     -11.075   7.735   0.758  1.00  0.00    -0.014 A 
BRANCH  44  45
ATOM     45  C   UNL     1     -11.534   8.219  -0.525  1.00  0.00     0.031 A 
ATOM     46  C   UNL     1     -10.617   8.958  -1.387  1.00  0.00     0.074 A 
ATOM     47  C   UNL     1     -12.758   7.772  -0.899  1.00  0.00     0.049 A 
ATOM     48  N   UNL     1     -11.001   9.790  -2.284  1.00  0.00    -0.248 NA
ATOM     49  C   UNL     1      -9.164   8.832  -1.292  1.00  0.00     0.031 C 
ATOM     50  C   UNL     1     -13.393   7.750  -2.200  1.00  0.00     0.029 A 
ATOM     51  N   UNL     1     -13.759   7.262  -0.054  1.00  0.00    -0.354 N 
ATOM     52  C   UNL     1      -9.921   9.974  -3.119  1.00  0.00     0.074 A 
ATOM     53  C   UNL     1      -8.772   9.537  -2.359  1.00  0.00     0.031 C 
ATOM     54  C   UNL     1     -14.719   7.576  -2.022  1.00  0.00     0.029 A 
ATOM     55  C   UNL     1     -14.978   7.673  -0.592  1.00  0.00     0.049 A 
ATOM     56  H   UNL     1     -13.625   6.721   0.757  1.00  0.00     0.167 HD
ATOM     57  C   UNL     1     -10.159  10.233  -4.437  1.00  0.00     0.034 A 
ATOM     58  C   UNL     1     -15.728   8.629   0.045  1.00  0.00     0.034 A 
ATOM     59  C   UNL     1     -11.611  10.283  -4.685  1.00  0.00     0.049 A 
ATOM     60  C   UNL     1     -15.810   9.912  -0.773  1.00  0.00     0.074 A 
ATOM     61  C   UNL     1     -12.516   9.387  -5.233  1.00  0.00     0.029 A 
ATOM     62  N   UNL     1     -12.380  11.212  -3.999  1.00  0.00    -0.354 N 
ATOM     63  N   UNL     1     -15.171  10.099  -1.895  1.00  0.00    -0.248 NA
ATOM     64  C   UNL     1     -16.545  11.107  -0.365  1.00  0.00     0.031 C 
ATOM     65  C   UNL     1     -13.835   9.792  -4.863  1.00  0.00     0.029 A 
ATOM     66  C   UNL     1     -13.737  10.940  -4.099  1.00  0.00     0.049 A 
ATOM     67  H   UNL     1     -12.007  11.974  -3.499  1.00  0.00     0.167 HD
ATOM     68  C   UNL     1     -15.321  11.385  -2.330  1.00  0.00     0.074 A 
ATOM     69  C   UNL     1     -16.197  11.978  -1.331  1.00  0.00     0.031 C 
ATOM     70  C   UNL     1     -14.682  11.851  -3.449  1.00  0.00     0.034 A 
BRANCH  57  71
ATOM     71  C   UNL     1      -9.109  10.133  -5.531  1.00  0.00     0.023 A 
ATOM     72  C   UNL     1      -7.713  10.176  -5.311  1.00  0.00     0.031 A 
ATOM     73  C   UNL     1      -9.493   9.959  -6.879  1.00  0.00     0.131 A 
ATOM     74  C   UNL     1      -6.787   9.960  -6.353  1.00  0.00     0.055 A 
ATOM     75  C   UNL     1      -8.574   9.789  -7.922  1.00  0.00     0.041 A 
ATOM     76  F   UNL     1     -10.781   9.916  -7.246  1.00  0.00    -0.206 F 
ATOM     77  C   UNL     1      -7.213   9.770  -7.663  1.00  0.00     0.022 A 
BRANCH  74  78
ATOM     78  S   UNL     1      -5.001   9.847  -6.028  1.00  0.00     0.124 S 
ATOM     79  O   UNL     1      -4.656   8.557  -6.625  1.00  0.00    -0.237 OA
ATOM     80  O   UNL     1      -4.477  11.015  -6.728  1.00  0.00    -0.237 OA
ATOM     81  O   UNL     1      -4.906   9.889  -4.571  1.00  0.00    -0.744 OA
ENDBRANCH  74  78
ENDBRANCH  57  71
BRANCH  58  82
ATOM     82  C   UNL     1     -15.614   8.554   1.544  1.00  0.00     0.023 A 
ATOM     83  C   UNL     1     -14.807   9.444   2.271  1.00  0.00     0.031 A 
ATOM     84  C   UNL     1     -15.952   7.325   2.163  1.00  0.00     0.131 A 
ATOM     85  C   UNL     1     -14.249   9.035   3.499  1.00  0.00     0.055 A 
ATOM     86  C   UNL     1     -15.338   6.899   3.345  1.00  0.00     0.041 A 
ATOM     87  F   UNL     1     -16.764   6.455   1.538  1.00  0.00    -0.206 F 
ATOM     88  C   UNL     1     -14.445   7.742   3.997  1.00  0.00     0.022 A 
BRANCH  85  89
ATOM     89  S   UNL     1     -13.170  10.175   4.420  1.00  0.00     0.124 S 
ATOM     90  O   UNL     1     -14.144  10.892   5.237  1.00  0.00    -0.237 OA
ATOM     91  O   UNL     1     -12.279   9.286   5.157  1.00  0.00    -0.237 OA
ATOM     92  O   UNL     1     -12.531  10.946   3.360  1.00  0.00    -0.744 OA
ENDBRANCH  85  89
ENDBRANCH  58  82
BRANCH  70  93
ATOM     93  C   UNL     1     -14.814  13.245  -4.024  1.00  0.00     0.023 A 
ATOM     94  C   UNL     1     -13.787  13.746  -4.862  1.00  0.00     0.031 A 
ATOM     95  C   UNL     1     -15.935  14.072  -3.888  1.00  0.00     0.131 A 
ATOM     96  C   UNL     1     -13.832  15.025  -5.418  1.00  0.00     0.055 A 
ATOM     97  C   UNL     1     -15.969  15.374  -4.408  1.00  0.00     0.041 A 
ATOM     98  F   UNL     1     -17.066  13.632  -3.319  1.00  0.00    -0.206 F 
ATOM     99  C   UNL     1     -14.906  15.864  -5.160  1.00  0.00     0.022 A 
BRANCH  96 100
ATOM    100  S   UNL     1     -12.521  15.592  -6.534  1.00  0.00     0.124 S 
ATOM    101  O   UNL     1     -13.266  15.829  -7.769  1.00  0.00    -0.237 OA
ATOM    102  O   UNL     1     -12.043  16.791  -5.850  1.00  0.00    -0.237 OA
ATOM    103  O   UNL     1     -11.582  14.477  -6.574  1.00  0.00    -0.744 OA
ENDBRANCH  96 100
ENDBRANCH  70  93
ENDBRANCH  44  45
ENDBRANCH  36  39
ENDBRANCH  34  35
ENDBRANCH  33  34
ENDBRANCH   1  33
TORSDOF 19
