REMARK SMILES CC1(C)[C@H](C(=O)NCCCCCCNC(=O)c2ccc(-c3c4nc(c(-c5cc(S(=O)(=O)[O-])ccc5F)c5ccc([nH]5)c(-c5cc(S(=O)(=O)[O-])ccc5F)c5nc(c(-c6cc(S(=O)(=O)[O-])ccc6F)c6ccc3[nH]6)C=C5)C=C4)cc2)[C@@H]1c1nc2ccc(F)cc2s1
REMARK SMILES IDX 11 1 10 2 9 3 8 4 7 5 5 6 6 7 4 9 1 10 2 11 3 12 80 13 81 14
REMARK SMILES IDX 82 15 90 16 83 17 89 18 84 19 88 20 85 21 86 22 87 23 12 24
REMARK SMILES IDX 13 25 14 26 15 27 16 29 17 30 18 31 79 32 19 33 78 34 20 35
REMARK SMILES IDX 21 36 22 37 72 38 23 39 77 40 71 41 73 42 24 43 76 44 70 45
REMARK SMILES IDX 69 46 25 48 57 49 37 50 56 51 38 52 41 53 55 54 74 55 39 56
REMARK SMILES IDX 40 57 54 59 75 60 42 61 26 62 27 63 35 64 28 65 34 66 36 67
REMARK SMILES IDX 33 68 29 69 30 70 31 71 32 72 58 73 59 74 67 75 60 76 66 77
REMARK SMILES IDX 68 78 65 79 61 80 62 81 63 82 64 83 43 84 44 85 52 86 45 87
REMARK SMILES IDX 51 88 53 89 50 90 46 91 47 92 48 93 49 94
REMARK H PARENT 7 8 14 28 73 47 41 58
REMARK Flexibility Score: inf
ROOT
ATOM      1  C   UNL     1      -1.927   6.090  -1.097  1.00  0.00     0.002 C 
ENDROOT
BRANCH   1   2
ATOM      2  C   UNL     1      -0.976   5.280  -1.985  1.00  0.00     0.002 C 
BRANCH   2   3
ATOM      3  C   UNL     1      -0.252   4.123  -1.296  1.00  0.00     0.021 C 
BRANCH   3   4
ATOM      4  C   UNL     1      -1.169   3.091  -0.649  1.00  0.00     0.116 C 
BRANCH   4   5
ATOM      5  N   UNL     1      -1.617   2.083  -1.572  1.00  0.00    -0.356 N 
ATOM      6  C   UNL     1      -1.609   0.719  -1.554  1.00  0.00     0.224 C 
ATOM      7  O   UNL     1      -2.096   0.183  -2.554  1.00  0.00    -0.275 OA
ATOM      8  H   UNL     1      -2.012   2.458  -2.392  1.00  0.00     0.163 HD
BRANCH   6   9
ATOM      9  C   UNL     1      -1.091  -0.202  -0.505  1.00  0.00     0.095 C 
ATOM     10  C   UNL     1       0.989  -1.507   0.269  1.00  0.00     0.013 C 
ATOM     11  C   UNL     1       0.257  -0.177   0.233  1.00  0.00    -0.013 C 
ATOM     12  C   UNL     1       1.214   0.973   0.056  1.00  0.00     0.013 C 
ATOM     13  C   UNL     1      -1.064  -0.102   0.987  1.00  0.00     0.068 C 
BRANCH  13  14
ATOM     14  C   UNL     1      -1.741   1.017   1.757  1.00  0.00     0.098 A 
ATOM     15  N   UNL     1      -3.054   1.026   1.813  1.00  0.00    -0.241 NA
ATOM     16  S   UNL     1      -0.959   2.188   2.731  1.00  0.00    -0.118 S 
ATOM     17  C   UNL     1      -3.486   2.167   2.462  1.00  0.00     0.082 A 
ATOM     18  C   UNL     1      -2.472   2.982   2.971  1.00  0.00     0.057 A 
ATOM     19  C   UNL     1      -4.829   2.569   2.612  1.00  0.00     0.033 A 
ATOM     20  C   UNL     1      -2.748   4.222   3.568  1.00  0.00     0.060 A 
ATOM     21  C   UNL     1      -5.117   3.801   3.206  1.00  0.00     0.041 A 
ATOM     22  C   UNL     1      -4.084   4.612   3.655  1.00  0.00     0.124 A 
ATOM     23  F   UNL     1      -4.380   5.805   4.185  1.00  0.00    -0.207 F 
ENDBRANCH  13  14
ENDBRANCH   6   9
ENDBRANCH   4   5
ENDBRANCH   3   4
ENDBRANCH   2   3
ENDBRANCH   1   2
BRANCH   1  24
ATOM     24  C   UNL     1      -1.353   6.572   0.239  1.00  0.00     0.021 C 
BRANCH  24  25
ATOM     25  C   UNL     1      -0.081   7.412   0.145  1.00  0.00     0.116 C 
BRANCH  25  26
ATOM     26  N   UNL     1      -0.271   8.616  -0.643  1.00  0.00    -0.352 N 
ATOM     27  C   UNL     1      -0.004   9.925  -0.330  1.00  0.00     0.251 C 
ATOM     28  H   UNL     1      -0.650   8.471  -1.541  1.00  0.00     0.163 HD
ATOM     29  O   UNL     1      -0.408  10.815  -1.072  1.00  0.00    -0.269 OA
BRANCH  27  30
ATOM     30  C   UNL     1       0.747  10.267   0.900  1.00  0.00     0.039 A 
ATOM     31  C   UNL     1       0.312  11.350   1.671  1.00  0.00     0.014 A 
ATOM     32  C   UNL     1       1.893   9.560   1.276  1.00  0.00     0.014 A 
ATOM     33  C   UNL     1       0.995  11.692   2.840  1.00  0.00     0.010 A 
ATOM     34  C   UNL     1       2.538   9.864   2.475  1.00  0.00     0.010 A 
ATOM     35  C   UNL     1       2.100  10.937   3.267  1.00  0.00    -0.014 A 
BRANCH  35  36
ATOM     36  C   UNL     1       2.815  11.270   4.527  1.00  0.00     0.031 A 
ATOM     37  C   UNL     1       4.241  11.750   4.482  1.00  0.00     0.074 A 
ATOM     38  C   UNL     1       2.198  11.091   5.712  1.00  0.00     0.049 A 
ATOM     39  N   UNL     1       5.054  12.027   5.469  1.00  0.00    -0.248 NA
ATOM     40  C   UNL     1       4.838  11.912   3.149  1.00  0.00     0.031 C 
ATOM     41  C   UNL     1       0.831  10.595   5.885  1.00  0.00     0.029 A 
ATOM     42  N   UNL     1       2.640  11.296   6.995  1.00  0.00    -0.354 N 
ATOM     43  C   UNL     1       6.263  12.381   4.879  1.00  0.00     0.074 A 
ATOM     44  C   UNL     1       6.089  12.228   3.450  1.00  0.00     0.031 C 
ATOM     45  C   UNL     1       0.542  10.552   7.196  1.00  0.00     0.029 A 
ATOM     46  C   UNL     1       1.711  10.978   7.958  1.00  0.00     0.049 A 
ATOM     47  H   UNL     1       3.539  11.638   7.206  1.00  0.00     0.167 HD
ATOM     48  C   UNL     1       7.405  12.812   5.472  1.00  0.00     0.034 A 
ATOM     49  C   UNL     1       1.794  11.017   9.303  1.00  0.00     0.034 A 
ATOM     50  C   UNL     1       7.557  12.974   6.899  1.00  0.00     0.049 A 
ATOM     51  C   UNL     1       3.073  11.499   9.939  1.00  0.00     0.074 A 
ATOM     52  C   UNL     1       8.649  13.452   7.602  1.00  0.00     0.029 A 
ATOM     53  N   UNL     1       6.587  12.660   7.843  1.00  0.00    -0.354 N 
ATOM     54  N   UNL     1       4.192  11.874   9.364  1.00  0.00    -0.248 NA
ATOM     55  C   UNL     1       3.093  11.579  11.405  1.00  0.00     0.031 C 
ATOM     56  C   UNL     1       8.363  13.371   8.970  1.00  0.00     0.029 A 
ATOM     57  C   UNL     1       7.065  12.910   9.120  1.00  0.00     0.049 A 
ATOM     58  H   UNL     1       5.690  12.310   7.635  1.00  0.00     0.167 HD
ATOM     59  C   UNL     1       5.038  12.264  10.399  1.00  0.00     0.074 A 
ATOM     60  C   UNL     1       4.293  12.092  11.630  1.00  0.00     0.031 C 
ATOM     61  C   UNL     1       6.313  12.726  10.339  1.00  0.00     0.034 A 
BRANCH  48  62
ATOM     62  C   UNL     1       8.584  13.109   4.575  1.00  0.00     0.023 A 
ATOM     63  C   UNL     1       8.539  14.131   3.610  1.00  0.00     0.031 A 
ATOM     64  C   UNL     1       9.760  12.345   4.668  1.00  0.00     0.131 A 
ATOM     65  C   UNL     1       9.615  14.309   2.727  1.00  0.00     0.055 A 
ATOM     66  C   UNL     1      10.860  12.581   3.839  1.00  0.00     0.041 A 
ATOM     67  F   UNL     1       9.857  11.343   5.556  1.00  0.00    -0.206 F 
ATOM     68  C   UNL     1      10.785  13.558   2.851  1.00  0.00     0.022 A 
BRANCH  65  69
ATOM     69  S   UNL     1       9.405  15.439   1.324  1.00  0.00     0.124 S 
ATOM     70  O   UNL     1       8.269  14.838   0.629  1.00  0.00    -0.237 OA
ATOM     71  O   UNL     1       9.150  16.715   1.982  1.00  0.00    -0.237 OA
ATOM     72  O   UNL     1      10.680  15.346   0.615  1.00  0.00    -0.744 OA
ENDBRANCH  65  69
ENDBRANCH  48  62
BRANCH  49  73
ATOM     73  C   UNL     1       0.642  10.585  10.143  1.00  0.00     0.023 A 
ATOM     74  C   UNL     1      -0.038  11.498  10.964  1.00  0.00     0.031 A 
ATOM     75  C   UNL     1       0.231   9.240  10.171  1.00  0.00     0.131 A 
ATOM     76  C   UNL     1      -1.060  11.049  11.814  1.00  0.00     0.055 A 
ATOM     77  C   UNL     1      -0.820   8.807  10.981  1.00  0.00     0.041 A 
ATOM     78  F   UNL     1       0.844   8.327   9.400  1.00  0.00    -0.206 F 
ATOM     79  C   UNL     1      -1.464   9.712  11.819  1.00  0.00     0.022 A 
BRANCH  76  80
ATOM     80  S   UNL     1      -1.801  12.226  12.978  1.00  0.00     0.124 S 
ATOM     81  O   UNL     1      -0.633  12.678  13.727  1.00  0.00    -0.237 OA
ATOM     82  O   UNL     1      -2.403  13.204  12.078  1.00  0.00    -0.237 OA
ATOM     83  O   UNL     1      -2.749  11.409  13.732  1.00  0.00    -0.744 OA
ENDBRANCH  76  80
ENDBRANCH  49  73
BRANCH  61  84
ATOM     84  C   UNL     1       6.957  13.121  11.645  1.00  0.00     0.023 A 
ATOM     85  C   UNL     1       7.268  12.173  12.635  1.00  0.00     0.031 A 
ATOM     86  C   UNL     1       7.243  14.472  11.910  1.00  0.00     0.131 A 
ATOM     87  C   UNL     1       7.789  12.595  13.867  1.00  0.00     0.055 A 
ATOM     88  C   UNL     1       7.817  14.880  13.114  1.00  0.00     0.041 A 
ATOM     89  F   UNL     1       6.967  15.420  11.000  1.00  0.00    -0.206 F 
ATOM     90  C   UNL     1       8.080  13.940  14.107  1.00  0.00     0.022 A 
BRANCH  87  91
ATOM     91  S   UNL     1       7.993  11.371  15.191  1.00  0.00     0.124 S 
ATOM     92  O   UNL     1       6.638  10.849  15.334  1.00  0.00    -0.237 OA
ATOM     93  O   UNL     1       8.973  10.454  14.620  1.00  0.00    -0.237 OA
ATOM     94  O   UNL     1       8.474  12.165  16.321  1.00  0.00    -0.744 OA
ENDBRANCH  87  91
ENDBRANCH  61  84
ENDBRANCH  35  36
ENDBRANCH  27  30
ENDBRANCH  25  26
ENDBRANCH  24  25
ENDBRANCH   1  24
TORSDOF 17
