REMARK SMILES CC[C@](C)(NC(=O)N(C)[C@@H](C)c1ccccc1F)C(=O)NCCCCCCNC(=O)c1ccc(-c2c3nc(c(-c4cc(S(=O)(=O)[O-])ccc4F)c4ccc([nH]4)c(-c4cc(S(=O)(=O)[O-])ccc4F)c4nc(c(-c5cc(S(=O)(=O)[O-])ccc5F)c5ccc2[nH]5)C=C4)C=C3)cc1
REMARK SMILES IDX 24 1 23 2 22 3 21 4 19 5 20 6 3 8 4 9 2 10 1 11 5 12 6 13
REMARK SMILES IDX 7 15 8 16 9 17 10 18 11 19 12 20 13 21 17 22 14 23 16 24
REMARK SMILES IDX 18 25 15 26 25 27 26 28 27 29 28 30 29 31 30 33 31 34 32 35
REMARK SMILES IDX 93 36 33 37 92 38 34 39 35 40 36 41 86 42 37 43 91 44 85 45
REMARK SMILES IDX 87 46 38 47 90 48 84 49 83 50 39 52 71 53 51 54 70 55 52 56
REMARK SMILES IDX 55 57 69 58 88 59 53 60 54 61 68 63 89 64 56 65 40 66 41 67
REMARK SMILES IDX 49 68 42 69 48 70 50 71 47 72 43 73 44 74 45 75 46 76 72 77
REMARK SMILES IDX 73 78 81 79 74 80 80 81 82 82 79 83 75 84 76 85 77 86 78 87
REMARK SMILES IDX 57 88 58 89 66 90 59 91 65 92 67 93 64 94 60 95 61 96 62 97
REMARK SMILES IDX 63 98
REMARK H PARENT 21 7 5 14 28 32 87 51 55 62
REMARK Flexibility Score: inf
ROOT
ATOM      1  C   UNL     1       4.581  -3.040   5.166  1.00  0.00     0.002 C 
ENDROOT
BRANCH   1   2
ATOM      2  C   UNL     1       3.058  -2.966   5.058  1.00  0.00     0.021 C 
BRANCH   2   3
ATOM      3  C   UNL     1       2.476  -1.591   4.787  1.00  0.00     0.116 C 
BRANCH   3   4
ATOM      4  N   UNL     1       2.986  -0.994   3.564  1.00  0.00    -0.354 N 
ATOM      5  C   UNL     1       2.503  -0.979   2.286  1.00  0.00     0.245 C 
ATOM      6  O   UNL     1       3.135  -0.284   1.480  1.00  0.00    -0.272 OA
ATOM      7  H   UNL     1       3.837  -0.512   3.677  1.00  0.00     0.163 HD
BRANCH   5   8
ATOM      8  C   UNL     1       1.162  -1.673   1.877  1.00  0.00     0.117 C 
ATOM      9  C   UNL     1       0.924  -1.586   0.355  1.00  0.00     0.045 C 
BRANCH   8  10
ATOM     10  C   UNL     1       0.031  -0.869   2.645  1.00  0.00     0.035 C 
ATOM     11  C   UNL     1      -0.806   0.126   1.846  1.00  0.00     0.007 C 
ENDBRANCH   8  10
BRANCH   8  12
ATOM     12  N   UNL     1       1.048  -3.110   2.269  1.00  0.00    -0.324 N 
ATOM     13  C   UNL     1       1.666  -4.295   2.080  1.00  0.00     0.318 C 
ATOM     14  H   UNL     1       0.268  -3.233   2.857  1.00  0.00     0.166 HD
ATOM     15  O   UNL     1       0.940  -5.268   2.310  1.00  0.00    -0.249 OA
BRANCH  13  16
ATOM     16  N   UNL     1       2.999  -4.440   1.820  1.00  0.00    -0.321 N 
ATOM     17  C   UNL     1       3.884  -3.445   1.238  1.00  0.00     0.149 C 
BRANCH  16  18
ATOM     18  C   UNL     1       3.659  -5.743   2.118  1.00  0.00     0.117 C 
ATOM     19  C   UNL     1       3.263  -6.344   3.489  1.00  0.00     0.036 C 
BRANCH  18  20
ATOM     20  C   UNL     1       3.621  -6.793   1.007  1.00  0.00     0.010 A 
ATOM     21  C   UNL     1       4.078  -8.104   1.275  1.00  0.00     0.009 A 
ATOM     22  C   UNL     1       3.214  -6.526  -0.305  1.00  0.00     0.128 A 
ATOM     23  C   UNL     1       4.077  -9.101   0.296  1.00  0.00     0.001 A 
ATOM     24  C   UNL     1       3.220  -7.517  -1.291  1.00  0.00     0.039 A 
ATOM     25  F   UNL     1       2.825  -5.300  -0.681  1.00  0.00    -0.207 F 
ATOM     26  C   UNL     1       3.643  -8.808  -0.989  1.00  0.00     0.003 A 
ENDBRANCH  18  20
ENDBRANCH  16  18
ENDBRANCH  13  16
ENDBRANCH   8  12
ENDBRANCH   5   8
ENDBRANCH   3   4
ENDBRANCH   2   3
ENDBRANCH   1   2
BRANCH   1  27
ATOM     27  C   UNL     1       5.167  -2.397   6.422  1.00  0.00     0.002 C 
BRANCH  27  28
ATOM     28  C   UNL     1       4.546  -2.868   7.739  1.00  0.00     0.021 C 
BRANCH  28  29
ATOM     29  C   UNL     1       4.541  -4.382   7.944  1.00  0.00     0.116 C 
BRANCH  29  30
ATOM     30  N   UNL     1       5.882  -4.904   8.149  1.00  0.00    -0.352 N 
ATOM     31  C   UNL     1       6.415  -5.483   9.273  1.00  0.00     0.251 C 
ATOM     32  H   UNL     1       6.490  -4.832   7.378  1.00  0.00     0.163 HD
ATOM     33  O   UNL     1       7.632  -5.654   9.355  1.00  0.00    -0.269 OA
BRANCH  31  34
ATOM     34  C   UNL     1       5.530  -5.879  10.389  1.00  0.00     0.039 A 
ATOM     35  C   UNL     1       5.876  -5.518  11.693  1.00  0.00     0.014 A 
ATOM     36  C   UNL     1       4.361  -6.609  10.149  1.00  0.00     0.014 A 
ATOM     37  C   UNL     1       5.021  -5.841  12.750  1.00  0.00     0.010 A 
ATOM     38  C   UNL     1       3.479  -6.873  11.195  1.00  0.00     0.010 A 
ATOM     39  C   UNL     1       3.801  -6.495  12.508  1.00  0.00    -0.014 A 
BRANCH  39  40
ATOM     40  C   UNL     1       2.859  -6.797  13.617  1.00  0.00     0.031 A 
ATOM     41  C   UNL     1       2.557  -8.224  13.986  1.00  0.00     0.074 A 
ATOM     42  C   UNL     1       2.242  -5.788  14.264  1.00  0.00     0.049 A 
ATOM     43  N   UNL     1       1.720  -8.686  14.880  1.00  0.00    -0.248 NA
ATOM     44  C   UNL     1       3.270  -9.269  13.235  1.00  0.00     0.031 C 
ATOM     45  C   UNL     1       2.426  -4.364  13.979  1.00  0.00     0.029 A 
ATOM     46  N   UNL     1       1.335  -5.804  15.295  1.00  0.00    -0.354 N 
ATOM     47  C   UNL     1       1.796 -10.071  14.790  1.00  0.00     0.074 A 
ATOM     48  C   UNL     1       2.725 -10.374  13.723  1.00  0.00     0.031 C 
ATOM     49  C   UNL     1       1.682  -3.644  14.834  1.00  0.00     0.029 A 
ATOM     50  C   UNL     1       0.935  -4.552  15.700  1.00  0.00     0.049 A 
ATOM     51  H   UNL     1       1.002  -6.634  15.706  1.00  0.00     0.167 HD
ATOM     52  C   UNL     1       1.163 -11.004  15.543  1.00  0.00     0.034 A 
ATOM     53  C   UNL     1       0.060  -4.173  16.652  1.00  0.00     0.034 A 
ATOM     54  C   UNL     1       0.264 -10.692  16.625  1.00  0.00     0.049 A 
ATOM     55  C   UNL     1      -0.643  -5.226  17.465  1.00  0.00     0.074 A 
ATOM     56  C   UNL     1      -0.370 -11.565  17.492  1.00  0.00     0.029 A 
ATOM     57  N   UNL     1      -0.133  -9.413  16.986  1.00  0.00    -0.354 N 
ATOM     58  N   UNL     1      -0.543  -6.532  17.381  1.00  0.00    -0.248 NA
ATOM     59  C   UNL     1      -1.577  -4.758  18.498  1.00  0.00     0.031 C 
ATOM     60  C   UNL     1      -1.197 -10.819  18.337  1.00  0.00     0.029 A 
ATOM     61  C   UNL     1      -1.029  -9.475  18.041  1.00  0.00     0.049 A 
ATOM     62  H   UNL     1       0.176  -8.583  16.555  1.00  0.00     0.167 HD
ATOM     63  C   UNL     1      -1.390  -7.041  18.360  1.00  0.00     0.074 A 
ATOM     64  C   UNL     1      -1.991  -5.903  19.026  1.00  0.00     0.031 C 
ATOM     65  C   UNL     1      -1.638  -8.335  18.681  1.00  0.00     0.034 A 
BRANCH  52  66
ATOM     66  C   UNL     1       1.409 -12.453  15.213  1.00  0.00     0.023 A 
ATOM     67  C   UNL     1       2.663 -13.053  15.418  1.00  0.00     0.031 A 
ATOM     68  C   UNL     1       0.368 -13.250  14.704  1.00  0.00     0.131 A 
ATOM     69  C   UNL     1       2.858 -14.398  15.069  1.00  0.00     0.055 A 
ATOM     70  C   UNL     1       0.551 -14.604  14.420  1.00  0.00     0.041 A 
ATOM     71  F   UNL     1      -0.844 -12.722  14.473  1.00  0.00    -0.206 F 
ATOM     72  C   UNL     1       1.805 -15.184  14.594  1.00  0.00     0.022 A 
BRANCH  69  73
ATOM     73  S   UNL     1       4.532 -15.087  15.165  1.00  0.00     0.124 S 
ATOM     74  O   UNL     1       5.233 -14.299  14.154  1.00  0.00    -0.237 OA
ATOM     75  O   UNL     1       4.905 -14.823  16.551  1.00  0.00    -0.237 OA
ATOM     76  O   UNL     1       4.343 -16.496  14.829  1.00  0.00    -0.744 OA
ENDBRANCH  69  73
ENDBRANCH  52  66
BRANCH  53  77
ATOM     77  C   UNL     1      -0.206  -2.726  16.876  1.00  0.00     0.023 A 
ATOM     78  C   UNL     1       0.269  -2.072  18.023  1.00  0.00     0.031 A 
ATOM     79  C   UNL     1      -0.918  -1.972  15.926  1.00  0.00     0.131 A 
ATOM     80  C   UNL     1       0.014  -0.703  18.199  1.00  0.00     0.055 A 
ATOM     81  C   UNL     1      -1.141  -0.604  16.091  1.00  0.00     0.041 A 
ATOM     82  F   UNL     1      -1.379  -2.552  14.807  1.00  0.00    -0.206 F 
ATOM     83  C   UNL     1      -0.676   0.037  17.235  1.00  0.00     0.022 A 
BRANCH  80  84
ATOM     84  S   UNL     1       0.595   0.106  19.715  1.00  0.00     0.124 S 
ATOM     85  O   UNL     1      -0.227  -0.543  20.730  1.00  0.00    -0.237 OA
ATOM     86  O   UNL     1       2.014  -0.237  19.721  1.00  0.00    -0.237 OA
ATOM     87  O   UNL     1       0.301   1.518  19.480  1.00  0.00    -0.744 OA
ENDBRANCH  80  84
ENDBRANCH  53  77
BRANCH  65  88
ATOM     88  C   UNL     1      -2.589  -8.600  19.818  1.00  0.00     0.023 A 
ATOM     89  C   UNL     1      -3.974  -8.417  19.673  1.00  0.00     0.031 A 
ATOM     90  C   UNL     1      -2.105  -9.101  21.039  1.00  0.00     0.131 A 
ATOM     91  C   UNL     1      -4.830  -8.717  20.744  1.00  0.00     0.055 A 
ATOM     92  C   UNL     1      -2.964  -9.437  22.085  1.00  0.00     0.041 A 
ATOM     93  F   UNL     1      -0.789  -9.296  21.223  1.00  0.00    -0.206 F 
ATOM     94  C   UNL     1      -4.335  -9.243  21.941  1.00  0.00     0.022 A 
BRANCH  91  95
ATOM     95  S   UNL     1      -6.605  -8.396  20.561  1.00  0.00     0.124 S 
ATOM     96  O   UNL     1      -6.640  -6.940  20.471  1.00  0.00    -0.237 OA
ATOM     97  O   UNL     1      -6.934  -9.119  19.336  1.00  0.00    -0.237 OA
ATOM     98  O   UNL     1      -7.183  -8.957  21.781  1.00  0.00    -0.744 OA
ENDBRANCH  91  95
ENDBRANCH  65  88
ENDBRANCH  39  40
ENDBRANCH  31  34
ENDBRANCH  29  30
ENDBRANCH  28  29
ENDBRANCH  27  28
ENDBRANCH   1  27
TORSDOF 21
