REMARK SMILES O=C(NCCCCCCNC(=O)c1ccc(-c2c3nc(c(-c4cc(S(=O)(=O)[O-])ccc4F)c4ccc([nH]4)c(-c4cc(S(=O)(=O)[O-])ccc4F)c4nc(c(-c5cc(S(=O)(=O)[O-])ccc5F)c5ccc2[nH]5)C=C4)C=C3)cc1)C1=N[C@@H]2NC=NN2[C@@H]([C@H]2C=NN=C2c2ccc(F)cc2)C1
REMARK SMILES IDX 7 1 6 2 5 3 4 4 3 5 1 6 2 7 76 9 77 10 96 11 78 12 83 13
REMARK SMILES IDX 79 14 82 15 80 16 81 18 84 19 85 20 88 21 86 22 87 23 89 24
REMARK SMILES IDX 90 25 95 26 91 27 94 28 92 29 93 30 8 31 9 32 10 33 11 34
REMARK SMILES IDX 12 36 13 37 14 38 75 39 15 40 74 41 16 42 17 43 18 44 68 45
REMARK SMILES IDX 19 46 73 47 67 48 69 49 20 50 72 51 66 52 65 53 21 55 53 56
REMARK SMILES IDX 33 57 52 58 34 59 37 60 51 61 70 62 35 63 36 64 50 66 71 67
REMARK SMILES IDX 38 68 22 69 23 70 31 71 24 72 30 73 32 74 29 75 25 76 26 77
REMARK SMILES IDX 27 78 28 79 54 80 55 81 63 82 56 83 62 84 64 85 61 86 57 87
REMARK SMILES IDX 58 88 59 89 60 90 39 91 40 92 48 93 41 94 47 95 49 96 46 97
REMARK SMILES IDX 42 98 43 99 44 100 45 101
REMARK H PARENT 3 8 79 17 10 35 69 54 37 65
REMARK Flexibility Score: inf
ROOT
ATOM      1  C   UNL     1      11.991   2.446   7.722  1.00  0.00     0.002 C 
ENDROOT
BRANCH   1   2
ATOM      2  C   UNL     1      12.655   1.933   6.444  1.00  0.00     0.002 C 
BRANCH   2   3
ATOM      3  C   UNL     1      11.905   0.862   5.651  1.00  0.00     0.021 C 
BRANCH   3   4
ATOM      4  C   UNL     1      10.479   1.171   5.202  1.00  0.00     0.116 C 
BRANCH   4   5
ATOM      5  N   UNL     1      10.330   2.340   4.358  1.00  0.00    -0.351 N 
ATOM      6  O   UNL     1       9.309   3.830   3.017  1.00  0.00    -0.268 OA
ATOM      7  C   UNL     1       9.309   2.701   3.504  1.00  0.00     0.265 C 
ATOM      8  H   UNL     1      11.077   2.979   4.402  1.00  0.00     0.163 HD
BRANCH   7   9
ATOM      9  C   UNL     1       8.214   1.715   3.052  1.00  0.00     0.106 C 
ATOM     10  N   UNL     1       7.900   1.743   1.803  1.00  0.00    -0.237 NA
ATOM     11  C   UNL     1       7.543   0.837   4.067  1.00  0.00     0.090 C 
ATOM     12  C   UNL     1       7.068   0.704   1.254  1.00  0.00     0.319 C 
ATOM     13  C   UNL     1       6.447  -0.040   3.459  1.00  0.00     0.127 C 
ATOM     14  N   UNL     1       5.816   1.056   0.645  1.00  0.00    -0.335 N 
ATOM     15  N   UNL     1       6.748  -0.484   2.079  1.00  0.00    -0.249 NA
ATOM     16  C   UNL     1       5.082  -0.089   0.746  1.00  0.00     0.217 C 
ATOM     17  H   UNL     1       5.551   1.918   0.250  1.00  0.00     0.165 HD
ATOM     18  N   UNL     1       5.582  -1.043   1.489  1.00  0.00    -0.164 NA
BRANCH  13  19
ATOM     19  C   UNL     1       6.084  -1.279   4.302  1.00  0.00     0.109 C 
ATOM     20  C   UNL     1       7.251  -2.165   4.575  1.00  0.00     0.120 C 
ATOM     21  C   UNL     1       5.777  -0.922   5.722  1.00  0.00     0.081 C 
ATOM     22  N   UNL     1       7.570  -2.215   5.827  1.00  0.00    -0.162 NA
ATOM     23  N   UNL     1       6.641  -1.411   6.558  1.00  0.00    -0.155 NA
BRANCH  21  24
ATOM     24  C   UNL     1       4.677  -0.011   6.074  1.00  0.00    -0.001 A 
ATOM     25  C   UNL     1       3.527   0.077   5.277  1.00  0.00     0.013 A 
ATOM     26  C   UNL     1       4.850   0.846   7.165  1.00  0.00     0.013 A 
ATOM     27  C   UNL     1       2.565   1.047   5.561  1.00  0.00     0.040 A 
ATOM     28  C   UNL     1       3.889   1.819   7.438  1.00  0.00     0.040 A 
ATOM     29  C   UNL     1       2.760   1.914   6.631  1.00  0.00     0.123 A 
ATOM     30  F   UNL     1       1.849   2.863   6.881  1.00  0.00    -0.207 F 
ENDBRANCH  21  24
ENDBRANCH  13  19
ENDBRANCH   7   9
ENDBRANCH   4   5
ENDBRANCH   3   4
ENDBRANCH   2   3
ENDBRANCH   1   2
BRANCH   1  31
ATOM     31  C   UNL     1      11.547   1.391   8.738  1.00  0.00     0.021 C 
BRANCH  31  32
ATOM     32  C   UNL     1      12.609   0.389   9.181  1.00  0.00     0.116 C 
BRANCH  32  33
ATOM     33  N   UNL     1      13.738   1.011   9.852  1.00  0.00    -0.352 N 
ATOM     34  C   UNL     1      14.307   0.714  11.067  1.00  0.00     0.251 C 
ATOM     35  H   UNL     1      14.158   1.755   9.363  1.00  0.00     0.163 HD
ATOM     36  O   UNL     1      15.176   1.460  11.524  1.00  0.00    -0.269 OA
BRANCH  34  37
ATOM     37  C   UNL     1      13.862  -0.467  11.844  1.00  0.00     0.039 A 
ATOM     38  C   UNL     1      13.661  -0.331  13.221  1.00  0.00     0.014 A 
ATOM     39  C   UNL     1      13.648  -1.704  11.231  1.00  0.00     0.014 A 
ATOM     40  C   UNL     1      13.177  -1.412  13.965  1.00  0.00     0.010 A 
ATOM     41  C   UNL     1      13.094  -2.758  11.960  1.00  0.00     0.010 A 
ATOM     42  C   UNL     1      12.849  -2.623  13.335  1.00  0.00    -0.014 A 
BRANCH  42  43
ATOM     43  C   UNL     1      12.246  -3.752  14.099  1.00  0.00     0.031 A 
ATOM     44  C   UNL     1      12.974  -5.064  14.216  1.00  0.00     0.074 A 
ATOM     45  C   UNL     1      11.021  -3.611  14.646  1.00  0.00     0.049 A 
ATOM     46  N   UNL     1      12.582  -6.183  14.772  1.00  0.00    -0.248 NA
ATOM     47  C   UNL     1      14.310  -5.134  13.606  1.00  0.00     0.031 C 
ATOM     48  C   UNL     1      10.199  -2.402  14.572  1.00  0.00     0.029 A 
ATOM     49  N   UNL     1      10.247  -4.492  15.362  1.00  0.00    -0.354 N 
ATOM     50  C   UNL     1      13.620  -7.088  14.580  1.00  0.00     0.074 A 
ATOM     51  C   UNL     1      14.627  -6.407  13.793  1.00  0.00     0.031 C 
ATOM     52  C   UNL     1       9.048  -2.610  15.231  1.00  0.00     0.029 A 
ATOM     53  C   UNL     1       9.022  -3.982  15.729  1.00  0.00     0.049 A 
ATOM     54  H   UNL     1      10.542  -5.403  15.591  1.00  0.00     0.167 HD
ATOM     55  C   UNL     1      13.736  -8.360  15.039  1.00  0.00     0.034 A 
ATOM     56  C   UNL     1       7.986  -4.557  16.372  1.00  0.00     0.034 A 
ATOM     57  C   UNL     1      12.722  -9.029  15.818  1.00  0.00     0.049 A 
ATOM     58  C   UNL     1       8.116  -5.990  16.828  1.00  0.00     0.074 A 
ATOM     59  C   UNL     1      12.749 -10.305  16.355  1.00  0.00     0.029 A 
ATOM     60  N   UNL     1      11.492  -8.482  16.164  1.00  0.00    -0.354 N 
ATOM     61  N   UNL     1       9.123  -6.819  16.672  1.00  0.00    -0.248 NA
ATOM     62  C   UNL     1       6.976  -6.561  17.557  1.00  0.00     0.031 C 
ATOM     63  C   UNL     1      11.514 -10.555  16.960  1.00  0.00     0.029 A 
ATOM     64  C   UNL     1      10.745  -9.405  16.882  1.00  0.00     0.049 A 
ATOM     65  H   UNL     1      11.195  -7.572  15.935  1.00  0.00     0.167 HD
ATOM     66  C   UNL     1       8.748  -7.997  17.313  1.00  0.00     0.074 A 
ATOM     67  C   UNL     1       7.433  -7.764  17.873  1.00  0.00     0.031 C 
ATOM     68  C   UNL     1       9.430  -9.165  17.431  1.00  0.00     0.034 A 
BRANCH  55  69
ATOM     69  C   UNL     1      15.000  -9.112  14.690  1.00  0.00     0.023 A 
ATOM     70  C   UNL     1      16.262  -8.673  15.130  1.00  0.00     0.031 A 
ATOM     71  C   UNL     1      14.949 -10.274  13.899  1.00  0.00     0.131 A 
ATOM     72  C   UNL     1      17.422  -9.343  14.715  1.00  0.00     0.055 A 
ATOM     73  C   UNL     1      16.102 -10.986  13.561  1.00  0.00     0.041 A 
ATOM     74  F   UNL     1      13.777 -10.732  13.431  1.00  0.00    -0.206 F 
ATOM     75  C   UNL     1      17.350 -10.514  13.957  1.00  0.00     0.022 A 
BRANCH  72  76
ATOM     76  S   UNL     1      19.031  -8.580  15.058  1.00  0.00     0.124 S 
ATOM     77  O   UNL     1      18.896  -7.292  14.382  1.00  0.00    -0.237 OA
ATOM     78  O   UNL     1      19.056  -8.537  16.515  1.00  0.00    -0.237 OA
ATOM     79  O   UNL     1      19.985  -9.501  14.443  1.00  0.00    -0.744 OA
ENDBRANCH  72  76
ENDBRANCH  55  69
BRANCH  56  80
ATOM     80  C   UNL     1       6.720  -3.799  16.601  1.00  0.00     0.023 A 
ATOM     81  C   UNL     1       6.253  -3.530  17.898  1.00  0.00     0.031 A 
ATOM     82  C   UNL     1       5.925  -3.379  15.518  1.00  0.00     0.131 A 
ATOM     83  C   UNL     1       5.004  -2.914  18.079  1.00  0.00     0.055 A 
ATOM     84  C   UNL     1       4.715  -2.709  15.703  1.00  0.00     0.041 A 
ATOM     85  F   UNL     1       6.321  -3.609  14.255  1.00  0.00    -0.206 F 
ATOM     86  C   UNL     1       4.240  -2.487  16.991  1.00  0.00     0.022 A 
BRANCH  83  87
ATOM     87  S   UNL     1       4.339  -2.777  19.762  1.00  0.00     0.124 S 
ATOM     88  O   UNL     1       4.339  -4.170  20.195  1.00  0.00    -0.237 OA
ATOM     89  O   UNL     1       5.317  -1.905  20.404  1.00  0.00    -0.237 OA
ATOM     90  O   UNL     1       3.018  -2.186  19.558  1.00  0.00    -0.744 OA
ENDBRANCH  83  87
ENDBRANCH  56  80
BRANCH  68  91
ATOM     91  C   UNL     1       8.785 -10.263  18.244  1.00  0.00     0.023 A 
ATOM     92  C   UNL     1       7.593 -10.888  17.838  1.00  0.00     0.031 A 
ATOM     93  C   UNL     1       9.371 -10.683  19.452  1.00  0.00     0.131 A 
ATOM     94  C   UNL     1       6.995 -11.855  18.661  1.00  0.00     0.055 A 
ATOM     95  C   UNL     1       8.808 -11.694  20.232  1.00  0.00     0.041 A 
ATOM     96  F   UNL     1      10.507 -10.118  19.894  1.00  0.00    -0.206 F 
ATOM     97  C   UNL     1       7.606 -12.276  19.845  1.00  0.00     0.022 A 
BRANCH  94  98
ATOM     98  S   UNL     1       5.353 -12.484  18.216  1.00  0.00     0.124 S 
ATOM     99  O   UNL     1       4.560 -11.260  18.175  1.00  0.00    -0.237 OA
ATOM    100  O   UNL     1       5.602 -13.126  16.929  1.00  0.00    -0.237 OA
ATOM    101  O   UNL     1       5.027 -13.398  19.310  1.00  0.00    -0.744 OA
ENDBRANCH  94  98
ENDBRANCH  68  91
ENDBRANCH  42  43
ENDBRANCH  34  37
ENDBRANCH  32  33
ENDBRANCH  31  32
ENDBRANCH   1  31
TORSDOF 18
