REMARK SMILES CCCCCCNC(=O)Oc1cccc(-c2ccc([C@@H](C)C(=O)NCCCCCCNC(=O)c3ccc(-c4c5nc(c(-c6cc(S(=O)(=O)[O-])ccc6F)c6ccc([nH]6)c(-c6cc(S(=O)(=O)[O-])ccc6F)c6nc(c(-c7cc(S(=O)(=O)[O-])ccc7F)c7ccc4[nH]7)C=C6)C=C5)cc3)cc2F)c1
REMARK SMILES IDX 22 1 23 2 24 3 20 5 21 6 19 7 16 8 17 9 98 10 18 11 97 12
REMARK SMILES IDX 99 13 15 14 11 15 12 16 100 17 13 18 14 19 10 20 8 21 7 22
REMARK SMILES IDX 9 24 6 25 5 26 4 27 3 28 2 29 1 30 25 31 26 32 27 33 28 34
REMARK SMILES IDX 29 35 30 36 31 37 32 38 33 40 34 41 35 42 96 43 36 44 95 45
REMARK SMILES IDX 37 46 38 47 39 48 89 49 40 50 94 51 88 52 90 53 41 54 93 55
REMARK SMILES IDX 87 56 86 57 42 59 74 60 54 61 73 62 55 63 58 64 72 65 91 66
REMARK SMILES IDX 56 67 57 68 71 70 92 71 59 72 43 73 44 74 52 75 45 76 51 77
REMARK SMILES IDX 53 78 50 79 46 80 47 81 48 82 49 83 75 84 76 85 84 86 77 87
REMARK SMILES IDX 83 88 85 89 82 90 78 91 79 92 80 93 81 94 60 95 61 96 69 97
REMARK SMILES IDX 62 98 68 99 70 100 67 101 63 102 64 103 65 104 66 105
REMARK H PARENT 24 4 7 23 31 39 90 58 58 69
REMARK Flexibility Score: inf
ROOT
ATOM      1  C   UNL     1      -3.802  10.230  10.027  1.00  0.00     0.227 C 
ATOM      2  O   UNL     1      -2.828  10.845   9.574  1.00  0.00    -0.274 OA
ATOM      3  N   UNL     1      -3.722   9.847  11.330  1.00  0.00    -0.356 N 
ATOM      4  H   UNL     1      -2.915  10.167  11.795  1.00  0.00     0.163 HD
ENDROOT
BRANCH   1   5
ATOM      5  C   UNL     1      -5.020   9.962   9.130  1.00  0.00     0.105 C 
ATOM      6  C   UNL     1      -6.312  10.608   9.630  1.00  0.00     0.023 C 
BRANCH   5   7
ATOM      7  C   UNL     1      -5.141   8.518   8.670  1.00  0.00    -0.033 A 
ATOM      8  C   UNL     1      -5.226   5.787   7.799  1.00  0.00     0.018 A 
ATOM      9  C   UNL     1      -5.840   6.207   8.990  1.00  0.00     0.012 A 
ATOM     10  C   UNL     1      -4.589   6.785   7.045  1.00  0.00     0.131 A 
ATOM     11  C   UNL     1      -5.835   7.546   9.393  1.00  0.00     0.005 A 
ATOM     12  C   UNL     1      -4.525   8.115   7.476  1.00  0.00     0.044 A 
ATOM     13  F   UNL     1      -4.023   6.494   5.863  1.00  0.00    -0.206 F 
BRANCH   8  14
ATOM     14  C   UNL     1      -5.269   4.363   7.397  1.00  0.00    -0.012 A 
ATOM     15  C   UNL     1      -4.263   2.397   6.381  1.00  0.00     0.133 A 
ATOM     16  C   UNL     1      -5.372   1.618   6.693  1.00  0.00     0.047 A 
ATOM     17  C   UNL     1      -4.202   3.750   6.721  1.00  0.00     0.056 A 
ATOM     18  C   UNL     1      -6.439   2.201   7.363  1.00  0.00     0.004 A 
ATOM     19  C   UNL     1      -6.390   3.558   7.697  1.00  0.00     0.009 A 
BRANCH  15  20
ATOM     20  O   UNL     1      -3.281   1.791   5.581  1.00  0.00    -0.410 OA
BRANCH  20  21
ATOM     21  C   UNL     1      -1.946   1.901   5.932  1.00  0.00     0.412 C 
ATOM     22  N   UNL     1      -1.113   1.348   4.998  1.00  0.00    -0.321 N 
ATOM     23  H   UNL     1      -0.150   1.357   5.201  1.00  0.00     0.167 HD
ATOM     24  O   UNL     1      -1.502   2.415   6.951  1.00  0.00    -0.224 OA
BRANCH  22  25
ATOM     25  C   UNL     1      -1.511   0.752   3.739  1.00  0.00     0.119 C 
BRANCH  25  26
ATOM     26  C   UNL     1      -0.921   1.503   2.546  1.00  0.00     0.021 C 
BRANCH  26  27
ATOM     27  C   UNL     1       0.608   1.448   2.451  1.00  0.00     0.002 C 
BRANCH  27  28
ATOM     28  C   UNL     1       1.210   0.041   2.373  1.00  0.00    -0.000 C 
BRANCH  28  29
ATOM     29  C   UNL     1       0.720  -0.817   1.204  1.00  0.00    -0.003 C 
ATOM     30  C   UNL     1       1.079  -0.239  -0.156  1.00  0.00     0.004 C 
ENDBRANCH  28  29
ENDBRANCH  27  28
ENDBRANCH  26  27
ENDBRANCH  25  26
ENDBRANCH  22  25
ENDBRANCH  20  21
ENDBRANCH  15  20
ENDBRANCH   8  14
ENDBRANCH   5   7
ENDBRANCH   1   5
BRANCH   3  31
ATOM     31  C   UNL     1      -4.607   9.054  12.157  1.00  0.00     0.116 C 
BRANCH  31  32
ATOM     32  C   UNL     1      -4.102   7.618  12.312  1.00  0.00     0.021 C 
BRANCH  32  33
ATOM     33  C   UNL     1      -3.162   7.422  13.506  1.00  0.00     0.002 C 
BRANCH  33  34
ATOM     34  C   UNL     1      -3.797   7.686  14.878  1.00  0.00     0.002 C 
BRANCH  34  35
ATOM     35  C   UNL     1      -5.064   6.879  15.181  1.00  0.00     0.021 C 
BRANCH  35  36
ATOM     36  C   UNL     1      -4.868   5.365  15.173  1.00  0.00     0.116 C 
BRANCH  36  37
ATOM     37  N   UNL     1      -3.920   4.944  16.192  1.00  0.00    -0.352 N 
ATOM     38  C   UNL     1      -4.112   4.133  17.283  1.00  0.00     0.251 C 
ATOM     39  H   UNL     1      -3.006   5.291  16.083  1.00  0.00     0.163 HD
ATOM     40  O   UNL     1      -3.272   4.111  18.178  1.00  0.00    -0.269 OA
BRANCH  38  41
ATOM     41  C   UNL     1      -5.330   3.299  17.381  1.00  0.00     0.039 A 
ATOM     42  C   UNL     1      -5.989   3.200  18.609  1.00  0.00     0.014 A 
ATOM     43  C   UNL     1      -5.804   2.593  16.271  1.00  0.00     0.014 A 
ATOM     44  C   UNL     1      -7.155   2.437  18.709  1.00  0.00     0.010 A 
ATOM     45  C   UNL     1      -7.005   1.893  16.355  1.00  0.00     0.010 A 
ATOM     46  C   UNL     1      -7.691   1.803  17.576  1.00  0.00    -0.014 A 
BRANCH  46  47
ATOM     47  C   UNL     1      -8.960   1.033  17.651  1.00  0.00     0.031 A 
ATOM     48  C   UNL     1      -8.961  -0.448  17.386  1.00  0.00     0.074 A 
ATOM     49  C   UNL     1     -10.117   1.678  17.902  1.00  0.00     0.049 A 
ATOM     50  N   UNL     1      -9.970  -1.279  17.328  1.00  0.00    -0.248 NA
ATOM     51  C   UNL     1      -7.654  -1.071  17.123  1.00  0.00     0.031 C 
ATOM     52  C   UNL     1     -10.246   3.116  18.144  1.00  0.00     0.029 A 
ATOM     53  N   UNL     1     -11.405   1.212  17.989  1.00  0.00    -0.354 N 
ATOM     54  C   UNL     1      -9.423  -2.520  17.016  1.00  0.00     0.074 A 
ATOM     55  C   UNL     1      -8.002  -2.314  16.830  1.00  0.00     0.031 C 
ATOM     56  C   UNL     1     -11.535   3.409  18.380  1.00  0.00     0.029 A 
ATOM     57  C   UNL     1     -12.332   2.193  18.256  1.00  0.00     0.049 A 
ATOM     58  H   UNL     1     -11.643   0.264  17.872  1.00  0.00     0.167 HD
ATOM     59  C   UNL     1     -10.044  -3.722  16.918  1.00  0.00     0.034 A 
ATOM     60  C   UNL     1     -13.673   2.123  18.373  1.00  0.00     0.034 A 
ATOM     61  C   UNL     1     -11.462  -3.909  17.111  1.00  0.00     0.049 A 
ATOM     62  C   UNL     1     -14.347   0.782  18.217  1.00  0.00     0.074 A 
ATOM     63  C   UNL     1     -12.190  -5.085  17.077  1.00  0.00     0.029 A 
ATOM     64  N   UNL     1     -12.371  -2.890  17.369  1.00  0.00    -0.354 N 
ATOM     65  N   UNL     1     -13.809  -0.389  17.963  1.00  0.00    -0.248 NA
ATOM     66  C   UNL     1     -15.807   0.753  18.373  1.00  0.00     0.031 C 
ATOM     67  C   UNL     1     -13.543  -4.771  17.242  1.00  0.00     0.029 A 
ATOM     68  C   UNL     1     -13.654  -3.408  17.463  1.00  0.00     0.049 A 
ATOM     69  H   UNL     1     -12.139  -1.939  17.470  1.00  0.00     0.167 HD
ATOM     70  C   UNL     1     -14.864  -1.298  17.966  1.00  0.00     0.074 A 
ATOM     71  C   UNL     1     -16.063  -0.542  18.261  1.00  0.00     0.031 C 
ATOM     72  C   UNL     1     -14.843  -2.639  17.749  1.00  0.00     0.034 A 
BRANCH  59  73
ATOM     73  C   UNL     1      -9.192  -4.918  16.562  1.00  0.00     0.023 A 
ATOM     74  C   UNL     1      -8.146  -5.353  17.396  1.00  0.00     0.031 A 
ATOM     75  C   UNL     1      -9.408  -5.619  15.363  1.00  0.00     0.131 A 
ATOM     76  C   UNL     1      -7.309  -6.401  16.985  1.00  0.00     0.055 A 
ATOM     77  C   UNL     1      -8.625  -6.718  14.999  1.00  0.00     0.041 A 
ATOM     78  F   UNL     1     -10.377  -5.241  14.514  1.00  0.00    -0.206 F 
ATOM     79  C   UNL     1      -7.558  -7.104  15.804  1.00  0.00     0.022 A 
BRANCH  76  80
ATOM     80  S   UNL     1      -5.803  -6.731  17.940  1.00  0.00     0.124 S 
ATOM     81  O   UNL     1      -5.117  -5.444  17.862  1.00  0.00    -0.237 OA
ATOM     82  O   UNL     1      -6.333  -7.095  19.249  1.00  0.00    -0.237 OA
ATOM     83  O   UNL     1      -5.161  -7.817  17.203  1.00  0.00    -0.744 OA
ENDBRANCH  76  80
ENDBRANCH  59  73
BRANCH  60  84
ATOM     84  C   UNL     1     -14.477   3.350  18.643  1.00  0.00     0.023 A 
ATOM     85  C   UNL     1     -15.223   3.478  19.825  1.00  0.00     0.031 A 
ATOM     86  C   UNL     1     -14.552   4.392  17.701  1.00  0.00     0.131 A 
ATOM     87  C   UNL     1     -16.054   4.594  20.011  1.00  0.00     0.055 A 
ATOM     88  C   UNL     1     -15.335   5.528  17.917  1.00  0.00     0.041 A 
ATOM     89  F   UNL     1     -13.856   4.324  16.555  1.00  0.00    -0.206 F 
ATOM     90  C   UNL     1     -16.104   5.626  19.072  1.00  0.00     0.022 A 
BRANCH  87  91
ATOM     91  S   UNL     1     -17.149   4.628  21.457  1.00  0.00     0.124 S 
ATOM     92  O   UNL     1     -17.916   3.401  21.278  1.00  0.00    -0.237 OA
ATOM     93  O   UNL     1     -16.193   4.633  22.559  1.00  0.00    -0.237 OA
ATOM     94  O   UNL     1     -17.903   5.868  21.283  1.00  0.00    -0.744 OA
ENDBRANCH  87  91
ENDBRANCH  60  84
BRANCH  72  95
ATOM     95  C   UNL     1     -16.157  -3.374  17.874  1.00  0.00     0.023 A 
ATOM     96  C   UNL     1     -17.217  -3.156  16.977  1.00  0.00     0.031 A 
ATOM     97  C   UNL     1     -16.352  -4.297  18.917  1.00  0.00     0.131 A 
ATOM     98  C   UNL     1     -18.444  -3.808  17.174  1.00  0.00     0.055 A 
ATOM     99  C   UNL     1     -17.553  -4.990  19.070  1.00  0.00     0.041 A 
ATOM    100  F   UNL     1     -15.375  -4.542  19.805  1.00  0.00    -0.206 F 
ATOM    101  C   UNL     1     -18.613  -4.737  18.203  1.00  0.00     0.022 A 
BRANCH  98 102
ATOM    102  S   UNL     1     -19.850  -3.352  16.122  1.00  0.00     0.124 S 
ATOM    103  O   UNL     1     -19.972  -1.922  16.383  1.00  0.00    -0.237 OA
ATOM    104  O   UNL     1     -19.377  -3.720  14.792  1.00  0.00    -0.237 OA
ATOM    105  O   UNL     1     -20.944  -4.173  16.639  1.00  0.00    -0.744 OA
ENDBRANCH  98 102
ENDBRANCH  72  95
ENDBRANCH  46  47
ENDBRANCH  38  41
ENDBRANCH  36  37
ENDBRANCH  35  36
ENDBRANCH  34  35
ENDBRANCH  33  34
ENDBRANCH  32  33
ENDBRANCH  31  32
ENDBRANCH   3  31
TORSDOF 25
