REMARK SMILES C[C@]([NH2+]Cc1nc(-c2ccsc2)no1)(C(=O)NCCCCCCNC(=O)c1ccc(-c2c3nc(c(-c4cc(S(=O)(=O)[O-])ccc4F)c4ccc([nH]4)c(-c4cc(S(=O)(=O)[O-])ccc4F)c4nc(c(-c5cc(S(=O)(=O)[O-])ccc5F)c5ccc2[nH]5)C=C4)C=C3)cc1)C(F)(F)F
REMARK SMILES IDX 20 1 19 2 18 3 17 4 15 5 16 6 2 8 1 9 90 10 91 11 92 12
REMARK SMILES IDX 93 13 3 14 4 17 5 18 6 19 14 20 7 21 13 22 8 23 9 24 12 25
REMARK SMILES IDX 10 26 11 27 21 28 22 29 23 30 24 31 25 32 26 34 27 35 28 36
REMARK SMILES IDX 89 37 29 38 88 39 30 40 31 41 32 42 82 43 33 44 87 45 81 46
REMARK SMILES IDX 83 47 34 48 86 49 80 50 79 51 35 53 67 54 47 55 66 56 48 57
REMARK SMILES IDX 51 58 65 59 84 60 49 61 50 62 64 64 85 65 52 66 36 67 37 68
REMARK SMILES IDX 45 69 38 70 44 71 46 72 43 73 39 74 40 75 41 76 42 77 68 78
REMARK SMILES IDX 69 79 77 80 70 81 76 82 78 83 75 84 71 85 72 86 73 87 74 88
REMARK SMILES IDX 53 89 54 90 62 91 55 92 61 93 63 94 60 95 56 96 57 97 58 98
REMARK SMILES IDX 59 99
REMARK H PARENT 17 7 3 15 3 16 24 33 83 52 51 63
REMARK Flexibility Score: inf
ROOT
ATOM      1  C   UNL     1      -3.291  -0.107   2.875  1.00  0.00     0.002 C 
ENDROOT
BRANCH   1   2
ATOM      2  C   UNL     1      -1.802  -0.072   2.532  1.00  0.00     0.021 C 
BRANCH   2   3
ATOM      3  C   UNL     1      -1.291  -1.328   1.815  1.00  0.00     0.116 C 
BRANCH   3   4
ATOM      4  N   UNL     1      -1.490  -1.199   0.381  1.00  0.00    -0.350 N 
ATOM      5  C   UNL     1      -0.664  -1.036  -0.689  1.00  0.00     0.290 C 
ATOM      6  O   UNL     1      -1.252  -0.665  -1.712  1.00  0.00    -0.267 OA
ATOM      7  H   UNL     1      -2.439  -1.239   0.125  1.00  0.00     0.163 HD
BRANCH   5   8
ATOM      8  C   UNL     1       0.880  -1.234  -0.668  1.00  0.00     0.268 C 
ATOM      9  C   UNL     1       1.324  -2.482   0.116  1.00  0.00     0.101 C 
BRANCH   8  10
ATOM     10  C   UNL     1       1.220  -1.549  -2.171  1.00  0.00     0.453 C 
ATOM     11  F   UNL     1       0.979  -0.500  -2.993  1.00  0.00    -0.164 F 
ATOM     12  F   UNL     1       2.542  -1.838  -2.317  1.00  0.00    -0.164 F 
ATOM     13  F   UNL     1       0.543  -2.624  -2.638  1.00  0.00    -0.164 F 
ENDBRANCH   8  10
BRANCH   8  14
ATOM     14  N   UNL     1       1.619   0.020  -0.236  1.00  0.00    -0.318 N 
ATOM     15  H   UNL     1       1.370   0.770  -0.882  1.00  0.00     0.347 HD
ATOM     16  H   UNL     1       2.610  -0.219  -0.248  1.00  0.00     0.347 HD
BRANCH  14  17
ATOM     17  C   UNL     1       1.331   0.480   1.118  1.00  0.00     0.363 C 
BRANCH  17  18
ATOM     18  C   UNL     1       2.088   1.653   1.639  1.00  0.00     0.282 A 
ATOM     19  N   UNL     1       1.878   2.276   2.778  1.00  0.00    -0.186 NA
ATOM     20  O   UNL     1       3.096   2.194   0.898  1.00  0.00    -0.333 OA
ATOM     21  C   UNL     1       2.802   3.284   2.728  1.00  0.00     0.203 A 
ATOM     22  N   UNL     1       3.560   3.301   1.623  1.00  0.00    -0.057 NA
BRANCH  21  23
ATOM     23  C   UNL     1       2.859   4.272   3.805  1.00  0.00     0.033 A 
ATOM     24  C   UNL     1       2.480   3.974   5.151  1.00  0.00     0.024 A 
ATOM     25  C   UNL     1       3.253   5.585   3.661  1.00  0.00     0.077 A 
ATOM     26  C   UNL     1       2.609   5.068   5.980  1.00  0.00     0.065 A 
ATOM     27  S   UNL     1       3.159   6.452   5.135  1.00  0.00    -0.152 S 
ENDBRANCH  21  23
ENDBRANCH  17  18
ENDBRANCH  14  17
ENDBRANCH   8  14
ENDBRANCH   5   8
ENDBRANCH   3   4
ENDBRANCH   2   3
ENDBRANCH   1   2
BRANCH   1  28
ATOM     28  C   UNL     1      -3.684  -1.158   3.915  1.00  0.00     0.002 C 
BRANCH  28  29
ATOM     29  C   UNL     1      -2.884  -1.114   5.220  1.00  0.00     0.021 C 
BRANCH  29  30
ATOM     30  C   UNL     1      -2.887   0.238   5.931  1.00  0.00     0.116 C 
BRANCH  30  31
ATOM     31  N   UNL     1      -4.230   0.647   6.304  1.00  0.00    -0.352 N 
ATOM     32  C   UNL     1      -4.747   0.900   7.551  1.00  0.00     0.251 C 
ATOM     33  H   UNL     1      -4.861   0.758   5.556  1.00  0.00     0.163 HD
ATOM     34  O   UNL     1      -5.961   0.996   7.699  1.00  0.00    -0.269 OA
BRANCH  32  35
ATOM     35  C   UNL     1      -3.837   1.038   8.709  1.00  0.00     0.039 A 
ATOM     36  C   UNL     1      -4.162   0.396   9.906  1.00  0.00     0.014 A 
ATOM     37  C   UNL     1      -2.675   1.809   8.617  1.00  0.00     0.014 A 
ATOM     38  C   UNL     1      -3.291   0.482  10.995  1.00  0.00     0.010 A 
ATOM     39  C   UNL     1      -1.775   1.836   9.679  1.00  0.00     0.010 A 
ATOM     40  C   UNL     1      -2.075   1.177  10.881  1.00  0.00    -0.014 A 
BRANCH  40  41
ATOM     41  C   UNL     1      -1.113   1.232  12.012  1.00  0.00     0.031 A 
ATOM     42  C   UNL     1      -0.788   2.550  12.662  1.00  0.00     0.074 A 
ATOM     43  C   UNL     1      -0.490   0.106  12.413  1.00  0.00     0.049 A 
ATOM     44  N   UNL     1       0.077   2.816  13.607  1.00  0.00    -0.248 NA
ATOM     45  C   UNL     1      -1.511   3.728  12.161  1.00  0.00     0.031 C 
ATOM     46  C   UNL     1      -0.695  -1.224  11.832  1.00  0.00     0.029 A 
ATOM     47  N   UNL     1       0.446  -0.103  13.394  1.00  0.00    -0.354 N 
ATOM     48  C   UNL     1       0.012   4.191  13.806  1.00  0.00     0.074 A 
ATOM     49  C   UNL     1      -0.933   4.708  12.838  1.00  0.00     0.031 C 
ATOM     50  C   UNL     1       0.076  -2.111  12.482  1.00  0.00     0.029 A 
ATOM     51  C   UNL     1       0.864  -1.411  13.491  1.00  0.00     0.049 A 
ATOM     52  H   UNL     1       0.788   0.615  13.974  1.00  0.00     0.167 HD
ATOM     53  C   UNL     1       0.662   4.947  14.725  1.00  0.00     0.034 A 
ATOM     54  C   UNL     1       1.786  -1.980  14.293  1.00  0.00     0.034 A 
ATOM     55  C   UNL     1       1.591   4.411  15.690  1.00  0.00     0.049 A 
ATOM     56  C   UNL     1       2.511  -1.116  15.294  1.00  0.00     0.074 A 
ATOM     57  C   UNL     1       2.264   5.077  16.700  1.00  0.00     0.029 A 
ATOM     58  N   UNL     1       1.986   3.081  15.763  1.00  0.00    -0.354 N 
ATOM     59  N   UNL     1       2.402   0.177  15.502  1.00  0.00    -0.248 NA
ATOM     60  C   UNL     1       3.473  -1.788  16.176  1.00  0.00     0.031 C 
ATOM     61  C   UNL     1       3.116   4.167  17.335  1.00  0.00     0.029 A 
ATOM     62  C   UNL     1       2.916   2.914  16.778  1.00  0.00     0.049 A 
ATOM     63  H   UNL     1       1.653   2.362  15.178  1.00  0.00     0.167 HD
ATOM     64  C   UNL     1       3.260   0.464  16.559  1.00  0.00     0.074 A 
ATOM     65  C   UNL     1       3.865  -0.791  16.955  1.00  0.00     0.031 C 
ATOM     66  C   UNL     1       3.521   1.657  17.154  1.00  0.00     0.034 A 
BRANCH  53  67
ATOM     67  C   UNL     1       0.408   6.437  14.707  1.00  0.00     0.023 A 
ATOM     68  C   UNL     1      -0.868   6.973  14.957  1.00  0.00     0.031 A 
ATOM     69  C   UNL     1       1.451   7.334  14.416  1.00  0.00     0.131 A 
ATOM     70  C   UNL     1      -1.084   8.354  14.838  1.00  0.00     0.055 A 
ATOM     71  C   UNL     1       1.247   8.715  14.382  1.00  0.00     0.041 A 
ATOM     72  F   UNL     1       2.686   6.883  14.147  1.00  0.00    -0.206 F 
ATOM     73  C   UNL     1      -0.030   9.232  14.578  1.00  0.00     0.022 A 
BRANCH  70  74
ATOM     74  S   UNL     1      -2.790   8.970  14.884  1.00  0.00     0.124 S 
ATOM     75  O   UNL     1      -3.394   8.246  13.767  1.00  0.00    -0.237 OA
ATOM     76  O   UNL     1      -3.232   8.574  16.216  1.00  0.00    -0.237 OA
ATOM     77  O   UNL     1      -2.640  10.409  14.677  1.00  0.00    -0.744 OA
ENDBRANCH  70  74
ENDBRANCH  53  67
BRANCH  54  78
ATOM     78  C   UNL     1       2.092  -3.435  14.178  1.00  0.00     0.023 A 
ATOM     79  C   UNL     1       1.826  -4.318  15.236  1.00  0.00     0.031 A 
ATOM     80  C   UNL     1       2.690  -3.959  13.018  1.00  0.00     0.131 A 
ATOM     81  C   UNL     1       2.201  -5.667  15.133  1.00  0.00     0.055 A 
ATOM     82  C   UNL     1       3.011  -5.312  12.899  1.00  0.00     0.041 A 
ATOM     83  F   UNL     1       2.960  -3.160  11.973  1.00  0.00    -0.206 F 
ATOM     84  C   UNL     1       2.779  -6.173  13.966  1.00  0.00     0.022 A 
BRANCH  81  85
ATOM     85  S   UNL     1       1.999  -6.738  16.583  1.00  0.00     0.124 S 
ATOM     86  O   UNL     1       2.799  -6.039  17.582  1.00  0.00    -0.237 OA
ATOM     87  O   UNL     1       0.554  -6.709  16.781  1.00  0.00    -0.237 OA
ATOM     88  O   UNL     1       2.539  -8.021  16.136  1.00  0.00    -0.744 OA
ENDBRANCH  81  85
ENDBRANCH  54  78
BRANCH  66  89
ATOM     89  C   UNL     1       4.473   1.646  18.326  1.00  0.00     0.023 A 
ATOM     90  C   UNL     1       5.833   1.329  18.173  1.00  0.00     0.031 A 
ATOM     91  C   UNL     1       4.005   1.949  19.617  1.00  0.00     0.131 A 
ATOM     92  C   UNL     1       6.667   1.266  19.300  1.00  0.00     0.055 A 
ATOM     93  C   UNL     1       4.853   1.947  20.726  1.00  0.00     0.041 A 
ATOM     94  F   UNL     1       2.714   2.256  19.822  1.00  0.00    -0.206 F 
ATOM     95  C   UNL     1       6.189   1.591  20.573  1.00  0.00     0.022 A 
BRANCH  92  96
ATOM     96  S   UNL     1       8.364   0.659  19.095  1.00  0.00     0.124 S 
ATOM     97  O   UNL     1       8.145  -0.669  18.530  1.00  0.00    -0.237 OA
ATOM     98  O   UNL     1       8.943   1.648  18.192  1.00  0.00    -0.237 OA
ATOM     99  O   UNL     1       8.900   0.673  20.455  1.00  0.00    -0.744 OA
ENDBRANCH  92  96
ENDBRANCH  66  89
ENDBRANCH  40  41
ENDBRANCH  32  35
ENDBRANCH  30  31
ENDBRANCH  29  30
ENDBRANCH  28  29
ENDBRANCH   1  28
TORSDOF 21
