REMARK SMILES CC(=O)Oc1ccc([C@H]2Nc3c(C(=O)NCCCCCCNC(=O)c4ccc(-c5c6nc(c(-c7cc(S(=O)(=O)[O-])ccc7F)c7ccc([nH]7)c(-c7cc(S(=O)(=O)[O-])ccc7F)c7nc(c(-c8cc(S(=O)(=O)[O-])ccc8F)c8ccc5[nH]8)C=C7)C=C6)cc4)ccc([N+](=O)[O-])c3[C@H]3C=CC[C@@H]32)cc1
REMARK SMILES IDX 18 1 17 2 16 3 15 4 13 5 14 6 12 8 9 9 10 10 99 11 11 12
REMARK SMILES IDX 95 14 98 15 94 16 96 17 97 18 88 19 90 20 89 21 8 22 5 23
REMARK SMILES IDX 6 24 101 25 7 26 100 27 4 28 2 29 1 30 3 31 91 32 92 33
REMARK SMILES IDX 93 34 19 35 20 36 21 37 22 38 23 39 24 41 25 42 26 43 87 44
REMARK SMILES IDX 27 45 86 46 28 47 29 48 30 49 80 50 31 51 85 52 79 53 81 54
REMARK SMILES IDX 32 55 84 56 78 57 77 58 33 60 65 61 45 62 64 63 46 64 49 65
REMARK SMILES IDX 63 66 82 67 47 68 48 69 62 71 83 72 50 73 34 74 35 75 43 76
REMARK SMILES IDX 36 77 42 78 44 79 41 80 37 81 38 82 39 83 40 84 66 85 67 86
REMARK SMILES IDX 75 87 68 88 74 89 76 90 73 91 69 92 70 93 71 94 72 95 51 96
REMARK SMILES IDX 52 97 60 98 53 99 59 100 61 101 58 102 54 103 55 104 56 105
REMARK SMILES IDX 57 106
REMARK H PARENT 15 7 10 13 22 40 81 59 49 70
REMARK Flexibility Score: inf
ROOT
ATOM      1  C   UNL     1       1.997 -12.424  10.567  1.00  0.00     0.002 C 
ENDROOT
BRANCH   1   2
ATOM      2  C   UNL     1       0.995 -12.324   9.414  1.00  0.00     0.021 C 
BRANCH   2   3
ATOM      3  C   UNL     1      -0.044 -11.207   9.523  1.00  0.00     0.116 C 
BRANCH   3   4
ATOM      4  N   UNL     1       0.481  -9.857   9.271  1.00  0.00    -0.352 N 
ATOM      5  C   UNL     1      -0.010  -8.834   8.463  1.00  0.00     0.253 C 
ATOM      6  O   UNL     1       0.643  -7.805   8.310  1.00  0.00    -0.269 OA
ATOM      7  H   UNL     1       1.313  -9.642   9.751  1.00  0.00     0.163 HD
BRANCH   5   8
ATOM      8  C   UNL     1      -1.325  -9.000   7.777  1.00  0.00     0.063 A 
ATOM      9  C   UNL     1      -1.192  -7.205   4.370  1.00  0.00     0.114 C 
ATOM     10  N   UNL     1      -0.777  -7.697   5.711  1.00  0.00    -0.377 N 
ATOM     11  C   UNL     1      -2.717  -7.384   4.293  1.00  0.00     0.031 C 
ATOM     12  C   UNL     1      -1.553  -8.656   6.418  1.00  0.00     0.058 A 
ATOM     13  H   UNL     1       0.051  -7.353   6.117  1.00  0.00     0.161 HD
ATOM     14  C   UNL     1      -2.881  -8.916   4.322  1.00  0.00     0.056 C 
ATOM     15  C   UNL     1      -3.584  -6.873   3.145  1.00  0.00     0.034 C 
ATOM     16  C   UNL     1      -2.701  -9.246   5.782  1.00  0.00     0.061 A 
ATOM     17  C   UNL     1      -4.139  -9.117   3.553  1.00  0.00    -0.022 C 
ATOM     18  C   UNL     1      -4.511  -8.014   2.897  1.00  0.00    -0.030 C 
ATOM     19  C   UNL     1      -2.355  -9.590   8.536  1.00  0.00     0.023 A 
ATOM     20  C   UNL     1      -3.592 -10.022   6.543  1.00  0.00     0.275 A 
ATOM     21  C   UNL     1      -3.474 -10.131   7.923  1.00  0.00     0.087 A 
BRANCH   9  22
ATOM     22  C   UNL     1      -0.632  -5.857   3.909  1.00  0.00    -0.025 A 
ATOM     23  C   UNL     1       0.238  -3.655   2.349  1.00  0.00     0.130 A 
ATOM     24  C   UNL     1       1.084  -4.742   2.556  1.00  0.00     0.047 A 
ATOM     25  C   UNL     1      -1.013  -3.627   2.956  1.00  0.00     0.047 A 
ATOM     26  C   UNL     1       0.657  -5.827   3.338  1.00  0.00     0.010 A 
ATOM     27  C   UNL     1      -1.425  -4.704   3.762  1.00  0.00     0.010 A 
BRANCH  23  28
ATOM     28  O   UNL     1       0.690  -2.682   1.427  1.00  0.00    -0.427 OA
BRANCH  28  29
ATOM     29  C   UNL     1       0.307  -1.341   1.484  1.00  0.00     0.308 C 
ATOM     30  C   UNL     1       0.925  -0.599   0.332  1.00  0.00     0.139 C 
ATOM     31  O   UNL     1      -0.410  -0.817   2.325  1.00  0.00    -0.252 OA
ENDBRANCH  28  29
ENDBRANCH  23  28
ENDBRANCH   9  22
BRANCH  20  32
ATOM     32  N   UNL     1      -4.680 -10.755   5.937  1.00  0.00     0.063 N 
ATOM     33  O   UNL     1      -5.826 -10.333   6.138  1.00  0.00    -0.258 OA
ATOM     34  O   UNL     1      -4.377 -11.768   5.292  1.00  0.00    -0.258 OA
ENDBRANCH  20  32
ENDBRANCH   5   8
ENDBRANCH   3   4
ENDBRANCH   2   3
ENDBRANCH   1   2
BRANCH   1  35
ATOM     35  C   UNL     1       1.425 -12.827  11.932  1.00  0.00     0.002 C 
BRANCH  35  36
ATOM     36  C   UNL     1       0.686 -14.169  12.003  1.00  0.00     0.021 C 
BRANCH  36  37
ATOM     37  C   UNL     1       1.466 -15.398  11.531  1.00  0.00     0.116 C 
BRANCH  37  38
ATOM     38  N   UNL     1       2.660 -15.653  12.320  1.00  0.00    -0.352 N 
ATOM     39  C   UNL     1       3.054 -16.783  13.005  1.00  0.00     0.251 C 
ATOM     40  H   UNL     1       3.289 -14.897  12.374  1.00  0.00     0.163 HD
ATOM     41  O   UNL     1       4.039 -16.734  13.728  1.00  0.00    -0.269 OA
BRANCH  39  42
ATOM     42  C   UNL     1       2.272 -18.040  12.901  1.00  0.00     0.039 A 
ATOM     43  C   UNL     1       1.985 -18.749  14.072  1.00  0.00     0.014 A 
ATOM     44  C   UNL     1       1.823 -18.523  11.670  1.00  0.00     0.014 A 
ATOM     45  C   UNL     1       1.166 -19.881  14.019  1.00  0.00     0.010 A 
ATOM     46  C   UNL     1       0.954 -19.616  11.626  1.00  0.00     0.010 A 
ATOM     47  C   UNL     1       0.594 -20.290  12.803  1.00  0.00    -0.014 A 
BRANCH  47  48
ATOM     48  C   UNL     1      -0.437 -21.364  12.761  1.00  0.00     0.031 A 
ATOM     49  C   UNL     1      -0.188 -22.648  12.019  1.00  0.00     0.074 A 
ATOM     50  C   UNL     1      -1.636 -21.144  13.339  1.00  0.00     0.049 A 
ATOM     51  N   UNL     1      -1.000 -23.653  11.811  1.00  0.00    -0.248 NA
ATOM     52  C   UNL     1       1.141 -22.813  11.414  1.00  0.00     0.031 C 
ATOM     53  C   UNL     1      -2.011 -19.926  14.062  1.00  0.00     0.029 A 
ATOM     54  N   UNL     1      -2.764 -21.925  13.405  1.00  0.00    -0.354 N 
ATOM     55  C   UNL     1      -0.285 -24.571  11.050  1.00  0.00     0.074 A 
ATOM     56  C   UNL     1       1.010 -23.974  10.789  1.00  0.00     0.031 C 
ATOM     57  C   UNL     1      -3.268 -20.051  14.515  1.00  0.00     0.029 A 
ATOM     58  C   UNL     1      -3.813 -21.328  14.067  1.00  0.00     0.049 A 
ATOM     59  H   UNL     1      -2.818 -22.827  13.014  1.00  0.00     0.167 HD
ATOM     60  C   UNL     1      -0.667 -25.802  10.623  1.00  0.00     0.034 A 
ATOM     61  C   UNL     1      -5.079 -21.746  14.273  1.00  0.00     0.034 A 
ATOM     62  C   UNL     1      -1.965 -26.380  10.888  1.00  0.00     0.049 A 
ATOM     63  C   UNL     1      -5.498 -23.090  13.734  1.00  0.00     0.074 A 
ATOM     64  C   UNL     1      -2.431 -27.639  10.550  1.00  0.00     0.029 A 
ATOM     65  N   UNL     1      -3.011 -25.734  11.536  1.00  0.00    -0.354 N 
ATOM     66  N   UNL     1      -4.789 -23.970  13.064  1.00  0.00    -0.248 NA
ATOM     67  C   UNL     1      -6.886 -23.499  13.982  1.00  0.00     0.031 C 
ATOM     68  C   UNL     1      -3.779 -27.723  10.916  1.00  0.00     0.029 A 
ATOM     69  C   UNL     1      -4.133 -26.551  11.563  1.00  0.00     0.049 A 
ATOM     70  H   UNL     1      -2.963 -24.829  11.920  1.00  0.00     0.167 HD
ATOM     71  C   UNL     1      -5.642 -25.045  12.832  1.00  0.00     0.074 A 
ATOM     72  C   UNL     1      -6.907 -24.714  13.454  1.00  0.00     0.031 C 
ATOM     73  C   UNL     1      -5.400 -26.203  12.165  1.00  0.00     0.034 A 
BRANCH  60  74
ATOM     74  C   UNL     1       0.320 -26.594   9.798  1.00  0.00     0.023 A 
ATOM     75  C   UNL     1       1.557 -27.009  10.321  1.00  0.00     0.031 A 
ATOM     76  C   UNL     1       0.023 -26.936   8.466  1.00  0.00     0.131 A 
ATOM     77  C   UNL     1       2.477 -27.679   9.499  1.00  0.00     0.055 A 
ATOM     78  C   UNL     1       0.909 -27.674   7.679  1.00  0.00     0.041 A 
ATOM     79  F   UNL     1      -1.133 -26.551   7.902  1.00  0.00    -0.206 F 
ATOM     80  C   UNL     1       2.151 -28.038   8.190  1.00  0.00     0.022 A 
BRANCH  77  81
ATOM     81  S   UNL     1       4.159 -27.947  10.123  1.00  0.00     0.124 S 
ATOM     82  O   UNL     1       4.585 -26.582  10.420  1.00  0.00    -0.237 OA
ATOM     83  O   UNL     1       3.934 -28.812  11.275  1.00  0.00    -0.237 OA
ATOM     84  O   UNL     1       4.847 -28.574   8.996  1.00  0.00    -0.744 OA
ENDBRANCH  77  81
ENDBRANCH  60  74
BRANCH  61  85
ATOM     85  C   UNL     1      -6.055 -20.878  14.993  1.00  0.00     0.023 A 
ATOM     86  C   UNL     1      -6.630 -21.286  16.207  1.00  0.00     0.031 A 
ATOM     87  C   UNL     1      -6.466 -19.645  14.453  1.00  0.00     0.131 A 
ATOM     88  C   UNL     1      -7.617 -20.496  16.816  1.00  0.00     0.055 A 
ATOM     89  C   UNL     1      -7.404 -18.834  15.093  1.00  0.00     0.041 A 
ATOM     90  F   UNL     1      -5.950 -19.205  13.294  1.00  0.00    -0.206 F 
ATOM     91  C   UNL     1      -7.996 -19.265  16.276  1.00  0.00     0.022 A 
BRANCH  88  92
ATOM     92  S   UNL     1      -8.472 -21.147  18.277  1.00  0.00     0.124 S 
ATOM     93  O   UNL     1      -9.026 -22.395  17.764  1.00  0.00    -0.237 OA
ATOM     94  O   UNL     1      -7.379 -21.275  19.235  1.00  0.00    -0.237 OA
ATOM     95  O   UNL     1      -9.452 -20.108  18.588  1.00  0.00    -0.744 OA
ENDBRANCH  88  92
ENDBRANCH  61  85
BRANCH  73  96
ATOM     96  C   UNL     1      -6.529 -27.205  12.099  1.00  0.00     0.023 A 
ATOM     97  C   UNL     1      -7.720 -26.931  11.403  1.00  0.00     0.031 A 
ATOM     98  C   UNL     1      -6.419 -28.444  12.756  1.00  0.00     0.131 A 
ATOM     99  C   UNL     1      -8.774 -27.856  11.429  1.00  0.00     0.055 A 
ATOM    100  C   UNL     1      -7.446 -29.389  12.721  1.00  0.00     0.041 A 
ATOM    101  F   UNL     1      -5.308 -28.759  13.441  1.00  0.00    -0.206 F 
ATOM    102  C   UNL     1      -8.638 -29.091  12.067  1.00  0.00     0.022 A 
BRANCH  99 103
ATOM    103  S   UNL     1     -10.367 -27.381  10.702  1.00  0.00     0.124 S 
ATOM    104  O   UNL     1     -10.711 -26.193  11.476  1.00  0.00    -0.237 OA
ATOM    105  O   UNL     1     -10.017 -27.152   9.304  1.00  0.00    -0.237 OA
ATOM    106  O   UNL     1     -11.216 -28.547  10.944  1.00  0.00    -0.744 OA
ENDBRANCH  99 103
ENDBRANCH  73  96
ENDBRANCH  47  48
ENDBRANCH  39  42
ENDBRANCH  37  38
ENDBRANCH  36  37
ENDBRANCH  35  36
ENDBRANCH   1  35
TORSDOF 20
