REMARK SMILES Cc1cc(C(=O)N[C@H]2C=C[C@H](C(=O)NCCCCCCNC(=O)c3ccc(-c4c5nc(c(-c6cc(S(=O)(=O)[O-])ccc6F)c6ccc([nH]6)c(-c6cc(S(=O)(=O)[O-])ccc6F)c6nc(c(-c7cc(S(=O)(=O)[O-])ccc7F)c7ccc4[nH]7)C=C6)C=C5)cc3)C2)ccc1F
REMARK SMILES IDX 18 1 17 2 16 3 15 4 14 5 12 6 13 7 11 9 8 10 9 11 87 12
REMARK SMILES IDX 10 13 7 14 5 15 6 16 4 18 1 19 2 20 3 21 90 22 89 23 91 24
REMARK SMILES IDX 88 25 19 26 20 27 21 28 22 29 23 31 24 32 25 33 86 34 26 35
REMARK SMILES IDX 85 36 27 37 28 38 29 39 79 40 30 41 84 42 78 43 80 44 31 45
REMARK SMILES IDX 83 46 77 47 76 48 32 50 64 51 44 52 63 53 45 54 48 55 62 56
REMARK SMILES IDX 81 57 46 58 47 59 61 61 82 62 49 63 33 64 34 65 42 66 35 67
REMARK SMILES IDX 41 68 43 69 40 70 36 71 37 72 38 73 39 74 65 75 66 76 74 77
REMARK SMILES IDX 67 78 73 79 75 80 72 81 68 82 69 83 70 84 71 85 50 86 51 87
REMARK SMILES IDX 59 88 52 89 58 90 60 91 57 92 53 93 54 94 55 95 56 96
REMARK H PARENT 14 8 7 17 21 30 80 49 48 60
REMARK Flexibility Score: inf
ROOT
ATOM      1  C   UNL     1       2.695   7.869  -0.279  1.00  0.00     0.002 C 
ENDROOT
BRANCH   1   2
ATOM      2  C   UNL     1       2.481   7.854   1.246  1.00  0.00     0.002 C 
BRANCH   2   3
ATOM      3  C   UNL     1       1.042   7.908   1.777  1.00  0.00     0.021 C 
BRANCH   3   4
ATOM      4  C   UNL     1       0.058   6.942   1.141  1.00  0.00     0.116 C 
BRANCH   4   5
ATOM      5  N   UNL     1       0.517   5.587   1.266  1.00  0.00    -0.356 N 
ATOM      6  C   UNL     1      -0.118   4.490   1.721  1.00  0.00     0.227 C 
ATOM      7  O   UNL     1       0.584   3.480   1.847  1.00  0.00    -0.274 OA
ATOM      8  H   UNL     1       1.445   5.436   0.972  1.00  0.00     0.163 HD
BRANCH   6   9
ATOM      9  C   UNL     1      -1.616   4.479   2.101  1.00  0.00     0.103 C 
ATOM     10  C   UNL     1      -2.594   3.302   0.255  1.00  0.00     0.106 C 
ATOM     11  C   UNL     1      -3.203   4.657   0.347  1.00  0.00    -0.006 C 
ATOM     12  C   UNL     1      -2.149   3.093   1.703  1.00  0.00     0.047 C 
ATOM     13  C   UNL     1      -2.617   5.329   1.349  1.00  0.00    -0.016 C 
BRANCH  10  14
ATOM     14  N   UNL     1      -3.500   2.298  -0.218  1.00  0.00    -0.346 N 
ATOM     15  C   UNL     1      -3.249   0.971  -0.493  1.00  0.00     0.251 C 
ATOM     16  O   UNL     1      -4.203   0.246  -0.776  1.00  0.00    -0.269 OA
ATOM     17  H   UNL     1      -4.427   2.596  -0.366  1.00  0.00     0.164 HD
BRANCH  15  18
ATOM     18  C   UNL     1      -1.883   0.359  -0.386  1.00  0.00     0.040 A 
ATOM     19  C   UNL     1       1.816   1.278  -0.367  1.00  0.00     0.047 C 
ATOM     20  C   UNL     1       0.561   0.458  -0.328  1.00  0.00    -0.015 A 
ATOM     21  C   UNL     1      -0.682   1.044  -0.610  1.00  0.00     0.020 A 
ATOM     22  C   UNL     1       0.598  -0.887   0.025  1.00  0.00     0.126 A 
ATOM     23  C   UNL     1      -0.575  -1.625   0.146  1.00  0.00     0.040 A 
ATOM     24  F   UNL     1       1.774  -1.489   0.250  1.00  0.00    -0.207 F 
ATOM     25  C   UNL     1      -1.812  -0.998  -0.035  1.00  0.00     0.017 A 
ENDBRANCH  15  18
ENDBRANCH  10  14
ENDBRANCH   6   9
ENDBRANCH   4   5
ENDBRANCH   3   4
ENDBRANCH   2   3
ENDBRANCH   1   2
BRANCH   1  26
ATOM     26  C   UNL     1       1.806   8.788  -1.107  1.00  0.00     0.021 C 
BRANCH  26  27
ATOM     27  C   UNL     1       1.761  10.181  -0.552  1.00  0.00     0.116 C 
BRANCH  27  28
ATOM     28  N   UNL     1       2.659  11.079  -1.214  1.00  0.00    -0.352 N 
ATOM     29  C   UNL     1       2.301  12.340  -1.619  1.00  0.00     0.251 C 
ATOM     30  H   UNL     1       3.579  10.776  -1.388  1.00  0.00     0.163 HD
ATOM     31  O   UNL     1       2.646  12.714  -2.746  1.00  0.00    -0.269 OA
BRANCH  29  32
ATOM     32  C   UNL     1       1.582  13.224  -0.663  1.00  0.00     0.039 A 
ATOM     33  C   UNL     1       1.602  14.605  -0.886  1.00  0.00     0.014 A 
ATOM     34  C   UNL     1       1.053  12.738   0.535  1.00  0.00     0.014 A 
ATOM     35  C   UNL     1       1.298  15.471   0.159  1.00  0.00     0.010 A 
ATOM     36  C   UNL     1       0.672  13.574   1.529  1.00  0.00     0.010 A 
ATOM     37  C   UNL     1       0.923  14.921   1.379  1.00  0.00    -0.014 A 
BRANCH  37  38
ATOM     38  C   UNL     1       0.661  15.635   2.600  1.00  0.00     0.031 A 
ATOM     39  C   UNL     1      -0.518  16.488   2.591  1.00  0.00     0.074 A 
ATOM     40  C   UNL     1       1.363  15.250   3.691  1.00  0.00     0.049 A 
ATOM     41  N   UNL     1      -0.605  17.614   3.193  1.00  0.00    -0.248 NA
ATOM     42  C   UNL     1      -1.702  16.143   1.801  1.00  0.00     0.031 C 
ATOM     43  C   UNL     1       1.099  15.497   5.094  1.00  0.00     0.029 A 
ATOM     44  N   UNL     1       2.584  14.562   3.704  1.00  0.00    -0.354 N 
ATOM     45  C   UNL     1      -1.950  17.905   3.216  1.00  0.00     0.074 A 
ATOM     46  C   UNL     1      -2.539  17.120   2.156  1.00  0.00     0.031 C 
ATOM     47  C   UNL     1       2.233  15.272   5.789  1.00  0.00     0.029 A 
ATOM     48  C   UNL     1       3.294  15.006   4.825  1.00  0.00     0.049 A 
ATOM     49  H   UNL     1       2.886  13.893   3.048  1.00  0.00     0.167 HD
ATOM     50  C   UNL     1      -2.463  18.521   4.318  1.00  0.00     0.034 A 
ATOM     51  C   UNL     1       4.461  15.711   4.696  1.00  0.00     0.034 A 
ATOM     52  C   UNL     1      -1.392  18.726   5.313  1.00  0.00     0.049 A 
ATOM     53  C   UNL     1       4.249  17.165   5.079  1.00  0.00     0.074 A 
ATOM     54  C   UNL     1      -1.038  18.013   6.448  1.00  0.00     0.029 A 
ATOM     55  N   UNL     1      -0.269  19.488   4.982  1.00  0.00    -0.354 N 
ATOM     56  N   UNL     1       3.076  17.699   5.283  1.00  0.00    -0.248 NA
ATOM     57  C   UNL     1       5.330  18.129   5.243  1.00  0.00     0.031 C 
ATOM     58  C   UNL     1       0.323  18.297   6.752  1.00  0.00     0.029 A 
ATOM     59  C   UNL     1       0.807  19.193   5.814  1.00  0.00     0.049 A 
ATOM     60  H   UNL     1      -0.242  20.149   4.253  1.00  0.00     0.167 HD
ATOM     61  C   UNL     1       3.200  19.040   5.517  1.00  0.00     0.074 A 
ATOM     62  C   UNL     1       4.639  19.242   5.548  1.00  0.00     0.031 C 
ATOM     63  C   UNL     1       2.107  19.859   5.632  1.00  0.00     0.034 A 
BRANCH  50  64
ATOM     64  C   UNL     1      -3.954  18.562   4.615  1.00  0.00     0.023 A 
ATOM     65  C   UNL     1      -4.965  18.457   3.628  1.00  0.00     0.031 A 
ATOM     66  C   UNL     1      -4.426  18.688   5.937  1.00  0.00     0.131 A 
ATOM     67  C   UNL     1      -6.332  18.375   3.965  1.00  0.00     0.055 A 
ATOM     68  C   UNL     1      -5.788  18.663   6.268  1.00  0.00     0.041 A 
ATOM     69  F   UNL     1      -3.588  18.818   6.975  1.00  0.00    -0.206 F 
ATOM     70  C   UNL     1      -6.749  18.485   5.285  1.00  0.00     0.022 A 
BRANCH  67  71
ATOM     71  S   UNL     1      -7.601  18.042   2.704  1.00  0.00     0.124 S 
ATOM     72  O   UNL     1      -8.337  16.921   3.286  1.00  0.00    -0.237 OA
ATOM     73  O   UNL     1      -8.330  19.305   2.653  1.00  0.00    -0.237 OA
ATOM     74  O   UNL     1      -6.828  17.710   1.510  1.00  0.00    -0.744 OA
ENDBRANCH  67  71
ENDBRANCH  50  64
BRANCH  51  75
ATOM     75  C   UNL     1       5.291  15.243   3.539  1.00  0.00     0.023 A 
ATOM     76  C   UNL     1       5.245  15.919   2.312  1.00  0.00     0.031 A 
ATOM     77  C   UNL     1       5.660  13.877   3.535  1.00  0.00     0.131 A 
ATOM     78  C   UNL     1       5.339  15.175   1.124  1.00  0.00     0.055 A 
ATOM     79  C   UNL     1       5.694  13.137   2.354  1.00  0.00     0.041 A 
ATOM     80  F   UNL     1       5.808  13.214   4.695  1.00  0.00    -0.206 F 
ATOM     81  C   UNL     1       5.472  13.780   1.142  1.00  0.00     0.022 A 
BRANCH  78  82
ATOM     82  S   UNL     1       5.123  16.015  -0.470  1.00  0.00     0.124 S 
ATOM     83  O   UNL     1       6.490  16.432  -0.761  1.00  0.00    -0.237 OA
ATOM     84  O   UNL     1       4.604  14.952  -1.324  1.00  0.00    -0.237 OA
ATOM     85  O   UNL     1       4.180  17.078  -0.153  1.00  0.00    -0.744 OA
ENDBRANCH  78  82
ENDBRANCH  51  75
BRANCH  63  86
ATOM     86  C   UNL     1       2.139  21.375   5.673  1.00  0.00     0.023 A 
ATOM     87  C   UNL     1       0.960  22.057   6.063  1.00  0.00     0.031 A 
ATOM     88  C   UNL     1       3.198  22.194   5.249  1.00  0.00     0.131 A 
ATOM     89  C   UNL     1       0.860  23.450   6.011  1.00  0.00     0.055 A 
ATOM     90  C   UNL     1       3.139  23.592   5.313  1.00  0.00     0.041 A 
ATOM     91  F   UNL     1       4.308  21.697   4.691  1.00  0.00    -0.206 F 
ATOM     92  C   UNL     1       1.962  24.227   5.682  1.00  0.00     0.022 A 
BRANCH  89  93
ATOM     93  S   UNL     1      -0.746  24.267   6.212  1.00  0.00     0.124 S 
ATOM     94  O   UNL     1      -0.604  24.880   7.529  1.00  0.00    -0.237 OA
ATOM     95  O   UNL     1      -0.757  25.198   5.085  1.00  0.00    -0.237 OA
ATOM     96  O   UNL     1      -1.707  23.175   6.120  1.00  0.00    -0.744 OA
ENDBRANCH  89  93
ENDBRANCH  63  86
ENDBRANCH  37  38
ENDBRANCH  29  32
ENDBRANCH  27  28
ENDBRANCH  26  27
ENDBRANCH   1  26
TORSDOF 18
