REMARK SMILES Cc1cc(C)cc(-c2ccc([C@@H](C)C(=O)NCCCCCCNC(=O)c3ccc(-c4c5nc(c(-c6cc(S(=O)(=O)[O-])ccc6F)c6ccc([nH]6)c(-c6cc(S(=O)(=O)[O-])ccc6F)c6nc(c(-c7cc(S(=O)(=O)[O-])ccc7F)c7ccc4[nH]7)C=C6)C=C5)cc3)cc2F)c1
REMARK SMILES IDX 20 1 19 2 18 3 17 4 16 5 14 6 15 7 12 9 13 10 11 11 8 12
REMARK SMILES IDX 9 13 90 14 10 15 89 16 91 17 7 18 1 19 2 20 3 21 92 22 4 23
REMARK SMILES IDX 5 24 6 25 21 26 22 27 23 28 24 29 25 31 26 32 27 33 88 34
REMARK SMILES IDX 28 35 87 36 29 37 30 38 31 39 81 40 32 41 86 42 80 43 82 44
REMARK SMILES IDX 33 45 85 46 79 47 78 48 34 50 66 51 46 52 65 53 47 54 50 55
REMARK SMILES IDX 64 56 83 57 48 58 49 59 63 61 84 62 51 63 35 64 36 65 44 66
REMARK SMILES IDX 37 67 43 68 45 69 42 70 38 71 39 72 40 73 41 74 67 75 68 76
REMARK SMILES IDX 76 77 69 78 75 79 77 80 74 81 70 82 71 83 72 84 73 85 52 86
REMARK SMILES IDX 53 87 61 88 54 89 60 90 62 91 59 92 55 93 56 94 57 95 58 96
REMARK H PARENT 16 8 23 30 82 49 50 60
REMARK Flexibility Score: inf
ROOT
ATOM      1  C   UNL     1      -0.921  -6.976  -6.063  1.00  0.00     0.002 C 
ENDROOT
BRANCH   1   2
ATOM      2  C   UNL     1       0.097  -6.361  -5.093  1.00  0.00     0.002 C 
BRANCH   2   3
ATOM      3  C   UNL     1      -0.415  -6.149  -3.664  1.00  0.00     0.021 C 
BRANCH   3   4
ATOM      4  C   UNL     1      -0.786  -7.447  -2.944  1.00  0.00     0.116 C 
BRANCH   4   5
ATOM      5  N   UNL     1       0.356  -8.026  -2.266  1.00  0.00    -0.356 N 
ATOM      6  C   UNL     1       0.725  -8.025  -0.957  1.00  0.00     0.227 C 
ATOM      7  O   UNL     1       1.824  -8.530  -0.694  1.00  0.00    -0.274 OA
ATOM      8  H   UNL     1       0.977  -8.507  -2.860  1.00  0.00     0.163 HD
BRANCH   6   9
ATOM      9  C   UNL     1      -0.145  -7.460   0.177  1.00  0.00     0.105 C 
ATOM     10  C   UNL     1      -1.503  -8.150   0.318  1.00  0.00     0.023 C 
BRANCH   9  11
ATOM     11  C   UNL     1      -0.163  -5.941   0.237  1.00  0.00    -0.033 A 
ATOM     12  C   UNL     1      -0.050  -3.079   0.298  1.00  0.00     0.017 A 
ATOM     13  C   UNL     1      -1.028  -3.768  -0.438  1.00  0.00     0.012 A 
ATOM     14  C   UNL     1       0.854  -3.866   1.024  1.00  0.00     0.131 A 
ATOM     15  C   UNL     1      -1.105  -5.164  -0.441  1.00  0.00     0.005 A 
ATOM     16  C   UNL     1       0.814  -5.265   0.984  1.00  0.00     0.044 A 
ATOM     17  F   UNL     1       1.794  -3.293   1.793  1.00  0.00    -0.206 F 
BRANCH  12  18
ATOM     18  C   UNL     1      -0.001  -1.601   0.266  1.00  0.00    -0.015 A 
ATOM     19  C   UNL     1       2.559   1.233   0.015  1.00  0.00     0.044 C 
ATOM     20  C   UNL     1       1.253   0.499   0.089  1.00  0.00    -0.050 A 
ATOM     21  C   UNL     1       0.051   1.215   0.045  1.00  0.00     0.006 A 
ATOM     22  C   UNL     1       1.216  -0.900   0.197  1.00  0.00     0.012 A 
ATOM     23  C   UNL     1      -1.176   0.551   0.115  1.00  0.00    -0.050 A 
ATOM     24  C   UNL     1      -2.460   1.324   0.043  1.00  0.00     0.044 C 
ATOM     25  C   UNL     1      -1.188  -0.844   0.243  1.00  0.00     0.012 A 
ENDBRANCH  12  18
ENDBRANCH   9  11
ENDBRANCH   6   9
ENDBRANCH   4   5
ENDBRANCH   3   4
ENDBRANCH   2   3
ENDBRANCH   1   2
BRANCH   1  26
ATOM     26  C   UNL     1      -2.254  -6.230  -6.180  1.00  0.00     0.021 C 
BRANCH  26  27
ATOM     27  C   UNL     1      -2.136  -4.788  -6.669  1.00  0.00     0.116 C 
BRANCH  27  28
ATOM     28  N   UNL     1      -1.582  -4.722  -8.012  1.00  0.00    -0.352 N 
ATOM     29  C   UNL     1      -2.137  -4.218  -9.162  1.00  0.00     0.251 C 
ATOM     30  H   UNL     1      -0.676  -5.094  -8.111  1.00  0.00     0.163 HD
ATOM     31  O   UNL     1      -1.630  -4.481 -10.247  1.00  0.00    -0.269 OA
BRANCH  29  32
ATOM     32  C   UNL     1      -3.346  -3.368  -9.090  1.00  0.00     0.039 A 
ATOM     33  C   UNL     1      -4.375  -3.571 -10.013  1.00  0.00     0.014 A 
ATOM     34  C   UNL     1      -3.452  -2.356  -8.131  1.00  0.00     0.014 A 
ATOM     35  C   UNL     1      -5.535  -2.796  -9.938  1.00  0.00     0.010 A 
ATOM     36  C   UNL     1      -4.635  -1.629  -8.017  1.00  0.00     0.010 A 
ATOM     37  C   UNL     1      -5.687  -1.840  -8.920  1.00  0.00    -0.014 A 
BRANCH  37  38
ATOM     38  C   UNL     1      -6.938  -1.050  -8.787  1.00  0.00     0.031 A 
ATOM     39  C   UNL     1      -6.914   0.441  -8.985  1.00  0.00     0.074 A 
ATOM     40  C   UNL     1      -8.085  -1.669  -8.447  1.00  0.00     0.049 A 
ATOM     41  N   UNL     1      -7.880   1.310  -8.831  1.00  0.00    -0.248 NA
ATOM     42  C   UNL     1      -5.629   1.036  -9.386  1.00  0.00     0.031 C 
ATOM     43  C   UNL     1      -8.231  -3.108  -8.214  1.00  0.00     0.029 A 
ATOM     44  N   UNL     1      -9.348  -1.172  -8.242  1.00  0.00    -0.354 N 
ATOM     45  C   UNL     1      -7.322   2.551  -9.113  1.00  0.00     0.074 A 
ATOM     46  C   UNL     1      -5.919   2.329  -9.390  1.00  0.00     0.031 C 
ATOM     47  C   UNL     1      -9.516  -3.381  -7.938  1.00  0.00     0.029 A 
ATOM     48  C   UNL     1     -10.277  -2.135  -7.923  1.00  0.00     0.049 A 
ATOM     49  H   UNL     1      -9.568  -0.215  -8.315  1.00  0.00     0.167 HD
ATOM     50  C   UNL     1      -7.929   3.762  -9.160  1.00  0.00     0.034 A 
ATOM     51  C   UNL     1     -11.591  -2.029  -7.645  1.00  0.00     0.034 A 
ATOM     52  C   UNL     1      -9.332   3.969  -8.900  1.00  0.00     0.049 A 
ATOM     53  C   UNL     1     -12.234  -0.668  -7.658  1.00  0.00     0.074 A 
ATOM     54  C   UNL     1     -10.050   5.151  -8.951  1.00  0.00     0.029 A 
ATOM     55  N   UNL     1     -10.230   2.973  -8.544  1.00  0.00    -0.354 N 
ATOM     56  N   UNL     1     -11.688   0.497  -7.915  1.00  0.00    -0.248 NA
ATOM     57  C   UNL     1     -13.668  -0.607  -7.342  1.00  0.00     0.031 C 
ATOM     58  C   UNL     1     -11.368   4.880  -8.571  1.00  0.00     0.029 A 
ATOM     59  C   UNL     1     -11.489   3.518  -8.349  1.00  0.00     0.049 A 
ATOM     60  H   UNL     1     -10.006   2.019  -8.444  1.00  0.00     0.167 HD
ATOM     61  C   UNL     1     -12.717   1.428  -7.813  1.00  0.00     0.074 A 
ATOM     62  C   UNL     1     -13.916   0.690  -7.473  1.00  0.00     0.031 C 
ATOM     63  C   UNL     1     -12.672   2.771  -7.995  1.00  0.00     0.034 A 
BRANCH  50  64
ATOM     64  C   UNL     1      -7.077   4.958  -9.496  1.00  0.00     0.023 A 
ATOM     65  C   UNL     1      -6.506   5.115 -10.771  1.00  0.00     0.031 A 
ATOM     66  C   UNL     1      -6.844   5.960  -8.539  1.00  0.00     0.131 A 
ATOM     67  C   UNL     1      -5.691   6.224 -11.039  1.00  0.00     0.055 A 
ATOM     68  C   UNL     1      -6.087   7.096  -8.833  1.00  0.00     0.041 A 
ATOM     69  F   UNL     1      -7.351   5.852  -7.300  1.00  0.00    -0.206 F 
ATOM     70  C   UNL     1      -5.498   7.228 -10.087  1.00  0.00     0.022 A 
BRANCH  67  71
ATOM     71  S   UNL     1      -4.815   6.295 -12.625  1.00  0.00     0.124 S 
ATOM     72  O   UNL     1      -3.921   5.145 -12.517  1.00  0.00    -0.237 OA
ATOM     73  O   UNL     1      -5.899   6.172 -13.593  1.00  0.00    -0.237 OA
ATOM     74  O   UNL     1      -4.154   7.597 -12.593  1.00  0.00    -0.744 OA
ENDBRANCH  67  71
ENDBRANCH  50  64
BRANCH  51  75
ATOM     75  C   UNL     1     -12.383  -3.249  -7.331  1.00  0.00     0.023 A 
ATOM     76  C   UNL     1     -13.346  -3.730  -8.231  1.00  0.00     0.031 A 
ATOM     77  C   UNL     1     -12.178  -3.959  -6.135  1.00  0.00     0.131 A 
ATOM     78  C   UNL     1     -14.084  -4.881  -7.913  1.00  0.00     0.055 A 
ATOM     79  C   UNL     1     -12.888  -5.123  -5.840  1.00  0.00     0.041 A 
ATOM     80  F   UNL     1     -11.259  -3.543  -5.249  1.00  0.00    -0.206 F 
ATOM     81  C   UNL     1     -13.852  -5.588  -6.730  1.00  0.00     0.022 A 
BRANCH  78  82
ATOM     82  S   UNL     1     -15.371  -5.437  -9.064  1.00  0.00     0.124 S 
ATOM     83  O   UNL     1     -16.322  -4.333  -9.000  1.00  0.00    -0.237 OA
ATOM     84  O   UNL     1     -14.627  -5.574 -10.311  1.00  0.00    -0.237 OA
ATOM     85  O   UNL     1     -15.831  -6.694  -8.476  1.00  0.00    -0.744 OA
ENDBRANCH  78  82
ENDBRANCH  51  75
BRANCH  63  86
ATOM     86  C   UNL     1     -13.963   3.534  -7.859  1.00  0.00     0.023 A 
ATOM     87  C   UNL     1     -14.563   3.747  -6.608  1.00  0.00     0.031 A 
ATOM     88  C   UNL     1     -14.570   4.097  -8.996  1.00  0.00     0.131 A 
ATOM     89  C   UNL     1     -15.751   4.487  -6.524  1.00  0.00     0.055 A 
ATOM     90  C   UNL     1     -15.727   4.871  -8.900  1.00  0.00     0.041 A 
ATOM     91  F   UNL     1     -14.032   3.924 -10.213  1.00  0.00    -0.206 F 
ATOM     92  C   UNL     1     -16.326   5.066  -7.659  1.00  0.00     0.022 A 
BRANCH  89  93
ATOM     93  S   UNL     1     -16.555   4.666  -4.908  1.00  0.00     0.124 S 
ATOM     94  O   UNL     1     -16.938   3.290  -4.608  1.00  0.00    -0.237 OA
ATOM     95  O   UNL     1     -15.489   5.226  -4.084  1.00  0.00    -0.237 OA
ATOM     96  O   UNL     1     -17.669   5.574  -5.178  1.00  0.00    -0.744 OA
ENDBRANCH  89  93
ENDBRANCH  63  86
ENDBRANCH  37  38
ENDBRANCH  29  32
ENDBRANCH  27  28
ENDBRANCH  26  27
ENDBRANCH   1  26
TORSDOF 18
