REMARK SMILES CCc1cc(/C=C/C(=O)NCCCCCCNC(=O)c2ccc(-c3c4nc(c(-c5cc(S(=O)(=O)[O-])ccc5F)c5ccc([nH]5)c(-c5cc(S(=O)(=O)[O-])ccc5F)c5nc(c(-c6cc(S(=O)(=O)[O-])ccc6F)c6ccc3[nH]6)C=C5)C=C4)cc2)cc(C(=O)c2ccccc2)c1
REMARK SMILES IDX 13 1 12 2 11 3 10 4 8 5 9 6 7 8 6 9 5 10 3 11 4 12 93 13
REMARK SMILES IDX 84 14 83 15 2 16 1 17 85 18 86 19 87 20 88 21 92 22 89 23
REMARK SMILES IDX 91 24 90 25 14 26 15 27 16 28 17 29 18 30 19 32 20 33 21 34
REMARK SMILES IDX 82 35 22 36 81 37 23 38 24 39 25 40 75 41 26 42 80 43 74 44
REMARK SMILES IDX 76 45 27 46 79 47 73 48 72 49 28 51 60 52 40 53 59 54 41 55
REMARK SMILES IDX 44 56 58 57 77 58 42 59 43 60 57 62 78 63 45 64 29 65 30 66
REMARK SMILES IDX 38 67 31 68 37 69 39 70 36 71 32 72 33 73 34 74 35 75 61 76
REMARK SMILES IDX 62 77 70 78 63 79 69 80 71 81 68 82 64 83 65 84 66 85 67 86
REMARK SMILES IDX 46 87 47 88 55 89 48 90 54 91 56 92 53 93 49 94 50 95 51 96
REMARK SMILES IDX 52 97
REMARK H PARENT 10 7 17 31 76 50 44 61
REMARK Flexibility Score: inf
ROOT
ATOM      1  C   UNL     1       7.404   4.248  -6.261  1.00  0.00     0.002 C 
ENDROOT
BRANCH   1   2
ATOM      2  C   UNL     1       6.166   4.194  -5.356  1.00  0.00     0.021 C 
BRANCH   2   3
ATOM      3  C   UNL     1       5.102   3.208  -5.842  1.00  0.00     0.116 C 
BRANCH   3   4
ATOM      4  N   UNL     1       5.476   1.852  -5.487  1.00  0.00    -0.353 N 
ATOM      5  C   UNL     1       4.958   0.983  -4.585  1.00  0.00     0.243 C 
ATOM      6  O   UNL     1       5.432  -0.150  -4.500  1.00  0.00    -0.270 OA
ATOM      7  H   UNL     1       6.245   1.500  -5.992  1.00  0.00     0.163 HD
BRANCH   5   8
ATOM      8  C   UNL     1       3.780   1.322  -3.751  1.00  0.00     0.072 C 
ATOM      9  C   UNL     1       3.535   2.499  -3.158  1.00  0.00     0.014 C 
BRANCH   9  10
ATOM     10  C   UNL     1       2.376   2.767  -2.292  1.00  0.00    -0.024 A 
ATOM     11  C   UNL     1       0.824   2.095  -0.522  1.00  0.00    -0.047 A 
ATOM     12  C   UNL     1       1.874   1.802  -1.405  1.00  0.00     0.011 A 
ATOM     13  C   UNL     1       0.280   3.390  -0.535  1.00  0.00     0.016 A 
ATOM     14  C   UNL     1       0.784   4.373  -1.396  1.00  0.00     0.023 A 
ATOM     15  C   UNL     1       1.820   4.051  -2.281  1.00  0.00     0.020 A 
BRANCH  11  16
ATOM     16  C   UNL     1       0.289   1.105   0.488  1.00  0.00     0.032 C 
ATOM     17  C   UNL     1       0.771  -0.335   0.360  1.00  0.00     0.009 C 
ENDBRANCH  11  16
BRANCH  14  18
ATOM     18  C   UNL     1       0.240   5.759  -1.421  1.00  0.00     0.193 C 
ATOM     19  O   UNL     1       0.374   6.444  -2.432  1.00  0.00    -0.289 OA
BRANCH  18  20
ATOM     20  C   UNL     1      -0.481   6.331  -0.260  1.00  0.00     0.022 A 
ATOM     21  C   UNL     1      -1.676   7.019  -0.490  1.00  0.00     0.012 A 
ATOM     22  C   UNL     1       0.023   6.212   1.041  1.00  0.00     0.012 A 
ATOM     23  C   UNL     1      -2.393   7.544   0.586  1.00  0.00     0.001 A 
ATOM     24  C   UNL     1      -0.699   6.739   2.114  1.00  0.00     0.001 A 
ATOM     25  C   UNL     1      -1.909   7.396   1.886  1.00  0.00     0.000 A 
ENDBRANCH  18  20
ENDBRANCH  14  18
ENDBRANCH   9  10
ENDBRANCH   5   8
ENDBRANCH   3   4
ENDBRANCH   2   3
ENDBRANCH   1   2
BRANCH   1  26
ATOM     26  C   UNL     1       7.126   4.676  -7.707  1.00  0.00     0.002 C 
BRANCH  26  27
ATOM     27  C   UNL     1       6.372   6.001  -7.853  1.00  0.00     0.021 C 
BRANCH  27  28
ATOM     28  C   UNL     1       7.107   7.205  -7.270  1.00  0.00     0.116 C 
BRANCH  28  29
ATOM     29  N   UNL     1       8.362   7.446  -7.963  1.00  0.00    -0.352 N 
ATOM     30  C   UNL     1       8.779   8.565  -8.640  1.00  0.00     0.251 C 
ATOM     31  H   UNL     1       9.005   6.700  -7.945  1.00  0.00     0.163 HD
ATOM     32  O   UNL     1       9.746   8.496  -9.392  1.00  0.00    -0.269 OA
BRANCH  30  33
ATOM     33  C   UNL     1       8.055   9.841  -8.464  1.00  0.00     0.039 A 
ATOM     34  C   UNL     1       7.791  10.633  -9.584  1.00  0.00     0.014 A 
ATOM     35  C   UNL     1       7.653  10.264  -7.193  1.00  0.00     0.014 A 
ATOM     36  C   UNL     1       7.080  11.825  -9.435  1.00  0.00     0.010 A 
ATOM     37  C   UNL     1       6.882  11.414  -7.056  1.00  0.00     0.010 A 
ATOM     38  C   UNL     1       6.593  12.210  -8.175  1.00  0.00    -0.014 A 
BRANCH  38  39
ATOM     39  C   UNL     1       5.783  13.444  -8.010  1.00  0.00     0.031 A 
ATOM     40  C   UNL     1       6.301  14.583  -7.174  1.00  0.00     0.074 A 
ATOM     41  C   UNL     1       4.557  13.511  -8.565  1.00  0.00     0.049 A 
ATOM     42  N   UNL     1       5.721  15.713  -6.863  1.00  0.00    -0.248 NA
ATOM     43  C   UNL     1       7.637  14.411  -6.583  1.00  0.00     0.031 C 
ATOM     44  C   UNL     1       3.931  12.449  -9.356  1.00  0.00     0.029 A 
ATOM     45  N   UNL     1       3.613  14.506  -8.542  1.00  0.00    -0.354 N 
ATOM     46  C   UNL     1       6.612  16.382  -6.031  1.00  0.00     0.074 A 
ATOM     47  C   UNL     1       7.744  15.500  -5.837  1.00  0.00     0.031 C 
ATOM     48  C   UNL     1       2.719  12.859  -9.761  1.00  0.00     0.029 A 
ATOM     49  C   UNL     1       2.460  14.190  -9.222  1.00  0.00     0.049 A 
ATOM     50  H   UNL     1       3.748  15.366  -8.082  1.00  0.00     0.167 HD
ATOM     51  C   UNL     1       6.505  17.625  -5.497  1.00  0.00     0.034 A 
ATOM     52  C   UNL     1       1.318  14.887  -9.382  1.00  0.00     0.034 A 
ATOM     53  C   UNL     1       5.369  18.490  -5.711  1.00  0.00     0.049 A 
ATOM     54  C   UNL     1       1.212  16.258  -8.765  1.00  0.00     0.074 A 
ATOM     55  C   UNL     1       5.182  19.791  -5.276  1.00  0.00     0.029 A 
ATOM     56  N   UNL     1       4.218  18.138  -6.407  1.00  0.00    -0.354 N 
ATOM     57  N   UNL     1       2.091  16.905  -8.034  1.00  0.00    -0.248 NA
ATOM     58  C   UNL     1      -0.033  16.997  -9.005  1.00  0.00     0.031 C 
ATOM     59  C   UNL     1       3.894  20.195  -5.642  1.00  0.00     0.029 A 
ATOM     60  C   UNL     1       3.305  19.181  -6.380  1.00  0.00     0.049 A 
ATOM     61  H   UNL     1       4.073  17.273  -6.855  1.00  0.00     0.167 HD
ATOM     62  C   UNL     1       1.513  18.139  -7.750  1.00  0.00     0.074 A 
ATOM     63  C   UNL     1       0.220  18.150  -8.404  1.00  0.00     0.031 C 
ATOM     64  C   UNL     1       2.009  19.172  -7.021  1.00  0.00     0.034 A 
BRANCH  51  65
ATOM     65  C   UNL     1       7.632  18.100  -4.609  1.00  0.00     0.023 A 
ATOM     66  C   UNL     1       8.947  18.241  -5.089  1.00  0.00     0.031 A 
ATOM     67  C   UNL     1       7.397  18.385  -3.252  1.00  0.00     0.131 A 
ATOM     68  C   UNL     1       9.986  18.570  -4.205  1.00  0.00     0.055 A 
ATOM     69  C   UNL     1       8.421  18.798  -2.396  1.00  0.00     0.041 A 
ATOM     70  F   UNL     1       6.169  18.250  -2.727  1.00  0.00    -0.206 F 
ATOM     71  C   UNL     1       9.728  18.876  -2.867  1.00  0.00     0.022 A 
BRANCH  68  72
ATOM     72  S   UNL     1      11.697  18.437  -4.792  1.00  0.00     0.124 S 
ATOM     73  O   UNL     1      11.756  17.039  -5.215  1.00  0.00    -0.237 OA
ATOM     74  O   UNL     1      11.743  19.430  -5.859  1.00  0.00    -0.237 OA
ATOM     75  O   UNL     1      12.492  18.755  -3.608  1.00  0.00    -0.744 OA
ENDBRANCH  68  72
ENDBRANCH  51  65
BRANCH  52  76
ATOM     76  C   UNL     1       0.181  14.299 -10.146  1.00  0.00     0.023 A 
ATOM     77  C   UNL     1      -0.253  14.865 -11.354  1.00  0.00     0.031 A 
ATOM     78  C   UNL     1      -0.505  13.169  -9.663  1.00  0.00     0.131 A 
ATOM     79  C   UNL     1      -1.365  14.326 -12.020  1.00  0.00     0.055 A 
ATOM     80  C   UNL     1      -1.577  12.605 -10.356  1.00  0.00     0.041 A 
ATOM     81  F   UNL     1      -0.127  12.585  -8.515  1.00  0.00    -0.206 F 
ATOM     82  C   UNL     1      -2.021  13.191 -11.537  1.00  0.00     0.022 A 
BRANCH  79  83
ATOM     83  S   UNL     1      -1.992  15.176 -13.495  1.00  0.00     0.124 S 
ATOM     84  O   UNL     1      -2.299  16.500 -12.968  1.00  0.00    -0.237 OA
ATOM     85  O   UNL     1      -0.850  15.094 -14.400  1.00  0.00    -0.237 OA
ATOM     86  O   UNL     1      -3.150  14.374 -13.884  1.00  0.00    -0.744 OA
ENDBRANCH  79  83
ENDBRANCH  52  76
BRANCH  64  87
ATOM     87  C   UNL     1       1.158  20.416  -6.928  1.00  0.00     0.023 A 
ATOM     88  C   UNL     1      -0.080  20.420  -6.260  1.00  0.00     0.031 A 
ATOM     89  C   UNL     1       1.588  21.612  -7.529  1.00  0.00     0.131 A 
ATOM     90  C   UNL     1      -0.869  21.581  -6.258  1.00  0.00     0.055 A 
ATOM     91  C   UNL     1       0.829  22.781  -7.468  1.00  0.00     0.041 A 
ATOM     92  F   UNL     1       2.759  21.665  -8.184  1.00  0.00    -0.206 F 
ATOM     93  C   UNL     1      -0.414  22.766  -6.842  1.00  0.00     0.022 A 
BRANCH  90  94
ATOM     94  S   UNL     1      -2.544  21.495  -5.568  1.00  0.00     0.124 S 
ATOM     95  O   UNL     1      -3.154  20.448  -6.382  1.00  0.00    -0.237 OA
ATOM     96  O   UNL     1      -2.290  21.151  -4.173  1.00  0.00    -0.237 OA
ATOM     97  O   UNL     1      -3.075  22.839  -5.787  1.00  0.00    -0.744 OA
ENDBRANCH  90  94
ENDBRANCH  64  87
ENDBRANCH  38  39
ENDBRANCH  30  33
ENDBRANCH  28  29
ENDBRANCH  27  28
ENDBRANCH  26  27
ENDBRANCH   1  26
TORSDOF 20
