REMARK SMILES C[C@@H]1Cc2ccccc2N1S(=O)(=O)c1cccc(C(=O)NCCCCCCNC(=O)c2ccc(-c3c4nc(c(-c5cc(S(=O)(=O)[O-])ccc5F)c5ccc([nH]5)c(-c5cc(S(=O)(=O)[O-])ccc5F)c5nc(c(-c6cc(S(=O)(=O)[O-])ccc6F)c6ccc3[nH]6)C=C5)C=C4)cc2)c1
REMARK SMILES IDX 25 1 24 2 23 3 22 4 21 5 19 6 20 7 18 9 14 10 15 11 94 12
REMARK SMILES IDX 16 13 17 14 11 15 12 16 13 17 10 18 1 19 2 20 3 21 4 22 9 23
REMARK SMILES IDX 5 24 8 25 6 26 7 27 26 28 27 29 28 30 29 31 30 33 31 34
REMARK SMILES IDX 32 35 93 36 33 37 92 38 34 39 35 40 36 41 86 42 37 43 91 44
REMARK SMILES IDX 85 45 87 46 38 47 90 48 84 49 83 50 39 52 71 53 51 54 70 55
REMARK SMILES IDX 52 56 55 57 69 58 88 59 53 60 54 61 68 63 89 64 56 65 40 66
REMARK SMILES IDX 41 67 49 68 42 69 48 70 50 71 47 72 43 73 44 74 45 75 46 76
REMARK SMILES IDX 72 77 73 78 81 79 74 80 80 81 82 82 79 83 75 84 76 85 77 86
REMARK SMILES IDX 78 87 57 88 58 89 66 90 59 91 65 92 67 93 64 94 60 95 61 96
REMARK SMILES IDX 62 97 63 98
REMARK H PARENT 21 8 28 32 87 51 55 62
REMARK Flexibility Score: inf
ROOT
ATOM      1  C   UNL     1       2.632   6.219  -7.477  1.00  0.00     0.002 C 
ENDROOT
BRANCH   1   2
ATOM      2  C   UNL     1       1.379   5.398  -7.779  1.00  0.00     0.002 C 
BRANCH   2   3
ATOM      3  C   UNL     1       0.842   4.498  -6.667  1.00  0.00     0.021 C 
BRANCH   3   4
ATOM      4  C   UNL     1       0.612   5.127  -5.298  1.00  0.00     0.116 C 
BRANCH   4   5
ATOM      5  N   UNL     1      -0.321   6.236  -5.284  1.00  0.00    -0.352 N 
ATOM      6  C   UNL     1      -1.183   6.689  -4.313  1.00  0.00     0.251 C 
ATOM      7  O   UNL     1      -1.848   7.696  -4.564  1.00  0.00    -0.269 OA
ATOM      8  H   UNL     1      -0.341   6.757  -6.119  1.00  0.00     0.163 HD
BRANCH   6   9
ATOM      9  C   UNL     1      -1.410   5.982  -3.015  1.00  0.00     0.041 A 
ATOM     10  C   UNL     1      -0.917   4.315  -1.342  1.00  0.00     0.088 A 
ATOM     11  C   UNL     1      -2.141   4.542  -0.705  1.00  0.00     0.022 A 
ATOM     12  C   UNL     1      -0.502   5.107  -2.417  1.00  0.00     0.036 A 
ATOM     13  C   UNL     1      -3.009   5.492  -1.227  1.00  0.00     0.002 A 
ATOM     14  C   UNL     1      -2.659   6.182  -2.392  1.00  0.00     0.014 A 
BRANCH  10  15
ATOM     15  S   UNL     1       0.066   2.922  -0.844  1.00  0.00     0.264 S 
ATOM     16  O   UNL     1      -0.385   2.531   0.474  1.00  0.00    -0.201 OA
ATOM     17  O   UNL     1       1.454   3.284  -1.070  1.00  0.00    -0.201 OA
BRANCH  15  18
ATOM     18  N   UNL     1      -0.311   1.644  -1.952  1.00  0.00    -0.263 N 
ATOM     19  C   UNL     1       1.531   0.009  -2.361  1.00  0.00     0.032 C 
ATOM     20  C   UNL     1       0.327   0.331  -1.489  1.00  0.00     0.101 C 
ATOM     21  C   UNL     1      -0.766  -0.760  -1.569  1.00  0.00     0.063 C 
ATOM     22  C   UNL     1      -1.983   0.003  -1.968  1.00  0.00    -0.021 A 
ATOM     23  C   UNL     1      -1.691   1.337  -2.218  1.00  0.00     0.055 A 
ATOM     24  C   UNL     1      -3.261  -0.509  -2.167  1.00  0.00     0.006 A 
ATOM     25  C   UNL     1      -2.644   2.146  -2.814  1.00  0.00     0.027 A 
ATOM     26  C   UNL     1      -4.251   0.336  -2.667  1.00  0.00     0.000 A 
ATOM     27  C   UNL     1      -3.939   1.655  -3.009  1.00  0.00     0.002 A 
ENDBRANCH  15  18
ENDBRANCH  10  15
ENDBRANCH   6   9
ENDBRANCH   4   5
ENDBRANCH   3   4
ENDBRANCH   2   3
ENDBRANCH   1   2
BRANCH   1  28
ATOM     28  C   UNL     1       3.825   5.472  -6.884  1.00  0.00     0.021 C 
BRANCH  28  29
ATOM     29  C   UNL     1       4.271   4.213  -7.616  1.00  0.00     0.116 C 
BRANCH  29  30
ATOM     30  N   UNL     1       4.726   4.454  -8.974  1.00  0.00    -0.352 N 
ATOM     31  C   UNL     1       5.893   4.059  -9.591  1.00  0.00     0.251 C 
ATOM     32  H   UNL     1       4.110   4.977  -9.537  1.00  0.00     0.163 HD
ATOM     33  O   UNL     1       6.137   4.446 -10.731  1.00  0.00    -0.269 OA
BRANCH  31  34
ATOM     34  C   UNL     1       6.870   3.211  -8.866  1.00  0.00     0.039 A 
ATOM     35  C   UNL     1       6.452   2.121  -8.103  1.00  0.00     0.014 A 
ATOM     36  C   UNL     1       8.230   3.531  -8.933  1.00  0.00     0.014 A 
ATOM     37  C   UNL     1       7.357   1.475  -7.266  1.00  0.00     0.010 A 
ATOM     38  C   UNL     1       9.155   2.814  -8.165  1.00  0.00     0.010 A 
ATOM     39  C   UNL     1       8.721   1.815  -7.281  1.00  0.00    -0.014 A 
BRANCH  39  40
ATOM     40  C   UNL     1       9.662   1.087  -6.386  1.00  0.00     0.031 A 
ATOM     41  C   UNL     1      10.416   1.796  -5.293  1.00  0.00     0.074 A 
ATOM     42  C   UNL     1       9.801  -0.245  -6.536  1.00  0.00     0.049 A 
ATOM     43  N   UNL     1      11.199   1.289  -4.375  1.00  0.00    -0.248 NA
ATOM     44  C   UNL     1      10.286   3.259  -5.223  1.00  0.00     0.031 C 
ATOM     45  C   UNL     1       9.144  -1.036  -7.576  1.00  0.00     0.029 A 
ATOM     46  N   UNL     1      10.507  -1.170  -5.808  1.00  0.00    -0.354 N 
ATOM     47  C   UNL     1      11.673   2.366  -3.635  1.00  0.00     0.074 A 
ATOM     48  C   UNL     1      11.115   3.559  -4.232  1.00  0.00     0.031 C 
ATOM     49  C   UNL     1       9.422  -2.331  -7.381  1.00  0.00     0.029 A 
ATOM     50  C   UNL     1      10.333  -2.462  -6.247  1.00  0.00     0.049 A 
ATOM     51  H   UNL     1      11.083  -0.932  -5.046  1.00  0.00     0.167 HD
ATOM     52  C   UNL     1      12.487   2.357  -2.551  1.00  0.00     0.034 A 
ATOM     53  C   UNL     1      10.845  -3.627  -5.797  1.00  0.00     0.034 A 
ATOM     54  C   UNL     1      13.011   1.156  -1.948  1.00  0.00     0.049 A 
ATOM     55  C   UNL     1      11.739  -3.613  -4.587  1.00  0.00     0.074 A 
ATOM     56  C   UNL     1      13.774   1.044  -0.798  1.00  0.00     0.029 A 
ATOM     57  N   UNL     1      12.844  -0.131  -2.439  1.00  0.00    -0.354 N 
ATOM     58  N   UNL     1      12.102  -2.594  -3.844  1.00  0.00    -0.248 NA
ATOM     59  C   UNL     1      12.290  -4.901  -4.148  1.00  0.00     0.031 C 
ATOM     60  C   UNL     1      14.132  -0.296  -0.639  1.00  0.00     0.029 A 
ATOM     61  C   UNL     1      13.526  -1.037  -1.641  1.00  0.00     0.049 A 
ATOM     62  H   UNL     1      12.317  -0.366  -3.237  1.00  0.00     0.167 HD
ATOM     63  C   UNL     1      12.923  -3.116  -2.850  1.00  0.00     0.074 A 
ATOM     64  C   UNL     1      12.968  -4.549  -3.062  1.00  0.00     0.031 C 
ATOM     65  C   UNL     1      13.586  -2.464  -1.860  1.00  0.00     0.034 A 
BRANCH  52  66
ATOM     66  C   UNL     1      12.873   3.675  -1.921  1.00  0.00     0.023 A 
ATOM     67  C   UNL     1      14.228   4.058  -1.874  1.00  0.00     0.031 A 
ATOM     68  C   UNL     1      11.933   4.484  -1.257  1.00  0.00     0.131 A 
ATOM     69  C   UNL     1      14.608   5.198  -1.155  1.00  0.00     0.055 A 
ATOM     70  C   UNL     1      12.312   5.644  -0.579  1.00  0.00     0.041 A 
ATOM     71  F   UNL     1      10.630   4.162  -1.265  1.00  0.00    -0.206 F 
ATOM     72  C   UNL     1      13.656   5.998  -0.515  1.00  0.00     0.022 A 
BRANCH  69  73
ATOM     73  S   UNL     1      16.354   5.649  -0.962  1.00  0.00     0.124 S 
ATOM     74  O   UNL     1      16.393   6.968  -1.589  1.00  0.00    -0.237 OA
ATOM     75  O   UNL     1      16.512   5.645   0.490  1.00  0.00    -0.237 OA
ATOM     76  O   UNL     1      17.070   4.599  -1.677  1.00  0.00    -0.744 OA
ENDBRANCH  69  73
ENDBRANCH  52  66
BRANCH  53  77
ATOM     77  C   UNL     1      10.451  -4.891  -6.485  1.00  0.00     0.023 A 
ATOM     78  C   UNL     1      10.747  -5.088  -7.847  1.00  0.00     0.031 A 
ATOM     79  C   UNL     1       9.642  -5.838  -5.838  1.00  0.00     0.131 A 
ATOM     80  C   UNL     1      10.152  -6.149  -8.540  1.00  0.00     0.055 A 
ATOM     81  C   UNL     1       9.120  -6.942  -6.515  1.00  0.00     0.041 A 
ATOM     82  F   UNL     1       9.323  -5.686  -4.544  1.00  0.00    -0.206 F 
ATOM     83  C   UNL     1       9.355  -7.088  -7.879  1.00  0.00     0.022 A 
BRANCH  80  84
ATOM     84  S   UNL     1      10.258  -6.249 -10.349  1.00  0.00     0.124 S 
ATOM     85  O   UNL     1      10.830  -7.576 -10.550  1.00  0.00    -0.237 OA
ATOM     86  O   UNL     1       8.857  -6.100 -10.734  1.00  0.00    -0.237 OA
ATOM     87  O   UNL     1      11.122  -5.129 -10.706  1.00  0.00    -0.744 OA
ENDBRANCH  80  84
ENDBRANCH  53  77
BRANCH  65  88
ATOM     88  C   UNL     1      14.457  -3.272  -0.924  1.00  0.00     0.023 A 
ATOM     89  C   UNL     1      14.179  -3.304   0.456  1.00  0.00     0.031 A 
ATOM     90  C   UNL     1      15.634  -3.893  -1.377  1.00  0.00     0.131 A 
ATOM     91  C   UNL     1      15.085  -3.908   1.337  1.00  0.00     0.055 A 
ATOM     92  C   UNL     1      16.508  -4.538  -0.501  1.00  0.00     0.041 A 
ATOM     93  F   UNL     1      15.951  -3.883  -2.682  1.00  0.00    -0.206 F 
ATOM     94  C   UNL     1      16.243  -4.534   0.865  1.00  0.00     0.022 A 
BRANCH  91  95
ATOM     95  S   UNL     1      14.843  -3.825   3.134  1.00  0.00     0.124 S 
ATOM     96  O   UNL     1      14.683  -5.236   3.482  1.00  0.00    -0.237 OA
ATOM     97  O   UNL     1      16.088  -3.209   3.585  1.00  0.00    -0.237 OA
ATOM     98  O   UNL     1      13.646  -3.006   3.291  1.00  0.00    -0.744 OA
ENDBRANCH  91  95
ENDBRANCH  65  88
ENDBRANCH  39  40
ENDBRANCH  31  34
ENDBRANCH  29  30
ENDBRANCH  28  29
ENDBRANCH   1  28
TORSDOF 18
