REMARK SMILES C[C@H]1[C@@H](C(=O)NCCCCCCNC(=O)c2ccc(-c3c4nc(c(-c5cc(S(=O)(=O)[O-])ccc5F)c5ccc([nH]5)c(-c5cc(S(=O)(=O)[O-])ccc5F)c5nc(c(-c6cc(S(=O)(=O)[O-])ccc6F)c6ccc3[nH]6)C=C5)C=C4)cc2)CC[N@@H+]1CC1(O)CCCC1
REMARK SMILES IDX 9 1 8 2 7 3 6 4 4 5 5 6 3 8 1 9 2 10 81 11 79 12 80 13 82 15
REMARK SMILES IDX 83 16 85 17 88 18 86 19 87 20 84 21 10 23 11 24 12 25 13 26
REMARK SMILES IDX 14 27 15 29 16 30 17 31 78 32 18 33 77 34 19 35 20 36 21 37
REMARK SMILES IDX 71 38 22 39 76 40 70 41 72 42 23 43 75 44 69 45 68 46 24 48
REMARK SMILES IDX 56 49 36 50 55 51 37 52 40 53 54 54 73 55 38 56 39 57 53 59
REMARK SMILES IDX 74 60 41 61 25 62 26 63 34 64 27 65 33 66 35 67 32 68 28 69
REMARK SMILES IDX 29 70 30 71 31 72 57 73 58 74 66 75 59 76 65 77 67 78 64 79
REMARK SMILES IDX 60 80 61 81 62 82 63 83 42 84 43 85 51 86 44 87 50 88 52 89
REMARK SMILES IDX 49 90 45 91 46 92 47 93 48 94
REMARK H PARENT 6 7 81 14 84 22 13 28 72 47 40 58
REMARK Flexibility Score: inf
ROOT
ATOM      1  C   UNL     1       4.450   1.243  -3.239  1.00  0.00     0.002 C 
ENDROOT
BRANCH   1   2
ATOM      2  C   UNL     1       3.636   0.646  -2.091  1.00  0.00     0.021 C 
BRANCH   2   3
ATOM      3  C   UNL     1       2.900   1.685  -1.238  1.00  0.00     0.116 C 
BRANCH   3   4
ATOM      4  N   UNL     1       1.653   2.003  -1.893  1.00  0.00    -0.356 N 
ATOM      5  C   UNL     1       0.423   1.447  -1.711  1.00  0.00     0.229 C 
ATOM      6  O   UNL     1      -0.355   1.531  -2.664  1.00  0.00    -0.275 OA
ATOM      7  H   UNL     1       1.698   2.722  -2.565  1.00  0.00     0.163 HD
BRANCH   5   8
ATOM      8  C   UNL     1      -0.010   0.934  -0.334  1.00  0.00     0.142 C 
ATOM      9  C   UNL     1       1.486  -1.249  -0.530  1.00  0.00     0.076 C 
ATOM     10  C   UNL     1       0.532  -0.381   0.277  1.00  0.00     0.193 C 
ATOM     11  N   UNL     1      -0.630  -1.235   0.546  1.00  0.00    -0.330 N 
ATOM     12  C   UNL     1      -1.540   0.757  -0.297  1.00  0.00     0.081 C 
ATOM     13  C   UNL     1      -1.748  -0.739  -0.237  1.00  0.00     0.263 C 
ATOM     14  H   UNL     1      -0.414  -2.179   0.225  1.00  0.00     0.348 HD
BRANCH  11  15
ATOM     15  C   UNL     1      -0.892  -1.588   1.945  1.00  0.00     0.297 C 
BRANCH  15  16
ATOM     16  C   UNL     1      -1.486  -0.559   2.942  1.00  0.00     0.113 C 
ATOM     17  C   UNL     1      -0.617   0.668   3.235  1.00  0.00     0.041 C 
ATOM     18  C   UNL     1      -1.620  -1.168   4.345  1.00  0.00     0.041 C 
ATOM     19  C   UNL     1      -1.132   1.207   4.571  1.00  0.00     0.003 C 
ATOM     20  C   UNL     1      -1.832   0.037   5.258  1.00  0.00     0.003 C 
BRANCH  16  21
ATOM     21  O   UNL     1      -2.802  -0.179   2.518  1.00  0.00    -0.384 OA
ATOM     22  H   UNL     1      -2.755   0.211   1.631  1.00  0.00     0.211 HD
ENDBRANCH  16  21
ENDBRANCH  15  16
ENDBRANCH  11  15
ENDBRANCH   5   8
ENDBRANCH   3   4
ENDBRANCH   2   3
ENDBRANCH   1   2
BRANCH   1  23
ATOM     23  C   UNL     1       5.720   1.969  -2.795  1.00  0.00     0.002 C 
BRANCH  23  24
ATOM     24  C   UNL     1       6.640   1.160  -1.874  1.00  0.00     0.021 C 
BRANCH  24  25
ATOM     25  C   UNL     1       7.000  -0.233  -2.389  1.00  0.00     0.116 C 
BRANCH  25  26
ATOM     26  N   UNL     1       7.683  -0.171  -3.669  1.00  0.00    -0.352 N 
ATOM     27  C   UNL     1       8.977  -0.500  -3.974  1.00  0.00     0.251 C 
ATOM     28  H   UNL     1       7.140   0.153  -4.424  1.00  0.00     0.163 HD
ATOM     29  O   UNL     1       9.466  -0.132  -5.043  1.00  0.00    -0.269 OA
BRANCH  27  30
ATOM     30  C   UNL     1       9.783  -1.280  -3.014  1.00  0.00     0.039 A 
ATOM     31  C   UNL     1      11.094  -0.880  -2.745  1.00  0.00     0.014 A 
ATOM     32  C   UNL     1       9.250  -2.413  -2.392  1.00  0.00     0.014 A 
ATOM     33  C   UNL     1      11.854  -1.589  -1.813  1.00  0.00     0.010 A 
ATOM     34  C   UNL     1       9.985  -3.077  -1.413  1.00  0.00     0.010 A 
ATOM     35  C   UNL     1      11.297  -2.677  -1.119  1.00  0.00    -0.014 A 
BRANCH  35  36
ATOM     36  C   UNL     1      12.080  -3.416  -0.096  1.00  0.00     0.031 A 
ATOM     37  C   UNL     1      12.440  -4.859  -0.322  1.00  0.00     0.074 A 
ATOM     38  C   UNL     1      12.417  -2.803   1.056  1.00  0.00     0.049 A 
ATOM     39  N   UNL     1      13.058  -5.693   0.474  1.00  0.00    -0.248 NA
ATOM     40  C   UNL     1      12.023  -5.448  -1.603  1.00  0.00     0.031 C 
ATOM     41  C   UNL     1      12.091  -1.418   1.401  1.00  0.00     0.029 A 
ATOM     42  N   UNL     1      13.101  -3.265   2.151  1.00  0.00    -0.354 N 
ATOM     43  C   UNL     1      13.095  -6.907  -0.203  1.00  0.00     0.074 A 
ATOM     44  C   UNL     1      12.379  -6.713  -1.447  1.00  0.00     0.031 C 
ATOM     45  C   UNL     1      12.595  -1.137   2.614  1.00  0.00     0.029 A 
ATOM     46  C   UNL     1      13.240  -2.331   3.151  1.00  0.00     0.049 A 
ATOM     47  H   UNL     1      13.459  -4.180   2.216  1.00  0.00     0.167 HD
ATOM     48  C   UNL     1      13.692  -8.068   0.167  1.00  0.00     0.034 A 
ATOM     49  C   UNL     1      13.812  -2.429   4.368  1.00  0.00     0.034 A 
ATOM     50  C   UNL     1      14.408  -8.239   1.407  1.00  0.00     0.049 A 
ATOM     51  C   UNL     1      14.442  -3.738   4.771  1.00  0.00     0.074 A 
ATOM     52  C   UNL     1      15.096  -9.351   1.861  1.00  0.00     0.029 A 
ATOM     53  N   UNL     1      14.523  -7.273   2.400  1.00  0.00    -0.354 N 
ATOM     54  N   UNL     1      14.513  -4.863   4.097  1.00  0.00    -0.248 NA
ATOM     55  C   UNL     1      15.077  -3.786   6.094  1.00  0.00     0.031 C 
ATOM     56  C   UNL     1      15.565  -9.082   3.151  1.00  0.00     0.029 A 
ATOM     57  C   UNL     1      15.239  -7.775   3.476  1.00  0.00     0.049 A 
ATOM     58  H   UNL     1      14.149  -6.363   2.346  1.00  0.00     0.167 HD
ATOM     59  C   UNL     1      15.226  -5.744   4.905  1.00  0.00     0.074 A 
ATOM     60  C   UNL     1      15.576  -5.013   6.106  1.00  0.00     0.031 C 
ATOM     61  C   UNL     1      15.566  -7.038   4.675  1.00  0.00     0.034 A 
BRANCH  48  62
ATOM     62  C   UNL     1      13.566  -9.244  -0.775  1.00  0.00     0.023 A 
ATOM     63  C   UNL     1      14.094  -9.206  -2.078  1.00  0.00     0.031 A 
ATOM     64  C   UNL     1      12.880 -10.406  -0.379  1.00  0.00     0.131 A 
ATOM     65  C   UNL     1      13.857 -10.269  -2.962  1.00  0.00     0.055 A 
ATOM     66  C   UNL     1      12.722 -11.497  -1.236  1.00  0.00     0.041 A 
ATOM     67  F   UNL     1      12.336 -10.495   0.845  1.00  0.00    -0.206 F 
ATOM     68  C   UNL     1      13.197 -11.426  -2.543  1.00  0.00     0.022 A 
BRANCH  65  69
ATOM     69  S   UNL     1      14.289 -10.053  -4.710  1.00  0.00     0.124 S 
ATOM     70  O   UNL     1      13.498  -8.877  -5.066  1.00  0.00    -0.237 OA
ATOM     71  O   UNL     1      15.734  -9.859  -4.656  1.00  0.00    -0.237 OA
ATOM     72  O   UNL     1      13.849 -11.301  -5.330  1.00  0.00    -0.744 OA
ENDBRANCH  65  69
ENDBRANCH  48  62
BRANCH  49  73
ATOM     73  C   UNL     1      13.811  -1.264   5.298  1.00  0.00     0.023 A 
ATOM     74  C   UNL     1      15.010  -0.646   5.684  1.00  0.00     0.031 A 
ATOM     75  C   UNL     1      12.611  -0.775   5.846  1.00  0.00     0.131 A 
ATOM     76  C   UNL     1      14.989   0.396   6.624  1.00  0.00     0.055 A 
ATOM     77  C   UNL     1      12.591   0.296   6.741  1.00  0.00     0.041 A 
ATOM     78  F   UNL     1      11.435  -1.327   5.506  1.00  0.00    -0.206 F 
ATOM     79  C   UNL     1      13.787   0.880   7.145  1.00  0.00     0.022 A 
BRANCH  76  80
ATOM     80  S   UNL     1      16.569   1.060   7.220  1.00  0.00     0.124 S 
ATOM     81  O   UNL     1      17.203  -0.132   7.770  1.00  0.00    -0.237 OA
ATOM     82  O   UNL     1      17.154   1.592   5.994  1.00  0.00    -0.237 OA
ATOM     83  O   UNL     1      16.166   2.064   8.203  1.00  0.00    -0.744 OA
ENDBRANCH  76  80
ENDBRANCH  49  73
BRANCH  61  84
ATOM     84  C   UNL     1      16.389  -7.728   5.735  1.00  0.00     0.023 A 
ATOM     85  C   UNL     1      15.868  -8.008   7.010  1.00  0.00     0.031 A 
ATOM     86  C   UNL     1      17.720  -8.097   5.468  1.00  0.00     0.131 A 
ATOM     87  C   UNL     1      16.691  -8.587   7.989  1.00  0.00     0.055 A 
ATOM     88  C   UNL     1      18.514  -8.729   6.426  1.00  0.00     0.041 A 
ATOM     89  F   UNL     1      18.270  -7.851   4.268  1.00  0.00    -0.206 F 
ATOM     90  C   UNL     1      18.004  -8.965   7.699  1.00  0.00     0.022 A 
BRANCH  87  91
ATOM     91  S   UNL     1      16.048  -8.756   9.677  1.00  0.00     0.124 S 
ATOM     92  O   UNL     1      15.736  -7.373  10.022  1.00  0.00    -0.237 OA
ATOM     93  O   UNL     1      14.903  -9.640   9.488  1.00  0.00    -0.237 OA
ATOM     94  O   UNL     1      17.167  -9.341  10.413  1.00  0.00    -0.744 OA
ENDBRANCH  87  91
ENDBRANCH  61  84
ENDBRANCH  35  36
ENDBRANCH  27  30
ENDBRANCH  25  26
ENDBRANCH  24  25
ENDBRANCH  23  24
ENDBRANCH   1  23
TORSDOF 19
