REMARK SMILES O=C(COc1nc(-c2cccnc2)nc2c1CCCC2)NCCCCCCNC(=O)c1ccc(-c2c3nc(c(-c4cc(S(=O)(=O)[O-])ccc4F)c4ccc([nH]4)c(-c4cc(S(=O)(=O)[O-])ccc4F)c4nc(c(-c5cc(S(=O)(=O)[O-])ccc5F)c5ccc2[nH]5)C=C4)C=C3)cc1
REMARK SMILES IDX 24 1 23 2 22 3 21 4 1 5 2 6 3 8 4 9 5 10 6 11 16 12 7 13
REMARK SMILES IDX 15 14 17 15 14 16 20 17 18 18 19 19 8 20 9 21 13 22 10 23
REMARK SMILES IDX 12 24 11 25 25 26 26 27 27 28 28 29 29 30 30 32 31 33 32 34
REMARK SMILES IDX 93 35 33 36 92 37 34 38 35 39 36 40 86 41 37 42 91 43 85 44
REMARK SMILES IDX 87 45 38 46 90 47 84 48 83 49 39 51 71 52 51 53 70 54 52 55
REMARK SMILES IDX 55 56 69 57 88 58 53 59 54 60 68 62 89 63 56 64 40 65 41 66
REMARK SMILES IDX 49 67 42 68 48 69 50 70 47 71 43 72 44 73 45 74 46 75 72 76
REMARK SMILES IDX 73 77 81 78 74 79 80 80 82 81 79 82 75 83 76 84 77 85 78 86
REMARK SMILES IDX 57 87 58 88 66 89 59 90 65 91 67 92 64 93 60 94 61 95 62 96
REMARK SMILES IDX 63 97
REMARK H PARENT 21 7 28 31 87 50 55 61
REMARK Flexibility Score: inf
ROOT
ATOM      1  C   UNL     1       4.139  -2.402  -2.759  1.00  0.00     0.002 C 
ENDROOT
BRANCH   1   2
ATOM      2  C   UNL     1       2.635  -2.106  -2.702  1.00  0.00     0.021 C 
BRANCH   2   3
ATOM      3  C   UNL     1       2.056  -2.041  -1.292  1.00  0.00     0.116 C 
BRANCH   3   4
ATOM      4  N   UNL     1       2.676  -1.003  -0.498  1.00  0.00    -0.353 N 
ATOM      5  O   UNL     1       0.916   0.475  -0.584  1.00  0.00    -0.271 OA
ATOM      6  C   UNL     1       2.024   0.160  -0.156  1.00  0.00     0.258 C 
ATOM      7  H   UNL     1       3.601  -1.134  -0.189  1.00  0.00     0.163 HD
BRANCH   6   8
ATOM      8  C   UNL     1       2.837   1.105   0.742  1.00  0.00     0.331 C 
BRANCH   8   9
ATOM      9  O   UNL     1       3.810   0.564   1.629  1.00  0.00    -0.467 OA
BRANCH   9  10
ATOM     10  C   UNL     1       3.220  -0.043   2.716  1.00  0.00     0.220 A 
ATOM     11  N   UNL     1       2.312  -0.990   2.454  1.00  0.00    -0.193 NA
ATOM     12  C   UNL     1       3.683   0.260   3.981  1.00  0.00     0.036 A 
ATOM     13  C   UNL     1       1.792  -1.625   3.512  1.00  0.00     0.164 A 
ATOM     14  C   UNL     1       3.120  -0.490   5.003  1.00  0.00     0.051 A 
ATOM     15  C   UNL     1       4.756   1.279   4.222  1.00  0.00     0.043 C 
ATOM     16  N   UNL     1       2.148  -1.403   4.788  1.00  0.00    -0.232 NA
ATOM     17  C   UNL     1       3.549  -0.311   6.436  1.00  0.00     0.057 C 
ATOM     18  C   UNL     1       4.896   1.662   5.696  1.00  0.00     0.005 C 
ATOM     19  C   UNL     1       4.886   0.416   6.573  1.00  0.00     0.007 C 
BRANCH  13  20
ATOM     20  C   UNL     1       0.799  -2.659   3.249  1.00  0.00     0.038 A 
ATOM     21  C   UNL     1       1.002  -3.656   2.284  1.00  0.00     0.015 A 
ATOM     22  C   UNL     1      -0.407  -2.704   3.942  1.00  0.00     0.123 A 
ATOM     23  C   UNL     1       0.027  -4.626   2.059  1.00  0.00     0.021 A 
ATOM     24  N   UNL     1      -1.382  -3.627   3.741  1.00  0.00    -0.264 NA
ATOM     25  C   UNL     1      -1.139  -4.567   2.802  1.00  0.00     0.111 A 
ENDBRANCH  13  20
ENDBRANCH   9  10
ENDBRANCH   8   9
ENDBRANCH   6   8
ENDBRANCH   3   4
ENDBRANCH   2   3
ENDBRANCH   1   2
BRANCH   1  26
ATOM     26  C   UNL     1       4.582  -3.701  -2.078  1.00  0.00     0.002 C 
BRANCH  26  27
ATOM     27  C   UNL     1       3.886  -4.971  -2.571  1.00  0.00     0.021 C 
BRANCH  27  28
ATOM     28  C   UNL     1       4.008  -5.230  -4.069  1.00  0.00     0.116 C 
BRANCH  28  29
ATOM     29  N   UNL     1       5.387  -5.446  -4.479  1.00  0.00    -0.352 N 
ATOM     30  C   UNL     1       5.949  -6.529  -5.109  1.00  0.00     0.251 C 
ATOM     31  H   UNL     1       6.007  -4.710  -4.274  1.00  0.00     0.163 HD
ATOM     32  O   UNL     1       7.172  -6.614  -5.197  1.00  0.00    -0.269 OA
BRANCH  30  33
ATOM     33  C   UNL     1       5.085  -7.596  -5.660  1.00  0.00     0.039 A 
ATOM     34  C   UNL     1       5.438  -8.931  -5.449  1.00  0.00     0.014 A 
ATOM     35  C   UNL     1       3.938  -7.282  -6.395  1.00  0.00     0.014 A 
ATOM     36  C   UNL     1       4.612  -9.950  -5.928  1.00  0.00     0.010 A 
ATOM     37  C   UNL     1       3.078  -8.296  -6.808  1.00  0.00     0.010 A 
ATOM     38  C   UNL     1       3.413  -9.641  -6.589  1.00  0.00    -0.014 A 
BRANCH  38  39
ATOM     39  C   UNL     1       2.518 -10.709  -7.102  1.00  0.00     0.031 A 
ATOM     40  C   UNL     1       2.314 -10.862  -8.584  1.00  0.00     0.074 A 
ATOM     41  C   UNL     1       1.869 -11.517  -6.242  1.00  0.00     0.049 A 
ATOM     42  N   UNL     1       1.524 -11.680  -9.231  1.00  0.00    -0.248 NA
ATOM     43  C   UNL     1       3.086  -9.959  -9.451  1.00  0.00     0.031 C 
ATOM     44  C   UNL     1       1.983 -11.464  -4.784  1.00  0.00     0.029 A 
ATOM     45  N   UNL     1       0.990 -12.545  -6.470  1.00  0.00    -0.354 N 
ATOM     46  C   UNL     1       1.704 -11.390 -10.579  1.00  0.00     0.074 A 
ATOM     47  C   UNL     1       2.623 -10.274 -10.650  1.00  0.00     0.031 C 
ATOM     48  C   UNL     1       1.235 -12.444  -4.250  1.00  0.00     0.029 A 
ATOM     49  C   UNL     1       0.552 -13.162  -5.323  1.00  0.00     0.049 A 
ATOM     50  H   UNL     1       0.700 -12.815  -7.372  1.00  0.00     0.167 HD
ATOM     51  C   UNL     1       1.177 -12.017 -11.659  1.00  0.00     0.034 A 
ATOM     52  C   UNL     1      -0.306 -14.187  -5.153  1.00  0.00     0.034 A 
ATOM     53  C   UNL     1       0.269 -13.133 -11.576  1.00  0.00     0.049 A 
ATOM     54  C   UNL     1      -0.940 -14.820  -6.362  1.00  0.00     0.074 A 
ATOM     55  C   UNL     1      -0.305 -13.854 -12.607  1.00  0.00     0.029 A 
ATOM     56  N   UNL     1      -0.201 -13.688 -10.393  1.00  0.00    -0.354 N 
ATOM     57  N   UNL     1      -0.762 -14.534  -7.631  1.00  0.00    -0.248 NA
ATOM     58  C   UNL     1      -1.894 -15.909  -6.116  1.00  0.00     0.031 C 
ATOM     59  C   UNL     1      -1.170 -14.802 -12.050  1.00  0.00     0.029 A 
ATOM     60  C   UNL     1      -1.085 -14.720 -10.669  1.00  0.00     0.049 A 
ATOM     61  H   UNL     1       0.056 -13.393  -9.490  1.00  0.00     0.167 HD
ATOM     62  C   UNL     1      -1.574 -15.417  -8.336  1.00  0.00     0.074 A 
ATOM     63  C   UNL     1      -2.230 -16.255  -7.351  1.00  0.00     0.031 C 
ATOM     64  C   UNL     1      -1.757 -15.526  -9.677  1.00  0.00     0.034 A 
BRANCH  51  65
ATOM     65  C   UNL     1       1.565 -11.490 -13.018  1.00  0.00     0.023 A 
ATOM     66  C   UNL     1       2.893 -11.556 -13.476  1.00  0.00     0.031 A 
ATOM     67  C   UNL     1       0.607 -10.895 -13.856  1.00  0.00     0.131 A 
ATOM     68  C   UNL     1       3.239 -10.974 -14.704  1.00  0.00     0.055 A 
ATOM     69  C   UNL     1       0.943 -10.386 -15.111  1.00  0.00     0.041 A 
ATOM     70  F   UNL     1      -0.672 -10.787 -13.462  1.00  0.00    -0.206 F 
ATOM     71  C   UNL     1       2.269 -10.411 -15.537  1.00  0.00     0.022 A 
BRANCH  68  72
ATOM     72  S   UNL     1       4.994 -10.856 -15.143  1.00  0.00     0.124 S 
ATOM     73  O   UNL     1       5.509 -10.011 -14.068  1.00  0.00    -0.237 OA
ATOM     74  O   UNL     1       5.421 -12.250 -15.120  1.00  0.00    -0.237 OA
ATOM     75  O   UNL     1       4.976 -10.231 -16.463  1.00  0.00    -0.744 OA
ENDBRANCH  68  72
ENDBRANCH  51  65
BRANCH  52  76
ATOM     76  C   UNL     1      -0.608 -14.678  -3.781  1.00  0.00     0.023 A 
ATOM     77  C   UNL     1      -0.137 -15.927  -3.348  1.00  0.00     0.031 A 
ATOM     78  C   UNL     1      -1.346 -13.895  -2.875  1.00  0.00     0.131 A 
ATOM     79  C   UNL     1      -0.415 -16.363  -2.043  1.00  0.00     0.055 A 
ATOM     80  C   UNL     1      -1.592 -14.319  -1.568  1.00  0.00     0.041 A 
ATOM     81  F   UNL     1      -1.808 -12.689  -3.241  1.00  0.00    -0.206 F 
ATOM     82  C   UNL     1      -1.127 -15.562  -1.147  1.00  0.00     0.022 A 
BRANCH  79  83
ATOM     83  S   UNL     1       0.167 -18.002  -1.529  1.00  0.00     0.124 S 
ATOM     84  O   UNL     1      -0.625 -18.879  -2.382  1.00  0.00    -0.237 OA
ATOM     85  O   UNL     1       1.593 -17.928  -1.830  1.00  0.00    -0.237 OA
ATOM     86  O   UNL     1      -0.163 -18.048  -0.106  1.00  0.00    -0.744 OA
ENDBRANCH  79  83
ENDBRANCH  52  76
BRANCH  64  87
ATOM     87  C   UNL     1      -2.710 -16.590 -10.159  1.00  0.00     0.023 A 
ATOM     88  C   UNL     1      -4.093 -16.488  -9.934  1.00  0.00     0.031 A 
ATOM     89  C   UNL     1      -2.234 -17.703 -10.875  1.00  0.00     0.131 A 
ATOM     90  C   UNL     1      -4.951 -17.500 -10.387  1.00  0.00     0.055 A 
ATOM     91  C   UNL     1      -3.098 -18.680 -11.371  1.00  0.00     0.041 A 
ATOM     92  F   UNL     1      -0.922 -17.849 -11.118  1.00  0.00    -0.206 F 
ATOM     93  C   UNL     1      -4.465 -18.586 -11.121  1.00  0.00     0.022 A 
BRANCH  90  94
ATOM     94  S   UNL     1      -6.709 -17.408  -9.957  1.00  0.00     0.124 S 
ATOM     95  O   UNL     1      -6.667 -17.483  -8.499  1.00  0.00    -0.237 OA
ATOM     96  O   UNL     1      -7.104 -16.120 -10.517  1.00  0.00    -0.237 OA
ATOM     97  O   UNL     1      -7.287 -18.575 -10.621  1.00  0.00    -0.744 OA
ENDBRANCH  90  94
ENDBRANCH  64  87
ENDBRANCH  38  39
ENDBRANCH  30  33
ENDBRANCH  28  29
ENDBRANCH  27  28
ENDBRANCH  26  27
ENDBRANCH   1  26
TORSDOF 19
