REMARK SMILES Cc1ccc(F)cc1S(=O)(=O)Nc1cc(C(=O)NCCCCCCNC(=O)c2ccc(-c3c4nc(c(-c5cc(S(=O)(=O)[O-])ccc5F)c5ccc([nH]5)c(-c5cc(S(=O)(=O)[O-])ccc5F)c5nc(c(-c6cc(S(=O)(=O)[O-])ccc6F)c6ccc3[nH]6)C=C5)C=C4)cc2)ccc1N(C)Cc1ccccc1
REMARK SMILES IDX 21 1 20 2 19 3 18 4 16 5 17 6 15 8 13 9 14 10 93 11 92 12
REMARK SMILES IDX 91 13 12 14 9 16 10 17 11 18 8 19 1 20 2 21 3 22 4 23 7 24
REMARK SMILES IDX 5 25 6 26 94 27 95 28 96 29 97 30 98 31 102 32 99 33 101 34
REMARK SMILES IDX 100 35 22 36 23 37 24 38 25 39 26 40 27 42 28 43 29 44 90 45
REMARK SMILES IDX 30 46 89 47 31 48 32 49 33 50 83 51 34 52 88 53 82 54 84 55
REMARK SMILES IDX 35 56 87 57 81 58 80 59 36 61 68 62 48 63 67 64 49 65 52 66
REMARK SMILES IDX 66 67 85 68 50 69 51 70 65 72 86 73 53 74 37 75 38 76 46 77
REMARK SMILES IDX 39 78 45 79 47 80 44 81 40 82 41 83 42 84 43 85 69 86 70 87
REMARK SMILES IDX 78 88 71 89 77 90 79 91 76 92 72 93 73 94 74 95 75 96 54 97
REMARK SMILES IDX 55 98 63 99 56 100 62 101 64 102 61 103 57 104 58 105 59 106
REMARK SMILES IDX 60 107
REMARK H PARENT 18 7 12 15 25 41 84 60 52 71
REMARK Flexibility Score: inf
ROOT
ATOM      1  C   UNL     1       9.336   3.916   0.478  1.00  0.00     0.002 C 
ENDROOT
BRANCH   1   2
ATOM      2  C   UNL     1       7.995   3.440   1.069  1.00  0.00     0.021 C 
BRANCH   2   3
ATOM      3  C   UNL     1       6.900   3.162   0.037  1.00  0.00     0.116 C 
BRANCH   3   4
ATOM      4  N   UNL     1       7.146   1.891  -0.608  1.00  0.00    -0.352 N 
ATOM      5  C   UNL     1       6.782   0.592  -0.366  1.00  0.00     0.251 C 
ATOM      6  O   UNL     1       7.422  -0.253  -1.001  1.00  0.00    -0.269 OA
ATOM      7  H   UNL     1       7.708   1.979  -1.412  1.00  0.00     0.163 HD
BRANCH   5   8
ATOM      8  C   UNL     1       5.629   0.118   0.483  1.00  0.00     0.042 A 
ATOM      9  C   UNL     1       3.813  -1.541   0.493  1.00  0.00     0.073 A 
ATOM     10  C   UNL     1       5.109  -1.122   0.100  1.00  0.00     0.042 A 
ATOM     11  C   UNL     1       3.081  -0.947   1.528  1.00  0.00     0.061 A 
ATOM     12  C   UNL     1       3.697   0.249   1.997  1.00  0.00     0.029 A 
ATOM     13  C   UNL     1       4.912   0.797   1.460  1.00  0.00     0.016 A 
BRANCH   9  14
ATOM     14  N   UNL     1       3.065  -2.221  -0.518  1.00  0.00    -0.277 N 
ATOM     15  H   UNL     1       2.869  -3.186  -0.502  1.00  0.00     0.180 HD
BRANCH  14  16
ATOM     16  S   UNL     1       2.542  -1.147  -1.774  1.00  0.00     0.262 S 
ATOM     17  O   UNL     1       1.537  -1.842  -2.539  1.00  0.00    -0.201 OA
ATOM     18  O   UNL     1       3.760  -0.750  -2.463  1.00  0.00    -0.201 OA
BRANCH  16  19
ATOM     19  C   UNL     1       1.766   0.336  -1.068  1.00  0.00     0.093 A 
ATOM     20  C   UNL     1       3.411   2.003  -2.047  1.00  0.00     0.046 C 
ATOM     21  C   UNL     1       2.123   1.647  -1.382  1.00  0.00    -0.030 A 
ATOM     22  C   UNL     1       1.237   2.705  -1.044  1.00  0.00     0.008 A 
ATOM     23  C   UNL     1       0.067   2.490  -0.318  1.00  0.00     0.039 A 
ATOM     24  C   UNL     1       0.649   0.183  -0.256  1.00  0.00     0.061 A 
ATOM     25  C   UNL     1      -0.191   1.219   0.122  1.00  0.00     0.124 A 
ATOM     26  F   UNL     1      -1.241   0.969   0.917  1.00  0.00    -0.207 F 
ENDBRANCH  16  19
ENDBRANCH  14  16
ENDBRANCH   9  14
BRANCH  11  27
ATOM     27  N   UNL     1       1.791  -1.399   1.927  1.00  0.00    -0.369 N 
ATOM     28  C   UNL     1       1.206  -0.676   3.067  1.00  0.00     0.144 C 
BRANCH  27  29
ATOM     29  C   UNL     1       1.205  -2.804   1.723  1.00  0.00     0.151 C 
BRANCH  29  30
ATOM     30  C   UNL     1       0.475  -3.308   0.435  1.00  0.00    -0.029 A 
ATOM     31  C   UNL     1      -0.566  -2.687  -0.287  1.00  0.00     0.005 A 
ATOM     32  C   UNL     1       0.774  -4.614  -0.006  1.00  0.00     0.005 A 
ATOM     33  C   UNL     1      -0.998  -3.160  -1.546  1.00  0.00     0.000 A 
ATOM     34  C   UNL     1       0.254  -5.153  -1.198  1.00  0.00     0.000 A 
ATOM     35  C   UNL     1      -0.567  -4.389  -2.015  1.00  0.00     0.000 A 
ENDBRANCH  29  30
ENDBRANCH  27  29
ENDBRANCH  11  27
ENDBRANCH   5   8
ENDBRANCH   3   4
ENDBRANCH   2   3
ENDBRANCH   1   2
BRANCH   1  36
ATOM     36  C   UNL     1       9.294   5.230  -0.312  1.00  0.00     0.002 C 
BRANCH  36  37
ATOM     37  C   UNL     1       8.585   6.394   0.386  1.00  0.00     0.021 C 
BRANCH  37  38
ATOM     38  C   UNL     1       9.161   6.770   1.748  1.00  0.00     0.116 C 
BRANCH  38  39
ATOM     39  N   UNL     1      10.536   7.226   1.648  1.00  0.00    -0.352 N 
ATOM     40  C   UNL     1      11.097   8.410   2.054  1.00  0.00     0.251 C 
ATOM     41  H   UNL     1      11.158   6.590   1.226  1.00  0.00     0.163 HD
ATOM     42  O   UNL     1      12.221   8.709   1.660  1.00  0.00    -0.269 OA
BRANCH  40  43
ATOM     43  C   UNL     1      10.350   9.327   2.945  1.00  0.00     0.039 A 
ATOM     44  C   UNL     1      10.434  10.701   2.712  1.00  0.00     0.014 A 
ATOM     45  C   UNL     1       9.596   8.846   4.020  1.00  0.00     0.014 A 
ATOM     46  C   UNL     1       9.726  11.585   3.527  1.00  0.00     0.010 A 
ATOM     47  C   UNL     1       8.825   9.723   4.781  1.00  0.00     0.010 A 
ATOM     48  C   UNL     1       8.887  11.104   4.548  1.00  0.00    -0.014 A 
BRANCH  48  49
ATOM     49  C   UNL     1       8.068  12.049   5.351  1.00  0.00     0.031 A 
ATOM     50  C   UNL     1       8.295  12.203   6.830  1.00  0.00     0.074 A 
ATOM     51  C   UNL     1       7.104  12.763   4.737  1.00  0.00     0.049 A 
ATOM     52  N   UNL     1       7.710  13.013   7.676  1.00  0.00    -0.248 NA
ATOM     53  C   UNL     1       9.290  11.312   7.444  1.00  0.00     0.031 C 
ATOM     54  C   UNL     1       6.755  12.657   3.317  1.00  0.00     0.029 A 
ATOM     55  N   UNL     1       6.254  13.727   5.215  1.00  0.00    -0.354 N 
ATOM     56  C   UNL     1       8.267  12.733   8.919  1.00  0.00     0.074 A 
ATOM     57  C   UNL     1       9.179  11.625   8.726  1.00  0.00     0.031 C 
ATOM     58  C   UNL     1       5.806  13.561   3.029  1.00  0.00     0.029 A 
ATOM     59  C   UNL     1       5.444  14.276   4.248  1.00  0.00     0.049 A 
ATOM     60  H   UNL     1       6.227  14.001   6.160  1.00  0.00     0.167 HD
ATOM     61  C   UNL     1       8.059  13.361  10.105  1.00  0.00     0.034 A 
ATOM     62  C   UNL     1       4.516  15.249   4.331  1.00  0.00     0.034 A 
ATOM     63  C   UNL     1       7.138  14.460  10.278  1.00  0.00     0.049 A 
ATOM     64  C   UNL     1       4.283  15.913   5.662  1.00  0.00     0.074 A 
ATOM     65  C   UNL     1       6.880  15.200  11.419  1.00  0.00     0.029 A 
ATOM     66  N   UNL     1       6.308  14.970   9.284  1.00  0.00    -0.354 N 
ATOM     67  N   UNL     1       4.868  15.683   6.816  1.00  0.00    -0.248 NA
ATOM     68  C   UNL     1       3.276  16.979   5.696  1.00  0.00     0.031 C 
ATOM     69  C   UNL     1       5.841  16.096  11.139  1.00  0.00     0.029 A 
ATOM     70  C   UNL     1       5.511  15.983   9.798  1.00  0.00     0.049 A 
ATOM     71  H   UNL     1       6.290  14.657   8.351  1.00  0.00     0.167 HD
ATOM     72  C   UNL     1       4.312  16.595   7.710  1.00  0.00     0.074 A 
ATOM     73  C   UNL     1       3.375  17.397   6.949  1.00  0.00     0.031 C 
ATOM     74  C   UNL     1       4.552  16.754   9.038  1.00  0.00     0.034 A 
BRANCH  61  75
ATOM     75  C   UNL     1       8.823  12.847  11.306  1.00  0.00     0.023 A 
ATOM     76  C   UNL     1      10.230  12.847  11.344  1.00  0.00     0.031 A 
ATOM     77  C   UNL     1       8.141  12.314  12.415  1.00  0.00     0.131 A 
ATOM     78  C   UNL     1      10.905  12.248  12.419  1.00  0.00     0.055 A 
ATOM     79  C   UNL     1       8.819  11.804  13.524  1.00  0.00     0.041 A 
ATOM     80  F   UNL     1       6.800  12.262  12.432  1.00  0.00    -0.206 F 
ATOM     81  C   UNL     1      10.210  11.752  13.523  1.00  0.00     0.022 A 
BRANCH  78  82
ATOM     82  S   UNL     1      12.692  11.973  12.272  1.00  0.00     0.124 S 
ATOM     83  O   UNL     1      12.768  11.179  11.048  1.00  0.00    -0.237 OA
ATOM     84  O   UNL     1      13.215  13.331  12.188  1.00  0.00    -0.237 OA
ATOM     85  O   UNL     1      13.029  11.248  13.496  1.00  0.00    -0.744 OA
ENDBRANCH  78  82
ENDBRANCH  61  75
BRANCH  62  86
ATOM     86  C   UNL     1       3.744  15.660   3.123  1.00  0.00     0.023 A 
ATOM     87  C   UNL     1       3.854  16.957   2.596  1.00  0.00     0.031 A 
ATOM     88  C   UNL     1       2.859  14.766   2.493  1.00  0.00     0.131 A 
ATOM     89  C   UNL     1       3.061  17.338   1.503  1.00  0.00     0.055 A 
ATOM     90  C   UNL     1       2.116  15.132   1.370  1.00  0.00     0.041 A 
ATOM     91  F   UNL     1       2.718  13.512   2.952  1.00  0.00    -0.206 F 
ATOM     92  C   UNL     1       2.204  16.429   0.876  1.00  0.00     0.022 A 
BRANCH  89  93
ATOM     93  S   UNL     1       3.102  19.068   0.960  1.00  0.00     0.124 S 
ATOM     94  O   UNL     1       2.687  19.769   2.170  1.00  0.00    -0.237 OA
ATOM     95  O   UNL     1       4.499  19.230   0.571  1.00  0.00    -0.237 OA
ATOM     96  O   UNL     1       2.142  19.101  -0.142  1.00  0.00    -0.744 OA
ENDBRANCH  89  93
ENDBRANCH  62  86
BRANCH  74  97
ATOM     97  C   UNL     1       3.790  17.858   9.736  1.00  0.00     0.023 A 
ATOM     98  C   UNL     1       2.385  17.844   9.819  1.00  0.00     0.031 A 
ATOM     99  C   UNL     1       4.468  18.967  10.271  1.00  0.00     0.131 A 
ATOM    100  C   UNL     1       1.703  18.956  10.336  1.00  0.00     0.055 A 
ATOM    101  C   UNL     1       3.787  20.033  10.862  1.00  0.00     0.041 A 
ATOM    102  F   UNL     1       5.808  19.042  10.219  1.00  0.00    -0.206 F 
ATOM    103  C   UNL     1       2.395  20.042  10.876  1.00  0.00     0.022 A 
BRANCH 100 104
ATOM    104  S   UNL     1      -0.100  19.027  10.149  1.00  0.00     0.124 S 
ATOM    105  O   UNL     1      -0.260  18.870   8.707  1.00  0.00    -0.237 OA
ATOM    106  O   UNL     1      -0.543  17.902  10.965  1.00  0.00    -0.237 OA
ATOM    107  O   UNL     1      -0.447  20.348  10.671  1.00  0.00    -0.744 OA
ENDBRANCH 100 104
ENDBRANCH  74  97
ENDBRANCH  48  49
ENDBRANCH  40  43
ENDBRANCH  38  39
ENDBRANCH  37  38
ENDBRANCH  36  37
ENDBRANCH   1  36
TORSDOF 22
