REMARK SMILES O=C(NCCCCCCNC(=O)c1ccc2c(=O)n(CCc3c[nH]c4ccccc34)c(=O)[nH]c2c1)c1ccc(-c2c3nc(c(-c4cc(S(=O)(=O)[O-])ccc4F)c4ccc([nH]4)c(-c4cc(S(=O)(=O)[O-])ccc4F)c4nc(c(-c5cc(S(=O)(=O)[O-])ccc5F)c5ccc2[nH]5)C=C4)C=C3)cc1
REMARK SMILES IDX 6 1 5 2 4 3 3 4 1 5 2 6 36 8 37 9 98 10 38 11 97 12 39 13
REMARK SMILES IDX 40 14 41 15 91 16 42 17 96 18 90 19 92 20 43 21 95 22 89 23
REMARK SMILES IDX 88 24 44 26 76 27 56 28 75 29 57 30 60 31 74 32 93 33 58 34
REMARK SMILES IDX 59 35 73 37 94 38 61 39 45 40 46 41 54 42 47 43 53 44 55 45
REMARK SMILES IDX 52 46 48 47 49 48 50 49 51 50 77 51 78 52 86 53 79 54 85 55
REMARK SMILES IDX 87 56 84 57 80 58 81 59 82 60 83 61 62 62 63 63 71 64 64 65
REMARK SMILES IDX 70 66 72 67 69 68 65 69 66 70 67 71 68 72 7 73 8 74 9 75
REMARK SMILES IDX 10 76 11 77 12 79 13 80 14 81 35 82 15 83 34 84 16 85 33 86
REMARK SMILES IDX 17 87 31 88 18 90 19 91 32 92 20 93 21 94 22 95 23 96 30 97
REMARK SMILES IDX 24 98 25 99 29 100 26 102 28 103 27 104
REMARK H PARENT 3 7 92 25 60 36 10 78 33 89 24 101
REMARK Flexibility Score: inf
ROOT
ATOM      1  C   UNL     1       4.278  -1.552   3.620  1.00  0.00     0.002 C 
ENDROOT
BRANCH   1   2
ATOM      2  C   UNL     1       4.868  -0.557   2.612  1.00  0.00     0.021 C 
BRANCH   2   3
ATOM      3  C   UNL     1       4.501  -0.767   1.141  1.00  0.00     0.116 C 
BRANCH   3   4
ATOM      4  N   UNL     1       3.067  -0.737   0.913  1.00  0.00    -0.352 N 
ATOM      5  O   UNL     1       1.078   0.030   0.225  1.00  0.00    -0.269 OA
ATOM      6  C   UNL     1       2.302   0.070   0.107  1.00  0.00     0.251 C 
ATOM      7  H   UNL     1       2.557  -1.407   1.422  1.00  0.00     0.163 HD
BRANCH   6   8
ATOM      8  C   UNL     1       2.905   0.972  -0.905  1.00  0.00     0.039 A 
ATOM      9  C   UNL     1       2.298   2.213  -1.140  1.00  0.00     0.014 A 
ATOM     10  C   UNL     1       3.973   0.566  -1.711  1.00  0.00     0.014 A 
ATOM     11  C   UNL     1       2.753   3.039  -2.174  1.00  0.00     0.010 A 
ATOM     12  C   UNL     1       4.464   1.417  -2.704  1.00  0.00     0.010 A 
ATOM     13  C   UNL     1       3.836   2.645  -2.972  1.00  0.00    -0.014 A 
BRANCH  13  14
ATOM     14  C   UNL     1       4.263   3.441  -4.155  1.00  0.00     0.031 A 
ATOM     15  C   UNL     1       4.096   2.856  -5.534  1.00  0.00     0.074 A 
ATOM     16  C   UNL     1       4.832   4.653  -4.005  1.00  0.00     0.049 A 
ATOM     17  N   UNL     1       4.525   3.311  -6.681  1.00  0.00    -0.248 NA
ATOM     18  C   UNL     1       3.365   1.580  -5.633  1.00  0.00     0.031 C 
ATOM     19  C   UNL     1       5.043   5.327  -2.726  1.00  0.00     0.029 A 
ATOM     20  N   UNL     1       5.359   5.524  -4.932  1.00  0.00    -0.354 N 
ATOM     21  C   UNL     1       4.142   2.370  -7.630  1.00  0.00     0.074 A 
ATOM     22  C   UNL     1       3.479   1.299  -6.923  1.00  0.00     0.031 C 
ATOM     23  C   UNL     1       5.660   6.498  -2.945  1.00  0.00     0.029 A 
ATOM     24  C   UNL     1       5.944   6.638  -4.373  1.00  0.00     0.049 A 
ATOM     25  H   UNL     1       5.321   5.364  -5.903  1.00  0.00     0.167 HD
ATOM     26  C   UNL     1       4.311   2.409  -8.971  1.00  0.00     0.034 A 
ATOM     27  C   UNL     1       6.657   7.639  -4.936  1.00  0.00     0.034 A 
ATOM     28  C   UNL     1       4.925   3.509  -9.668  1.00  0.00     0.049 A 
ATOM     29  C   UNL     1       6.846   7.654  -6.435  1.00  0.00     0.074 A 
ATOM     30  C   UNL     1       5.079   3.665 -11.033  1.00  0.00     0.029 A 
ATOM     31  N   UNL     1       5.471   4.633  -9.070  1.00  0.00    -0.354 N 
ATOM     32  N   UNL     1       6.419   6.789  -7.325  1.00  0.00    -0.248 NA
ATOM     33  C   UNL     1       7.600   8.776  -7.016  1.00  0.00     0.031 C 
ATOM     34  C   UNL     1       5.788   4.841 -11.258  1.00  0.00     0.029 A 
ATOM     35  C   UNL     1       5.993   5.470 -10.040  1.00  0.00     0.049 A 
ATOM     36  H   UNL     1       5.485   4.810  -8.101  1.00  0.00     0.167 HD
ATOM     37  C   UNL     1       6.822   7.278  -8.565  1.00  0.00     0.074 A 
ATOM     38  C   UNL     1       7.514   8.524  -8.317  1.00  0.00     0.031 C 
ATOM     39  C   UNL     1       6.640   6.736  -9.794  1.00  0.00     0.034 A 
BRANCH  26  40
ATOM     40  C   UNL     1       3.814   1.264  -9.817  1.00  0.00     0.023 A 
ATOM     41  C   UNL     1       4.730   0.533 -10.599  1.00  0.00     0.031 A 
ATOM     42  C   UNL     1       2.442   1.036 -10.008  1.00  0.00     0.131 A 
ATOM     43  C   UNL     1       4.258  -0.338 -11.587  1.00  0.00     0.055 A 
ATOM     44  C   UNL     1       1.978   0.127 -10.960  1.00  0.00     0.041 A 
ATOM     45  F   UNL     1       1.531   1.710  -9.287  1.00  0.00    -0.206 F 
ATOM     46  C   UNL     1       2.888  -0.549 -11.769  1.00  0.00     0.022 A 
BRANCH  43  47
ATOM     47  S   UNL     1       5.402  -1.150 -12.737  1.00  0.00     0.124 S 
ATOM     48  O   UNL     1       5.055  -2.559 -12.561  1.00  0.00    -0.237 OA
ATOM     49  O   UNL     1       5.012  -0.567 -14.017  1.00  0.00    -0.237 OA
ATOM     50  O   UNL     1       6.722  -0.773 -12.244  1.00  0.00    -0.744 OA
ENDBRANCH  43  47
ENDBRANCH  26  40
BRANCH  27  51
ATOM     51  C   UNL     1       7.230   8.708  -4.061  1.00  0.00     0.023 A 
ATOM     52  C   UNL     1       8.144   8.384  -3.041  1.00  0.00     0.031 A 
ATOM     53  C   UNL     1       6.809  10.044  -4.165  1.00  0.00     0.131 A 
ATOM     54  C   UNL     1       8.547   9.363  -2.124  1.00  0.00     0.055 A 
ATOM     55  C   UNL     1       7.278  11.035  -3.299  1.00  0.00     0.041 A 
ATOM     56  F   UNL     1       5.930  10.405  -5.113  1.00  0.00    -0.206 F 
ATOM     57  C   UNL     1       8.137  10.692  -2.259  1.00  0.00     0.022 A 
BRANCH  54  58
ATOM     58  S   UNL     1       9.497   8.912  -0.645  1.00  0.00     0.124 S 
ATOM     59  O   UNL     1      10.730   9.671  -0.829  1.00  0.00    -0.237 OA
ATOM     60  O   UNL     1       8.621   9.380   0.427  1.00  0.00    -0.237 OA
ATOM     61  O   UNL     1       9.626   7.462  -0.746  1.00  0.00    -0.744 OA
ENDBRANCH  54  58
ENDBRANCH  27  51
BRANCH  39  62
ATOM     62  C   UNL     1       7.152   7.463 -11.015  1.00  0.00     0.023 A 
ATOM     63  C   UNL     1       6.241   7.862 -12.015  1.00  0.00     0.031 A 
ATOM     64  C   UNL     1       8.525   7.540 -11.297  1.00  0.00     0.131 A 
ATOM     65  C   UNL     1       6.714   8.242 -13.277  1.00  0.00     0.055 A 
ATOM     66  C   UNL     1       8.993   7.977 -12.537  1.00  0.00     0.041 A 
ATOM     67  F   UNL     1       9.431   7.160 -10.381  1.00  0.00    -0.206 F 
ATOM     68  C   UNL     1       8.086   8.308 -13.541  1.00  0.00     0.022 A 
BRANCH  65  69
ATOM     69  S   UNL     1       5.569   8.539 -14.653  1.00  0.00     0.124 S 
ATOM     70  O   UNL     1       5.914   9.903 -15.045  1.00  0.00    -0.237 OA
ATOM     71  O   UNL     1       5.955   7.500 -15.603  1.00  0.00    -0.237 OA
ATOM     72  O   UNL     1       4.248   8.383 -14.053  1.00  0.00    -0.744 OA
ENDBRANCH  65  69
ENDBRANCH  39  62
ENDBRANCH  13  14
ENDBRANCH   6   8
ENDBRANCH   3   4
ENDBRANCH   2   3
ENDBRANCH   1   2
BRANCH   1  73
ATOM     73  C   UNL     1       4.536  -3.039   3.363  1.00  0.00     0.002 C 
BRANCH  73  74
ATOM     74  C   UNL     1       5.996  -3.493   3.328  1.00  0.00     0.021 C 
BRANCH  74  75
ATOM     75  C   UNL     1       6.813  -3.363   4.618  1.00  0.00     0.116 C 
BRANCH  75  76
ATOM     76  N   UNL     1       6.317  -4.089   5.772  1.00  0.00    -0.352 N 
ATOM     77  C   UNL     1       6.999  -4.548   6.881  1.00  0.00     0.251 C 
ATOM     78  H   UNL     1       5.352  -4.282   5.764  1.00  0.00     0.163 HD
ATOM     79  O   UNL     1       6.400  -5.121   7.786  1.00  0.00    -0.269 OA
BRANCH  77  80
ATOM     80  C   UNL     1       8.465  -4.395   7.013  1.00  0.00     0.041 A 
ATOM     81  C   UNL     1       9.011  -3.236   7.585  1.00  0.00     0.015 A 
ATOM     82  C   UNL     1       9.298  -5.462   6.646  1.00  0.00     0.040 A 
ATOM     83  C   UNL     1      10.402  -3.104   7.703  1.00  0.00     0.017 A 
ATOM     84  C   UNL     1      10.684  -5.305   6.729  1.00  0.00     0.056 A 
ATOM     85  C   UNL     1      11.233  -4.126   7.235  1.00  0.00     0.064 A 
ATOM     86  N   UNL     1      11.533  -6.271   6.187  1.00  0.00    -0.307 N 
ATOM     87  C   UNL     1      12.685  -3.906   7.070  1.00  0.00     0.264 A 
ATOM     88  C   UNL     1      12.843  -6.022   5.867  1.00  0.00     0.328 A 
ATOM     89  H   UNL     1      11.175  -7.174   6.027  1.00  0.00     0.171 HD
ATOM     90  O   UNL     1      13.240  -2.991   7.682  1.00  0.00    -0.268 OA
ATOM     91  N   UNL     1      13.317  -4.755   6.174  1.00  0.00    -0.260 N 
ATOM     92  O   UNL     1      13.502  -6.889   5.297  1.00  0.00    -0.248 OA
BRANCH  91  93
ATOM     93  C   UNL     1      14.563  -4.317   5.554  1.00  0.00     0.136 C 
BRANCH  93  94
ATOM     94  C   UNL     1      14.389  -4.017   4.058  1.00  0.00     0.060 C 
BRANCH  94  95
ATOM     95  C   UNL     1      13.686  -2.747   3.673  1.00  0.00    -0.021 A 
ATOM     96  C   UNL     1      14.323  -1.591   3.258  1.00  0.00     0.087 A 
ATOM     97  C   UNL     1      12.289  -2.412   3.648  1.00  0.00     0.003 A 
ATOM     98  N   UNL     1      13.404  -0.939   2.482  1.00  0.00    -0.361 N 
ATOM     99  C   UNL     1      12.162  -1.183   2.999  1.00  0.00     0.046 A 
ATOM    100  C   UNL     1      11.115  -3.000   4.120  1.00  0.00     0.010 A 
ATOM    101  H   UNL     1      13.602  -0.391   1.688  1.00  0.00     0.166 HD
ATOM    102  C   UNL     1      10.967  -0.462   2.892  1.00  0.00     0.026 A 
ATOM    103  C   UNL     1       9.982  -2.190   4.231  1.00  0.00     0.001 A 
ATOM    104  C   UNL     1       9.889  -0.951   3.615  1.00  0.00     0.002 A 
ENDBRANCH  94  95
ENDBRANCH  93  94
ENDBRANCH  91  93
ENDBRANCH  77  80
ENDBRANCH  75  76
ENDBRANCH  74  75
ENDBRANCH  73  74
ENDBRANCH   1  73
TORSDOF 19
