REMARK SMILES O=C(NCCCCCCNC(=O)c1cncc(OCCCc2ccccc2)n1)c1ccc(-c2c3nc(c(-c4cc(S(=O)(=O)[O-])ccc4F)c4ccc([nH]4)c(-c4cc(S(=O)(=O)[O-])ccc4F)c4nc(c(-c5cc(S(=O)(=O)[O-])ccc5F)c5ccc2[nH]5)C=C4)C=C3)cc1
REMARK SMILES IDX 7 1 6 2 5 3 4 4 3 5 1 6 2 7 29 9 30 10 91 11 31 12 90 13
REMARK SMILES IDX 32 14 33 15 34 16 84 17 35 18 89 19 83 20 85 21 36 22 88 23
REMARK SMILES IDX 82 24 81 25 37 27 69 28 49 29 68 30 50 31 53 32 67 33 86 34
REMARK SMILES IDX 51 35 52 36 66 38 87 39 54 40 38 41 39 42 47 43 40 44 46 45
REMARK SMILES IDX 48 46 45 47 41 48 42 49 43 50 44 51 70 52 71 53 79 54 72 55
REMARK SMILES IDX 78 56 80 57 77 58 73 59 74 60 75 61 76 62 55 63 56 64 64 65
REMARK SMILES IDX 57 66 63 67 65 68 62 69 58 70 59 71 60 72 61 73 8 74 9 75
REMARK SMILES IDX 10 76 11 77 12 79 13 80 14 81 28 82 15 83 17 84 16 85 18 86
REMARK SMILES IDX 19 87 20 88 21 89 22 90 23 91 27 92 24 93 26 94 25 95
REMARK H PARENT 3 8 85 26 53 37 10 78
REMARK Flexibility Score: inf
ROOT
ATOM      1  C   UNL     1       4.877   3.825  -2.142  1.00  0.00     0.002 C 
ENDROOT
BRANCH   1   2
ATOM      2  C   UNL     1       4.224   2.670  -2.906  1.00  0.00     0.002 C 
BRANCH   2   3
ATOM      3  C   UNL     1       4.595   1.264  -2.438  1.00  0.00     0.021 C 
BRANCH   3   4
ATOM      4  C   UNL     1       4.348   0.982  -0.963  1.00  0.00     0.116 C 
BRANCH   4   5
ATOM      5  N   UNL     1       2.937   0.895  -0.629  1.00  0.00    -0.352 N 
ATOM      6  O   UNL     1       1.046  -0.096   0.102  1.00  0.00    -0.269 OA
ATOM      7  C   UNL     1       2.265  -0.119   0.021  1.00  0.00     0.251 C 
ATOM      8  H   UNL     1       2.386   1.664  -0.903  1.00  0.00     0.163 HD
BRANCH   7   9
ATOM      9  C   UNL     1       3.034  -1.248   0.599  1.00  0.00     0.039 A 
ATOM     10  C   UNL     1       4.196  -1.010   1.335  1.00  0.00     0.014 A 
ATOM     11  C   UNL     1       2.593  -2.559   0.392  1.00  0.00     0.014 A 
ATOM     12  C   UNL     1       4.993  -2.077   1.731  1.00  0.00     0.010 A 
ATOM     13  C   UNL     1       3.348  -3.633   0.879  1.00  0.00     0.010 A 
ATOM     14  C   UNL     1       4.569  -3.402   1.532  1.00  0.00    -0.014 A 
BRANCH  14  15
ATOM     15  C   UNL     1       5.390  -4.507   2.096  1.00  0.00     0.031 A 
ATOM     16  C   UNL     1       6.061  -5.523   1.212  1.00  0.00     0.074 A 
ATOM     17  C   UNL     1       5.569  -4.545   3.432  1.00  0.00     0.049 A 
ATOM     18  N   UNL     1       6.848  -6.513   1.550  1.00  0.00    -0.248 NA
ATOM     19  C   UNL     1       5.815  -5.421  -0.233  1.00  0.00     0.031 C 
ATOM     20  C   UNL     1       4.954  -3.616   4.387  1.00  0.00     0.029 A 
ATOM     21  N   UNL     1       6.333  -5.366   4.220  1.00  0.00    -0.354 N 
ATOM     22  C   UNL     1       7.190  -7.157   0.365  1.00  0.00     0.074 A 
ATOM     23  C   UNL     1       6.492  -6.463  -0.698  1.00  0.00     0.031 C 
ATOM     24  C   UNL     1       5.411  -3.881   5.618  1.00  0.00     0.029 A 
ATOM     25  C   UNL     1       6.287  -5.044   5.557  1.00  0.00     0.049 A 
ATOM     26  H   UNL     1       6.864  -6.115   3.864  1.00  0.00     0.167 HD
ATOM     27  C   UNL     1       8.014  -8.220   0.185  1.00  0.00     0.034 A 
ATOM     28  C   UNL     1       6.867  -5.630   6.623  1.00  0.00     0.034 A 
ATOM     29  C   UNL     1       8.697  -8.903   1.261  1.00  0.00     0.049 A 
ATOM     30  C   UNL     1       7.748  -6.827   6.393  1.00  0.00     0.074 A 
ATOM     31  C   UNL     1       9.561  -9.983   1.186  1.00  0.00     0.029 A 
ATOM     32  N   UNL     1       8.592  -8.578   2.608  1.00  0.00    -0.354 N 
ATOM     33  N   UNL     1       8.067  -7.411   5.261  1.00  0.00    -0.248 NA
ATOM     34  C   UNL     1       8.351  -7.439   7.581  1.00  0.00     0.031 C 
ATOM     35  C   UNL     1       9.927 -10.348   2.486  1.00  0.00     0.029 A 
ATOM     36  C   UNL     1       9.353  -9.452   3.372  1.00  0.00     0.049 A 
ATOM     37  H   UNL     1       8.056  -7.835   2.968  1.00  0.00     0.167 HD
ATOM     38  C   UNL     1       8.919  -8.455   5.604  1.00  0.00     0.074 A 
ATOM     39  C   UNL     1       9.095  -8.391   7.041  1.00  0.00     0.031 C 
ATOM     40  C   UNL     1       9.498  -9.390   4.807  1.00  0.00     0.034 A 
BRANCH  27  41
ATOM     41  C   UNL     1       8.197  -8.735  -1.223  1.00  0.00     0.023 A 
ATOM     42  C   UNL     1       8.840  -7.971  -2.213  1.00  0.00     0.031 A 
ATOM     43  C   UNL     1       7.738 -10.017  -1.577  1.00  0.00     0.131 A 
ATOM     44  C   UNL     1       8.962  -8.474  -3.518  1.00  0.00     0.055 A 
ATOM     45  C   UNL     1       7.923 -10.539  -2.860  1.00  0.00     0.041 A 
ATOM     46  F   UNL     1       7.101 -10.786  -0.680  1.00  0.00    -0.206 F 
ATOM     47  C   UNL     1       8.530  -9.762  -3.842  1.00  0.00     0.022 A 
BRANCH  44  48
ATOM     48  S   UNL     1       9.601  -7.379  -4.816  1.00  0.00     0.124 S 
ATOM     49  O   UNL     1       8.625  -6.291  -4.792  1.00  0.00    -0.237 OA
ATOM     50  O   UNL     1      10.934  -7.050  -4.324  1.00  0.00    -0.237 OA
ATOM     51  O   UNL     1       9.566  -8.211  -6.016  1.00  0.00    -0.744 OA
ENDBRANCH  44  48
ENDBRANCH  27  41
BRANCH  28  52
ATOM     52  C   UNL     1       6.599  -5.125   8.001  1.00  0.00     0.023 A 
ATOM     53  C   UNL     1       7.636  -4.643   8.813  1.00  0.00     0.031 A 
ATOM     54  C   UNL     1       5.301  -5.167   8.544  1.00  0.00     0.131 A 
ATOM     55  C   UNL     1       7.368  -4.273  10.140  1.00  0.00     0.055 A 
ATOM     56  C   UNL     1       5.029  -4.736   9.842  1.00  0.00     0.041 A 
ATOM     57  F   UNL     1       4.271  -5.618   7.810  1.00  0.00    -0.206 F 
ATOM     58  C   UNL     1       6.070  -4.302  10.655  1.00  0.00     0.022 A 
BRANCH  55  59
ATOM     59  S   UNL     1       8.763  -3.859  11.223  1.00  0.00     0.124 S 
ATOM     60  O   UNL     1       9.606  -5.042  11.088  1.00  0.00    -0.237 OA
ATOM     61  O   UNL     1       9.270  -2.637  10.606  1.00  0.00    -0.237 OA
ATOM     62  O   UNL     1       8.137  -3.683  12.531  1.00  0.00    -0.744 OA
ENDBRANCH  55  59
ENDBRANCH  28  52
BRANCH  40  63
ATOM     63  C   UNL     1      10.389 -10.397   5.492  1.00  0.00     0.023 A 
ATOM     64  C   UNL     1       9.873 -11.326   6.414  1.00  0.00     0.031 A 
ATOM     65  C   UNL     1      11.776 -10.390   5.265  1.00  0.00     0.131 A 
ATOM     66  C   UNL     1      10.746 -12.156   7.132  1.00  0.00     0.055 A 
ATOM     67  C   UNL     1      12.633 -11.267   5.933  1.00  0.00     0.041 A 
ATOM     68  F   UNL     1      12.323  -9.523   4.398  1.00  0.00    -0.206 F 
ATOM     69  C   UNL     1      12.121 -12.143   6.886  1.00  0.00     0.022 A 
BRANCH  66  70
ATOM     70  S   UNL     1      10.071 -13.166   8.479  1.00  0.00     0.124 S 
ATOM     71  O   UNL     1       9.454 -12.158   9.334  1.00  0.00    -0.237 OA
ATOM     72  O   UNL     1       9.152 -14.053   7.773  1.00  0.00    -0.237 OA
ATOM     73  O   UNL     1      11.252 -13.819   9.042  1.00  0.00    -0.744 OA
ENDBRANCH  66  70
ENDBRANCH  40  63
ENDBRANCH  14  15
ENDBRANCH   7   9
ENDBRANCH   4   5
ENDBRANCH   3   4
ENDBRANCH   2   3
ENDBRANCH   1   2
BRANCH   1  74
ATOM     74  C   UNL     1       6.398   3.758  -1.968  1.00  0.00     0.021 C 
BRANCH  74  75
ATOM     75  C   UNL     1       7.223   3.542  -3.236  1.00  0.00     0.116 C 
BRANCH  75  76
ATOM     76  N   UNL     1       6.960   4.525  -4.267  1.00  0.00    -0.351 N 
ATOM     77  C   UNL     1       7.849   5.210  -5.062  1.00  0.00     0.271 C 
ATOM     78  H   UNL     1       6.010   4.733  -4.421  1.00  0.00     0.163 HD
ATOM     79  O   UNL     1       7.426   5.980  -5.922  1.00  0.00    -0.267 OA
BRANCH  77  80
ATOM     80  C   UNL     1       9.308   5.056  -4.857  1.00  0.00     0.150 A 
ATOM     81  C   UNL     1       9.954   3.852  -5.069  1.00  0.00     0.145 A 
ATOM     82  N   UNL     1       9.967   6.178  -4.474  1.00  0.00    -0.205 NA
ATOM     83  N   UNL     1      11.293   3.718  -4.888  1.00  0.00    -0.257 NA
ATOM     84  C   UNL     1      11.292   6.056  -4.303  1.00  0.00     0.233 A 
ATOM     85  C   UNL     1      11.946   4.850  -4.513  1.00  0.00     0.179 A 
BRANCH  84  86
ATOM     86  O   UNL     1      12.025   7.178  -4.008  1.00  0.00    -0.477 OA
BRANCH  86  87
ATOM     87  C   UNL     1      11.338   8.117  -3.166  1.00  0.00     0.232 C 
BRANCH  87  88
ATOM     88  C   UNL     1      10.633   9.243  -3.938  1.00  0.00     0.046 C 
BRANCH  88  89
ATOM     89  C   UNL     1       9.122   9.095  -4.186  1.00  0.00     0.039 C 
BRANCH  89  90
ATOM     90  C   UNL     1       8.254   9.038  -2.948  1.00  0.00    -0.048 A 
ATOM     91  C   UNL     1       7.607  10.188  -2.478  1.00  0.00     0.004 A 
ATOM     92  C   UNL     1       8.045   7.834  -2.262  1.00  0.00     0.004 A 
ATOM     93  C   UNL     1       6.776  10.130  -1.356  1.00  0.00     0.000 A 
ATOM     94  C   UNL     1       7.232   7.778  -1.129  1.00  0.00     0.000 A 
ATOM     95  C   UNL     1       6.592   8.926  -0.679  1.00  0.00     0.000 A 
ENDBRANCH  89  90
ENDBRANCH  88  89
ENDBRANCH  87  88
ENDBRANCH  86  87
ENDBRANCH  84  86
ENDBRANCH  77  80
ENDBRANCH  75  76
ENDBRANCH  74  75
ENDBRANCH   1  74
TORSDOF 21
