REMARK SMILES Nc1c(Cl)ccc2c1C=C(C(=O)NCCCCCCNC(=O)c1ccc(-c3c4nc(c(-c5cc(S(=O)(=O)[O-])ccc5F)c5ccc([nH]5)c(-c5cc(S(=O)(=O)[O-])ccc5F)c5nc(c(-c6cc(S(=O)(=O)[O-])ccc6F)c6ccc3[nH]6)C=C5)C=C4)cc1)[C@@H](C(F)(F)F)O2
REMARK SMILES IDX 17 1 16 2 15 3 14 4 13 5 11 6 12 7 10 9 2 10 3 11 8 12 4 13
REMARK SMILES IDX 5 14 7 15 9 16 6 17 91 18 86 19 1 20 87 23 88 24 89 25 90 26
REMARK SMILES IDX 18 27 19 28 20 29 21 30 22 32 23 33 24 34 85 35 25 36 84 37
REMARK SMILES IDX 26 38 27 39 28 40 78 41 29 42 83 43 77 44 79 45 30 46 82 47
REMARK SMILES IDX 76 48 75 49 31 51 63 52 43 53 62 54 44 55 47 56 61 57 80 58
REMARK SMILES IDX 45 59 46 60 60 62 81 63 48 64 32 65 33 66 41 67 34 68 40 69
REMARK SMILES IDX 42 70 39 71 35 72 36 73 37 74 38 75 64 76 65 77 73 78 66 79
REMARK SMILES IDX 72 80 74 81 71 82 67 83 68 84 69 85 70 86 49 87 50 88 58 89
REMARK SMILES IDX 51 90 57 91 59 92 56 93 52 94 53 95 54 96 55 97
REMARK H PARENT 13 8 1 21 1 22 20 31 79 50 47 61
REMARK Flexibility Score: inf
ROOT
ATOM      1  C   UNL     1      -6.814  -0.917  -6.484  1.00  0.00     0.002 C 
ENDROOT
BRANCH   1   2
ATOM      2  C   UNL     1      -6.756  -0.127  -5.170  1.00  0.00     0.002 C 
BRANCH   2   3
ATOM      3  C   UNL     1      -6.158  -0.877  -3.975  1.00  0.00     0.021 C 
BRANCH   3   4
ATOM      4  C   UNL     1      -4.744  -1.400  -4.211  1.00  0.00     0.116 C 
BRANCH   4   5
ATOM      5  N   UNL     1      -3.752  -0.360  -4.004  1.00  0.00    -0.352 N 
ATOM      6  C   UNL     1      -2.688  -0.152  -3.195  1.00  0.00     0.251 C 
ATOM      7  O   UNL     1      -2.107   0.926  -3.370  1.00  0.00    -0.270 OA
ATOM      8  H   UNL     1      -3.890   0.397  -4.617  1.00  0.00     0.163 HD
BRANCH   6   9
ATOM      9  C   UNL     1      -2.187  -1.097  -2.150  1.00  0.00     0.067 C 
ATOM     10  C   UNL     1       0.532  -1.066   0.417  1.00  0.00     0.061 A 
ATOM     11  C   UNL     1       1.033  -1.968   1.386  1.00  0.00     0.064 A 
ATOM     12  C   UNL     1      -0.607  -1.452  -0.326  1.00  0.00     0.042 A 
ATOM     13  Cl  UNL     1       2.445  -1.573   2.312  1.00  0.00    -0.082 Cl
ATOM     14  C   UNL     1       0.406  -3.187   1.646  1.00  0.00     0.026 A 
ATOM     15  C   UNL     1      -1.215  -2.687  -0.061  1.00  0.00     0.130 A 
ATOM     16  C   UNL     1      -1.222  -0.603  -1.350  1.00  0.00     0.027 C 
ATOM     17  C   UNL     1      -0.726  -3.543   0.924  1.00  0.00     0.049 A 
ATOM     18  O   UNL     1      -2.337  -3.122  -0.704  1.00  0.00    -0.475 OA
ATOM     19  C   UNL     1      -2.641  -2.519  -1.990  1.00  0.00     0.314 C 
BRANCH  10  20
ATOM     20  N   UNL     1       1.223   0.120   0.152  1.00  0.00    -0.397 N 
ATOM     21  H   UNL     1       2.014   0.360   0.688  1.00  0.00     0.156 HD
ATOM     22  H   UNL     1       0.919   0.716  -0.570  1.00  0.00     0.156 HD
ENDBRANCH  10  20
BRANCH  19  23
ATOM     23  C   UNL     1      -2.137  -3.438  -3.116  1.00  0.00     0.429 C 
ATOM     24  F   UNL     1      -2.808  -4.614  -3.109  1.00  0.00    -0.167 F 
ATOM     25  F   UNL     1      -2.320  -2.897  -4.343  1.00  0.00    -0.167 F 
ATOM     26  F   UNL     1      -0.819  -3.716  -3.001  1.00  0.00    -0.167 F 
ENDBRANCH  19  23
ENDBRANCH   6   9
ENDBRANCH   4   5
ENDBRANCH   3   4
ENDBRANCH   2   3
ENDBRANCH   1   2
BRANCH   1  27
ATOM     27  C   UNL     1      -7.391  -2.332  -6.378  1.00  0.00     0.021 C 
BRANCH  27  28
ATOM     28  C   UNL     1      -8.797  -2.402  -5.792  1.00  0.00     0.116 C 
BRANCH  28  29
ATOM     29  N   UNL     1      -9.768  -1.745  -6.649  1.00  0.00    -0.352 N 
ATOM     30  C   UNL     1     -10.855  -2.292  -7.281  1.00  0.00     0.251 C 
ATOM     31  H   UNL     1      -9.628  -0.781  -6.796  1.00  0.00     0.163 HD
ATOM     32  O   UNL     1     -11.459  -1.660  -8.143  1.00  0.00    -0.269 OA
BRANCH  30  33
ATOM     33  C   UNL     1     -11.287  -3.656  -6.915  1.00  0.00     0.039 A 
ATOM     34  C   UNL     1     -11.476  -4.603  -7.923  1.00  0.00     0.014 A 
ATOM     35  C   UNL     1     -11.506  -3.987  -5.574  1.00  0.00     0.014 A 
ATOM     36  C   UNL     1     -11.860  -5.901  -7.581  1.00  0.00     0.010 A 
ATOM     37  C   UNL     1     -11.840  -5.293  -5.232  1.00  0.00     0.010 A 
ATOM     38  C   UNL     1     -12.039  -6.254  -6.234  1.00  0.00    -0.014 A 
BRANCH  38  39
ATOM     39  C   UNL     1     -12.495  -7.613  -5.859  1.00  0.00     0.031 A 
ATOM     40  C   UNL     1     -13.891  -7.805  -5.339  1.00  0.00     0.074 A 
ATOM     41  C   UNL     1     -11.650  -8.656  -5.950  1.00  0.00     0.049 A 
ATOM     42  N   UNL     1     -14.481  -8.905  -4.954  1.00  0.00    -0.248 NA
ATOM     43  C   UNL     1     -14.727  -6.599  -5.217  1.00  0.00     0.031 C 
ATOM     44  C   UNL     1     -10.261  -8.576  -6.401  1.00  0.00     0.029 A 
ATOM     45  N   UNL     1     -11.832  -9.985  -5.660  1.00  0.00    -0.354 N 
ATOM     46  C   UNL     1     -15.754  -8.527  -4.547  1.00  0.00     0.074 A 
ATOM     47  C   UNL     1     -15.832  -7.090  -4.675  1.00  0.00     0.031 C 
ATOM     48  C   UNL     1      -9.720  -9.805  -6.370  1.00  0.00     0.029 A 
ATOM     49  C   UNL     1     -10.716 -10.756  -5.880  1.00  0.00     0.049 A 
ATOM     50  H   UNL     1     -12.683 -10.351  -5.326  1.00  0.00     0.167 HD
ATOM     51  C   UNL     1     -16.775  -9.312  -4.133  1.00  0.00     0.034 A 
ATOM     52  C   UNL     1     -10.520 -12.080  -5.712  1.00  0.00     0.034 A 
ATOM     53  C   UNL     1     -16.691 -10.743  -4.028  1.00  0.00     0.049 A 
ATOM     54  C   UNL     1     -11.674 -12.938  -5.257  1.00  0.00     0.074 A 
ATOM     55  C   UNL     1     -17.685 -11.633  -3.664  1.00  0.00     0.029 A 
ATOM     56  N   UNL     1     -15.555 -11.493  -4.292  1.00  0.00    -0.354 N 
ATOM     57  N   UNL     1     -12.902 -12.577  -4.964  1.00  0.00    -0.248 NA
ATOM     58  C   UNL     1     -11.428 -14.381  -5.124  1.00  0.00     0.031 C 
ATOM     59  C   UNL     1     -17.140 -12.918  -3.671  1.00  0.00     0.029 A 
ATOM     60  C   UNL     1     -15.820 -12.836  -4.086  1.00  0.00     0.049 A 
ATOM     61  H   UNL     1     -14.689 -11.126  -4.582  1.00  0.00     0.167 HD
ATOM     62  C   UNL     1     -13.581 -13.749  -4.645  1.00  0.00     0.074 A 
ATOM     63  C   UNL     1     -12.631 -14.832  -4.790  1.00  0.00     0.031 C 
ATOM     64  C   UNL     1     -14.873 -13.909  -4.266  1.00  0.00     0.034 A 
BRANCH  51  65
ATOM     65  C   UNL     1     -18.085  -8.655  -3.795  1.00  0.00     0.023 A 
ATOM     66  C   UNL     1     -18.570  -8.676  -2.475  1.00  0.00     0.031 A 
ATOM     67  C   UNL     1     -18.896  -8.095  -4.798  1.00  0.00     0.131 A 
ATOM     68  C   UNL     1     -19.843  -8.164  -2.198  1.00  0.00     0.055 A 
ATOM     69  C   UNL     1     -20.150  -7.557  -4.510  1.00  0.00     0.041 A 
ATOM     70  F   UNL     1     -18.470  -8.048  -6.071  1.00  0.00    -0.206 F 
ATOM     71  C   UNL     1     -20.632  -7.598  -3.206  1.00  0.00     0.022 A 
BRANCH  68  72
ATOM     72  S   UNL     1     -20.536  -8.235  -0.524  1.00  0.00     0.124 S 
ATOM     73  O   UNL     1     -20.901  -6.839  -0.288  1.00  0.00    -0.237 OA
ATOM     74  O   UNL     1     -21.657  -9.152  -0.697  1.00  0.00    -0.237 OA
ATOM     75  O   UNL     1     -19.432  -8.729   0.292  1.00  0.00    -0.744 OA
ENDBRANCH  68  72
ENDBRANCH  51  65
BRANCH  52  76
ATOM     76  C   UNL     1      -9.197 -12.670  -6.062  1.00  0.00     0.023 A 
ATOM     77  C   UNL     1      -8.041 -12.346  -5.332  1.00  0.00     0.031 A 
ATOM     78  C   UNL     1      -9.060 -13.493  -7.193  1.00  0.00     0.131 A 
ATOM     79  C   UNL     1      -6.791 -12.805  -5.770  1.00  0.00     0.055 A 
ATOM     80  C   UNL     1      -7.821 -13.993  -7.593  1.00  0.00     0.041 A 
ATOM     81  F   UNL     1     -10.136 -13.816  -7.927  1.00  0.00    -0.206 F 
ATOM     82  C   UNL     1      -6.676 -13.640  -6.886  1.00  0.00     0.022 A 
BRANCH  79  83
ATOM     83  S   UNL     1      -5.263 -12.264  -4.956  1.00  0.00     0.124 S 
ATOM     84  O   UNL     1      -4.617 -13.534  -4.640  1.00  0.00    -0.237 OA
ATOM     85  O   UNL     1      -4.629 -11.479  -6.013  1.00  0.00    -0.237 OA
ATOM     86  O   UNL     1      -5.736 -11.497  -3.809  1.00  0.00    -0.744 OA
ENDBRANCH  79  83
ENDBRANCH  52  76
BRANCH  64  87
ATOM     87  C   UNL     1     -15.381 -15.302  -3.995  1.00  0.00     0.023 A 
ATOM     88  C   UNL     1     -16.381 -15.853  -4.819  1.00  0.00     0.031 A 
ATOM     89  C   UNL     1     -15.010 -16.000  -2.834  1.00  0.00     0.131 A 
ATOM     90  C   UNL     1     -17.009 -17.047  -4.445  1.00  0.00     0.055 A 
ATOM     91  C   UNL     1     -15.610 -17.211  -2.488  1.00  0.00     0.041 A 
ATOM     92  F   UNL     1     -14.069 -15.505  -2.014  1.00  0.00    -0.206 F 
ATOM     93  C   UNL     1     -16.624 -17.732  -3.288  1.00  0.00     0.022 A 
BRANCH  90  94
ATOM     94  S   UNL     1     -18.395 -17.715  -5.406  1.00  0.00     0.124 S 
ATOM     95  O   UNL     1     -17.931 -19.067  -5.708  1.00  0.00    -0.237 OA
ATOM     96  O   UNL     1     -19.496 -17.632  -4.451  1.00  0.00    -0.237 OA
ATOM     97  O   UNL     1     -18.489 -16.822  -6.556  1.00  0.00    -0.744 OA
ENDBRANCH  90  94
ENDBRANCH  64  87
ENDBRANCH  38  39
ENDBRANCH  30  33
ENDBRANCH  28  29
ENDBRANCH  27  28
ENDBRANCH   1  27
TORSDOF 18
