REMARK SMILES COC(=O)C[C@@H](NC(=O)c1ccccc1C(=O)NCCCCCCNC(=O)c1ccc(-c2c3nc(c(-c4cc(S(=O)(=O)[O-])ccc4F)c4ccc([nH]4)c(-c4cc(S(=O)(=O)[O-])ccc4F)c4nc(c(-c5cc(S(=O)(=O)[O-])ccc5F)c5ccc2[nH]5)C=C4)C=C3)cc1)c1cccc(C)c1C
REMARK SMILES IDX 20 1 19 2 18 3 16 4 17 5 15 7 10 8 11 9 12 10 14 11 13 12
REMARK SMILES IDX 8 13 7 14 9 16 6 17 5 18 3 19 4 20 2 21 1 22 91 23 92 24
REMARK SMILES IDX 97 25 93 26 95 27 98 28 94 29 96 30 21 31 22 32 23 33 24 34
REMARK SMILES IDX 25 35 26 36 27 38 28 39 29 40 90 41 30 42 89 43 31 44 32 45
REMARK SMILES IDX 33 46 83 47 34 48 88 49 82 50 84 51 35 52 87 53 81 54 80 55
REMARK SMILES IDX 36 57 68 58 48 59 67 60 49 61 52 62 66 63 85 64 50 65 51 66
REMARK SMILES IDX 65 68 86 69 53 70 37 71 38 72 46 73 39 74 45 75 47 76 44 77
REMARK SMILES IDX 40 78 41 79 42 80 43 81 69 82 70 83 78 84 71 85 77 86 79 87
REMARK SMILES IDX 76 88 72 89 73 90 74 91 75 92 54 93 55 94 63 95 56 96 62 97
REMARK SMILES IDX 64 98 61 99 57 100 58 101 59 102 60 103
REMARK H PARENT 18 6 7 15 25 37 84 56 52 67
REMARK Flexibility Score: inf
ROOT
ATOM      1  C   UNL     1       2.462  -2.668   4.349  1.00  0.00     0.021 C 
ENDROOT
BRANCH   1   2
ATOM      2  C   UNL     1       1.453  -3.587   3.676  1.00  0.00     0.116 C 
BRANCH   2   3
ATOM      3  N   UNL     1       2.060  -4.737   3.051  1.00  0.00    -0.352 N 
ATOM      4  C   UNL     1       1.559  -5.988   2.826  1.00  0.00     0.252 C 
ATOM      5  O   UNL     1       2.356  -6.841   2.428  1.00  0.00    -0.269 OA
ATOM      6  H   UNL     1       2.982  -4.597   2.735  1.00  0.00     0.163 HD
BRANCH   4   7
ATOM      7  C   UNL     1       0.157  -6.393   3.113  1.00  0.00     0.052 A 
ATOM      8  C   UNL     1      -1.012  -5.644   2.940  1.00  0.00     0.052 A 
ATOM      9  C   UNL     1      -2.254  -6.192   3.339  1.00  0.00     0.014 A 
ATOM     10  C   UNL     1      -2.354  -7.495   3.824  1.00  0.00     0.001 A 
ATOM     11  C   UNL     1       0.028  -7.723   3.580  1.00  0.00     0.014 A 
ATOM     12  C   UNL     1      -1.210  -8.271   3.925  1.00  0.00     0.001 A 
BRANCH   8  13
ATOM     13  C   UNL     1      -1.146  -4.279   2.398  1.00  0.00     0.252 C 
ATOM     14  N   UNL     1      -0.871  -3.932   1.102  1.00  0.00    -0.345 N 
ATOM     15  H   UNL     1      -1.310  -3.098   0.818  1.00  0.00     0.164 HD
ATOM     16  O   UNL     1      -1.642  -3.424   3.133  1.00  0.00    -0.269 OA
BRANCH  14  17
ATOM     17  C   UNL     1      -0.053  -4.553   0.047  1.00  0.00     0.124 C 
BRANCH  17  18
ATOM     18  C   UNL     1      -0.236  -3.810  -1.279  1.00  0.00     0.152 C 
BRANCH  18  19
ATOM     19  C   UNL     1       0.557  -2.533  -1.292  1.00  0.00     0.307 C 
ATOM     20  O   UNL     1       1.719  -2.457  -1.665  1.00  0.00    -0.252 OA
BRANCH  19  21
ATOM     21  O   UNL     1      -0.201  -1.497  -0.844  1.00  0.00    -0.469 OA
ATOM     22  C   UNL     1       0.408  -0.208  -0.970  1.00  0.00     0.282 C 
ENDBRANCH  19  21
ENDBRANCH  18  19
ENDBRANCH  17  18
BRANCH  17  23
ATOM     23  C   UNL     1      -0.338  -6.031  -0.173  1.00  0.00    -0.022 A 
ATOM     24  C   UNL     1      -1.662  -6.499  -0.082  1.00  0.00     0.006 A 
ATOM     25  C   UNL     1       0.707  -6.958  -0.425  1.00  0.00    -0.043 A 
ATOM     26  C   UNL     1      -1.937  -7.861  -0.064  1.00  0.00     0.001 A 
ATOM     27  C   UNL     1       0.425  -8.343  -0.362  1.00  0.00    -0.048 A 
ATOM     28  C   UNL     1       2.112  -6.510  -0.761  1.00  0.00     0.045 C 
ATOM     29  C   UNL     1      -0.895  -8.775  -0.159  1.00  0.00     0.004 A 
ATOM     30  C   UNL     1       1.512  -9.386  -0.376  1.00  0.00     0.044 C 
ENDBRANCH  17  23
ENDBRANCH  14  17
ENDBRANCH   8  13
ENDBRANCH   4   7
ENDBRANCH   2   3
ENDBRANCH   1   2
BRANCH   1  31
ATOM     31  C   UNL     1       3.436  -1.951   3.405  1.00  0.00     0.002 C 
BRANCH  31  32
ATOM     32  C   UNL     1       2.833  -1.217   2.203  1.00  0.00     0.002 C 
BRANCH  32  33
ATOM     33  C   UNL     1       1.662  -0.275   2.484  1.00  0.00     0.021 C 
BRANCH  33  34
ATOM     34  C   UNL     1       1.855   0.735   3.605  1.00  0.00     0.116 C 
BRANCH  34  35
ATOM     35  N   UNL     1       2.985   1.615   3.376  1.00  0.00    -0.352 N 
ATOM     36  C   UNL     1       3.048   2.985   3.334  1.00  0.00     0.251 C 
ATOM     37  H   UNL     1       3.843   1.156   3.226  1.00  0.00     0.163 HD
ATOM     38  O   UNL     1       4.089   3.521   2.961  1.00  0.00    -0.269 OA
BRANCH  36  39
ATOM     39  C   UNL     1       1.874   3.817   3.696  1.00  0.00     0.039 A 
ATOM     40  C   UNL     1       1.629   4.980   2.961  1.00  0.00     0.014 A 
ATOM     41  C   UNL     1       1.035   3.486   4.764  1.00  0.00     0.014 A 
ATOM     42  C   UNL     1       0.519   5.776   3.259  1.00  0.00     0.010 A 
ATOM     43  C   UNL     1      -0.119   4.230   5.003  1.00  0.00     0.010 A 
ATOM     44  C   UNL     1      -0.385   5.390   4.262  1.00  0.00    -0.014 A 
BRANCH  44  45
ATOM     45  C   UNL     1      -1.595   6.200   4.564  1.00  0.00     0.031 A 
ATOM     46  C   UNL     1      -1.762   6.831   5.921  1.00  0.00     0.074 A 
ATOM     47  C   UNL     1      -2.570   6.318   3.640  1.00  0.00     0.049 A 
ATOM     48  N   UNL     1      -2.774   7.505   6.406  1.00  0.00    -0.248 NA
ATOM     49  C   UNL     1      -0.653   6.650   6.871  1.00  0.00     0.031 C 
ATOM     50  C   UNL     1      -2.544   5.716   2.305  1.00  0.00     0.029 A 
ATOM     51  N   UNL     1      -3.774   6.974   3.684  1.00  0.00    -0.354 N 
ATOM     52  C   UNL     1      -2.434   7.809   7.720  1.00  0.00     0.074 A 
ATOM     53  C   UNL     1      -1.151   7.190   7.973  1.00  0.00     0.031 C 
ATOM     54  C   UNL     1      -3.667   6.051   1.650  1.00  0.00     0.029 A 
ATOM     55  C   UNL     1      -4.513   6.851   2.530  1.00  0.00     0.049 A 
ATOM     56  H   UNL     1      -4.081   7.485   4.468  1.00  0.00     0.167 HD
ATOM     57  C   UNL     1      -3.118   8.555   8.625  1.00  0.00     0.034 A 
ATOM     58  C   UNL     1      -5.739   7.318   2.220  1.00  0.00     0.034 A 
ATOM     59  C   UNL     1      -4.389   9.180   8.348  1.00  0.00     0.049 A 
ATOM     60  C   UNL     1      -6.486   8.135   3.242  1.00  0.00     0.074 A 
ATOM     61  C   UNL     1      -5.140  10.008   9.165  1.00  0.00     0.029 A 
ATOM     62  N   UNL     1      -5.105   9.038   7.165  1.00  0.00    -0.354 N 
ATOM     63  N   UNL     1      -6.128   8.459   4.463  1.00  0.00    -0.248 NA
ATOM     64  C   UNL     1      -7.797   8.659   2.839  1.00  0.00     0.031 C 
ATOM     65  C   UNL     1      -6.336  10.311   8.504  1.00  0.00     0.029 A 
ATOM     66  C   UNL     1      -6.301   9.736   7.243  1.00  0.00     0.049 A 
ATOM     67  H   UNL     1      -4.806   8.517   6.385  1.00  0.00     0.167 HD
ATOM     68  C   UNL     1      -7.160   9.247   4.965  1.00  0.00     0.074 A 
ATOM     69  C   UNL     1      -8.144   9.362   3.907  1.00  0.00     0.031 C 
ATOM     70  C   UNL     1      -7.282   9.826   6.187  1.00  0.00     0.034 A 
BRANCH  57  71
ATOM     71  C   UNL     1      -2.509   8.708  10.001  1.00  0.00     0.023 A 
ATOM     72  C   UNL     1      -1.257   9.320  10.193  1.00  0.00     0.031 A 
ATOM     73  C   UNL     1      -3.168   8.198  11.133  1.00  0.00     0.131 A 
ATOM     74  C   UNL     1      -0.666   9.326  11.465  1.00  0.00     0.055 A 
ATOM     75  C   UNL     1      -2.613   8.287  12.412  1.00  0.00     0.041 A 
ATOM     76  F   UNL     1      -4.356   7.585  11.015  1.00  0.00    -0.206 F 
ATOM     77  C   UNL     1      -1.346   8.837  12.582  1.00  0.00     0.022 A 
BRANCH  74  78
ATOM     78  S   UNL     1       1.070   9.834  11.610  1.00  0.00     0.124 S 
ATOM     79  O   UNL     1       1.729   8.890  10.709  1.00  0.00    -0.237 OA
ATOM     80  O   UNL     1       1.031  11.222  11.164  1.00  0.00    -0.237 OA
ATOM     81  O   UNL     1       1.367   9.641  13.027  1.00  0.00    -0.744 OA
ENDBRANCH  74  78
ENDBRANCH  57  71
BRANCH  58  82
ATOM     82  C   UNL     1      -6.342   7.021   0.889  1.00  0.00     0.023 A 
ATOM     83  C   UNL     1      -6.587   8.044  -0.040  1.00  0.00     0.031 A 
ATOM     84  C   UNL     1      -6.705   5.708   0.536  1.00  0.00     0.131 A 
ATOM     85  C   UNL     1      -7.213   7.746  -1.260  1.00  0.00     0.055 A 
ATOM     86  C   UNL     1      -7.282   5.409  -0.699  1.00  0.00     0.041 A 
ATOM     87  F   UNL     1      -6.485   4.691   1.385  1.00  0.00    -0.206 F 
ATOM     88  C   UNL     1      -7.551   6.434  -1.601  1.00  0.00     0.022 A 
BRANCH  85  89
ATOM     89  S   UNL     1      -7.645   9.112  -2.372  1.00  0.00     0.124 S 
ATOM     90  O   UNL     1      -8.524   9.915  -1.530  1.00  0.00    -0.237 OA
ATOM     91  O   UNL     1      -6.337   9.687  -2.668  1.00  0.00    -0.237 OA
ATOM     92  O   UNL     1      -8.297   8.443  -3.496  1.00  0.00    -0.744 OA
ENDBRANCH  85  89
ENDBRANCH  58  82
BRANCH  70  93
ATOM     93  C   UNL     1      -8.513  10.667   6.423  1.00  0.00     0.023 A 
ATOM     94  C   UNL     1      -9.799  10.100   6.473  1.00  0.00     0.031 A 
ATOM     95  C   UNL     1      -8.398  12.060   6.583  1.00  0.00     0.131 A 
ATOM     96  C   UNL     1     -10.922  10.928   6.619  1.00  0.00     0.055 A 
ATOM     97  C   UNL     1      -9.514  12.871   6.791  1.00  0.00     0.041 A 
ATOM     98  F   UNL     1      -7.195  12.655   6.542  1.00  0.00    -0.206 F 
ATOM     99  C   UNL     1     -10.787  12.307   6.795  1.00  0.00     0.022 A 
BRANCH  96 100
ATOM    100  S   UNL     1     -12.573  10.188   6.479  1.00  0.00     0.124 S 
ATOM    101  O   UNL     1     -12.529   9.600   5.144  1.00  0.00    -0.237 OA
ATOM    102  O   UNL     1     -12.588   9.245   7.592  1.00  0.00    -0.237 OA
ATOM    103  O   UNL     1     -13.474  11.331   6.624  1.00  0.00    -0.744 OA
ENDBRANCH  96 100
ENDBRANCH  70  93
ENDBRANCH  44  45
ENDBRANCH  36  39
ENDBRANCH  34  35
ENDBRANCH  33  34
ENDBRANCH  32  33
ENDBRANCH  31  32
ENDBRANCH   1  31
TORSDOF 22
