REMARK SMILES COc1ccc(/C=N/Nc2cccc(C(=O)NCCCCCCNC(=O)c3ccc(-c4c5nc(c(-c6cc(S(=O)(=O)[O-])ccc6F)c6ccc([nH]6)c(-c6cc(S(=O)(=O)[O-])ccc6F)c6nc(c(-c7cc(S(=O)(=O)[O-])ccc7F)c7ccc4[nH]7)C=C6)C=C5)cc3)c2)cc1O
REMARK SMILES IDX 20 1 19 2 18 3 17 4 15 5 16 6 14 8 10 9 11 10 90 11 12 12
REMARK SMILES IDX 13 13 9 14 8 16 7 17 6 18 3 19 4 20 92 21 5 22 91 23 2 24
REMARK SMILES IDX 1 25 93 26 21 28 22 29 23 30 24 31 25 32 26 34 27 35 28 36
REMARK SMILES IDX 89 37 29 38 88 39 30 40 31 41 32 42 82 43 33 44 87 45 81 46
REMARK SMILES IDX 83 47 34 48 86 49 80 50 79 51 35 53 67 54 47 55 66 56 48 57
REMARK SMILES IDX 51 58 65 59 84 60 49 61 50 62 64 64 85 65 52 66 36 67 37 68
REMARK SMILES IDX 45 69 38 70 44 71 46 72 43 73 39 74 40 75 41 76 42 77 68 78
REMARK SMILES IDX 69 79 77 80 70 81 76 82 78 83 75 84 71 85 72 86 73 87 74 88
REMARK SMILES IDX 53 89 54 90 62 91 55 92 61 93 63 94 60 95 56 96 57 97 58 98
REMARK SMILES IDX 59 99
REMARK H PARENT 17 7 9 15 93 27 24 33 83 52 51 63
REMARK Flexibility Score: inf
ROOT
ATOM      1  C   UNL     1       4.756  -6.025   4.550  1.00  0.00     0.002 C 
ENDROOT
BRANCH   1   2
ATOM      2  C   UNL     1       3.264  -6.110   4.896  1.00  0.00     0.021 C 
BRANCH   2   3
ATOM      3  C   UNL     1       2.403  -6.490   3.689  1.00  0.00     0.116 C 
BRANCH   3   4
ATOM      4  N   UNL     1       2.357  -7.933   3.546  1.00  0.00    -0.352 N 
ATOM      5  C   UNL     1       1.456  -8.887   3.942  1.00  0.00     0.251 C 
ATOM      6  O   UNL     1       1.742 -10.061   3.697  1.00  0.00    -0.269 OA
ATOM      7  H   UNL     1       3.133  -8.303   3.065  1.00  0.00     0.163 HD
BRANCH   5   8
ATOM      8  C   UNL     1       0.137  -8.583   4.572  1.00  0.00     0.041 A 
ATOM      9  C   UNL     1      -1.505  -7.106   5.612  1.00  0.00     0.057 A 
ATOM     10  C   UNL     1      -2.472  -8.109   5.503  1.00  0.00     0.028 A 
ATOM     11  C   UNL     1      -0.190  -7.390   5.216  1.00  0.00     0.041 A 
ATOM     12  C   UNL     1      -2.146  -9.346   4.949  1.00  0.00     0.003 A 
ATOM     13  C   UNL     1      -0.856  -9.570   4.465  1.00  0.00     0.014 A 
BRANCH   9  14
ATOM     14  N   UNL     1      -1.904  -5.800   5.955  1.00  0.00    -0.278 N 
ATOM     15  H   UNL     1      -2.644  -5.696   6.596  1.00  0.00     0.190 HD
BRANCH  14  16
ATOM     16  N   UNL     1      -1.327  -4.668   5.454  1.00  0.00    -0.183 NA
ATOM     17  C   UNL     1      -1.183  -4.628   4.163  1.00  0.00     0.141 C 
BRANCH  17  18
ATOM     18  C   UNL     1      -0.600  -3.474   3.452  1.00  0.00    -0.002 A 
ATOM     19  C   UNL     1       0.505  -1.321   2.035  1.00  0.00     0.160 A 
ATOM     20  C   UNL     1      -0.032  -1.129   3.312  1.00  0.00     0.051 A 
ATOM     21  C   UNL     1       0.518  -2.610   1.496  1.00  0.00     0.158 A 
ATOM     22  C   UNL     1      -0.575  -2.203   4.029  1.00  0.00     0.014 A 
ATOM     23  C   UNL     1      -0.066  -3.678   2.177  1.00  0.00     0.060 A 
BRANCH  19  24
ATOM     24  O   UNL     1       1.065  -0.218   1.455  1.00  0.00    -0.493 OA
ATOM     25  C   UNL     1       0.783  -0.013   0.071  1.00  0.00     0.278 C 
ENDBRANCH  19  24
BRANCH  21  26
ATOM     26  O   UNL     1       1.161  -2.913   0.329  1.00  0.00    -0.504 OA
ATOM     27  H   UNL     1       1.572  -2.234  -0.170  1.00  0.00     0.293 HD
ENDBRANCH  21  26
ENDBRANCH  17  18
ENDBRANCH  14  16
ENDBRANCH   9  14
ENDBRANCH   5   8
ENDBRANCH   3   4
ENDBRANCH   2   3
ENDBRANCH   1   2
BRANCH   1  28
ATOM     28  C   UNL     1       5.114  -4.907   3.563  1.00  0.00     0.002 C 
BRANCH  28  29
ATOM     29  C   UNL     1       4.686  -3.501   3.998  1.00  0.00     0.021 C 
BRANCH  29  30
ATOM     30  C   UNL     1       5.314  -3.034   5.308  1.00  0.00     0.116 C 
BRANCH  30  31
ATOM     31  N   UNL     1       6.762  -2.953   5.202  1.00  0.00    -0.352 N 
ATOM     32  C   UNL     1       7.590  -1.871   5.366  1.00  0.00     0.251 C 
ATOM     33  H   UNL     1       7.215  -3.799   4.980  1.00  0.00     0.163 HD
ATOM     34  O   UNL     1       8.747  -1.929   4.965  1.00  0.00    -0.269 OA
BRANCH  32  35
ATOM     35  C   UNL     1       7.082  -0.642   6.014  1.00  0.00     0.039 A 
ATOM     36  C   UNL     1       7.454   0.599   5.493  1.00  0.00     0.014 A 
ATOM     37  C   UNL     1       6.274  -0.712   7.153  1.00  0.00     0.014 A 
ATOM     38  C   UNL     1       6.978   1.769   6.088  1.00  0.00     0.010 A 
ATOM     39  C   UNL     1       5.744   0.453   7.702  1.00  0.00     0.010 A 
ATOM     40  C   UNL     1       6.099   1.706   7.182  1.00  0.00    -0.014 A 
BRANCH  40  41
ATOM     41  C   UNL     1       5.559   2.946   7.797  1.00  0.00     0.031 A 
ATOM     42  C   UNL     1       5.921   3.308   9.212  1.00  0.00     0.074 A 
ATOM     43  C   UNL     1       4.711   3.720   7.093  1.00  0.00     0.049 A 
ATOM     44  N   UNL     1       5.530   4.329   9.932  1.00  0.00    -0.248 NA
ATOM     45  C   UNL     1       6.820   2.384   9.920  1.00  0.00     0.031 C 
ATOM     46  C   UNL     1       4.251   3.445   5.730  1.00  0.00     0.029 A 
ATOM     47  N   UNL     1       4.084   4.895   7.423  1.00  0.00    -0.354 N 
ATOM     48  C   UNL     1       6.128   4.167  11.178  1.00  0.00     0.074 A 
ATOM     49  C   UNL     1       6.851   2.914  11.133  1.00  0.00     0.031 C 
ATOM     50  C   UNL     1       3.441   4.437   5.330  1.00  0.00     0.029 A 
ATOM     51  C   UNL     1       3.290   5.398   6.418  1.00  0.00     0.049 A 
ATOM     52  H   UNL     1       4.192   5.336   8.296  1.00  0.00     0.167 HD
ATOM     53  C   UNL     1       6.097   4.998  12.250  1.00  0.00     0.034 A 
ATOM     54  C   UNL     1       2.523   6.505   6.381  1.00  0.00     0.034 A 
ATOM     55  C   UNL     1       5.374   6.247  12.273  1.00  0.00     0.049 A 
ATOM     56  C   UNL     1       2.492   7.406   7.590  1.00  0.00     0.074 A 
ATOM     57  C   UNL     1       5.314   7.192  13.283  1.00  0.00     0.029 A 
ATOM     58  N   UNL     1       4.576   6.724  11.239  1.00  0.00    -0.354 N 
ATOM     59  N   UNL     1       3.109   7.268   8.741  1.00  0.00    -0.248 NA
ATOM     60  C   UNL     1       1.671   8.618   7.487  1.00  0.00     0.031 C 
ATOM     61  C   UNL     1       4.429   8.203  12.888  1.00  0.00     0.029 A 
ATOM     62  C   UNL     1       3.996   7.932  11.600  1.00  0.00     0.049 A 
ATOM     63  H   UNL     1       4.442   6.271  10.376  1.00  0.00     0.167 HD
ATOM     64  C   UNL     1       2.768   8.391   9.490  1.00  0.00     0.074 A 
ATOM     65  C   UNL     1       1.915   9.205   8.648  1.00  0.00     0.031 C 
ATOM     66  C   UNL     1       3.127   8.721  10.758  1.00  0.00     0.034 A 
BRANCH  53  67
ATOM     67  C   UNL     1       6.847   4.562  13.488  1.00  0.00     0.023 A 
ATOM     68  C   UNL     1       8.241   4.372  13.478  1.00  0.00     0.031 A 
ATOM     69  C   UNL     1       6.158   4.299  14.685  1.00  0.00     0.131 A 
ATOM     70  C   UNL     1       8.887   3.857  14.612  1.00  0.00     0.055 A 
ATOM     71  C   UNL     1       6.821   3.868  15.837  1.00  0.00     0.041 A 
ATOM     72  F   UNL     1       4.825   4.442  14.753  1.00  0.00    -0.206 F 
ATOM     73  C   UNL     1       8.191   3.628  15.800  1.00  0.00     0.022 A 
BRANCH  70  74
ATOM     74  S   UNL     1      10.623   3.349  14.463  1.00  0.00     0.124 S 
ATOM     75  O   UNL     1      10.547   2.350  13.400  1.00  0.00    -0.237 OA
ATOM     76  O   UNL     1      11.289   4.600  14.119  1.00  0.00    -0.237 OA
ATOM     77  O   UNL     1      10.939   2.817  15.787  1.00  0.00    -0.744 OA
ENDBRANCH  70  74
ENDBRANCH  53  67
BRANCH  54  78
ATOM     78  C   UNL     1       1.721   6.830   5.167  1.00  0.00     0.023 A 
ATOM     79  C   UNL     1       1.989   7.981   4.410  1.00  0.00     0.031 A 
ATOM     80  C   UNL     1       0.647   6.014   4.770  1.00  0.00     0.131 A 
ATOM     81  C   UNL     1       1.163   8.312   3.324  1.00  0.00     0.055 A 
ATOM     82  C   UNL     1      -0.139   6.319   3.657  1.00  0.00     0.041 A 
ATOM     83  F   UNL     1       0.352   4.897   5.455  1.00  0.00    -0.206 F 
ATOM     84  C   UNL     1       0.109   7.482   2.935  1.00  0.00     0.022 A 
BRANCH  81  85
ATOM     85  S   UNL     1       1.437   9.891   2.474  1.00  0.00     0.124 S 
ATOM     86  O   UNL     1       1.285  10.846   3.565  1.00  0.00    -0.237 OA
ATOM     87  O   UNL     1       2.789   9.722   1.952  1.00  0.00    -0.237 OA
ATOM     88  O   UNL     1       0.381   9.921   1.465  1.00  0.00    -0.744 OA
ENDBRANCH  81  85
ENDBRANCH  54  78
BRANCH  66  89
ATOM     89  C   UNL     1       2.612  10.038  11.288  1.00  0.00     0.023 A 
ATOM     90  C   UNL     1       1.239  10.264  11.494  1.00  0.00     0.031 A 
ATOM     91  C   UNL     1       3.501  11.094  11.554  1.00  0.00     0.131 A 
ATOM     92  C   UNL     1       0.789  11.534  11.882  1.00  0.00     0.055 A 
ATOM     93  C   UNL     1       3.053  12.336  12.007  1.00  0.00     0.041 A 
ATOM     94  F   UNL     1       4.822  10.938  11.373  1.00  0.00    -0.206 F 
ATOM     95  C   UNL     1       1.689  12.567  12.156  1.00  0.00     0.022 A 
BRANCH  92  96
ATOM     96  S   UNL     1      -0.997  11.853  11.909  1.00  0.00     0.124 S 
ATOM     97  O   UNL     1      -1.384  11.527  10.541  1.00  0.00    -0.237 OA
ATOM     98  O   UNL     1      -1.462  10.932  12.940  1.00  0.00    -0.237 OA
ATOM     99  O   UNL     1      -1.087  13.270  12.258  1.00  0.00    -0.744 OA
ENDBRANCH  92  96
ENDBRANCH  66  89
ENDBRANCH  40  41
ENDBRANCH  32  35
ENDBRANCH  30  31
ENDBRANCH  29  30
ENDBRANCH  28  29
ENDBRANCH   1  28
TORSDOF 21
