REMARK SMILES COc1ccc(S(=O)(=O)Nc2c(C)cccc2C(=O)NCCCCCCNC(=O)c2ccc(-c3c4nc(c(-c5cc(S(=O)(=O)[O-])ccc5F)c5ccc([nH]5)c(-c5cc(S(=O)(=O)[O-])ccc5F)c5nc(c(-c6cc(S(=O)(=O)[O-])ccc6F)c6ccc3[nH]6)C=C5)C=C4)cc2)cc1
REMARK SMILES IDX 23 1 22 2 21 3 20 4 18 5 19 6 17 8 11 9 12 10 13 11 14 12
REMARK SMILES IDX 16 13 15 14 10 15 7 17 8 18 9 19 6 20 3 21 4 22 94 23 5 24
REMARK SMILES IDX 93 25 2 26 1 27 24 28 25 29 26 30 27 31 28 32 29 34 30 35
REMARK SMILES IDX 31 36 92 37 32 38 91 39 33 40 34 41 35 42 85 43 36 44 90 45
REMARK SMILES IDX 84 46 86 47 37 48 89 49 83 50 82 51 38 53 70 54 50 55 69 56
REMARK SMILES IDX 51 57 54 58 68 59 87 60 52 61 53 62 67 64 88 65 55 66 39 67
REMARK SMILES IDX 40 68 48 69 41 70 47 71 49 72 46 73 42 74 43 75 44 76 45 77
REMARK SMILES IDX 71 78 72 79 80 80 73 81 79 82 81 83 78 84 74 85 75 86 76 87
REMARK SMILES IDX 77 88 56 89 57 90 65 91 58 92 64 93 66 94 63 95 59 96 60 97
REMARK SMILES IDX 61 98 62 99
REMARK H PARENT 20 7 10 16 27 33 86 52 54 63
REMARK Flexibility Score: inf
ROOT
ATOM      1  C   UNL     1       2.496  -5.368   8.200  1.00  0.00     0.002 C 
ENDROOT
BRANCH   1   2
ATOM      2  C   UNL     1       3.837  -5.560   7.480  1.00  0.00     0.021 C 
BRANCH   2   3
ATOM      3  C   UNL     1       3.879  -5.183   6.002  1.00  0.00     0.116 C 
BRANCH   3   4
ATOM      4  N   UNL     1       3.433  -3.832   5.726  1.00  0.00    -0.352 N 
ATOM      5  C   UNL     1       3.608  -3.073   4.599  1.00  0.00     0.253 C 
ATOM      6  O   UNL     1       3.160  -1.928   4.572  1.00  0.00    -0.269 OA
ATOM      7  H   UNL     1       2.932  -3.397   6.453  1.00  0.00     0.163 HD
BRANCH   5   8
ATOM      8  C   UNL     1       4.407  -3.555   3.446  1.00  0.00     0.064 A 
ATOM      9  C   UNL     1       4.248  -4.790   2.789  1.00  0.00     0.064 A 
ATOM     10  C   UNL     1       5.218  -5.182   1.831  1.00  0.00    -0.026 A 
ATOM     11  C   UNL     1       5.272  -6.557   1.212  1.00  0.00     0.046 C 
ATOM     12  C   UNL     1       6.183  -4.254   1.400  1.00  0.00     0.005 A 
ATOM     13  C   UNL     1       5.382  -2.646   2.991  1.00  0.00     0.016 A 
ATOM     14  C   UNL     1       6.246  -2.982   1.955  1.00  0.00     0.001 A 
BRANCH   9  15
ATOM     15  N   UNL     1       3.166  -5.696   3.058  1.00  0.00    -0.279 N 
ATOM     16  H   UNL     1       3.386  -6.586   3.418  1.00  0.00     0.180 HD
BRANCH  15  17
ATOM     17  S   UNL     1       1.534  -5.328   2.795  1.00  0.00     0.261 S 
ATOM     18  O   UNL     1       0.879  -5.475   4.074  1.00  0.00    -0.201 OA
ATOM     19  O   UNL     1       1.152  -6.179   1.682  1.00  0.00    -0.201 OA
BRANCH  17  20
ATOM     20  C   UNL     1       1.292  -3.667   2.240  1.00  0.00     0.088 A 
ATOM     21  C   UNL     1       0.735  -1.082   1.324  1.00  0.00     0.118 A 
ATOM     22  C   UNL     1      -0.009  -1.631   2.369  1.00  0.00     0.048 A 
ATOM     23  C   UNL     1       1.767  -1.828   0.747  1.00  0.00     0.048 A 
ATOM     24  C   UNL     1       0.266  -2.918   2.831  1.00  0.00     0.026 A 
ATOM     25  C   UNL     1       2.024  -3.134   1.179  1.00  0.00     0.026 A 
BRANCH  21  26
ATOM     26  O   UNL     1       0.364   0.182   0.956  1.00  0.00    -0.497 OA
ATOM     27  C   UNL     1       0.805   0.613  -0.324  1.00  0.00     0.278 C 
ENDBRANCH  21  26
ENDBRANCH  17  20
ENDBRANCH  15  17
ENDBRANCH   9  15
ENDBRANCH   5   8
ENDBRANCH   3   4
ENDBRANCH   2   3
ENDBRANCH   1   2
BRANCH   1  28
ATOM     28  C   UNL     1       1.234  -5.871   7.496  1.00  0.00     0.002 C 
BRANCH  28  29
ATOM     29  C   UNL     1       1.225  -7.330   7.035  1.00  0.00     0.021 C 
BRANCH  29  30
ATOM     30  C   UNL     1       1.592  -8.367   8.089  1.00  0.00     0.116 C 
BRANCH  30  31
ATOM     31  N   UNL     1       0.763  -8.293   9.280  1.00  0.00    -0.352 N 
ATOM     32  C   UNL     1       0.189  -9.303  10.012  1.00  0.00     0.251 C 
ATOM     33  H   UNL     1       0.587  -7.383   9.611  1.00  0.00     0.163 HD
ATOM     34  O   UNL     1      -0.571  -9.023  10.935  1.00  0.00    -0.269 OA
BRANCH  32  35
ATOM     35  C   UNL     1       0.451 -10.719   9.668  1.00  0.00     0.039 A 
ATOM     36  C   UNL     1      -0.627 -11.609   9.641  1.00  0.00     0.014 A 
ATOM     37  C   UNL     1       1.739 -11.174   9.373  1.00  0.00     0.014 A 
ATOM     38  C   UNL     1      -0.426 -12.934   9.246  1.00  0.00     0.010 A 
ATOM     39  C   UNL     1       1.927 -12.477   8.915  1.00  0.00     0.010 A 
ATOM     40  C   UNL     1       0.845 -13.368   8.838  1.00  0.00    -0.014 A 
BRANCH  40  41
ATOM     41  C   UNL     1       1.057 -14.739   8.304  1.00  0.00     0.031 A 
ATOM     42  C   UNL     1       1.939 -15.710   9.037  1.00  0.00     0.074 A 
ATOM     43  C   UNL     1       0.510 -15.080   7.121  1.00  0.00     0.049 A 
ATOM     44  N   UNL     1       2.321 -16.911   8.686  1.00  0.00    -0.248 NA
ATOM     45  C   UNL     1       2.486 -15.257  10.324  1.00  0.00     0.031 C 
ATOM     46  C   UNL     1      -0.338 -14.210   6.302  1.00  0.00     0.029 A 
ATOM     47  N   UNL     1       0.593 -16.241   6.393  1.00  0.00    -0.354 N 
ATOM     48  C   UNL     1       3.161 -17.355   9.701  1.00  0.00     0.074 A 
ATOM     49  C   UNL     1       3.277 -16.268  10.651  1.00  0.00     0.031 C 
ATOM     50  C   UNL     1      -0.712 -14.874   5.197  1.00  0.00     0.029 A 
ATOM     51  C   UNL     1      -0.091 -16.194   5.199  1.00  0.00     0.049 A 
ATOM     52  H   UNL     1       1.095 -17.032   6.696  1.00  0.00     0.167 HD
ATOM     53  C   UNL     1       3.762 -18.565   9.837  1.00  0.00     0.034 A 
ATOM     54  C   UNL     1      -0.189 -17.104   4.209  1.00  0.00     0.034 A 
ATOM     55  C   UNL     1       3.630 -19.637   8.880  1.00  0.00     0.049 A 
ATOM     56  C   UNL     1       0.530 -18.420   4.357  1.00  0.00     0.074 A 
ATOM     57  C   UNL     1       4.140 -20.922   8.947  1.00  0.00     0.029 A 
ATOM     58  N   UNL     1       2.950 -19.546   7.671  1.00  0.00    -0.354 N 
ATOM     59  N   UNL     1       1.278 -18.845   5.349  1.00  0.00    -0.248 NA
ATOM     60  C   UNL     1       0.389 -19.378   3.253  1.00  0.00     0.031 C 
ATOM     61  C   UNL     1       3.833 -21.581   7.751  1.00  0.00     0.029 A 
ATOM     62  C   UNL     1       3.066 -20.735   6.966  1.00  0.00     0.049 A 
ATOM     63  H   UNL     1       2.457 -18.753   7.360  1.00  0.00     0.167 HD
ATOM     64  C   UNL     1       1.683 -20.128   4.994  1.00  0.00     0.074 A 
ATOM     65  C   UNL     1       1.078 -20.414   3.709  1.00  0.00     0.031 C 
ATOM     66  C   UNL     1       2.482 -20.994   5.670  1.00  0.00     0.034 A 
BRANCH  53  67
ATOM     67  C   UNL     1       4.639 -18.771  11.050  1.00  0.00     0.023 A 
ATOM     68  C   UNL     1       4.121 -18.709  12.356  1.00  0.00     0.031 A 
ATOM     69  C   UNL     1       6.019 -19.001  10.903  1.00  0.00     0.131 A 
ATOM     70  C   UNL     1       4.985 -18.790  13.459  1.00  0.00     0.055 A 
ATOM     71  C   UNL     1       6.861 -19.166  12.005  1.00  0.00     0.041 A 
ATOM     72  F   UNL     1       6.577 -19.052   9.683  1.00  0.00    -0.206 F 
ATOM     73  C   UNL     1       6.348 -19.043  13.293  1.00  0.00     0.022 A 
BRANCH  70  74
ATOM     74  S   UNL     1       4.327 -18.403  15.104  1.00  0.00     0.124 S 
ATOM     75  O   UNL     1       3.818 -17.048  14.907  1.00  0.00    -0.237 OA
ATOM     76  O   UNL     1       3.322 -19.443  15.294  1.00  0.00    -0.237 OA
ATOM     77  O   UNL     1       5.497 -18.500  15.974  1.00  0.00    -0.744 OA
ENDBRANCH  70  74
ENDBRANCH  53  67
BRANCH  54  78
ATOM     78  C   UNL     1      -0.975 -16.797   2.980  1.00  0.00     0.023 A 
ATOM     79  C   UNL     1      -2.130 -17.527   2.660  1.00  0.00     0.031 A 
ATOM     80  C   UNL     1      -0.563 -15.789   2.089  1.00  0.00     0.131 A 
ATOM     81  C   UNL     1      -2.813 -17.266   1.462  1.00  0.00     0.055 A 
ATOM     82  C   UNL     1      -1.276 -15.498   0.924  1.00  0.00     0.041 A 
ATOM     83  F   UNL     1       0.534 -15.060   2.348  1.00  0.00    -0.206 F 
ATOM     84  C   UNL     1      -2.402 -16.247   0.599  1.00  0.00     0.022 A 
BRANCH  81  85
ATOM     85  S   UNL     1      -4.207 -18.333   1.007  1.00  0.00     0.124 S 
ATOM     86  O   UNL     1      -3.575 -19.646   0.963  1.00  0.00    -0.237 OA
ATOM     87  O   UNL     1      -5.136 -18.104   2.109  1.00  0.00    -0.237 OA
ATOM     88  O   UNL     1      -4.634 -17.802  -0.286  1.00  0.00    -0.744 OA
ENDBRANCH  81  85
ENDBRANCH  54  78
BRANCH  66  89
ATOM     89  C   UNL     1       2.727 -22.337   5.027  1.00  0.00     0.023 A 
ATOM     90  C   UNL     1       3.469 -22.459   3.839  1.00  0.00     0.031 A 
ATOM     91  C   UNL     1       2.201 -23.508   5.602  1.00  0.00     0.131 A 
ATOM     92  C   UNL     1       3.620 -23.716   3.235  1.00  0.00     0.055 A 
ATOM     93  C   UNL     1       2.406 -24.763   5.029  1.00  0.00     0.041 A 
ATOM     94  F   UNL     1       1.482 -23.450   6.734  1.00  0.00    -0.206 F 
ATOM     95  C   UNL     1       3.108 -24.871   3.831  1.00  0.00     0.022 A 
BRANCH  92  96
ATOM     96  S   UNL     1       4.423 -23.811   1.611  1.00  0.00     0.124 S 
ATOM     97  O   UNL     1       3.549 -22.979   0.791  1.00  0.00    -0.237 OA
ATOM     98  O   UNL     1       5.749 -23.266   1.885  1.00  0.00    -0.237 OA
ATOM     99  O   UNL     1       4.394 -25.239   1.297  1.00  0.00    -0.744 OA
ENDBRANCH  92  96
ENDBRANCH  66  89
ENDBRANCH  40  41
ENDBRANCH  32  35
ENDBRANCH  30  31
ENDBRANCH  29  30
ENDBRANCH  28  29
ENDBRANCH   1  28
TORSDOF 20
