REMARK SMILES CC[N@@H+](CCC(=O)NCCCCCCNC(=O)c1ccc(-c2c3nc(c(-c4cc(S(=O)(=O)[O-])ccc4F)c4ccc([nH]4)c(-c4cc(S(=O)(=O)[O-])ccc4F)c4nc(c(-c5cc(S(=O)(=O)[O-])ccc5F)c5ccc2[nH]5)C=C4)C=C3)cc1)[C@@H]1CS[C@@H](C)C1
REMARK SMILES IDX 11 1 10 2 9 3 8 4 6 5 7 6 5 8 4 9 3 10 2 12 1 13 81 14 82 15
REMARK SMILES IDX 86 16 83 17 84 18 85 19 12 20 13 21 14 22 15 23 16 24 17 26
REMARK SMILES IDX 18 27 19 28 80 29 20 30 79 31 21 32 22 33 23 34 73 35 24 36
REMARK SMILES IDX 78 37 72 38 74 39 25 40 77 41 71 42 70 43 26 45 58 46 38 47
REMARK SMILES IDX 57 48 39 49 42 50 56 51 75 52 40 53 41 54 55 56 76 57 43 58
REMARK SMILES IDX 27 59 28 60 36 61 29 62 35 63 37 64 34 65 30 66 31 67 32 68
REMARK SMILES IDX 33 69 59 70 60 71 68 72 61 73 67 74 69 75 66 76 62 77 63 78
REMARK SMILES IDX 64 79 65 80 44 81 45 82 53 83 46 84 52 85 54 86 51 87 47 88
REMARK SMILES IDX 48 89 49 90 50 91
REMARK H PARENT 8 7 3 11 15 25 74 44 42 55
REMARK Flexibility Score: inf
ROOT
ATOM      1  C   UNL     1       4.396   0.305  -0.959  1.00  0.00     0.002 C 
ENDROOT
BRANCH   1   2
ATOM      2  C   UNL     1       2.933   0.196  -1.391  1.00  0.00     0.021 C 
BRANCH   2   3
ATOM      3  C   UNL     1       2.661  -0.427  -2.763  1.00  0.00     0.116 C 
BRANCH   3   4
ATOM      4  N   UNL     1       3.181  -1.779  -2.916  1.00  0.00    -0.356 N 
ATOM      5  C   UNL     1       2.556  -2.992  -2.965  1.00  0.00     0.225 C 
ATOM      6  O   UNL     1       3.252  -3.995  -3.140  1.00  0.00    -0.275 OA
ATOM      7  H   UNL     1       4.160  -1.827  -2.999  1.00  0.00     0.163 HD
BRANCH   5   8
ATOM      8  C   UNL     1       1.060  -3.121  -2.781  1.00  0.00     0.161 C 
BRANCH   8   9
ATOM      9  C   UNL     1       0.640  -3.736  -1.431  1.00  0.00     0.272 C 
BRANCH   9  10
ATOM     10  N   UNL     1       0.943  -2.977  -0.185  1.00  0.00    -0.332 N 
ATOM     11  H   UNL     1       0.628  -3.324   0.721  1.00  0.00     0.348 HD
BRANCH  10  12
ATOM     12  C   UNL     1       0.112  -1.768  -0.147  1.00  0.00     0.259 C 
ATOM     13  C   UNL     1       0.247  -0.604   0.827  1.00  0.00     0.071 C 
ENDBRANCH  10  12
BRANCH  10  14
ATOM     14  C   UNL     1       2.349  -3.148   0.244  1.00  0.00     0.195 C 
ATOM     15  C   UNL     1       2.611  -4.654   0.565  1.00  0.00     0.134 C 
ATOM     16  C   UNL     1       2.950  -2.413   1.449  1.00  0.00     0.080 C 
ATOM     17  S   UNL     1       3.991  -4.795   1.735  1.00  0.00    -0.152 SA
ATOM     18  C   UNL     1       4.348  -3.022   1.724  1.00  0.00     0.049 C 
ATOM     19  C   UNL     1       5.455  -2.817   0.683  1.00  0.00     0.019 C 
ENDBRANCH  10  14
ENDBRANCH   9  10
ENDBRANCH   8   9
ENDBRANCH   5   8
ENDBRANCH   3   4
ENDBRANCH   2   3
ENDBRANCH   1   2
BRANCH   1  20
ATOM     20  C   UNL     1       4.883   1.702  -0.564  1.00  0.00     0.002 C 
BRANCH  20  21
ATOM     21  C   UNL     1       4.185   2.347   0.643  1.00  0.00     0.021 C 
BRANCH  21  22
ATOM     22  C   UNL     1       4.320   1.609   1.976  1.00  0.00     0.116 C 
BRANCH  22  23
ATOM     23  N   UNL     1       5.683   1.595   2.487  1.00  0.00    -0.352 N 
ATOM     24  C   UNL     1       6.265   2.369   3.462  1.00  0.00     0.251 C 
ATOM     25  H   UNL     1       6.278   0.931   2.071  1.00  0.00     0.163 HD
ATOM     26  O   UNL     1       7.491   2.340   3.607  1.00  0.00    -0.269 OA
BRANCH  24  27
ATOM     27  C   UNL     1       5.444   3.259   4.310  1.00  0.00     0.039 A 
ATOM     28  C   UNL     1       5.842   4.586   4.485  1.00  0.00     0.014 A 
ATOM     29  C   UNL     1       4.287   2.790   4.940  1.00  0.00     0.014 A 
ATOM     30  C   UNL     1       5.038   5.460   5.221  1.00  0.00     0.010 A 
ATOM     31  C   UNL     1       3.447   3.683   5.607  1.00  0.00     0.010 A 
ATOM     32  C   UNL     1       3.808   5.031   5.750  1.00  0.00    -0.014 A 
BRANCH  32  33
ATOM     33  C   UNL     1       2.893   5.999   6.417  1.00  0.00     0.031 A 
ATOM     34  C   UNL     1       2.534   5.852   7.871  1.00  0.00     0.074 A 
ATOM     35  C   UNL     1       2.358   7.004   5.694  1.00  0.00     0.049 A 
ATOM     36  N   UNL     1       1.783   6.621   8.620  1.00  0.00    -0.248 NA
ATOM     37  C   UNL     1       3.064   4.672   8.568  1.00  0.00     0.031 C 
ATOM     38  C   UNL     1       2.584   7.223   4.263  1.00  0.00     0.029 A 
ATOM     39  N   UNL     1       1.528   8.036   6.057  1.00  0.00    -0.354 N 
ATOM     40  C   UNL     1       1.747   6.017   9.873  1.00  0.00     0.074 A 
ATOM     41  C   UNL     1       2.495   4.782   9.759  1.00  0.00     0.031 C 
ATOM     42  C   UNL     1       1.958   8.349   3.885  1.00  0.00     0.029 A 
ATOM     43  C   UNL     1       1.245   8.907   5.029  1.00  0.00     0.049 A 
ATOM     44  H   UNL     1       1.169   8.142   6.968  1.00  0.00     0.167 HD
ATOM     45  C   UNL     1       1.164   6.461  11.016  1.00  0.00     0.034 A 
ATOM     46  C   UNL     1       0.501  10.030   5.009  1.00  0.00     0.034 A 
ATOM     47  C   UNL     1       0.420   7.696  11.111  1.00  0.00     0.049 A 
ATOM     48  C   UNL     1      -0.159  10.488   6.284  1.00  0.00     0.074 A 
ATOM     49  C   UNL     1      -0.151   8.274  12.232  1.00  0.00     0.029 A 
ATOM     50  N   UNL     1       0.122   8.534  10.043  1.00  0.00    -0.354 N 
ATOM     51  N   UNL     1      -0.115   9.948   7.480  1.00  0.00    -0.248 NA
ATOM     52  C   UNL     1      -0.959  11.716   6.205  1.00  0.00     0.031 C 
ATOM     53  C   UNL     1      -0.866   9.408  11.828  1.00  0.00     0.029 A 
ATOM     54  C   UNL     1      -0.665   9.595  10.470  1.00  0.00     0.049 A 
ATOM     55  H   UNL     1       0.425   8.395   9.117  1.00  0.00     0.167 HD
ATOM     56  C   UNL     1      -0.862  10.788   8.303  1.00  0.00     0.074 A 
ATOM     57  C   UNL     1      -1.317  11.883   7.469  1.00  0.00     0.031 C 
ATOM     58  C   UNL     1      -1.145  10.666   9.626  1.00  0.00     0.034 A 
BRANCH  45  59
ATOM     59  C   UNL     1       1.282   5.583  12.244  1.00  0.00     0.023 A 
ATOM     60  C   UNL     1       2.529   5.247  12.801  1.00  0.00     0.031 A 
ATOM     61  C   UNL     1       0.131   5.044  12.848  1.00  0.00     0.131 A 
ATOM     62  C   UNL     1       2.601   4.331  13.862  1.00  0.00     0.055 A 
ATOM     63  C   UNL     1       0.205   4.207  13.963  1.00  0.00     0.041 A 
ATOM     64  F   UNL     1      -1.089   5.309  12.353  1.00  0.00    -0.206 F 
ATOM     65  C   UNL     1       1.446   3.830  14.465  1.00  0.00     0.022 A 
BRANCH  62  66
ATOM     66  S   UNL     1       4.227   3.673  14.327  1.00  0.00     0.124 S 
ATOM     67  O   UNL     1       4.695   3.120  13.058  1.00  0.00    -0.237 OA
ATOM     68  O   UNL     1       4.924   4.862  14.804  1.00  0.00    -0.237 OA
ATOM     69  O   UNL     1       3.913   2.679  15.352  1.00  0.00    -0.744 OA
ENDBRANCH  62  66
ENDBRANCH  45  59
BRANCH  46  70
ATOM     70  C   UNL     1       0.341  10.810   3.747  1.00  0.00     0.023 A 
ATOM     71  C   UNL     1       0.828  12.123   3.642  1.00  0.00     0.031 A 
ATOM     72  C   UNL     1      -0.333  10.267   2.638  1.00  0.00     0.131 A 
ATOM     73  C   UNL     1       0.596  12.865   2.473  1.00  0.00     0.055 A 
ATOM     74  C   UNL     1      -0.511  10.989   1.457  1.00  0.00     0.041 A 
ATOM     75  F   UNL     1      -0.816   9.015   2.682  1.00  0.00    -0.206 F 
ATOM     76  C   UNL     1      -0.056  12.301   1.374  1.00  0.00     0.022 A 
BRANCH  73  77
ATOM     77  S   UNL     1       1.089  14.610   2.439  1.00  0.00     0.124 S 
ATOM     78  O   UNL     1       0.320  15.158   3.550  1.00  0.00    -0.237 OA
ATOM     79  O   UNL     1       2.532  14.521   2.638  1.00  0.00    -0.237 OA
ATOM     80  O   UNL     1       0.672  15.054   1.110  1.00  0.00    -0.744 OA
ENDBRANCH  73  77
ENDBRANCH  46  70
BRANCH  58  81
ATOM     81  C   UNL     1      -1.972  11.769  10.249  1.00  0.00     0.023 A 
ATOM     82  C   UNL     1      -3.291  12.028   9.832  1.00  0.00     0.031 A 
ATOM     83  C   UNL     1      -1.421  12.603  11.237  1.00  0.00     0.131 A 
ATOM     84  C   UNL     1      -3.979  13.142  10.335  1.00  0.00     0.055 A 
ATOM     85  C   UNL     1      -2.141  13.662  11.794  1.00  0.00     0.041 A 
ATOM     86  F   UNL     1      -0.166  12.411  11.674  1.00  0.00    -0.206 F 
ATOM     87  C   UNL     1      -3.421  13.949  11.329  1.00  0.00     0.022 A 
BRANCH  84  88
ATOM     88  S   UNL     1      -5.558  13.605   9.569  1.00  0.00     0.124 S 
ATOM     89  O   UNL     1      -5.180  13.759   8.168  1.00  0.00    -0.237 OA
ATOM     90  O   UNL     1      -6.403  12.457   9.878  1.00  0.00    -0.237 OA
ATOM     91  O   UNL     1      -5.921  14.844  10.254  1.00  0.00    -0.744 OA
ENDBRANCH  84  88
ENDBRANCH  58  81
ENDBRANCH  32  33
ENDBRANCH  24  27
ENDBRANCH  22  23
ENDBRANCH  21  22
ENDBRANCH  20  21
ENDBRANCH   1  20
TORSDOF 20
