REMARK SMILES Cc1cc(SCC(=O)NCCCCCCNC(=O)c2ccc(-c3c4nc(c(-c5cc(S(=O)(=O)[O-])ccc5F)c5ccc([nH]5)c(-c5cc(S(=O)(=O)[O-])ccc5F)c5nc(c(-c6cc(S(=O)(=O)[O-])ccc6F)c6ccc3[nH]6)C=C5)C=C4)cc2)c2cc(C(F)(F)F)ccc2n1
REMARK SMILES IDX 12 1 11 2 10 3 9 4 7 5 8 6 6 8 5 9 4 10 1 11 2 12 3 13 92 14
REMARK SMILES IDX 91 15 82 16 90 17 83 18 89 19 84 20 85 21 86 22 87 23 88 24
REMARK SMILES IDX 13 25 14 26 15 27 16 28 17 29 18 31 19 32 20 33 81 34 21 35
REMARK SMILES IDX 80 36 22 37 23 38 24 39 74 40 25 41 79 42 73 43 75 44 26 45
REMARK SMILES IDX 78 46 72 47 71 48 27 50 59 51 39 52 58 53 40 54 43 55 57 56
REMARK SMILES IDX 76 57 41 58 42 59 56 61 77 62 44 63 28 64 29 65 37 66 30 67
REMARK SMILES IDX 36 68 38 69 35 70 31 71 32 72 33 73 34 74 60 75 61 76 69 77
REMARK SMILES IDX 62 78 68 79 70 80 67 81 63 82 64 83 65 84 66 85 45 86 46 87
REMARK SMILES IDX 54 88 47 89 53 90 55 91 52 92 48 93 49 94 50 95 51 96
REMARK H PARENT 9 7 16 30 75 49 43 60
REMARK Flexibility Score: inf
ROOT
ATOM      1  C   UNL     1      -0.579   3.639  -4.835  1.00  0.00     0.002 C 
ENDROOT
BRANCH   1   2
ATOM      2  C   UNL     1      -0.017   3.953  -3.440  1.00  0.00     0.021 C 
BRANCH   2   3
ATOM      3  C   UNL     1      -0.852   4.959  -2.645  1.00  0.00     0.116 C 
BRANCH   3   4
ATOM      4  N   UNL     1      -2.159   4.409  -2.341  1.00  0.00    -0.355 N 
ATOM      5  C   UNL     1      -2.675   3.994  -1.154  1.00  0.00     0.230 C 
ATOM      6  O   UNL     1      -3.788   3.458  -1.167  1.00  0.00    -0.274 OA
ATOM      7  H   UNL     1      -2.764   4.322  -3.113  1.00  0.00     0.163 HD
BRANCH   5   8
ATOM      8  C   UNL     1      -1.970   4.274   0.158  1.00  0.00     0.174 C 
BRANCH   8   9
ATOM      9  S   UNL     1      -0.371   3.439   0.393  1.00  0.00    -0.115 SA
BRANCH   9  10
ATOM     10  C   UNL     1      -0.666   1.670   0.217  1.00  0.00     0.019 A 
ATOM     11  C   UNL     1      -3.485  -0.845   0.050  1.00  0.00     0.067 C 
ATOM     12  C   UNL     1      -2.116  -0.235   0.081  1.00  0.00     0.039 A 
ATOM     13  C   UNL     1      -1.952   1.132   0.234  1.00  0.00     0.039 A 
ATOM     14  N   UNL     1      -1.075  -1.086  -0.024  1.00  0.00    -0.253 NA
ATOM     15  C   UNL     1       0.170  -0.591  -0.004  1.00  0.00     0.072 A 
ATOM     16  C   UNL     1       0.450   0.788   0.100  1.00  0.00     0.014 A 
ATOM     17  C   UNL     1       1.222  -1.494  -0.083  1.00  0.00     0.029 A 
ATOM     18  C   UNL     1       1.817   1.190   0.093  1.00  0.00     0.024 A 
ATOM     19  C   UNL     1       2.559  -1.087  -0.070  1.00  0.00     0.015 A 
ATOM     20  C   UNL     1       2.873   0.267   0.015  1.00  0.00     0.056 A 
BRANCH  20  21
ATOM     21  C   UNL     1       4.303   0.750   0.026  1.00  0.00     0.416 C 
ATOM     22  F   UNL     1       4.594   1.533  -1.048  1.00  0.00    -0.166 F 
ATOM     23  F   UNL     1       4.587   1.499   1.127  1.00  0.00    -0.166 F 
ATOM     24  F   UNL     1       5.216  -0.260   0.017  1.00  0.00    -0.166 F 
ENDBRANCH  20  21
ENDBRANCH   9  10
ENDBRANCH   8   9
ENDBRANCH   5   8
ENDBRANCH   3   4
ENDBRANCH   2   3
ENDBRANCH   1   2
BRANCH   1  25
ATOM     25  C   UNL     1      -0.767   4.855  -5.749  1.00  0.00     0.002 C 
BRANCH  25  26
ATOM     26  C   UNL     1       0.491   5.699  -5.963  1.00  0.00     0.021 C 
BRANCH  26  27
ATOM     27  C   UNL     1       1.661   4.943  -6.582  1.00  0.00     0.116 C 
BRANCH  27  28
ATOM     28  N   UNL     1       1.361   4.485  -7.930  1.00  0.00    -0.352 N 
ATOM     29  C   UNL     1       2.053   4.705  -9.095  1.00  0.00     0.251 C 
ATOM     30  H   UNL     1       0.547   3.939  -8.019  1.00  0.00     0.163 HD
ATOM     31  O   UNL     1       1.536   4.423 -10.174  1.00  0.00    -0.269 OA
BRANCH  29  32
ATOM     32  C   UNL     1       3.405   5.306  -9.047  1.00  0.00     0.039 A 
ATOM     33  C   UNL     1       3.731   6.313  -9.957  1.00  0.00     0.014 A 
ATOM     34  C   UNL     1       4.346   4.878  -8.106  1.00  0.00     0.014 A 
ATOM     35  C   UNL     1       4.980   6.936  -9.881  1.00  0.00     0.010 A 
ATOM     36  C   UNL     1       5.557   5.553  -7.981  1.00  0.00     0.010 A 
ATOM     37  C   UNL     1       5.889   6.588  -8.868  1.00  0.00    -0.014 A 
BRANCH  37  38
ATOM     38  C   UNL     1       7.191   7.293  -8.726  1.00  0.00     0.031 A 
ATOM     39  C   UNL     1       8.482   6.537  -8.893  1.00  0.00     0.074 A 
ATOM     40  C   UNL     1       7.211   8.601  -8.398  1.00  0.00     0.049 A 
ATOM     41  N   UNL     1       9.713   6.956  -8.742  1.00  0.00    -0.248 NA
ATOM     42  C   UNL     1       8.372   5.115  -9.251  1.00  0.00     0.031 C 
ATOM     43  C   UNL     1       6.027   9.435  -8.181  1.00  0.00     0.029 A 
ATOM     44  N   UNL     1       8.261   9.459  -8.185  1.00  0.00    -0.354 N 
ATOM     45  C   UNL     1      10.522   5.851  -8.982  1.00  0.00     0.074 A 
ATOM     46  C   UNL     1       9.638   4.729  -9.217  1.00  0.00     0.031 C 
ATOM     47  C   UNL     1       6.417  10.688  -7.898  1.00  0.00     0.029 A 
ATOM     48  C   UNL     1       7.875  10.739  -7.857  1.00  0.00     0.049 A 
ATOM     49  H   UNL     1       9.204   9.185  -8.260  1.00  0.00     0.167 HD
ATOM     50  C   UNL     1      11.876   5.783  -9.028  1.00  0.00     0.034 A 
ATOM     51  C   UNL     1       8.609  11.825  -7.545  1.00  0.00     0.034 A 
ATOM     52  C   UNL     1      12.744   6.912  -8.790  1.00  0.00     0.049 A 
ATOM     53  C   UNL     1      10.114  11.711  -7.547  1.00  0.00     0.074 A 
ATOM     54  C   UNL     1      14.126   6.963  -8.847  1.00  0.00     0.029 A 
ATOM     55  N   UNL     1      12.316   8.187  -8.441  1.00  0.00    -0.354 N 
ATOM     56  N   UNL     1      10.864  10.667  -7.818  1.00  0.00    -0.248 NA
ATOM     57  C   UNL     1      10.871  12.924  -7.210  1.00  0.00     0.031 C 
ATOM     58  C   UNL     1      14.535   8.242  -8.458  1.00  0.00     0.029 A 
ATOM     59  C   UNL     1      13.408   9.019  -8.245  1.00  0.00     0.049 A 
ATOM     60  H   UNL     1      11.375   8.459  -8.346  1.00  0.00     0.167 HD
ATOM     61  C   UNL     1      12.181  11.111  -7.721  1.00  0.00     0.074 A 
ATOM     62  C   UNL     1      12.120  12.518  -7.382  1.00  0.00     0.031 C 
ATOM     63  C   UNL     1      13.336  10.420  -7.900  1.00  0.00     0.034 A 
BRANCH  50  64
ATOM     64  C   UNL     1      12.496   4.437  -9.323  1.00  0.00     0.023 A 
ATOM     65  C   UNL     1      12.262   3.768 -10.538  1.00  0.00     0.031 A 
ATOM     66  C   UNL     1      13.313   3.801  -8.372  1.00  0.00     0.131 A 
ATOM     67  C   UNL     1      12.771   2.476 -10.737  1.00  0.00     0.055 A 
ATOM     68  C   UNL     1      13.890   2.552  -8.612  1.00  0.00     0.041 A 
ATOM     69  F   UNL     1      13.556   4.378  -7.184  1.00  0.00    -0.206 F 
ATOM     70  C   UNL     1      13.607   1.875  -9.794  1.00  0.00     0.022 A 
BRANCH  67  71
ATOM     71  S   UNL     1      12.197   1.533 -12.177  1.00  0.00     0.124 S 
ATOM     72  O   UNL     1      10.753   1.513 -11.959  1.00  0.00    -0.237 OA
ATOM     73  O   UNL     1      12.664   2.347 -13.293  1.00  0.00    -0.237 OA
ATOM     74  O   UNL     1      12.861   0.240 -12.025  1.00  0.00    -0.744 OA
ENDBRANCH  67  71
ENDBRANCH  50  64
BRANCH  51  75
ATOM     75  C   UNL     1       7.947  13.115  -7.191  1.00  0.00     0.023 A 
ATOM     76  C   UNL     1       8.146  14.267  -7.968  1.00  0.00     0.031 A 
ATOM     77  C   UNL     1       7.151  13.231  -6.037  1.00  0.00     0.131 A 
ATOM     78  C   UNL     1       7.607  15.495  -7.552  1.00  0.00     0.055 A 
ATOM     79  C   UNL     1       6.564  14.441  -5.662  1.00  0.00     0.041 A 
ATOM     80  F   UNL     1       6.926  12.162  -5.256  1.00  0.00    -0.206 F 
ATOM     81  C   UNL     1       6.804  15.586  -6.413  1.00  0.00     0.022 A 
BRANCH  78  82
ATOM     82  S   UNL     1       8.062  16.995  -8.464  1.00  0.00     0.124 S 
ATOM     83  O   UNL     1       9.517  16.975  -8.360  1.00  0.00    -0.237 OA
ATOM     84  O   UNL     1       7.508  16.725  -9.787  1.00  0.00    -0.237 OA
ATOM     85  O   UNL     1       7.397  18.061  -7.718  1.00  0.00    -0.744 OA
ENDBRANCH  78  82
ENDBRANCH  51  75
BRANCH  63  86
ATOM     86  C   UNL     1      14.628  11.195  -7.786  1.00  0.00     0.023 A 
ATOM     87  C   UNL     1      15.046  11.771  -6.573  1.00  0.00     0.031 A 
ATOM     88  C   UNL     1      15.449  11.368  -8.915  1.00  0.00     0.131 A 
ATOM     89  C   UNL     1      16.218  12.541  -6.532  1.00  0.00     0.055 A 
ATOM     90  C   UNL     1      16.649  12.076  -8.852  1.00  0.00     0.041 A 
ATOM     91  F   UNL     1      15.098  10.845 -10.101  1.00  0.00    -0.206 F 
ATOM     92  C   UNL     1      17.032  12.681  -7.659  1.00  0.00     0.022 A 
BRANCH  89  93
ATOM     93  S   UNL     1      16.612  13.447  -5.011  1.00  0.00     0.124 S 
ATOM     94  O   UNL     1      15.426  14.279  -4.837  1.00  0.00    -0.237 OA
ATOM     95  O   UNL     1      16.782  12.370  -4.041  1.00  0.00    -0.237 OA
ATOM     96  O   UNL     1      17.835  14.173  -5.350  1.00  0.00    -0.744 OA
ENDBRANCH  89  93
ENDBRANCH  63  86
ENDBRANCH  37  38
ENDBRANCH  29  32
ENDBRANCH  27  28
ENDBRANCH  26  27
ENDBRANCH  25  26
ENDBRANCH   1  25
TORSDOF 19
