REMARK SMILES CC1([C@](C)(Nc2cccc(Cl)c2)C(=O)NCCCCCCNC(=O)c2ccc(-c3c4nc(c(-c5cc(S(=O)(=O)[O-])ccc5F)c5ccc([nH]5)c(-c5cc(S(=O)(=O)[O-])ccc5F)c5nc(c(-c6cc(S(=O)(=O)[O-])ccc6F)c6ccc3[nH]6)C=C5)C=C4)cc2)CC1
REMARK SMILES IDX 19 1 18 2 17 3 16 4 15 5 13 6 14 7 3 9 4 10 2 11 1 12 88 13
REMARK SMILES IDX 89 14 5 15 6 17 7 18 12 19 8 20 10 21 9 22 11 23 20 24 21 25
REMARK SMILES IDX 22 26 23 27 24 29 25 30 26 31 87 32 27 33 86 34 28 35 29 36
REMARK SMILES IDX 30 37 80 38 31 39 85 40 79 41 81 42 32 43 84 44 78 45 77 46
REMARK SMILES IDX 33 48 65 49 45 50 64 51 46 52 49 53 63 54 82 55 47 56 48 57
REMARK SMILES IDX 62 59 83 60 50 61 34 62 35 63 43 64 36 65 42 66 44 67 41 68
REMARK SMILES IDX 37 69 38 70 39 71 40 72 66 73 67 74 75 75 68 76 74 77 76 78
REMARK SMILES IDX 73 79 69 80 70 81 71 82 72 83 51 84 52 85 60 86 53 87 59 88
REMARK SMILES IDX 61 89 58 90 54 91 55 92 56 93 57 94
REMARK H PARENT 15 8 5 16 22 28 81 47 49 58
REMARK Flexibility Score: inf
ROOT
ATOM      1  C   UNL     1      -6.989  -1.849  -1.711  1.00  0.00     0.002 C 
ENDROOT
BRANCH   1   2
ATOM      2  C   UNL     1      -6.269  -0.509  -1.560  1.00  0.00     0.002 C 
BRANCH   2   3
ATOM      3  C   UNL     1      -5.175  -0.518  -0.496  1.00  0.00     0.021 C 
BRANCH   3   4
ATOM      4  C   UNL     1      -4.002  -1.440  -0.811  1.00  0.00     0.116 C 
BRANCH   4   5
ATOM      5  N   UNL     1      -3.361  -1.159  -2.081  1.00  0.00    -0.354 N 
ATOM      6  C   UNL     1      -2.114  -0.649  -2.337  1.00  0.00     0.245 C 
ATOM      7  O   UNL     1      -1.800  -0.516  -3.526  1.00  0.00    -0.272 OA
ATOM      8  H   UNL     1      -3.901  -1.365  -2.878  1.00  0.00     0.163 HD
BRANCH   6   9
ATOM      9  C   UNL     1      -1.121  -0.301  -1.169  1.00  0.00     0.119 C 
ATOM     10  C   UNL     1       0.148   0.376  -1.743  1.00  0.00     0.046 C 
BRANCH   9  11
ATOM     11  C   UNL     1      -0.664  -1.656  -0.482  1.00  0.00    -0.001 C 
ATOM     12  C   UNL     1      -0.443  -2.801  -1.466  1.00  0.00     0.014 C 
ATOM     13  C   UNL     1      -1.143  -2.061   0.911  1.00  0.00     0.010 C 
ATOM     14  C   UNL     1       0.277  -1.636   0.717  1.00  0.00     0.010 C 
ENDBRANCH   9  11
BRANCH   9  15
ATOM     15  N   UNL     1      -1.681   0.669  -0.189  1.00  0.00    -0.371 N 
ATOM     16  H   UNL     1      -1.507   0.460   0.757  1.00  0.00     0.161 HD
BRANCH  15  17
ATOM     17  C   UNL     1      -2.414   1.829  -0.417  1.00  0.00     0.036 A 
ATOM     18  C   UNL     1      -3.190   2.088  -1.556  1.00  0.00     0.026 A 
ATOM     19  C   UNL     1      -2.484   2.789   0.606  1.00  0.00     0.046 A 
ATOM     20  C   UNL     1      -4.091   3.162  -1.622  1.00  0.00     0.004 A 
ATOM     21  C   UNL     1      -3.333   3.900   0.517  1.00  0.00     0.043 A 
ATOM     22  C   UNL     1      -4.170   4.069  -0.578  1.00  0.00     0.020 A 
ATOM     23  Cl  UNL     1      -3.356   5.066   1.785  1.00  0.00    -0.084 Cl
ENDBRANCH  15  17
ENDBRANCH   9  15
ENDBRANCH   6   9
ENDBRANCH   4   5
ENDBRANCH   3   4
ENDBRANCH   2   3
ENDBRANCH   1   2
BRANCH   1  24
ATOM     24  C   UNL     1      -7.582  -2.399  -0.410  1.00  0.00     0.021 C 
BRANCH  24  25
ATOM     25  C   UNL     1      -8.458  -1.411   0.353  1.00  0.00     0.116 C 
BRANCH  25  26
ATOM     26  N   UNL     1      -9.615  -1.009  -0.429  1.00  0.00    -0.352 N 
ATOM     27  C   UNL     1     -10.938  -1.095  -0.092  1.00  0.00     0.251 C 
ATOM     28  H   UNL     1      -9.421  -0.626  -1.315  1.00  0.00     0.163 HD
ATOM     29  O   UNL     1     -11.806  -0.947  -0.955  1.00  0.00    -0.269 OA
BRANCH  27  30
ATOM     30  C   UNL     1     -11.310  -1.386   1.306  1.00  0.00     0.039 A 
ATOM     31  C   UNL     1     -12.269  -2.365   1.566  1.00  0.00     0.014 A 
ATOM     32  C   UNL     1     -10.700  -0.694   2.359  1.00  0.00     0.014 A 
ATOM     33  C   UNL     1     -12.591  -2.677   2.887  1.00  0.00     0.010 A 
ATOM     34  C   UNL     1     -10.970  -1.059   3.674  1.00  0.00     0.010 A 
ATOM     35  C   UNL     1     -11.930  -2.042   3.952  1.00  0.00    -0.014 A 
BRANCH  35  36
ATOM     36  C   UNL     1     -12.262  -2.378   5.361  1.00  0.00     0.031 A 
ATOM     37  C   UNL     1     -12.880  -1.337   6.255  1.00  0.00     0.074 A 
ATOM     38  C   UNL     1     -11.980  -3.605   5.840  1.00  0.00     0.049 A 
ATOM     39  N   UNL     1     -13.221  -1.424   7.516  1.00  0.00    -0.248 NA
ATOM     40  C   UNL     1     -13.118  -0.013   5.660  1.00  0.00     0.031 C 
ATOM     41  C   UNL     1     -11.343  -4.682   5.079  1.00  0.00     0.029 A 
ATOM     42  N   UNL     1     -12.191  -4.156   7.079  1.00  0.00    -0.354 N 
ATOM     43  C   UNL     1     -13.707  -0.168   7.865  1.00  0.00     0.074 A 
ATOM     44  C   UNL     1     -13.547   0.680   6.703  1.00  0.00     0.031 C 
ATOM     45  C   UNL     1     -11.247  -5.773   5.857  1.00  0.00     0.029 A 
ATOM     46  C   UNL     1     -11.774  -5.463   7.182  1.00  0.00     0.049 A 
ATOM     47  H   UNL     1     -12.602  -3.661   7.825  1.00  0.00     0.167 HD
ATOM     48  C   UNL     1     -14.261   0.233   9.036  1.00  0.00     0.034 A 
ATOM     49  C   UNL     1     -11.810  -6.313   8.228  1.00  0.00     0.034 A 
ATOM     50  C   UNL     1     -14.419  -0.630  10.182  1.00  0.00     0.049 A 
ATOM     51  C   UNL     1     -12.412  -5.839   9.527  1.00  0.00     0.074 A 
ATOM     52  C   UNL     1     -15.006  -0.345  11.403  1.00  0.00     0.029 A 
ATOM     53  N   UNL     1     -13.982  -1.948  10.252  1.00  0.00    -0.354 N 
ATOM     54  N   UNL     1     -12.916  -4.663   9.825  1.00  0.00    -0.248 NA
ATOM     55  C   UNL     1     -12.465  -6.812  10.624  1.00  0.00     0.031 C 
ATOM     56  C   UNL     1     -14.860  -1.463  12.232  1.00  0.00     0.029 A 
ATOM     57  C   UNL     1     -14.259  -2.477  11.504  1.00  0.00     0.049 A 
ATOM     58  H   UNL     1     -13.540  -2.435   9.519  1.00  0.00     0.167 HD
ATOM     59  C   UNL     1     -13.377  -4.769  11.135  1.00  0.00     0.074 A 
ATOM     60  C   UNL     1     -13.107  -6.128  11.559  1.00  0.00     0.031 C 
ATOM     61  C   UNL     1     -13.973  -3.832  11.917  1.00  0.00     0.034 A 
BRANCH  48  62
ATOM     62  C   UNL     1     -14.709   1.673   9.136  1.00  0.00     0.023 A 
ATOM     63  C   UNL     1     -15.711   2.196   8.298  1.00  0.00     0.031 A 
ATOM     64  C   UNL     1     -14.106   2.547  10.058  1.00  0.00     0.131 A 
ATOM     65  C   UNL     1     -16.021   3.563   8.341  1.00  0.00     0.055 A 
ATOM     66  C   UNL     1     -14.482   3.888  10.157  1.00  0.00     0.041 A 
ATOM     67  F   UNL     1     -13.129   2.115  10.871  1.00  0.00    -0.206 F 
ATOM     68  C   UNL     1     -15.432   4.408   9.284  1.00  0.00     0.022 A 
BRANCH  65  69
ATOM     69  S   UNL     1     -17.090   4.251   7.047  1.00  0.00     0.124 S 
ATOM     70  O   UNL     1     -16.340   3.916   5.838  1.00  0.00    -0.237 OA
ATOM     71  O   UNL     1     -18.337   3.523   7.247  1.00  0.00    -0.237 OA
ATOM     72  O   UNL     1     -17.140   5.677   7.365  1.00  0.00    -0.744 OA
ENDBRANCH  65  69
ENDBRANCH  48  62
BRANCH  49  73
ATOM     73  C   UNL     1     -11.265  -7.696   8.099  1.00  0.00     0.023 A 
ATOM     74  C   UNL     1     -12.099  -8.818   8.228  1.00  0.00     0.031 A 
ATOM     75  C   UNL     1      -9.892  -7.916   7.891  1.00  0.00     0.131 A 
ATOM     76  C   UNL     1     -11.546 -10.108   8.200  1.00  0.00     0.055 A 
ATOM     77  C   UNL     1      -9.355  -9.202   7.808  1.00  0.00     0.041 A 
ATOM     78  F   UNL     1      -9.050  -6.879   7.756  1.00  0.00    -0.206 F 
ATOM     79  C   UNL     1     -10.182 -10.308   7.977  1.00  0.00     0.022 A 
BRANCH  76  80
ATOM     80  S   UNL     1     -12.624 -11.523   8.554  1.00  0.00     0.124 S 
ATOM     81  O   UNL     1     -13.133 -11.185   9.878  1.00  0.00    -0.237 OA
ATOM     82  O   UNL     1     -13.586 -11.452   7.458  1.00  0.00    -0.237 OA
ATOM     83  O   UNL     1     -11.713 -12.665   8.507  1.00  0.00    -0.744 OA
ENDBRANCH  76  80
ENDBRANCH  49  73
BRANCH  61  84
ATOM     84  C   UNL     1     -14.415  -4.269  13.293  1.00  0.00     0.023 A 
ATOM     85  C   UNL     1     -13.493  -4.661  14.280  1.00  0.00     0.031 A 
ATOM     86  C   UNL     1     -15.784  -4.317  13.613  1.00  0.00     0.131 A 
ATOM     87  C   UNL     1     -13.953  -5.149  15.512  1.00  0.00     0.055 A 
ATOM     88  C   UNL     1     -16.233  -4.737  14.866  1.00  0.00     0.041 A 
ATOM     89  F   UNL     1     -16.711  -3.956  12.711  1.00  0.00    -0.206 F 
ATOM     90  C   UNL     1     -15.316  -5.172  15.818  1.00  0.00     0.022 A 
BRANCH  87  91
ATOM     91  S   UNL     1     -12.751  -5.862  16.668  1.00  0.00     0.124 S 
ATOM     92  O   UNL     1     -12.133  -6.906  15.857  1.00  0.00    -0.237 OA
ATOM     93  O   UNL     1     -11.905  -4.716  16.984  1.00  0.00    -0.237 OA
ATOM     94  O   UNL     1     -13.580  -6.343  17.772  1.00  0.00    -0.744 OA
ENDBRANCH  87  91
ENDBRANCH  61  84
ENDBRANCH  35  36
ENDBRANCH  27  30
ENDBRANCH  25  26
ENDBRANCH  24  25
ENDBRANCH   1  24
TORSDOF 19
