REMARK SMILES CC(C)CCc1cc2c(cc1Cl)C=C(C(=O)NCCCCCCNC(=O)c1ccc(-c3c4nc(c(-c5cc(S(=O)(=O)[O-])ccc5F)c5ccc([nH]5)c(-c5cc(S(=O)(=O)[O-])ccc5F)c5nc(c(-c6cc(S(=O)(=O)[O-])ccc6F)c6ccc3[nH]6)C=C5)C=C4)cc1)[C@@H](C(F)(F)F)O2
REMARK SMILES IDX 20 1 19 2 18 3 17 4 15 5 16 6 14 8 6 9 7 10 11 11 8 12 10 13
REMARK SMILES IDX 12 14 9 15 95 16 13 17 90 18 5 19 4 20 2 21 1 22 3 23 91 24
REMARK SMILES IDX 92 25 93 26 94 27 21 28 22 29 23 30 24 31 25 32 26 34 27 35
REMARK SMILES IDX 28 36 89 37 29 38 88 39 30 40 31 41 32 42 82 43 33 44 87 45
REMARK SMILES IDX 81 46 83 47 34 48 86 49 80 50 79 51 35 53 67 54 47 55 66 56
REMARK SMILES IDX 48 57 51 58 65 59 84 60 49 61 50 62 64 64 85 65 52 66 36 67
REMARK SMILES IDX 37 68 45 69 38 70 44 71 46 72 43 73 39 74 40 75 41 76 42 77
REMARK SMILES IDX 68 78 69 79 77 80 70 81 76 82 78 83 75 84 71 85 72 86 73 87
REMARK SMILES IDX 74 88 53 89 54 90 62 91 55 92 61 93 63 94 60 95 56 96 57 97
REMARK SMILES IDX 58 98 59 99
REMARK H PARENT 17 7 24 33 83 52 51 63
REMARK Flexibility Score: inf
ROOT
ATOM      1  C   UNL     1       1.298  -2.126  12.222  1.00  0.00     0.002 C 
ENDROOT
BRANCH   1   2
ATOM      2  C   UNL     1       0.906  -1.595  10.839  1.00  0.00     0.021 C 
BRANCH   2   3
ATOM      3  C   UNL     1       1.765  -2.139   9.700  1.00  0.00     0.116 C 
BRANCH   3   4
ATOM      4  N   UNL     1       1.278  -3.423   9.220  1.00  0.00    -0.352 N 
ATOM      5  C   UNL     1       0.735  -3.921   8.085  1.00  0.00     0.251 C 
ATOM      6  O   UNL     1       0.486  -5.132   8.110  1.00  0.00    -0.270 OA
ATOM      7  H   UNL     1       1.370  -4.120   9.909  1.00  0.00     0.163 HD
BRANCH   5   8
ATOM      8  C   UNL     1       0.421  -3.134   6.856  1.00  0.00     0.067 C 
ATOM      9  C   UNL     1      -1.188  -1.617   2.304  1.00  0.00    -0.026 A 
ATOM     10  C   UNL     1      -0.789  -0.975   3.485  1.00  0.00     0.052 A 
ATOM     11  C   UNL     1      -1.315  -3.019   2.341  1.00  0.00     0.045 A 
ATOM     12  C   UNL     1      -0.437  -1.705   4.617  1.00  0.00     0.128 A 
ATOM     13  C   UNL     1      -0.997  -3.749   3.498  1.00  0.00     0.032 A 
ATOM     14  Cl  UNL     1      -1.889  -3.916   0.977  1.00  0.00    -0.084 Cl
ATOM     15  C   UNL     1      -0.540  -3.091   4.640  1.00  0.00     0.019 A 
ATOM     16  O   UNL     1      -0.022  -0.978   5.694  1.00  0.00    -0.475 OA
ATOM     17  C   UNL     1      -0.213  -3.801   5.872  1.00  0.00     0.025 C 
ATOM     18  C   UNL     1       0.796  -1.691   6.658  1.00  0.00     0.314 C 
BRANCH   9  19
ATOM     19  C   UNL     1      -1.511  -0.816   1.058  1.00  0.00     0.037 C 
BRANCH  19  20
ATOM     20  C   UNL     1      -0.921   0.605   0.951  1.00  0.00     0.008 C 
BRANCH  20  21
ATOM     21  C   UNL     1       0.622   0.682   0.951  1.00  0.00    -0.017 C 
ATOM     22  C   UNL     1       1.233   0.038  -0.292  1.00  0.00     0.007 C 
ATOM     23  C   UNL     1       1.069   2.142   1.061  1.00  0.00     0.007 C 
ENDBRANCH  20  21
ENDBRANCH  19  20
ENDBRANCH   9  19
BRANCH  18  24
ATOM     24  C   UNL     1       2.287  -1.518   6.306  1.00  0.00     0.429 C 
ATOM     25  F   UNL     1       2.654  -0.218   6.401  1.00  0.00    -0.167 F 
ATOM     26  F   UNL     1       3.096  -2.208   7.146  1.00  0.00    -0.167 F 
ATOM     27  F   UNL     1       2.578  -1.935   5.053  1.00  0.00    -0.167 F 
ENDBRANCH  18  24
ENDBRANCH   5   8
ENDBRANCH   3   4
ENDBRANCH   2   3
ENDBRANCH   1   2
BRANCH   1  28
ATOM     28  C   UNL     1       2.756  -1.879  12.636  1.00  0.00     0.002 C 
BRANCH  28  29
ATOM     29  C   UNL     1       3.263  -0.446  12.460  1.00  0.00     0.021 C 
BRANCH  29  30
ATOM     30  C   UNL     1       2.471   0.614  13.220  1.00  0.00     0.116 C 
BRANCH  30  31
ATOM     31  N   UNL     1       2.536   0.428  14.660  1.00  0.00    -0.352 N 
ATOM     32  C   UNL     1       2.901   1.327  15.634  1.00  0.00     0.251 C 
ATOM     33  H   UNL     1       2.283  -0.467  14.983  1.00  0.00     0.163 HD
ATOM     34  O   UNL     1       3.052   0.949  16.793  1.00  0.00    -0.269 OA
BRANCH  32  35
ATOM     35  C   UNL     1       3.144   2.737  15.267  1.00  0.00     0.039 A 
ATOM     36  C   UNL     1       2.229   3.434  14.473  1.00  0.00     0.014 A 
ATOM     37  C   UNL     1       4.323   3.354  15.691  1.00  0.00     0.014 A 
ATOM     38  C   UNL     1       2.565   4.689  13.973  1.00  0.00     0.010 A 
ATOM     39  C   UNL     1       4.627   4.643  15.244  1.00  0.00     0.010 A 
ATOM     40  C   UNL     1       3.774   5.299  14.342  1.00  0.00    -0.014 A 
BRANCH  40  41
ATOM     41  C   UNL     1       4.156   6.612  13.758  1.00  0.00     0.031 A 
ATOM     42  C   UNL     1       5.343   6.714  12.839  1.00  0.00     0.074 A 
ATOM     43  C   UNL     1       3.415   7.702  14.032  1.00  0.00     0.049 A 
ATOM     44  N   UNL     1       5.860   7.775  12.276  1.00  0.00    -0.248 NA
ATOM     45  C   UNL     1       6.044   5.461  12.509  1.00  0.00     0.031 C 
ATOM     46  C   UNL     1       2.222   7.710  14.879  1.00  0.00     0.029 A 
ATOM     47  N   UNL     1       3.543   9.007  13.624  1.00  0.00    -0.354 N 
ATOM     48  C   UNL     1       6.951   7.325  11.541  1.00  0.00     0.074 A 
ATOM     49  C   UNL     1       7.042   5.897  11.753  1.00  0.00     0.031 C 
ATOM     50  C   UNL     1       1.707   8.948  14.898  1.00  0.00     0.029 A 
ATOM     51  C   UNL     1       2.571   9.839  14.128  1.00  0.00     0.049 A 
ATOM     52  H   UNL     1       4.261   9.317  13.027  1.00  0.00     0.167 HD
ATOM     53  C   UNL     1       7.790   8.038  10.753  1.00  0.00     0.034 A 
ATOM     54  C   UNL     1       2.404  11.173  14.005  1.00  0.00     0.034 A 
ATOM     55  C   UNL     1       7.673   9.457  10.538  1.00  0.00     0.049 A 
ATOM     56  C   UNL     1       3.387  11.953  13.171  1.00  0.00     0.074 A 
ATOM     57  C   UNL     1       8.471  10.270   9.753  1.00  0.00     0.029 A 
ATOM     58  N   UNL     1       6.697  10.271  11.095  1.00  0.00    -0.354 N 
ATOM     59  N   UNL     1       4.407  11.511  12.474  1.00  0.00    -0.248 NA
ATOM     60  C   UNL     1       3.208  13.410  13.107  1.00  0.00     0.031 C 
ATOM     61  C   UNL     1       8.011  11.581   9.876  1.00  0.00     0.029 A 
ATOM     62  C   UNL     1       6.885  11.580  10.685  1.00  0.00     0.049 A 
ATOM     63  H   UNL     1       5.977   9.964  11.692  1.00  0.00     0.167 HD
ATOM     64  C   UNL     1       4.974  12.629  11.870  1.00  0.00     0.074 A 
ATOM     65  C   UNL     1       4.173  13.767  12.269  1.00  0.00     0.031 C 
ATOM     66  C   UNL     1       6.062  12.703  11.063  1.00  0.00     0.034 A 
BRANCH  53  67
ATOM     67  C   UNL     1       8.910   7.318  10.045  1.00  0.00     0.023 A 
ATOM     68  C   UNL     1      10.250   7.622  10.353  1.00  0.00     0.031 A 
ATOM     69  C   UNL     1       8.655   6.439   8.978  1.00  0.00     0.131 A 
ATOM     70  C   UNL     1      11.283   7.080   9.578  1.00  0.00     0.055 A 
ATOM     71  C   UNL     1       9.690   5.872   8.233  1.00  0.00     0.041 A 
ATOM     72  F   UNL     1       7.394   6.115   8.648  1.00  0.00    -0.206 F 
ATOM     73  C   UNL     1      11.010   6.202   8.523  1.00  0.00     0.022 A 
BRANCH  70  74
ATOM     74  S   UNL     1      13.014   7.537   9.868  1.00  0.00     0.124 S 
ATOM     75  O   UNL     1      13.625   6.238  10.141  1.00  0.00    -0.237 OA
ATOM     76  O   UNL     1      13.386   8.147   8.595  1.00  0.00    -0.237 OA
ATOM     77  O   UNL     1      12.951   8.444  11.009  1.00  0.00    -0.744 OA
ENDBRANCH  70  74
ENDBRANCH  53  67
BRANCH  54  78
ATOM     78  C   UNL     1       1.236  11.826  14.666  1.00  0.00     0.023 A 
ATOM     79  C   UNL     1       1.068  11.773  16.063  1.00  0.00     0.031 A 
ATOM     80  C   UNL     1       0.216  12.416  13.902  1.00  0.00     0.131 A 
ATOM     81  C   UNL     1      -0.123  12.232  16.641  1.00  0.00     0.055 A 
ATOM     82  C   UNL     1      -0.938  12.938  14.490  1.00  0.00     0.041 A 
ATOM     83  F   UNL     1       0.324  12.481  12.566  1.00  0.00    -0.206 F 
ATOM     84  C   UNL     1      -1.120  12.829  15.865  1.00  0.00     0.022 A 
BRANCH  81  85
ATOM     85  S   UNL     1      -0.477  11.936  18.397  1.00  0.00     0.124 S 
ATOM     86  O   UNL     1      -0.583  13.295  18.918  1.00  0.00    -0.237 OA
ATOM     87  O   UNL     1      -1.729  11.187  18.327  1.00  0.00    -0.237 OA
ATOM     88  O   UNL     1       0.677  11.171  18.856  1.00  0.00    -0.744 OA
ENDBRANCH  81  85
ENDBRANCH  54  78
BRANCH  66  89
ATOM     89  C   UNL     1       6.472  14.048  10.518  1.00  0.00     0.023 A 
ATOM     90  C   UNL     1       6.442  14.277   9.128  1.00  0.00     0.031 A 
ATOM     91  C   UNL     1       7.062  15.021  11.342  1.00  0.00     0.131 A 
ATOM     92  C   UNL     1       7.042  15.425   8.599  1.00  0.00     0.055 A 
ATOM     93  C   UNL     1       7.617  16.187  10.813  1.00  0.00     0.041 A 
ATOM     94  F   UNL     1       7.122  14.841  12.671  1.00  0.00    -0.206 F 
ATOM     95  C   UNL     1       7.623  16.385   9.434  1.00  0.00     0.022 A 
BRANCH  92  96
ATOM     96  S   UNL     1       7.173  15.671   6.806  1.00  0.00     0.124 S 
ATOM     97  O   UNL     1       6.489  16.949   6.625  1.00  0.00    -0.237 OA
ATOM     98  O   UNL     1       8.619  15.702   6.606  1.00  0.00    -0.237 OA
ATOM     99  O   UNL     1       6.485  14.514   6.241  1.00  0.00    -0.744 OA
ENDBRANCH  92  96
ENDBRANCH  66  89
ENDBRANCH  40  41
ENDBRANCH  32  35
ENDBRANCH  30  31
ENDBRANCH  29  30
ENDBRANCH  28  29
ENDBRANCH   1  28
TORSDOF 20
