REMARK SMILES O=C(C[NH+]1CC2(CCCC2)C1)NCCCCCCNC(=O)c1ccc(-c2c3nc(c(-c4cc(S(=O)(=O)[O-])ccc4F)c4ccc([nH]4)c(-c4cc(S(=O)(=O)[O-])ccc4F)c4nc(c(-c5cc(S(=O)(=O)[O-])ccc5F)c5ccc2[nH]5)C=C4)C=C3)cc1
REMARK SMILES IDX 16 1 15 2 14 3 13 4 12 5 1 6 2 7 3 9 4 10 5 11 11 12 6 14
REMARK SMILES IDX 7 15 10 16 8 17 9 18 17 19 18 20 19 21 20 22 21 24 22 25
REMARK SMILES IDX 23 26 84 27 24 28 83 29 25 30 26 31 27 32 77 33 28 34 82 35
REMARK SMILES IDX 76 36 78 37 29 38 81 39 75 40 74 41 30 43 62 44 42 45 61 46
REMARK SMILES IDX 43 47 46 48 60 49 79 50 44 51 45 52 59 54 80 55 47 56 31 57
REMARK SMILES IDX 32 58 40 59 33 60 39 61 41 62 38 63 34 64 35 65 36 66 37 67
REMARK SMILES IDX 63 68 64 69 72 70 65 71 71 72 73 73 70 74 66 75 67 76 68 77
REMARK SMILES IDX 69 78 48 79 49 80 57 81 50 82 56 83 58 84 55 85 51 86 52 87
REMARK SMILES IDX 53 88 54 89
REMARK H PARENT 12 8 4 13 19 23 78 42 46 53
REMARK Flexibility Score: inf
ROOT
ATOM      1  C   UNL     1       4.707   1.602  -3.930  1.00  0.00     0.002 C 
ENDROOT
BRANCH   1   2
ATOM      2  C   UNL     1       4.211   2.425  -2.737  1.00  0.00     0.002 C 
BRANCH   2   3
ATOM      3  C   UNL     1       2.699   2.353  -2.479  1.00  0.00     0.021 C 
BRANCH   3   4
ATOM      4  C   UNL     1       2.163   0.932  -2.306  1.00  0.00     0.116 C 
BRANCH   4   5
ATOM      5  N   UNL     1       2.849   0.251  -1.234  1.00  0.00    -0.351 N 
ATOM      6  O   UNL     1       1.278   0.679   0.385  1.00  0.00    -0.269 OA
ATOM      7  C   UNL     1       2.373   0.232   0.053  1.00  0.00     0.275 C 
ATOM      8  H   UNL     1       3.691  -0.219  -1.435  1.00  0.00     0.163 HD
BRANCH   7   9
ATOM      9  C   UNL     1       3.356  -0.338   1.070  1.00  0.00     0.363 C 
BRANCH   9  10
ATOM     10  N   UNL     1       3.828  -1.689   0.695  1.00  0.00    -0.326 N 
ATOM     11  C   UNL     1       2.718  -2.660   0.577  1.00  0.00     0.275 C 
ATOM     12  C   UNL     1       4.317  -2.409   1.897  1.00  0.00     0.275 C 
ATOM     13  H   UNL     1       4.431  -1.503  -0.107  1.00  0.00     0.348 HD
ATOM     14  C   UNL     1       2.930  -3.105   2.047  1.00  0.00     0.068 C 
ATOM     15  C   UNL     1       2.942  -4.625   2.277  1.00  0.00     0.019 C 
ATOM     16  C   UNL     1       1.988  -2.510   3.105  1.00  0.00     0.019 C 
ATOM     17  C   UNL     1       1.906  -4.864   3.375  1.00  0.00     0.001 C 
ATOM     18  C   UNL     1       1.929  -3.581   4.182  1.00  0.00     0.001 C 
ENDBRANCH   9  10
ENDBRANCH   7   9
ENDBRANCH   4   5
ENDBRANCH   3   4
ENDBRANCH   2   3
ENDBRANCH   1   2
BRANCH   1  19
ATOM     19  C   UNL     1       4.030   1.926  -5.263  1.00  0.00     0.021 C 
BRANCH  19  20
ATOM     20  C   UNL     1       4.148   3.383  -5.696  1.00  0.00     0.116 C 
BRANCH  20  21
ATOM     21  N   UNL     1       5.527   3.775  -5.937  1.00  0.00    -0.352 N 
ATOM     22  C   UNL     1       6.081   4.358  -7.053  1.00  0.00     0.251 C 
ATOM     23  H   UNL     1       6.152   3.597  -5.198  1.00  0.00     0.163 HD
ATOM     24  O   UNL     1       7.297   4.443  -7.159  1.00  0.00    -0.269 OA
BRANCH  22  25
ATOM     25  C   UNL     1       5.195   4.851  -8.131  1.00  0.00     0.039 A 
ATOM     26  C   UNL     1       5.502   4.535  -9.456  1.00  0.00     0.014 A 
ATOM     27  C   UNL     1       4.056   5.604  -7.833  1.00  0.00     0.014 A 
ATOM     28  C   UNL     1       4.626   4.912 -10.477  1.00  0.00     0.010 A 
ATOM     29  C   UNL     1       3.147   5.912  -8.842  1.00  0.00     0.010 A 
ATOM     30  C   UNL     1       3.420   5.567 -10.174  1.00  0.00    -0.014 A 
BRANCH  30  31
ATOM     31  C   UNL     1       2.429   5.887 -11.236  1.00  0.00     0.031 A 
ATOM     32  C   UNL     1       2.073   7.318 -11.531  1.00  0.00     0.074 A 
ATOM     33  C   UNL     1       1.800   4.886 -11.885  1.00  0.00     0.049 A 
ATOM     34  N   UNL     1       1.177   7.795 -12.356  1.00  0.00    -0.248 NA
ATOM     35  C   UNL     1       2.803   8.347 -10.776  1.00  0.00     0.031 C 
ATOM     36  C   UNL     1       2.031   3.457 -11.658  1.00  0.00     0.029 A 
ATOM     37  N   UNL     1       0.832   4.912 -12.858  1.00  0.00    -0.354 N 
ATOM     38  C   UNL     1       1.227   9.178 -12.213  1.00  0.00     0.074 A 
ATOM     39  C   UNL     1       2.197   9.454 -11.174  1.00  0.00     0.031 C 
ATOM     40  C   UNL     1       1.244   2.747 -12.481  1.00  0.00     0.029 A 
ATOM     41  C   UNL     1       0.413   3.663 -13.256  1.00  0.00     0.049 A 
ATOM     42  H   UNL     1       0.471   5.747 -13.235  1.00  0.00     0.167 HD
ATOM     43  C   UNL     1       0.544  10.128 -12.900  1.00  0.00     0.034 A 
ATOM     44  C   UNL     1      -0.546   3.295 -14.130  1.00  0.00     0.034 A 
ATOM     45  C   UNL     1      -0.418   9.831 -13.934  1.00  0.00     0.049 A 
ATOM     46  C   UNL     1      -1.323   4.367 -14.852  1.00  0.00     0.074 A 
ATOM     47  C   UNL     1      -1.125  10.715 -14.732  1.00  0.00     0.029 A 
ATOM     48  N   UNL     1      -0.822   8.555 -14.306  1.00  0.00    -0.354 N 
ATOM     49  N   UNL     1      -1.222   5.673 -14.747  1.00  0.00    -0.248 NA
ATOM     50  C   UNL     1      -2.335   3.917 -15.816  1.00  0.00     0.031 C 
ATOM     51  C   UNL     1      -2.012   9.979 -15.525  1.00  0.00     0.029 A 
ATOM     52  C   UNL     1      -1.797   8.630 -15.291  1.00  0.00     0.049 A 
ATOM     53  H   UNL     1      -0.468   7.718 -13.926  1.00  0.00     0.167 HD
ATOM     54  C   UNL     1      -2.139   6.198 -15.654  1.00  0.00     0.074 A 
ATOM     55  C   UNL     1      -2.769   5.069 -16.307  1.00  0.00     0.031 C 
ATOM     56  C   UNL     1      -2.430   7.496 -15.925  1.00  0.00     0.034 A 
BRANCH  43  57
ATOM     57  C   UNL     1       0.795  11.571 -12.528  1.00  0.00     0.023 A 
ATOM     58  C   UNL     1       2.066  12.159 -12.659  1.00  0.00     0.031 A 
ATOM     59  C   UNL     1      -0.243  12.365 -12.009  1.00  0.00     0.131 A 
ATOM     60  C   UNL     1       2.285  13.466 -12.200  1.00  0.00     0.055 A 
ATOM     61  C   UNL     1      -0.039  13.696 -11.637  1.00  0.00     0.041 A 
ATOM     62  F   UNL     1      -1.474  11.857 -11.839  1.00  0.00    -0.206 F 
ATOM     63  C   UNL     1       1.235  14.249 -11.715  1.00  0.00     0.022 A 
BRANCH  60  64
ATOM     64  S   UNL     1       3.992  14.072 -12.098  1.00  0.00     0.124 S 
ATOM     65  O   UNL     1       4.608  13.072 -11.227  1.00  0.00    -0.237 OA
ATOM     66  O   UNL     1       4.418  14.054 -13.492  1.00  0.00    -0.237 OA
ATOM     67  O   UNL     1       3.850  15.400 -11.504  1.00  0.00    -0.744 OA
ENDBRANCH  60  64
ENDBRANCH  43  57
BRANCH  44  68
ATOM     68  C   UNL     1      -0.847   1.851 -14.354  1.00  0.00     0.023 A 
ATOM     69  C   UNL     1      -0.650   1.253 -15.609  1.00  0.00     0.031 A 
ATOM     70  C   UNL     1      -1.377   1.054 -13.322  1.00  0.00     0.131 A 
ATOM     71  C   UNL     1      -1.022  -0.085 -15.814  1.00  0.00     0.055 A 
ATOM     72  C   UNL     1      -1.690  -0.292 -13.515  1.00  0.00     0.041 A 
ATOM     73  F   UNL     1      -1.584   1.573 -12.102  1.00  0.00    -0.206 F 
ATOM     74  C   UNL     1      -1.526  -0.866 -14.771  1.00  0.00     0.022 A 
BRANCH  71  75
ATOM     75  S   UNL     1      -0.923  -0.768 -17.492  1.00  0.00     0.124 S 
ATOM     76  O   UNL     1      -1.785   0.144 -18.234  1.00  0.00    -0.237 OA
ATOM     77  O   UNL     1       0.506  -0.674 -17.773  1.00  0.00    -0.237 OA
ATOM     78  O   UNL     1      -1.437  -2.127 -17.336  1.00  0.00    -0.744 OA
ENDBRANCH  71  75
ENDBRANCH  44  68
BRANCH  56  79
ATOM     79  C   UNL     1      -3.447   7.762 -17.009  1.00  0.00     0.023 A 
ATOM     80  C   UNL     1      -4.798   7.400 -16.865  1.00  0.00     0.031 A 
ATOM     81  C   UNL     1      -3.055   8.386 -18.208  1.00  0.00     0.131 A 
ATOM     82  C   UNL     1      -5.697   7.617 -17.922  1.00  0.00     0.055 A 
ATOM     83  C   UNL     1      -3.967   8.658 -19.229  1.00  0.00     0.041 A 
ATOM     84  F   UNL     1      -1.778   8.749 -18.403  1.00  0.00    -0.206 F 
ATOM     85  C   UNL     1      -5.294   8.261 -19.094  1.00  0.00     0.022 A 
BRANCH  82  86
ATOM     86  S   UNL     1      -7.382   6.960 -17.782  1.00  0.00     0.124 S 
ATOM     87  O   UNL     1      -7.136   5.533 -17.600  1.00  0.00    -0.237 OA
ATOM     88  O   UNL     1      -7.899   7.671 -16.618  1.00  0.00    -0.237 OA
ATOM     89  O   UNL     1      -7.999   7.325 -19.056  1.00  0.00    -0.744 OA
ENDBRANCH  82  86
ENDBRANCH  56  79
ENDBRANCH  30  31
ENDBRANCH  22  25
ENDBRANCH  20  21
ENDBRANCH  19  20
ENDBRANCH   1  19
TORSDOF 17
