REMARK SMILES CCN(CCC(=O)NCCCCCCNC(=O)c1ccc(-c2c3nc(c(-c4cc(S(=O)(=O)[O-])ccc4F)c4ccc([nH]4)c(-c4cc(S(=O)(=O)[O-])ccc4F)c4nc(c(-c5cc(S(=O)(=O)[O-])ccc5F)c5ccc2[nH]5)C=C4)C=C3)cc1)C(=O)c1cc(Cl)ccc1F
REMARK SMILES IDX 11 1 10 2 9 3 8 4 6 5 7 6 5 8 4 9 3 10 2 11 1 12 81 13 82 14
REMARK SMILES IDX 83 15 84 16 89 17 85 18 88 19 90 20 86 21 87 22 12 23 13 24
REMARK SMILES IDX 14 25 15 26 16 27 17 29 18 30 19 31 80 32 20 33 79 34 21 35
REMARK SMILES IDX 22 36 23 37 73 38 24 39 78 40 72 41 74 42 25 43 77 44 71 45
REMARK SMILES IDX 70 46 26 48 58 49 38 50 57 51 39 52 42 53 56 54 75 55 40 56
REMARK SMILES IDX 41 57 55 59 76 60 43 61 27 62 28 63 36 64 29 65 35 66 37 67
REMARK SMILES IDX 34 68 30 69 31 70 32 71 33 72 59 73 60 74 68 75 61 76 67 77
REMARK SMILES IDX 69 78 66 79 62 80 63 81 64 82 65 83 44 84 45 85 53 86 46 87
REMARK SMILES IDX 52 88 54 89 51 90 47 91 48 92 49 93 50 94
REMARK H PARENT 8 7 15 28 74 47 42 58
REMARK Flexibility Score: inf
ROOT
ATOM      1  C   UNL     1       4.915   0.085  -3.331  1.00  0.00     0.002 C 
ENDROOT
BRANCH   1   2
ATOM      2  C   UNL     1       3.436   0.294  -3.000  1.00  0.00     0.021 C 
BRANCH   2   3
ATOM      3  C   UNL     1       2.608   1.059  -4.025  1.00  0.00     0.116 C 
BRANCH   3   4
ATOM      4  N   UNL     1       2.184   0.232  -5.141  1.00  0.00    -0.356 N 
ATOM      5  C   UNL     1       1.014  -0.440  -5.346  1.00  0.00     0.221 C 
ATOM      6  O   UNL     1       0.821  -0.950  -6.454  1.00  0.00    -0.275 OA
ATOM      7  H   UNL     1       2.846   0.141  -5.865  1.00  0.00     0.163 HD
BRANCH   5   8
ATOM      8  C   UNL     1      -0.037  -0.548  -4.260  1.00  0.00     0.121 C 
BRANCH   8   9
ATOM      9  C   UNL     1       0.003  -1.828  -3.402  1.00  0.00     0.129 C 
BRANCH   9  10
ATOM     10  N   UNL     1       0.853  -1.771  -2.198  1.00  0.00    -0.338 N 
BRANCH  10  11
ATOM     11  C   UNL     1       0.428  -0.717  -1.238  1.00  0.00     0.116 C 
ATOM     12  C   UNL     1       0.930  -0.692   0.199  1.00  0.00     0.027 C 
ENDBRANCH  10  11
BRANCH  10  13
ATOM     13  C   UNL     1       1.904  -2.655  -1.869  1.00  0.00     0.256 C 
ATOM     14  O   UNL     1       2.307  -2.712  -0.701  1.00  0.00    -0.269 OA
BRANCH  13  15
ATOM     15  C   UNL     1       2.700  -3.535  -2.806  1.00  0.00     0.077 A 
ATOM     16  C   UNL     1       3.678  -4.356  -2.188  1.00  0.00     0.037 A 
ATOM     17  C   UNL     1       2.699  -3.553  -4.199  1.00  0.00     0.136 A 
ATOM     18  C   UNL     1       4.573  -5.137  -2.928  1.00  0.00     0.042 A 
ATOM     19  C   UNL     1       3.572  -4.356  -4.946  1.00  0.00     0.041 A 
ATOM     20  F   UNL     1       1.909  -2.776  -4.927  1.00  0.00    -0.206 F 
ATOM     21  Cl  UNL     1       5.773  -6.069  -2.122  1.00  0.00    -0.084 Cl
ATOM     22  C   UNL     1       4.517  -5.148  -4.313  1.00  0.00     0.023 A 
ENDBRANCH  13  15
ENDBRANCH  10  13
ENDBRANCH   9  10
ENDBRANCH   8   9
ENDBRANCH   5   8
ENDBRANCH   3   4
ENDBRANCH   2   3
ENDBRANCH   1   2
BRANCH   1  23
ATOM     23  C   UNL     1       5.780   1.347  -3.353  1.00  0.00     0.002 C 
BRANCH  23  24
ATOM     24  C   UNL     1       5.617   2.297  -2.163  1.00  0.00     0.021 C 
BRANCH  24  25
ATOM     25  C   UNL     1       5.843   1.677  -0.783  1.00  0.00     0.116 C 
BRANCH  25  26
ATOM     26  N   UNL     1       7.227   1.297  -0.568  1.00  0.00    -0.352 N 
ATOM     27  C   UNL     1       8.190   1.850   0.240  1.00  0.00     0.251 C 
ATOM     28  H   UNL     1       7.524   0.514  -1.086  1.00  0.00     0.163 HD
ATOM     29  O   UNL     1       9.358   1.490   0.099  1.00  0.00    -0.269 OA
BRANCH  27  30
ATOM     30  C   UNL     1       7.857   2.882   1.252  1.00  0.00     0.039 A 
ATOM     31  C   UNL     1       8.741   3.951   1.428  1.00  0.00     0.014 A 
ATOM     32  C   UNL     1       6.730   2.782   2.074  1.00  0.00     0.014 A 
ATOM     33  C   UNL     1       8.471   4.938   2.382  1.00  0.00     0.010 A 
ATOM     34  C   UNL     1       6.424   3.805   2.977  1.00  0.00     0.010 A 
ATOM     35  C   UNL     1       7.295   4.890   3.149  1.00  0.00    -0.014 A 
BRANCH  35  36
ATOM     36  C   UNL     1       6.988   5.972   4.126  1.00  0.00     0.031 A 
ATOM     37  C   UNL     1       6.946   5.688   5.605  1.00  0.00     0.074 A 
ATOM     38  C   UNL     1       6.723   7.215   3.678  1.00  0.00     0.049 A 
ATOM     39  N   UNL     1       6.741   6.513   6.601  1.00  0.00    -0.248 NA
ATOM     40  C   UNL     1       7.132   4.289   6.014  1.00  0.00     0.031 C 
ATOM     41  C   UNL     1       6.675   7.610   2.268  1.00  0.00     0.029 A 
ATOM     42  N   UNL     1       6.452   8.378   4.356  1.00  0.00    -0.354 N 
ATOM     43  C   UNL     1       6.762   5.734   7.754  1.00  0.00     0.074 A 
ATOM     44  C   UNL     1       6.939   4.362   7.323  1.00  0.00     0.031 C 
ATOM     45  C   UNL     1       6.437   8.929   2.189  1.00  0.00     0.029 A 
ATOM     46  C   UNL     1       6.284   9.470   3.536  1.00  0.00     0.049 A 
ATOM     47  H   UNL     1       6.385   8.426   5.337  1.00  0.00     0.167 HD
ATOM     48  C   UNL     1       6.665   6.125   9.051  1.00  0.00     0.034 A 
ATOM     49  C   UNL     1       6.047  10.763   3.833  1.00  0.00     0.034 A 
ATOM     50  C   UNL     1       6.504   7.499   9.468  1.00  0.00     0.049 A 
ATOM     51  C   UNL     1       5.957  11.179   5.279  1.00  0.00     0.074 A 
ATOM     52  C   UNL     1       6.471   8.013  10.753  1.00  0.00     0.029 A 
ATOM     53  N   UNL     1       6.338   8.578   8.609  1.00  0.00    -0.354 N 
ATOM     54  N   UNL     1       6.058  10.441   6.360  1.00  0.00    -0.248 NA
ATOM     55  C   UNL     1       5.742  12.607   5.541  1.00  0.00     0.031 C 
ATOM     56  C   UNL     1       6.220   9.389  10.673  1.00  0.00     0.029 A 
ATOM     57  C   UNL     1       6.170   9.748   9.336  1.00  0.00     0.049 A 
ATOM     58  H   UNL     1       6.340   8.521   7.626  1.00  0.00     0.167 HD
ATOM     59  C   UNL     1       5.954  11.323   7.431  1.00  0.00     0.074 A 
ATOM     60  C   UNL     1       5.794  12.647   6.864  1.00  0.00     0.031 C 
ATOM     61  C   UNL     1       5.997  11.063   8.763  1.00  0.00     0.034 A 
BRANCH  48  62
ATOM     62  C   UNL     1       6.704   5.043  10.107  1.00  0.00     0.023 A 
ATOM     63  C   UNL     1       7.828   4.216  10.280  1.00  0.00     0.031 A 
ATOM     64  C   UNL     1       5.588   4.812  10.931  1.00  0.00     0.131 A 
ATOM     65  C   UNL     1       7.780   3.147  11.188  1.00  0.00     0.055 A 
ATOM     66  C   UNL     1       5.578   3.799  11.893  1.00  0.00     0.041 A 
ATOM     67  F   UNL     1       4.478   5.557  10.805  1.00  0.00    -0.206 F 
ATOM     68  C   UNL     1       6.672   2.947  12.013  1.00  0.00     0.022 A 
BRANCH  65  69
ATOM     69  S   UNL     1       9.123   1.927  11.161  1.00  0.00     0.124 S 
ATOM     70  O   UNL     1       9.088   1.481   9.770  1.00  0.00    -0.237 OA
ATOM     71  O   UNL     1      10.281   2.724  11.548  1.00  0.00    -0.237 OA
ATOM     72  O   UNL     1       8.697   0.927  12.137  1.00  0.00    -0.744 OA
ENDBRANCH  65  69
ENDBRANCH  48  62
BRANCH  49  73
ATOM     73  C   UNL     1       5.908  11.770   2.744  1.00  0.00     0.023 A 
ATOM     74  C   UNL     1       6.865  12.782   2.573  1.00  0.00     0.031 A 
ATOM     75  C   UNL     1       4.801  11.752   1.878  1.00  0.00     0.131 A 
ATOM     76  C   UNL     1       6.679  13.760   1.583  1.00  0.00     0.055 A 
ATOM     77  C   UNL     1       4.644  12.701   0.866  1.00  0.00     0.041 A 
ATOM     78  F   UNL     1       3.863  10.799   1.995  1.00  0.00    -0.206 F 
ATOM     79  C   UNL     1       5.581  13.719   0.722  1.00  0.00     0.022 A 
BRANCH  76  80
ATOM     80  S   UNL     1       7.866  15.128   1.480  1.00  0.00     0.124 S 
ATOM     81  O   UNL     1       7.746  15.727   2.804  1.00  0.00    -0.237 OA
ATOM     82  O   UNL     1       9.114  14.425   1.203  1.00  0.00    -0.237 OA
ATOM     83  O   UNL     1       7.353  15.940   0.379  1.00  0.00    -0.744 OA
ENDBRANCH  76  80
ENDBRANCH  49  73
BRANCH  61  84
ATOM     84  C   UNL     1       5.917  12.250   9.693  1.00  0.00     0.023 A 
ATOM     85  C   UNL     1       4.755  13.035   9.797  1.00  0.00     0.031 A 
ATOM     86  C   UNL     1       7.034  12.619  10.463  1.00  0.00     0.131 A 
ATOM     87  C   UNL     1       4.757  14.185  10.602  1.00  0.00     0.055 A 
ATOM     88  C   UNL     1       7.011  13.730  11.308  1.00  0.00     0.041 A 
ATOM     89  F   UNL     1       8.171  11.907  10.402  1.00  0.00    -0.206 F 
ATOM     90  C   UNL     1       5.873  14.529  11.369  1.00  0.00     0.022 A 
BRANCH  87  91
ATOM     91  S   UNL     1       3.317  15.287  10.551  1.00  0.00     0.124 S 
ATOM     92  O   UNL     1       3.224  15.602   9.129  1.00  0.00    -0.237 OA
ATOM     93  O   UNL     1       2.256  14.439  11.086  1.00  0.00    -0.237 OA
ATOM     94  O   UNL     1       3.708  16.404  11.409  1.00  0.00    -0.744 OA
ENDBRANCH  87  91
ENDBRANCH  61  84
ENDBRANCH  35  36
ENDBRANCH  27  30
ENDBRANCH  25  26
ENDBRANCH  24  25
ENDBRANCH  23  24
ENDBRANCH   1  23
TORSDOF 21
