REMARK SMILES O=C(CCc1ccc(S(=O)(=O)Nc2cccc(I)c2)cc1)NCCCCCCNC(=O)c1ccc(-c2c3nc(c(-c4cc(S(=O)(=O)[O-])ccc4F)c4ccc([nH]4)c(-c4cc(S(=O)(=O)[O-])ccc4F)c4nc(c(-c5cc(S(=O)(=O)[O-])ccc5F)c5ccc2[nH]5)C=C4)C=C3)cc1
REMARK SMILES IDX 24 1 23 2 22 3 1 4 2 5 3 7 4 8 5 9 6 10 21 11 7 12 20 13
REMARK SMILES IDX 8 14 9 15 10 16 11 17 12 18 13 20 14 21 19 22 15 23 17 24
REMARK SMILES IDX 16 25 18 26 25 27 26 28 27 29 28 30 29 31 30 32 31 34 32 35
REMARK SMILES IDX 33 36 94 37 34 38 93 39 35 40 36 41 37 42 87 43 38 44 92 45
REMARK SMILES IDX 86 46 88 47 39 48 91 49 85 50 84 51 40 53 72 54 52 55 71 56
REMARK SMILES IDX 53 57 56 58 70 59 89 60 54 61 55 62 69 64 90 65 57 66 41 67
REMARK SMILES IDX 42 68 50 69 43 70 49 71 51 72 48 73 44 74 45 75 46 76 47 77
REMARK SMILES IDX 73 78 74 79 82 80 75 81 81 82 83 83 80 84 76 85 77 86 78 87
REMARK SMILES IDX 79 88 58 89 59 90 67 91 60 92 66 93 68 94 65 95 61 96 62 97
REMARK SMILES IDX 63 98 64 99
REMARK H PARENT 22 6 12 19 29 33 88 52 56 63
REMARK Flexibility Score: inf
ROOT
ATOM      1  C   UNL     1       1.877   1.880  -2.749  1.00  0.00     0.021 C 
ENDROOT
BRANCH   1   2
ATOM      2  C   UNL     1       1.437   0.444  -2.442  1.00  0.00     0.116 C 
BRANCH   2   3
ATOM      3  N   UNL     1       2.178  -0.163  -1.351  1.00  0.00    -0.356 N 
ATOM      4  O   UNL     1       0.511  -0.058   0.203  1.00  0.00    -0.275 OA
ATOM      5  C   UNL     1       1.662  -0.371  -0.096  1.00  0.00     0.220 C 
ATOM      6  H   UNL     1       3.106  -0.441  -1.521  1.00  0.00     0.163 HD
BRANCH   5   7
ATOM      7  C   UNL     1       2.609  -0.908   0.979  1.00  0.00     0.105 C 
BRANCH   7   8
ATOM      8  C   UNL     1       3.688  -1.922   0.571  1.00  0.00     0.045 C 
BRANCH   8   9
ATOM      9  C   UNL     1       4.864  -1.411  -0.235  1.00  0.00    -0.047 A 
ATOM     10  C   UNL     1       5.693  -2.308  -0.928  1.00  0.00     0.005 A 
ATOM     11  C   UNL     1       5.139  -0.050  -0.342  1.00  0.00     0.005 A 
ATOM     12  C   UNL     1       6.745  -1.844  -1.736  1.00  0.00     0.022 A 
ATOM     13  C   UNL     1       6.133   0.409  -1.197  1.00  0.00     0.022 A 
ATOM     14  C   UNL     1       6.967  -0.470  -1.873  1.00  0.00     0.087 A 
BRANCH  14  15
ATOM     15  S   UNL     1       8.364   0.095  -2.836  1.00  0.00     0.261 S 
ATOM     16  O   UNL     1       9.486   0.180  -1.929  1.00  0.00    -0.201 OA
ATOM     17  O   UNL     1       8.413  -0.763  -4.004  1.00  0.00    -0.201 OA
BRANCH  15  18
ATOM     18  N   UNL     1       8.020   1.619  -3.446  1.00  0.00    -0.280 N 
ATOM     19  H   UNL     1       7.994   1.706  -4.426  1.00  0.00     0.180 HD
BRANCH  18  20
ATOM     20  C   UNL     1       7.761   2.803  -2.695  1.00  0.00     0.050 A 
ATOM     21  C   UNL     1       7.027   3.808  -3.334  1.00  0.00     0.027 A 
ATOM     22  C   UNL     1       8.061   2.943  -1.338  1.00  0.00     0.041 A 
ATOM     23  C   UNL     1       6.456   4.849  -2.599  1.00  0.00     0.003 A 
ATOM     24  C   UNL     1       7.452   3.962  -0.598  1.00  0.00     0.015 A 
ATOM     25  C   UNL     1       6.633   4.903  -1.219  1.00  0.00     0.015 A 
ATOM     26  I   UNL     1       7.640   3.974   1.475  1.00  0.00    -0.044 I 
ENDBRANCH  18  20
ENDBRANCH  15  18
ENDBRANCH  14  15
ENDBRANCH   8   9
ENDBRANCH   7   8
ENDBRANCH   5   7
ENDBRANCH   2   3
ENDBRANCH   1   2
BRANCH   1  27
ATOM     27  C   UNL     1       3.368   2.094  -3.045  1.00  0.00     0.002 C 
BRANCH  27  28
ATOM     28  C   UNL     1       3.998   1.165  -4.086  1.00  0.00     0.002 C 
BRANCH  28  29
ATOM     29  C   UNL     1       3.449   1.297  -5.510  1.00  0.00     0.021 C 
BRANCH  29  30
ATOM     30  C   UNL     1       3.743   2.625  -6.206  1.00  0.00     0.116 C 
BRANCH  30  31
ATOM     31  N   UNL     1       5.163   2.847  -6.425  1.00  0.00    -0.352 N 
ATOM     32  C   UNL     1       5.801   3.524  -7.439  1.00  0.00     0.251 C 
ATOM     33  H   UNL     1       5.758   2.453  -5.747  1.00  0.00     0.163 HD
ATOM     34  O   UNL     1       7.028   3.572  -7.446  1.00  0.00    -0.269 OA
BRANCH  32  35
ATOM     35  C   UNL     1       5.010   4.118  -8.542  1.00  0.00     0.039 A 
ATOM     36  C   UNL     1       5.382   3.830  -9.859  1.00  0.00     0.014 A 
ATOM     37  C   UNL     1       3.873   4.889  -8.289  1.00  0.00     0.014 A 
ATOM     38  C   UNL     1       4.556   4.223 -10.916  1.00  0.00     0.010 A 
ATOM     39  C   UNL     1       3.021   5.228  -9.339  1.00  0.00     0.010 A 
ATOM     40  C   UNL     1       3.339   4.875 -10.660  1.00  0.00    -0.014 A 
BRANCH  40  41
ATOM     41  C   UNL     1       2.363   5.143 -11.750  1.00  0.00     0.031 A 
ATOM     42  C   UNL     1       2.011   6.555 -12.127  1.00  0.00     0.074 A 
ATOM     43  C   UNL     1       1.729   4.109 -12.340  1.00  0.00     0.049 A 
ATOM     44  N   UNL     1       1.118   6.986 -12.981  1.00  0.00    -0.248 NA
ATOM     45  C   UNL     1       2.743   7.621 -11.429  1.00  0.00     0.031 C 
ATOM     46  C   UNL     1       1.950   2.695 -12.029  1.00  0.00     0.029 A 
ATOM     47  N   UNL     1       0.761   4.085 -13.313  1.00  0.00    -0.354 N 
ATOM     48  C   UNL     1       1.171   8.374 -12.917  1.00  0.00     0.074 A 
ATOM     49  C   UNL     1       2.146   8.707 -11.899  1.00  0.00     0.031 C 
ATOM     50  C   UNL     1       1.153   1.943 -12.805  1.00  0.00     0.029 A 
ATOM     51  C   UNL     1       0.334   2.817 -13.638  1.00  0.00     0.049 A 
ATOM     52  H   UNL     1       0.405   4.898 -13.739  1.00  0.00     0.167 HD
ATOM     53  C   UNL     1       0.484   9.284 -13.653  1.00  0.00     0.034 A 
ATOM     54  C   UNL     1      -0.620   2.405 -14.497  1.00  0.00     0.034 A 
ATOM     55  C   UNL     1      -0.480   8.936 -14.669  1.00  0.00     0.049 A 
ATOM     56  C   UNL     1      -1.385   3.435 -15.289  1.00  0.00     0.074 A 
ATOM     57  C   UNL     1      -1.189   9.777 -15.510  1.00  0.00     0.029 A 
ATOM     58  N   UNL     1      -0.880   7.642 -14.977  1.00  0.00    -0.354 N 
ATOM     59  N   UNL     1      -1.285   4.744 -15.254  1.00  0.00    -0.248 NA
ATOM     60  C   UNL     1      -2.383   2.932 -16.241  1.00  0.00     0.031 C 
ATOM     61  C   UNL     1      -2.060   8.998 -16.281  1.00  0.00     0.029 A 
ATOM     62  C   UNL     1      -1.846   7.665 -15.972  1.00  0.00     0.049 A 
ATOM     63  H   UNL     1      -0.529   6.827 -14.551  1.00  0.00     0.167 HD
ATOM     64  C   UNL     1      -2.189   5.217 -16.200  1.00  0.00     0.074 A 
ATOM     65  C   UNL     1      -2.814   4.055 -16.796  1.00  0.00     0.031 C 
ATOM     66  C   UNL     1      -2.472   6.498 -16.548  1.00  0.00     0.034 A 
BRANCH  53  67
ATOM     67  C   UNL     1       0.740  10.743 -13.359  1.00  0.00     0.023 A 
ATOM     68  C   UNL     1       2.005  11.324 -13.560  1.00  0.00     0.031 A 
ATOM     69  C   UNL     1      -0.282  11.557 -12.841  1.00  0.00     0.131 A 
ATOM     70  C   UNL     1       2.237  12.650 -13.169  1.00  0.00     0.055 A 
ATOM     71  C   UNL     1      -0.067  12.902 -12.531  1.00  0.00     0.041 A 
ATOM     72  F   UNL     1      -1.506  11.055 -12.610  1.00  0.00    -0.206 F 
ATOM     73  C   UNL     1       1.203  13.451 -12.678  1.00  0.00     0.022 A 
BRANCH  70  74
ATOM     74  S   UNL     1       3.942  13.266 -13.171  1.00  0.00     0.124 S 
ATOM     75  O   UNL     1       4.594  12.330 -12.258  1.00  0.00    -0.237 OA
ATOM     76  O   UNL     1       4.317  13.153 -14.576  1.00  0.00    -0.237 OA
ATOM     77  O   UNL     1       3.815  14.631 -12.666  1.00  0.00    -0.744 OA
ENDBRANCH  70  74
ENDBRANCH  53  67
BRANCH  54  78
ATOM     78  C   UNL     1      -0.922   0.953 -14.650  1.00  0.00     0.023 A 
ATOM     79  C   UNL     1      -0.665   0.285 -15.857  1.00  0.00     0.031 A 
ATOM     80  C   UNL     1      -1.509   0.223 -13.601  1.00  0.00     0.131 A 
ATOM     81  C   UNL     1      -1.034  -1.062 -16.003  1.00  0.00     0.055 A 
ATOM     82  C   UNL     1      -1.830  -1.129 -13.735  1.00  0.00     0.041 A 
ATOM     83  F   UNL     1      -1.768   0.813 -12.424  1.00  0.00    -0.206 F 
ATOM     84  C   UNL     1      -1.605  -1.776 -14.947  1.00  0.00     0.022 A 
BRANCH  81  85
ATOM     85  S   UNL     1      -0.827  -1.848 -17.624  1.00  0.00     0.124 S 
ATOM     86  O   UNL     1      -1.637  -0.986 -18.478  1.00  0.00    -0.237 OA
ATOM     87  O   UNL     1       0.617  -1.768 -17.816  1.00  0.00    -0.237 OA
ATOM     88  O   UNL     1      -1.353  -3.196 -17.418  1.00  0.00    -0.744 OA
ENDBRANCH  81  85
ENDBRANCH  54  78
BRANCH  66  89
ATOM     89  C   UNL     1      -3.476   6.698 -17.656  1.00  0.00     0.023 A 
ATOM     90  C   UNL     1      -4.837   6.391 -17.486  1.00  0.00     0.031 A 
ATOM     91  C   UNL     1      -3.059   7.192 -18.905  1.00  0.00     0.131 A 
ATOM     92  C   UNL     1      -5.726   6.535 -18.562  1.00  0.00     0.055 A 
ATOM     93  C   UNL     1      -3.957   7.385 -19.956  1.00  0.00     0.041 A 
ATOM     94  F   UNL     1      -1.770   7.499 -19.122  1.00  0.00    -0.206 F 
ATOM     95  C   UNL     1      -5.297   7.045 -19.791  1.00  0.00     0.022 A 
BRANCH  92  96
ATOM     96  S   UNL     1      -7.439   5.976 -18.360  1.00  0.00     0.124 S 
ATOM     97  O   UNL     1      -7.262   4.560 -18.055  1.00  0.00    -0.237 OA
ATOM     98  O   UNL     1      -7.913   6.810 -17.262  1.00  0.00    -0.237 OA
ATOM     99  O   UNL     1      -8.048   6.258 -19.659  1.00  0.00    -0.744 OA
ENDBRANCH  92  96
ENDBRANCH  66  89
ENDBRANCH  40  41
ENDBRANCH  32  35
ENDBRANCH  30  31
ENDBRANCH  29  30
ENDBRANCH  28  29
ENDBRANCH  27  28
ENDBRANCH   1  27
TORSDOF 21
