REMARK SMILES Cc1c(NC(=O)c2ccccc2NC(=O)[C@@H]2CCCO2)cccc1C(=O)NCCCCCCNC(=O)c1ccc(-c2c3nc(c(-c4cc(S(=O)(=O)[O-])ccc4F)c4ccc([nH]4)c(-c4cc(S(=O)(=O)[O-])ccc4F)c4nc(c(-c5cc(S(=O)(=O)[O-])ccc5F)c5ccc2[nH]5)C=C4)C=C3)cc1
REMARK SMILES IDX 30 1 29 2 28 3 27 4 25 5 26 6 24 8 1 9 2 10 3 11 21 12 23 13
REMARK SMILES IDX 22 14 4 15 5 16 6 18 7 19 8 20 12 21 9 22 11 23 10 24 13 25
REMARK SMILES IDX 14 26 15 28 16 29 17 30 20 31 18 32 19 33 31 34 32 35 33 36
REMARK SMILES IDX 34 37 35 38 36 40 37 41 38 42 99 43 39 44 98 45 40 46 41 47
REMARK SMILES IDX 42 48 92 49 43 50 97 51 91 52 93 53 44 54 96 55 90 56 89 57
REMARK SMILES IDX 45 59 77 60 57 61 76 62 58 63 61 64 75 65 94 66 59 67 60 68
REMARK SMILES IDX 74 70 95 71 62 72 46 73 47 74 55 75 48 76 54 77 56 78 53 79
REMARK SMILES IDX 49 80 50 81 51 82 52 83 78 84 79 85 87 86 80 87 86 88 88 89
REMARK SMILES IDX 85 90 81 91 82 92 83 93 84 94 63 95 64 96 72 97 65 98 71 99
REMARK SMILES IDX 73 100 70 101 66 102 67 103 68 104 69 105
REMARK H PARENT 27 7 4 17 13 27 34 39 93 58 61 69
REMARK Flexibility Score: inf
ROOT
ATOM      1  C   UNL     1       5.371   2.895  -0.619  1.00  0.00     0.002 C 
ENDROOT
BRANCH   1   2
ATOM      2  C   UNL     1       4.263   1.842  -0.516  1.00  0.00     0.021 C 
BRANCH   2   3
ATOM      3  C   UNL     1       3.213   2.098   0.576  1.00  0.00     0.116 C 
BRANCH   3   4
ATOM      4  N   UNL     1       2.034   2.733   0.015  1.00  0.00    -0.352 N 
ATOM      5  C   UNL     1       0.732   2.347  -0.160  1.00  0.00     0.251 C 
ATOM      6  O   UNL     1      -0.046   3.205  -0.589  1.00  0.00    -0.269 OA
ATOM      7  H   UNL     1       2.210   3.645  -0.312  1.00  0.00     0.163 HD
BRANCH   5   8
ATOM      8  C   UNL     1       0.161   1.012   0.212  1.00  0.00     0.044 A 
ATOM      9  C   UNL     1       2.010  -0.449  -0.777  1.00  0.00     0.047 C 
ATOM     10  C   UNL     1       0.726  -0.262  -0.011  1.00  0.00    -0.015 A 
ATOM     11  C   UNL     1      -0.017  -1.424   0.341  1.00  0.00     0.045 A 
ATOM     12  C   UNL     1      -1.325  -1.324   0.820  1.00  0.00     0.026 A 
ATOM     13  C   UNL     1      -1.166   1.075   0.693  1.00  0.00     0.014 A 
ATOM     14  C   UNL     1      -1.905  -0.073   0.981  1.00  0.00     0.003 A 
BRANCH  11  15
ATOM     15  N   UNL     1       0.596  -2.680   0.160  1.00  0.00    -0.322 N 
ATOM     16  C   UNL     1       0.096  -3.912  -0.193  1.00  0.00     0.257 C 
ATOM     17  H   UNL     1       1.568  -2.675   0.316  1.00  0.00     0.170 HD
ATOM     18  O   UNL     1       0.780  -4.910   0.039  1.00  0.00    -0.269 OA
BRANCH  16  19
ATOM     19  C   UNL     1      -1.192  -4.085  -0.929  1.00  0.00     0.063 A 
ATOM     20  C   UNL     1      -1.897  -5.259  -0.595  1.00  0.00     0.016 A 
ATOM     21  C   UNL     1      -1.667  -3.241  -1.968  1.00  0.00     0.054 A 
ATOM     22  C   UNL     1      -3.099  -5.572  -1.220  1.00  0.00     0.001 A 
ATOM     23  C   UNL     1      -2.914  -3.542  -2.521  1.00  0.00     0.027 A 
ATOM     24  C   UNL     1      -3.619  -4.697  -2.161  1.00  0.00     0.002 A 
BRANCH  21  25
ATOM     25  N   UNL     1      -0.852  -2.182  -2.420  1.00  0.00    -0.323 N 
ATOM     26  C   UNL     1      -0.920  -1.165  -3.327  1.00  0.00     0.253 C 
ATOM     27  H   UNL     1       0.011  -2.175  -1.947  1.00  0.00     0.170 HD
ATOM     28  O   UNL     1       0.042  -0.388  -3.337  1.00  0.00    -0.272 OA
BRANCH  26  29
ATOM     29  C   UNL     1      -2.076  -1.002  -4.311  1.00  0.00     0.207 C 
ATOM     30  C   UNL     1      -1.919  -2.003  -5.449  1.00  0.00     0.044 C 
ATOM     31  O   UNL     1      -2.142   0.296  -4.931  1.00  0.00    -0.368 OA
ATOM     32  C   UNL     1      -2.582  -1.297  -6.600  1.00  0.00     0.032 C 
ATOM     33  C   UNL     1      -2.160   0.132  -6.354  1.00  0.00     0.161 C 
ENDBRANCH  26  29
ENDBRANCH  21  25
ENDBRANCH  16  19
ENDBRANCH  11  15
ENDBRANCH   5   8
ENDBRANCH   3   4
ENDBRANCH   2   3
ENDBRANCH   1   2
BRANCH   1  34
ATOM     34  C   UNL     1       6.289   3.031   0.604  1.00  0.00     0.002 C 
BRANCH  34  35
ATOM     35  C   UNL     1       6.912   1.731   1.112  1.00  0.00     0.021 C 
BRANCH  35  36
ATOM     36  C   UNL     1       7.920   1.108   0.149  1.00  0.00     0.116 C 
BRANCH  36  37
ATOM     37  N   UNL     1       9.310   1.362   0.510  1.00  0.00    -0.352 N 
ATOM     38  C   UNL     1      10.460   0.957  -0.134  1.00  0.00     0.251 C 
ATOM     39  H   UNL     1       9.446   1.896   1.326  1.00  0.00     0.163 HD
ATOM     40  O   UNL     1      11.571   1.198   0.340  1.00  0.00    -0.269 OA
BRANCH  38  41
ATOM     41  C   UNL     1      10.356   0.324  -1.469  1.00  0.00     0.039 A 
ATOM     42  C   UNL     1      11.101   0.888  -2.512  1.00  0.00     0.014 A 
ATOM     43  C   UNL     1       9.411  -0.664  -1.734  1.00  0.00     0.014 A 
ATOM     44  C   UNL     1      10.748   0.617  -3.833  1.00  0.00     0.010 A 
ATOM     45  C   UNL     1       9.007  -0.873  -3.041  1.00  0.00     0.010 A 
ATOM     46  C   UNL     1       9.635  -0.187  -4.086  1.00  0.00    -0.014 A 
BRANCH  46  47
ATOM     47  C   UNL     1       8.986  -0.254  -5.393  1.00  0.00     0.031 A 
ATOM     48  C   UNL     1       9.149  -1.431  -6.270  1.00  0.00     0.074 A 
ATOM     49  C   UNL     1       8.211   0.772  -5.807  1.00  0.00     0.049 A 
ATOM     50  N   UNL     1       9.013  -1.404  -7.554  1.00  0.00    -0.248 NA
ATOM     51  C   UNL     1       9.526  -2.743  -5.758  1.00  0.00     0.031 C 
ATOM     52  C   UNL     1       7.325   0.808  -6.966  1.00  0.00     0.029 A 
ATOM     53  N   UNL     1       8.302   2.100  -5.397  1.00  0.00    -0.354 N 
ATOM     54  C   UNL     1       9.036  -2.699  -8.009  1.00  0.00     0.074 A 
ATOM     55  C   UNL     1       9.400  -3.494  -6.857  1.00  0.00     0.031 C 
ATOM     56  C   UNL     1       7.174   2.084  -7.352  1.00  0.00     0.029 A 
ATOM     57  C   UNL     1       8.059   2.894  -6.534  1.00  0.00     0.049 A 
ATOM     58  H   UNL     1       8.498   2.421  -4.487  1.00  0.00     0.167 HD
ATOM     59  C   UNL     1       8.641  -2.980  -9.283  1.00  0.00     0.034 A 
ATOM     60  C   UNL     1       9.013   3.755  -6.995  1.00  0.00     0.034 A 
ATOM     61  C   UNL     1       8.299  -1.777 -10.038  1.00  0.00     0.049 A 
ATOM     62  C   UNL     1       9.492   3.456  -8.402  1.00  0.00     0.074 A 
ATOM     63  C   UNL     1       7.114  -1.137 -10.358  1.00  0.00     0.029 A 
ATOM     64  N   UNL     1       9.311  -0.897 -10.374  1.00  0.00    -0.354 N 
ATOM     65  N   UNL     1       9.101   2.437  -9.118  1.00  0.00    -0.248 NA
ATOM     66  C   UNL     1      10.531   4.239  -9.074  1.00  0.00     0.031 C 
ATOM     67  C   UNL     1       7.433   0.161 -10.855  1.00  0.00     0.029 A 
ATOM     68  C   UNL     1       8.809   0.296 -10.856  1.00  0.00     0.049 A 
ATOM     69  H   UNL     1      10.271  -1.096 -10.281  1.00  0.00     0.167 HD
ATOM     70  C   UNL     1       9.847   2.377 -10.266  1.00  0.00     0.074 A 
ATOM     71  C   UNL     1      10.727   3.530 -10.197  1.00  0.00     0.031 C 
ATOM     72  C   UNL     1       9.737   1.366 -11.176  1.00  0.00     0.034 A 
BRANCH  59  73
ATOM     73  C   UNL     1       8.345  -4.374  -9.775  1.00  0.00     0.023 A 
ATOM     74  C   UNL     1       7.322  -4.567 -10.725  1.00  0.00     0.031 A 
ATOM     75  C   UNL     1       9.002  -5.539  -9.340  1.00  0.00     0.131 A 
ATOM     76  C   UNL     1       6.925  -5.857 -11.119  1.00  0.00     0.055 A 
ATOM     77  C   UNL     1       8.564  -6.826  -9.678  1.00  0.00     0.041 A 
ATOM     78  F   UNL     1      10.124  -5.479  -8.607  1.00  0.00    -0.206 F 
ATOM     79  C   UNL     1       7.509  -6.991 -10.563  1.00  0.00     0.022 A 
BRANCH  76  80
ATOM     80  S   UNL     1       5.638  -6.033 -12.386  1.00  0.00     0.124 S 
ATOM     81  O   UNL     1       4.521  -5.298 -11.801  1.00  0.00    -0.237 OA
ATOM     82  O   UNL     1       6.271  -5.427 -13.552  1.00  0.00    -0.237 OA
ATOM     83  O   UNL     1       5.444  -7.480 -12.473  1.00  0.00    -0.744 OA
ENDBRANCH  76  80
ENDBRANCH  59  73
BRANCH  60  84
ATOM     84  C   UNL     1       9.845   4.336  -5.898  1.00  0.00     0.023 A 
ATOM     85  C   UNL     1       9.159   4.978  -4.843  1.00  0.00     0.031 A 
ATOM     86  C   UNL     1      11.173   3.950  -5.674  1.00  0.00     0.131 A 
ATOM     87  C   UNL     1       9.731   5.043  -3.566  1.00  0.00     0.055 A 
ATOM     88  C   UNL     1      11.773   4.104  -4.419  1.00  0.00     0.041 A 
ATOM     89  F   UNL     1      11.870   3.304  -6.620  1.00  0.00    -0.206 F 
ATOM     90  C   UNL     1      11.037   4.606  -3.345  1.00  0.00     0.022 A 
BRANCH  87  91
ATOM     91  S   UNL     1       8.646   5.408  -2.152  1.00  0.00     0.124 S 
ATOM     92  O   UNL     1       8.687   6.864  -2.101  1.00  0.00    -0.237 OA
ATOM     93  O   UNL     1       7.373   4.820  -2.564  1.00  0.00    -0.237 OA
ATOM     94  O   UNL     1       9.293   4.719  -1.037  1.00  0.00    -0.744 OA
ENDBRANCH  87  91
ENDBRANCH  60  84
BRANCH  72  95
ATOM     95  C   UNL     1      10.550   1.324 -12.439  1.00  0.00     0.023 A 
ATOM     96  C   UNL     1      10.752   2.474 -13.219  1.00  0.00     0.031 A 
ATOM     97  C   UNL     1      11.095   0.121 -12.934  1.00  0.00     0.131 A 
ATOM     98  C   UNL     1      11.528   2.419 -14.388  1.00  0.00     0.055 A 
ATOM     99  C   UNL     1      11.792   0.053 -14.143  1.00  0.00     0.041 A 
ATOM    100  F   UNL     1      11.012  -1.025 -12.242  1.00  0.00    -0.206 F 
ATOM    101  C   UNL     1      12.025   1.210 -14.872  1.00  0.00     0.022 A 
BRANCH  98 102
ATOM    102  S   UNL     1      11.957   3.974 -15.211  1.00  0.00     0.124 S 
ATOM    103  O   UNL     1      10.652   4.576 -15.458  1.00  0.00    -0.237 OA
ATOM    104  O   UNL     1      12.777   4.629 -14.195  1.00  0.00    -0.237 OA
ATOM    105  O   UNL     1      12.681   3.543 -16.406  1.00  0.00    -0.744 OA
ENDBRANCH  98 102
ENDBRANCH  72  95
ENDBRANCH  46  47
ENDBRANCH  38  41
ENDBRANCH  36  37
ENDBRANCH  35  36
ENDBRANCH  34  35
ENDBRANCH   1  34
TORSDOF 20
