REMARK SMILES NS(=O)(=O)c1ccc(-c2coc(=O)n2-c2ccc(C(=O)NCCCCCCNC(=O)c3ccc(-c4c5nc(c(-c6cc(S(=O)(=O)[O-])ccc6F)c6ccc([nH]6)c(-c6cc(S(=O)(=O)[O-])ccc6F)c6nc(c(-c7cc(S(=O)(=O)[O-])ccc7F)c7ccc4[nH]7)C=C6)C=C5)cc3)cc2)cc1
REMARK SMILES IDX 24 1 23 2 22 3 21 4 19 5 20 6 18 8 15 9 16 10 95 11 17 12
REMARK SMILES IDX 94 13 14 14 9 15 10 16 11 17 12 18 13 19 8 20 5 21 6 22
REMARK SMILES IDX 97 23 7 24 96 25 2 26 3 27 4 28 1 29 25 32 26 33 27 34 28 35
REMARK SMILES IDX 29 36 30 38 31 39 32 40 93 41 33 42 92 43 34 44 35 45 36 46
REMARK SMILES IDX 86 47 37 48 91 49 85 50 87 51 38 52 90 53 84 54 83 55 39 57
REMARK SMILES IDX 71 58 51 59 70 60 52 61 55 62 69 63 88 64 53 65 54 66 68 68
REMARK SMILES IDX 89 69 56 70 40 71 41 72 49 73 42 74 48 75 50 76 47 77 43 78
REMARK SMILES IDX 44 79 45 80 46 81 72 82 73 83 81 84 74 85 80 86 82 87 79 88
REMARK SMILES IDX 75 89 76 90 77 91 78 92 57 93 58 94 66 95 59 96 65 97 67 98
REMARK SMILES IDX 64 99 60 100 61 101 62 102 63 103
REMARK H PARENT 21 7 1 30 1 31 28 37 87 56 55 67
REMARK Flexibility Score: inf
ROOT
ATOM      1  C   UNL     1      -6.064  -1.001  -5.487  1.00  0.00     0.002 C 
ENDROOT
BRANCH   1   2
ATOM      2  C   UNL     1      -4.629  -1.545  -5.490  1.00  0.00     0.021 C 
BRANCH   2   3
ATOM      3  C   UNL     1      -4.341  -2.484  -4.317  1.00  0.00     0.116 C 
BRANCH   3   4
ATOM      4  N   UNL     1      -4.877  -3.805  -4.589  1.00  0.00    -0.352 N 
ATOM      5  C   UNL     1      -4.304  -4.991  -4.969  1.00  0.00     0.251 C 
ATOM      6  O   UNL     1      -5.050  -5.961  -5.109  1.00  0.00    -0.269 OA
ATOM      7  H   UNL     1      -5.854  -3.861  -4.477  1.00  0.00     0.163 HD
BRANCH   5   8
ATOM      8  C   UNL     1      -2.833  -5.179  -5.131  1.00  0.00     0.039 A 
ATOM      9  C   UNL     1      -0.064  -5.673  -5.126  1.00  0.00     0.053 A 
ATOM     10  C   UNL     1      -0.956  -6.739  -5.021  1.00  0.00     0.028 A 
ATOM     11  C   UNL     1      -0.558  -4.383  -5.337  1.00  0.00     0.028 A 
ATOM     12  C   UNL     1      -2.332  -6.485  -4.987  1.00  0.00     0.016 A 
ATOM     13  C   UNL     1      -1.932  -4.153  -5.406  1.00  0.00     0.016 A 
BRANCH   9  14
ATOM     14  N   UNL     1       1.324  -5.868  -5.006  1.00  0.00    -0.242 N 
ATOM     15  C   UNL     1       2.201  -5.182  -4.215  1.00  0.00     0.095 A 
ATOM     16  C   UNL     1       3.411  -5.609  -4.555  1.00  0.00     0.228 A 
ATOM     17  O   UNL     1       3.416  -6.587  -5.549  1.00  0.00    -0.415 OA
ATOM     18  C   UNL     1       2.051  -6.749  -5.800  1.00  0.00     0.424 A 
ATOM     19  O   UNL     1       1.625  -7.546  -6.625  1.00  0.00    -0.223 OA
BRANCH  15  20
ATOM     20  C   UNL     1       1.834  -4.301  -3.108  1.00  0.00     0.002 A 
ATOM     21  C   UNL     1       1.060  -2.632  -0.991  1.00  0.00     0.082 A 
ATOM     22  C   UNL     1       0.635  -3.962  -1.013  1.00  0.00     0.022 A 
ATOM     23  C   UNL     1       1.875  -2.132  -2.011  1.00  0.00     0.022 A 
ATOM     24  C   UNL     1       1.024  -4.790  -2.068  1.00  0.00     0.012 A 
ATOM     25  C   UNL     1       2.265  -2.970  -3.063  1.00  0.00     0.012 A 
BRANCH  21  26
ATOM     26  S   UNL     1       0.536  -1.623   0.363  1.00  0.00     0.238 S 
ATOM     27  O   UNL     1       1.188  -2.098   1.559  1.00  0.00    -0.207 OA
ATOM     28  O   UNL     1      -0.896  -1.448   0.270  1.00  0.00    -0.207 OA
BRANCH  26  29
ATOM     29  N   UNL     1       1.196  -0.109   0.059  1.00  0.00    -0.225 NA
ATOM     30  H   UNL     1       0.933   0.533   0.807  1.00  0.00     0.137 HD
ATOM     31  H   UNL     1       0.843   0.243  -0.831  1.00  0.00     0.137 HD
ENDBRANCH  26  29
ENDBRANCH  21  26
ENDBRANCH  15  20
ENDBRANCH   9  14
ENDBRANCH   5   8
ENDBRANCH   3   4
ENDBRANCH   2   3
ENDBRANCH   1   2
BRANCH   1  32
ATOM     32  C   UNL     1      -6.477  -0.242  -4.215  1.00  0.00     0.002 C 
BRANCH  32  33
ATOM     33  C   UNL     1      -5.521   0.869  -3.754  1.00  0.00     0.021 C 
BRANCH  33  34
ATOM     34  C   UNL     1      -5.490   2.061  -4.696  1.00  0.00     0.116 C 
BRANCH  34  35
ATOM     35  N   UNL     1      -6.760   2.789  -4.690  1.00  0.00    -0.352 N 
ATOM     36  C   UNL     1      -7.129   3.880  -5.452  1.00  0.00     0.251 C 
ATOM     37  H   UNL     1      -7.439   2.458  -4.060  1.00  0.00     0.163 HD
ATOM     38  O   UNL     1      -8.033   4.619  -5.080  1.00  0.00    -0.269 OA
BRANCH  36  39
ATOM     39  C   UNL     1      -6.417   4.130  -6.716  1.00  0.00     0.039 A 
ATOM     40  C   UNL     1      -6.102   5.423  -7.141  1.00  0.00     0.014 A 
ATOM     41  C   UNL     1      -6.045   3.022  -7.473  1.00  0.00     0.014 A 
ATOM     42  C   UNL     1      -5.343   5.579  -8.299  1.00  0.00     0.010 A 
ATOM     43  C   UNL     1      -5.155   3.167  -8.502  1.00  0.00     0.010 A 
ATOM     44  C   UNL     1      -4.860   4.441  -8.966  1.00  0.00    -0.014 A 
BRANCH  44  45
ATOM     45  C   UNL     1      -3.939   4.550 -10.091  1.00  0.00     0.031 A 
ATOM     46  C   UNL     1      -2.706   5.320  -9.787  1.00  0.00     0.074 A 
ATOM     47  C   UNL     1      -4.066   3.815 -11.218  1.00  0.00     0.049 A 
ATOM     48  N   UNL     1      -2.386   6.495 -10.215  1.00  0.00    -0.248 NA
ATOM     49  C   UNL     1      -1.803   4.810  -8.740  1.00  0.00     0.031 C 
ATOM     50  C   UNL     1      -5.053   2.772 -11.523  1.00  0.00     0.029 A 
ATOM     51  N   UNL     1      -3.248   3.764 -12.302  1.00  0.00    -0.354 N 
ATOM     52  C   UNL     1      -1.116   6.751  -9.710  1.00  0.00     0.074 A 
ATOM     53  C   UNL     1      -0.929   5.813  -8.637  1.00  0.00     0.031 C 
ATOM     54  C   UNL     1      -4.630   2.038 -12.576  1.00  0.00     0.029 A 
ATOM     55  C   UNL     1      -3.439   2.658 -13.128  1.00  0.00     0.049 A 
ATOM     56  H   UNL     1      -2.572   4.455 -12.489  1.00  0.00     0.167 HD
ATOM     57  C   UNL     1      -0.233   7.526 -10.401  1.00  0.00     0.034 A 
ATOM     58  C   UNL     1      -2.655   2.264 -14.170  1.00  0.00     0.034 A 
ATOM     59  C   UNL     1      -0.913   8.274 -11.440  1.00  0.00     0.049 A 
ATOM     60  C   UNL     1      -1.901   3.472 -14.600  1.00  0.00     0.074 A 
ATOM     61  C   UNL     1      -1.976   9.160 -11.450  1.00  0.00     0.029 A 
ATOM     62  N   UNL     1      -0.797   7.834 -12.742  1.00  0.00    -0.354 N 
ATOM     63  N   UNL     1      -2.482   4.536 -15.091  1.00  0.00    -0.248 NA
ATOM     64  C   UNL     1      -0.597   3.706 -13.997  1.00  0.00     0.031 C 
ATOM     65  C   UNL     1      -2.751   8.781 -12.588  1.00  0.00     0.029 A 
ATOM     66  C   UNL     1      -2.067   7.768 -13.265  1.00  0.00     0.049 A 
ATOM     67  H   UNL     1       0.039   7.609 -13.211  1.00  0.00     0.167 HD
ATOM     68  C   UNL     1      -1.847   5.608 -14.480  1.00  0.00     0.074 A 
ATOM     69  C   UNL     1      -0.637   5.038 -13.883  1.00  0.00     0.031 C 
ATOM     70  C   UNL     1      -2.494   6.792 -14.254  1.00  0.00     0.034 A 
BRANCH  57  71
ATOM     71  C   UNL     1       1.270   7.328 -10.415  1.00  0.00     0.023 A 
ATOM     72  C   UNL     1       2.018   8.205 -11.223  1.00  0.00     0.031 A 
ATOM     73  C   UNL     1       1.969   6.194  -9.939  1.00  0.00     0.131 A 
ATOM     74  C   UNL     1       3.325   7.883 -11.628  1.00  0.00     0.055 A 
ATOM     75  C   UNL     1       3.294   5.914 -10.288  1.00  0.00     0.041 A 
ATOM     76  F   UNL     1       1.399   5.246  -9.189  1.00  0.00    -0.206 F 
ATOM     77  C   UNL     1       3.969   6.739 -11.168  1.00  0.00     0.022 A 
BRANCH  74  78
ATOM     78  S   UNL     1       4.089   8.890 -12.923  1.00  0.00     0.124 S 
ATOM     79  O   UNL     1       3.081   8.822 -13.976  1.00  0.00    -0.237 OA
ATOM     80  O   UNL     1       4.236  10.177 -12.252  1.00  0.00    -0.237 OA
ATOM     81  O   UNL     1       5.338   8.187 -13.205  1.00  0.00    -0.744 OA
ENDBRANCH  74  78
ENDBRANCH  57  71
BRANCH  58  82
ATOM     82  C   UNL     1      -2.278   0.863 -14.532  1.00  0.00     0.023 A 
ATOM     83  C   UNL     1      -1.737   0.498 -15.787  1.00  0.00     0.031 A 
ATOM     84  C   UNL     1      -2.234  -0.128 -13.521  1.00  0.00     0.131 A 
ATOM     85  C   UNL     1      -1.195  -0.799 -15.985  1.00  0.00     0.055 A 
ATOM     86  C   UNL     1      -1.700  -1.403 -13.723  1.00  0.00     0.041 A 
ATOM     87  F   UNL     1      -2.634   0.139 -12.268  1.00  0.00    -0.206 F 
ATOM     88  C   UNL     1      -1.169  -1.742 -14.956  1.00  0.00     0.022 A 
BRANCH  85  89
ATOM     89  S   UNL     1      -0.429  -1.263 -17.577  1.00  0.00     0.124 S 
ATOM     90  O   UNL     1      -1.575  -1.286 -18.478  1.00  0.00    -0.237 OA
ATOM     91  O   UNL     1       0.540  -0.193 -17.783  1.00  0.00    -0.237 OA
ATOM     92  O   UNL     1       0.161  -2.575 -17.304  1.00  0.00    -0.744 OA
ENDBRANCH  85  89
ENDBRANCH  58  82
BRANCH  70  93
ATOM     93  C   UNL     1      -3.842   7.035 -14.912  1.00  0.00     0.023 A 
ATOM     94  C   UNL     1      -4.991   6.225 -14.749  1.00  0.00     0.031 A 
ATOM     95  C   UNL     1      -3.994   8.237 -15.626  1.00  0.00     0.131 A 
ATOM     96  C   UNL     1      -6.226   6.633 -15.297  1.00  0.00     0.055 A 
ATOM     97  C   UNL     1      -5.221   8.648 -16.145  1.00  0.00     0.041 A 
ATOM     98  F   UNL     1      -2.949   9.065 -15.795  1.00  0.00    -0.206 F 
ATOM     99  C   UNL     1      -6.342   7.844 -15.986  1.00  0.00     0.022 A 
BRANCH  96 100
ATOM    100  S   UNL     1      -7.715   5.589 -15.137  1.00  0.00     0.124 S 
ATOM    101  O   UNL     1      -7.250   4.269 -15.548  1.00  0.00    -0.237 OA
ATOM    102  O   UNL     1      -8.056   5.737 -13.725  1.00  0.00    -0.237 OA
ATOM    103  O   UNL     1      -8.668   6.212 -16.059  1.00  0.00    -0.744 OA
ENDBRANCH  96 100
ENDBRANCH  70  93
ENDBRANCH  44  45
ENDBRANCH  36  39
ENDBRANCH  34  35
ENDBRANCH  33  34
ENDBRANCH  32  33
ENDBRANCH   1  32
TORSDOF 20
