REMARK SMILES CC[C@@H](Oc1ccccc1/C=C1\S/C(=[NH+]\c2cccc(O)c2)N(CC)C1=O)C(=O)NCCCCCCNC(=O)c1ccc(-c2c3nc(c(-c4cc(S(=O)(=O)[O-])ccc4F)c4ccc([nH]4)c(-c4cc(S(=O)(=O)[O-])ccc4F)c4nc(c(-c5cc(S(=O)(=O)[O-])ccc5F)c5ccc2[nH]5)C=C4)C=C3)cc1
REMARK SMILES IDX 32 1 31 2 30 3 28 4 29 5 3 7 2 8 1 9 4 10 5 11 6 12 10 13
REMARK SMILES IDX 7 14 9 15 8 16 11 17 12 18 13 19 26 20 14 21 23 22 27 23
REMARK SMILES IDX 15 24 24 26 25 27 16 28 17 29 22 30 18 31 20 32 19 33 21 34
REMARK SMILES IDX 33 36 34 37 35 38 36 39 37 40 38 41 39 43 40 44 41 45 102 46
REMARK SMILES IDX 42 47 101 48 43 49 44 50 45 51 95 52 46 53 100 54 94 55
REMARK SMILES IDX 96 56 47 57 99 58 93 59 92 60 48 62 80 63 60 64 79 65 61 66
REMARK SMILES IDX 64 67 78 68 97 69 62 70 63 71 77 73 98 74 65 75 49 76 50 77
REMARK SMILES IDX 58 78 51 79 57 80 59 81 56 82 52 83 53 84 54 85 55 86 81 87
REMARK SMILES IDX 82 88 90 89 83 90 89 91 91 92 88 93 84 94 85 95 86 96 87 97
REMARK SMILES IDX 66 98 67 99 75 100 68 101 74 102 76 103 73 104 69 105 70 106
REMARK SMILES IDX 71 107 72 108
REMARK H PARENT 30 6 15 25 21 35 37 42 96 61 64 72
REMARK Flexibility Score: inf
ROOT
ATOM      1  C   UNL     1      -1.739  -3.834  -1.016  1.00  0.00     0.021 C 
ENDROOT
BRANCH   1   2
ATOM      2  C   UNL     1      -0.993  -4.064   0.285  1.00  0.00     0.116 C 
BRANCH   2   3
ATOM      3  N   UNL     1       0.336  -4.579   0.033  1.00  0.00    -0.353 N 
ATOM      4  C   UNL     1       1.555  -3.982   0.102  1.00  0.00     0.261 C 
ATOM      5  O   UNL     1       2.540  -4.687  -0.149  1.00  0.00    -0.271 OA
ATOM      6  H   UNL     1       0.361  -5.526  -0.236  1.00  0.00     0.163 HD
BRANCH   4   7
ATOM      7  C   UNL     1       1.726  -2.470   0.370  1.00  0.00     0.261 C 
BRANCH   7   8
ATOM      8  C   UNL     1       1.894  -1.792  -1.000  1.00  0.00     0.052 C 
ATOM      9  C   UNL     1       2.904  -0.654  -0.955  1.00  0.00     0.008 C 
ENDBRANCH   7   8
BRANCH   7  10
ATOM     10  O   UNL     1       0.595  -1.889   1.002  1.00  0.00    -0.480 OA
BRANCH  10  11
ATOM     11  C   UNL     1       0.786  -0.967   1.985  1.00  0.00     0.127 A 
ATOM     12  C   UNL     1       1.173  -1.382   3.261  1.00  0.00     0.047 A 
ATOM     13  C   UNL     1       0.394   0.364   1.740  1.00  0.00     0.018 A 
ATOM     14  C   UNL     1       1.214  -0.454   4.302  1.00  0.00     0.004 A 
ATOM     15  C   UNL     1       0.458   1.285   2.788  1.00  0.00     0.012 A 
ATOM     16  C   UNL     1       0.861   0.876   4.065  1.00  0.00     0.001 A 
BRANCH  13  17
ATOM     17  C   UNL     1       0.085   0.823   0.373  1.00  0.00     0.036 C 
ATOM     18  C   UNL     1      -0.976   0.548  -0.402  1.00  0.00     0.110 C 
ATOM     19  S   UNL     1      -2.443  -0.244  -0.022  1.00  0.00     0.007 SA
ATOM     20  C   UNL     1      -0.874   0.737  -1.877  1.00  0.00     0.348 C 
ATOM     21  C   UNL     1      -2.863  -0.517  -1.713  1.00  0.00     0.324 C 
ATOM     22  N   UNL     1      -1.901   0.064  -2.512  1.00  0.00    -0.186 N 
ATOM     23  O   UNL     1       0.066   1.300  -2.424  1.00  0.00    -0.240 OA
ATOM     24  N   UNL     1      -3.832  -1.210  -2.227  1.00  0.00    -0.234 N 
ATOM     25  H   UNL     1      -3.934  -1.204  -3.206  1.00  0.00     0.313 HD
BRANCH  22  26
ATOM     26  C   UNL     1      -1.804  -0.218  -3.939  1.00  0.00     0.244 C 
ATOM     27  C   UNL     1      -2.046   0.997  -4.814  1.00  0.00     0.055 C 
ENDBRANCH  22  26
BRANCH  24  28
ATOM     28  C   UNL     1      -4.745  -1.966  -1.475  1.00  0.00     0.129 A 
ATOM     29  C   UNL     1      -5.159  -3.633  -2.035  1.00  0.00     0.052 A 
ATOM     30  C   UNL     1      -5.489  -1.353   0.046  1.00  0.00     0.097 A 
ATOM     31  C   UNL     1      -6.269  -4.704  -1.022  1.00  0.00     0.008 A 
ATOM     32  C   UNL     1      -6.546  -2.385   1.022  1.00  0.00     0.119 A 
ATOM     33  C   UNL     1      -6.967  -4.056   0.503  1.00  0.00     0.046 A 
BRANCH  32  34
ATOM     34  O   UNL     1      -7.069  -1.916   2.189  1.00  0.00    -0.508 OA
ATOM     35  H   UNL     1      -7.628  -2.463   2.705  1.00  0.00     0.293 HD
ENDBRANCH  32  34
ENDBRANCH  24  28
ENDBRANCH  13  17
ENDBRANCH  10  11
ENDBRANCH   7  10
ENDBRANCH   4   7
ENDBRANCH   2   3
ENDBRANCH   1   2
BRANCH   1  36
ATOM     36  C   UNL     1      -2.780  -4.913  -1.246  1.00  0.00     0.002 C 
BRANCH  36  37
ATOM     37  C   UNL     1      -3.946  -4.892  -0.225  1.00  0.00     0.002 C 
BRANCH  37  38
ATOM     38  C   UNL     1      -4.990  -3.471  -0.007  1.00  0.00     0.021 C 
BRANCH  38  39
ATOM     39  C   UNL     1      -6.721  -2.699  -1.105  1.00  0.00     0.116 C 
BRANCH  39  40
ATOM     40  N   UNL     1      -7.548  -3.380  -2.387  1.00  0.00    -0.352 N 
ATOM     41  C   UNL     1      -8.892  -3.525  -2.592  1.00  0.00     0.251 C 
ATOM     42  H   UNL     1      -6.977  -3.731  -3.109  1.00  0.00     0.163 HD
ATOM     43  O   UNL     1      -9.337  -4.410  -3.311  1.00  0.00    -0.269 OA
BRANCH  41  44
ATOM     44  C   UNL     1      -9.765  -2.539  -1.965  1.00  0.00     0.039 A 
ATOM     45  C   UNL     1     -10.927  -2.933  -1.307  1.00  0.00     0.014 A 
ATOM     46  C   UNL     1      -9.373  -1.199  -2.041  1.00  0.00     0.014 A 
ATOM     47  C   UNL     1     -11.685  -1.958  -0.675  1.00  0.00     0.010 A 
ATOM     48  C   UNL     1     -10.066  -0.252  -1.326  1.00  0.00     0.010 A 
ATOM     49  C   UNL     1     -11.239  -0.624  -0.663  1.00  0.00    -0.014 A 
BRANCH  49  50
ATOM     50  C   UNL     1     -12.014   0.423   0.019  1.00  0.00     0.031 A 
ATOM     51  C   UNL     1     -12.624   1.521  -0.798  1.00  0.00     0.074 A 
ATOM     52  C   UNL     1     -12.102   0.378   1.360  1.00  0.00     0.049 A 
ATOM     53  N   UNL     1     -13.318   2.552  -0.401  1.00  0.00    -0.248 NA
ATOM     54  C   UNL     1     -12.389   1.481  -2.254  1.00  0.00     0.031 C 
ATOM     55  C   UNL     1     -11.462  -0.629   2.214  1.00  0.00     0.029 A 
ATOM     56  N   UNL     1     -12.765   1.185   2.239  1.00  0.00    -0.354 N 
ATOM     57  C   UNL     1     -13.604   3.275  -1.554  1.00  0.00     0.074 A 
ATOM     58  C   UNL     1     -12.932   2.620  -2.650  1.00  0.00     0.031 C 
ATOM     59  C   UNL     1     -11.812  -0.408   3.490  1.00  0.00     0.029 A 
ATOM     60  C   UNL     1     -12.656   0.778   3.547  1.00  0.00     0.049 A 
ATOM     61  H   UNL     1     -13.273   1.982   1.962  1.00  0.00     0.167 HD
ATOM     62  C   UNL     1     -14.396   4.365  -1.679  1.00  0.00     0.034 A 
ATOM     63  C   UNL     1     -13.191   1.315   4.659  1.00  0.00     0.034 A 
ATOM     64  C   UNL     1     -15.056   4.976  -0.555  1.00  0.00     0.049 A 
ATOM     65  C   UNL     1     -14.071   2.527   4.487  1.00  0.00     0.074 A 
ATOM     66  C   UNL     1     -15.903   6.068  -0.537  1.00  0.00     0.029 A 
ATOM     67  N   UNL     1     -14.942   4.535   0.760  1.00  0.00    -0.354 N 
ATOM     68  N   UNL     1     -14.382   3.172   3.383  1.00  0.00    -0.248 NA
ATOM     69  C   UNL     1     -14.688   3.071   5.699  1.00  0.00     0.031 C 
ATOM     70  C   UNL     1     -16.250   6.323   0.794  1.00  0.00     0.029 A 
ATOM     71  C   UNL     1     -15.685   5.346   1.600  1.00  0.00     0.049 A 
ATOM     72  H   UNL     1     -14.409   3.760   1.050  1.00  0.00     0.167 HD
ATOM     73  C   UNL     1     -15.251   4.186   3.768  1.00  0.00     0.074 A 
ATOM     74  C   UNL     1     -15.444   4.035   5.199  1.00  0.00     0.031 C 
ATOM     75  C   UNL     1     -15.834   5.163   3.025  1.00  0.00     0.034 A 
BRANCH  62  76
ATOM     76  C   UNL     1     -14.571   4.946  -3.060  1.00  0.00     0.023 A 
ATOM     77  C   UNL     1     -15.167   4.207  -4.099  1.00  0.00     0.031 A 
ATOM     78  C   UNL     1     -14.114   6.241  -3.355  1.00  0.00     0.131 A 
ATOM     79  C   UNL     1     -15.234   4.742  -5.394  1.00  0.00     0.055 A 
ATOM     80  C   UNL     1     -14.255   6.799  -4.628  1.00  0.00     0.041 A 
ATOM     81  F   UNL     1     -13.509   6.983  -2.414  1.00  0.00    -0.206 F 
ATOM     82  C   UNL     1     -14.808   6.045  -5.659  1.00  0.00     0.022 A 
BRANCH  79  83
ATOM     83  S   UNL     1     -15.775   3.668  -6.752  1.00  0.00     0.124 S 
ATOM     84  O   UNL     1     -14.745   2.633  -6.736  1.00  0.00    -0.237 OA
ATOM     85  O   UNL     1     -17.104   3.254  -6.319  1.00  0.00    -0.237 OA
ATOM     86  O   UNL     1     -15.745   4.549  -7.918  1.00  0.00    -0.744 OA
ENDBRANCH  79  83
ENDBRANCH  62  76
BRANCH  63  87
ATOM     87  C   UNL     1     -12.921   0.726   6.002  1.00  0.00     0.023 A 
ATOM     88  C   UNL     1     -13.967   0.243   6.805  1.00  0.00     0.031 A 
ATOM     89  C   UNL     1     -11.618   0.684   6.529  1.00  0.00     0.131 A 
ATOM     90  C   UNL     1     -13.704  -0.190   8.114  1.00  0.00     0.055 A 
ATOM     91  C   UNL     1     -11.352   0.187   7.806  1.00  0.00     0.041 A 
ATOM     92  F   UNL     1     -10.576   1.124   5.805  1.00  0.00    -0.206 F 
ATOM     93  C   UNL     1     -12.402  -0.234   8.615  1.00  0.00     0.022 A 
BRANCH  90  94
ATOM     94  S   UNL     1     -15.108  -0.569   9.199  1.00  0.00     0.124 S 
ATOM     95  O   UNL     1     -15.899   0.652   9.097  1.00  0.00    -0.237 OA
ATOM     96  O   UNL     1     -15.671  -1.754   8.561  1.00  0.00    -0.237 OA
ATOM     97  O   UNL     1     -14.479  -0.799  10.498  1.00  0.00    -0.744 OA
ENDBRANCH  90  94
ENDBRANCH  63  87
BRANCH  75  98
ATOM     98  C   UNL     1     -16.742   6.111   3.763  1.00  0.00     0.023 A 
ATOM     99  C   UNL     1     -16.245   6.972   4.755  1.00  0.00     0.031 A 
ATOM    100  C   UNL     1     -18.122   6.127   3.497  1.00  0.00     0.131 A 
ATOM    101  C   UNL     1     -17.133   7.752   5.506  1.00  0.00     0.055 A 
ATOM    102  C   UNL     1     -18.991   6.966   4.193  1.00  0.00     0.041 A 
ATOM    103  F   UNL     1     -18.648   5.324   2.558  1.00  0.00    -0.206 F 
ATOM    104  C   UNL     1     -18.500   7.771   5.219  1.00  0.00     0.022 A 
BRANCH 101 105
ATOM    105  S   UNL     1     -16.489   8.637   6.951  1.00  0.00     0.124 S 
ATOM    106  O   UNL     1     -15.908   7.553   7.735  1.00  0.00    -0.237 OA
ATOM    107  O   UNL     1     -15.539   9.567   6.349  1.00  0.00    -0.237 OA
ATOM    108  O   UNL     1     -17.680   9.256   7.531  1.00  0.00    -0.744 OA
ENDBRANCH 101 105
ENDBRANCH  75  98
ENDBRANCH  49  50
ENDBRANCH  41  44
ENDBRANCH  39  40
ENDBRANCH  38  39
ENDBRANCH  37  38
ENDBRANCH  36  37
ENDBRANCH   1  36
TORSDOF 23
