REMARK SMILES O=C(NCCCCCCNC(=O)c1ccc(S(=O)(=O)NCC[NH+]2CCCC2)c(F)c1)c1ccc(-c2c3nc(c(-c4cc(S(=O)(=O)[O-])ccc4F)c4ccc([nH]4)c(-c4cc(S(=O)(=O)[O-])ccc4F)c4nc(c(-c5cc(S(=O)(=O)[O-])ccc5F)c5ccc2[nH]5)C=C4)C=C3)cc1
REMARK SMILES IDX 7 1 6 2 5 3 4 4 3 5 1 6 2 7 31 9 32 10 93 11 33 12 92 13
REMARK SMILES IDX 34 14 35 15 36 16 86 17 37 18 91 19 85 20 87 21 38 22 90 23
REMARK SMILES IDX 84 24 83 25 39 27 71 28 51 29 70 30 52 31 55 32 69 33 88 34
REMARK SMILES IDX 53 35 54 36 68 38 89 39 56 40 40 41 41 42 49 43 42 44 48 45
REMARK SMILES IDX 50 46 47 47 43 48 44 49 45 50 46 51 72 52 73 53 81 54 74 55
REMARK SMILES IDX 80 56 82 57 79 58 75 59 76 60 77 61 78 62 57 63 58 64 66 65
REMARK SMILES IDX 59 66 65 67 67 68 64 69 60 70 61 71 62 72 63 73 8 74 9 75
REMARK SMILES IDX 10 76 11 77 12 79 13 80 14 81 30 82 15 83 28 84 16 85 29 86
REMARK SMILES IDX 17 87 18 88 19 89 20 90 21 92 22 93 23 94 24 95 27 96 25 98
REMARK SMILES IDX 26 99
REMARK H PARENT 3 8 87 26 55 37 10 78 20 91 23 97
REMARK Flexibility Score: inf
ROOT
ATOM      1  C   UNL     1       4.739  -3.964   1.738  1.00  0.00     0.002 C 
ENDROOT
BRANCH   1   2
ATOM      2  C   UNL     1       4.216  -2.798   2.580  1.00  0.00     0.002 C 
BRANCH   2   3
ATOM      3  C   UNL     1       4.724  -1.409   2.187  1.00  0.00     0.021 C 
BRANCH   3   4
ATOM      4  C   UNL     1       4.515  -1.019   0.727  1.00  0.00     0.116 C 
BRANCH   4   5
ATOM      5  N   UNL     1       3.112  -0.996   0.350  1.00  0.00    -0.352 N 
ATOM      6  O   UNL     1       1.165  -0.106  -0.345  1.00  0.00    -0.269 OA
ATOM      7  C   UNL     1       2.384   0.006  -0.241  1.00  0.00     0.251 C 
ATOM      8  H   UNL     1       2.610  -1.820   0.548  1.00  0.00     0.163 HD
BRANCH   7   9
ATOM      9  C   UNL     1       3.060   1.228  -0.735  1.00  0.00     0.039 A 
ATOM     10  C   UNL     1       4.223   1.149  -1.506  1.00  0.00     0.014 A 
ATOM     11  C   UNL     1       2.495   2.474  -0.445  1.00  0.00     0.014 A 
ATOM     12  C   UNL     1       4.877   2.315  -1.898  1.00  0.00     0.010 A 
ATOM     13  C   UNL     1       3.123   3.642  -0.887  1.00  0.00     0.010 A 
ATOM     14  C   UNL     1       4.329   3.573  -1.600  1.00  0.00    -0.014 A 
BRANCH  14  15
ATOM     15  C   UNL     1       5.001   4.809  -2.074  1.00  0.00     0.031 A 
ATOM     16  C   UNL     1       5.635   5.760  -1.097  1.00  0.00     0.074 A 
ATOM     17  C   UNL     1       5.048   5.065  -3.396  1.00  0.00     0.049 A 
ATOM     18  N   UNL     1       6.195   6.921  -1.323  1.00  0.00    -0.248 NA
ATOM     19  C   UNL     1       5.641   5.356   0.317  1.00  0.00     0.031 C 
ATOM     20  C   UNL     1       4.490   4.204  -4.442  1.00  0.00     0.029 A 
ATOM     21  N   UNL     1       5.595   6.115  -4.088  1.00  0.00    -0.354 N 
ATOM     22  C   UNL     1       6.610   7.394  -0.084  1.00  0.00     0.074 A 
ATOM     23  C   UNL     1       6.221   6.400   0.895  1.00  0.00     0.031 C 
ATOM     24  C   UNL     1       4.752   4.745  -5.642  1.00  0.00     0.029 A 
ATOM     25  C   UNL     1       5.437   6.018  -5.451  1.00  0.00     0.049 A 
ATOM     26  H   UNL     1       6.058   6.866  -3.651  1.00  0.00     0.167 HD
ATOM     27  C   UNL     1       7.256   8.549   0.207  1.00  0.00     0.034 A 
ATOM     28  C   UNL     1       5.779   6.871  -6.435  1.00  0.00     0.034 A 
ATOM     29  C   UNL     1       7.645   9.530  -0.775  1.00  0.00     0.049 A 
ATOM     30  C   UNL     1       6.439   8.173  -6.077  1.00  0.00     0.074 A 
ATOM     31  C   UNL     1       8.306  10.731  -0.579  1.00  0.00     0.029 A 
ATOM     32  N   UNL     1       7.410   9.425  -2.139  1.00  0.00    -0.354 N 
ATOM     33  N   UNL     1       6.774   8.627  -4.893  1.00  0.00    -0.248 NA
ATOM     34  C   UNL     1       6.751   9.083  -7.187  1.00  0.00     0.031 C 
ATOM     35  C   UNL     1       8.429  11.372  -1.817  1.00  0.00     0.029 A 
ATOM     36  C   UNL     1       7.894  10.547  -2.793  1.00  0.00     0.049 A 
ATOM     37  H   UNL     1       6.965   8.664  -2.578  1.00  0.00     0.167 HD
ATOM     38  C   UNL     1       7.340   9.877  -5.116  1.00  0.00     0.074 A 
ATOM     39  C   UNL     1       7.316  10.098  -6.548  1.00  0.00     0.031 C 
ATOM     40  C   UNL     1       7.835  10.763  -4.216  1.00  0.00     0.034 A 
BRANCH  27  41
ATOM     41  C   UNL     1       7.553   8.836   1.655  1.00  0.00     0.023 A 
ATOM     42  C   UNL     1       8.548   8.136   2.355  1.00  0.00     0.031 A 
ATOM     43  C   UNL     1       6.847   9.847   2.332  1.00  0.00     0.131 A 
ATOM     44  C   UNL     1       8.788   8.433   3.705  1.00  0.00     0.055 A 
ATOM     45  C   UNL     1       7.128  10.174   3.659  1.00  0.00     0.041 A 
ATOM     46  F   UNL     1       5.875  10.533   1.710  1.00  0.00    -0.206 F 
ATOM     47  C   UNL     1       8.101   9.462   4.355  1.00  0.00     0.022 A 
BRANCH  44  48
ATOM     48  S   UNL     1       9.978   7.420   4.626  1.00  0.00     0.124 S 
ATOM     49  O   UNL     1       9.282   6.137   4.690  1.00  0.00    -0.237 OA
ATOM     50  O   UNL     1      11.161   7.461   3.774  1.00  0.00    -0.237 OA
ATOM     51  O   UNL     1      10.107   8.118   5.903  1.00  0.00    -0.744 OA
ENDBRANCH  44  48
ENDBRANCH  27  41
BRANCH  28  52
ATOM     52  C   UNL     1       5.454   6.545  -7.849  1.00  0.00     0.023 A 
ATOM     53  C   UNL     1       6.467   6.251  -8.774  1.00  0.00     0.031 A 
ATOM     54  C   UNL     1       4.121   6.534  -8.296  1.00  0.00     0.131 A 
ATOM     55  C   UNL     1       6.132   5.981 -10.109  1.00  0.00     0.055 A 
ATOM     56  C   UNL     1       3.790   6.227  -9.616  1.00  0.00     0.041 A 
ATOM     57  F   UNL     1       3.118   6.802  -7.444  1.00  0.00    -0.206 F 
ATOM     58  C   UNL     1       4.800   5.955 -10.533  1.00  0.00     0.022 A 
BRANCH  55  59
ATOM     59  S   UNL     1       7.468   5.692 -11.300  1.00  0.00     0.124 S 
ATOM     60  O   UNL     1       8.154   6.979 -11.294  1.00  0.00    -0.237 OA
ATOM     61  O   UNL     1       8.187   4.579 -10.688  1.00  0.00    -0.237 OA
ATOM     62  O   UNL     1       6.759   5.367 -12.535  1.00  0.00    -0.744 OA
ENDBRANCH  55  59
ENDBRANCH  28  52
BRANCH  40  63
ATOM     63  C   UNL     1       8.400  12.044  -4.765  1.00  0.00     0.023 A 
ATOM     64  C   UNL     1       7.563  13.054  -5.269  1.00  0.00     0.031 A 
ATOM     65  C   UNL     1       9.789  12.255  -4.783  1.00  0.00     0.131 A 
ATOM     66  C   UNL     1       8.127  14.220  -5.805  1.00  0.00     0.055 A 
ATOM     67  C   UNL     1      10.342  13.435  -5.279  1.00  0.00     0.041 A 
ATOM     68  F   UNL     1      10.628  11.318  -4.312  1.00  0.00    -0.206 F 
ATOM     69  C   UNL     1       9.511  14.423  -5.801  1.00  0.00     0.022 A 
BRANCH  66  70
ATOM     70  S   UNL     1       7.030  15.457  -6.551  1.00  0.00     0.124 S 
ATOM     71  O   UNL     1       6.492  14.731  -7.697  1.00  0.00    -0.237 OA
ATOM     72  O   UNL     1       6.088  15.735  -5.472  1.00  0.00    -0.237 OA
ATOM     73  O   UNL     1       7.932  16.559  -6.882  1.00  0.00    -0.744 OA
ENDBRANCH  66  70
ENDBRANCH  40  63
ENDBRANCH  14  15
ENDBRANCH   7   9
ENDBRANCH   4   5
ENDBRANCH   3   4
ENDBRANCH   2   3
ENDBRANCH   1   2
BRANCH   1  74
ATOM     74  C   UNL     1       6.261  -4.078   1.625  1.00  0.00     0.021 C 
BRANCH  74  75
ATOM     75  C   UNL     1       7.024  -4.101   2.947  1.00  0.00     0.116 C 
BRANCH  75  76
ATOM     76  N   UNL     1       6.645  -5.219   3.797  1.00  0.00    -0.352 N 
ATOM     77  C   UNL     1       7.442  -6.118   4.458  1.00  0.00     0.251 C 
ATOM     78  H   UNL     1       5.676  -5.349   3.914  1.00  0.00     0.163 HD
ATOM     79  O   UNL     1       6.953  -7.082   5.038  1.00  0.00    -0.269 OA
BRANCH  77  80
ATOM     80  C   UNL     1       8.909  -5.953   4.437  1.00  0.00     0.042 A 
ATOM     81  C   UNL     1       9.507  -4.737   4.786  1.00  0.00     0.015 A 
ATOM     82  C   UNL     1       9.694  -7.045   4.059  1.00  0.00     0.054 A 
ATOM     83  C   UNL     1      10.886  -4.585   4.650  1.00  0.00     0.026 A 
ATOM     84  C   UNL     1      11.074  -6.895   3.952  1.00  0.00     0.144 A 
ATOM     85  C   UNL     1      11.665  -5.665   4.211  1.00  0.00     0.118 A 
ATOM     86  F   UNL     1      11.792  -7.961   3.575  1.00  0.00    -0.205 F 
BRANCH  85  87
ATOM     87  S   UNL     1      13.379  -5.379   3.930  1.00  0.00     0.243 S 
ATOM     88  O   UNL     1      13.491  -4.082   3.305  1.00  0.00    -0.207 OA
ATOM     89  O   UNL     1      14.062  -5.689   5.167  1.00  0.00    -0.207 OA
BRANCH  87  90
ATOM     90  N   UNL     1      13.889  -6.508   2.826  1.00  0.00    -0.205 NA
ATOM     91  H   UNL     1      13.612  -7.413   3.206  1.00  0.00     0.141 HD
BRANCH  90  92
ATOM     92  C   UNL     1      13.469  -6.518   1.429  1.00  0.00     0.160 C 
BRANCH  92  93
ATOM     93  C   UNL     1      14.284  -5.586   0.510  1.00  0.00     0.278 C 
BRANCH  93  94
ATOM     94  N   UNL     1      15.736  -5.748   0.381  1.00  0.00    -0.334 N 
ATOM     95  C   UNL     1      16.219  -7.082   0.051  1.00  0.00     0.262 C 
ATOM     96  C   UNL     1      16.511  -5.247   1.513  1.00  0.00     0.262 C 
ATOM     97  H   UNL     1      15.900  -5.157  -0.434  1.00  0.00     0.348 HD
ATOM     98  C   UNL     1      16.761  -7.655   1.344  1.00  0.00     0.067 C 
ATOM     99  C   UNL     1      17.215  -6.443   2.139  1.00  0.00     0.067 C 
ENDBRANCH  93  94
ENDBRANCH  92  93
ENDBRANCH  90  92
ENDBRANCH  87  90
ENDBRANCH  85  87
ENDBRANCH  77  80
ENDBRANCH  75  76
ENDBRANCH  74  75
ENDBRANCH   1  74
TORSDOF 21
