REMARK SMILES COC[C@H](C)CNC(=O)N[C@@H]1CCCCC[C@@H]1C(=O)NCCCCCCNC(=O)c1ccc(-c2c3nc(c(-c4cc(S(=O)(=O)[O-])ccc4F)c4ccc([nH]4)c(-c4cc(S(=O)(=O)[O-])ccc4F)c4nc(c(-c5cc(S(=O)(=O)[O-])ccc5F)c5ccc2[nH]5)C=C4)C=C3)cc1
REMARK SMILES IDX 22 1 21 2 20 3 18 4 19 5 17 7 11 8 10 9 7 10 8 11 9 13 6 15
REMARK SMILES IDX 4 16 5 17 3 18 2 19 1 20 12 21 13 22 14 23 16 25 15 26 23 28
REMARK SMILES IDX 24 29 25 30 26 31 27 32 28 33 29 35 30 36 31 37 92 38 32 39
REMARK SMILES IDX 91 40 33 41 34 42 35 43 85 44 36 45 90 46 84 47 86 48 37 49
REMARK SMILES IDX 89 50 83 51 82 52 38 54 70 55 50 56 69 57 51 58 54 59 68 60
REMARK SMILES IDX 87 61 52 62 53 63 67 65 88 66 55 67 39 68 40 69 48 70 41 71
REMARK SMILES IDX 47 72 49 73 46 74 42 75 43 76 44 77 45 78 71 79 72 80 80 81
REMARK SMILES IDX 73 82 79 83 81 84 78 85 74 86 75 87 76 88 77 89 56 90 57 91
REMARK SMILES IDX 65 92 58 93 64 94 66 95 63 96 59 97 60 98 61 99 62 100
REMARK H PARENT 20 6 7 12 10 14 27 34 86 53 54 64
REMARK Flexibility Score: 100.00
ROOT
ATOM      1  C   UNL     1      -3.507  -7.976   0.131  1.00  0.00     0.021 C 
ENDROOT
BRANCH   1   2
ATOM      2  C   UNL     1      -3.173  -6.915  -0.908  1.00  0.00     0.116 C 
BRANCH   2   3
ATOM      3  N   UNL     1      -3.143  -5.599  -0.314  1.00  0.00    -0.356 N 
ATOM      4  C   UNL     1      -2.101  -4.737  -0.198  1.00  0.00     0.225 C 
ATOM      5  O   UNL     1      -2.319  -3.630   0.299  1.00  0.00    -0.275 OA
ATOM      6  H   UNL     1      -3.997  -5.283   0.059  1.00  0.00     0.163 HD
BRANCH   4   7
ATOM      7  C   UNL     1      -0.715  -5.163  -0.689  1.00  0.00     0.101 C 
BRANCH   7   8
ATOM      8  C   UNL     1      -0.009  -6.013   0.396  1.00  0.00     0.096 C 
BRANCH   8   9
ATOM      9  N   UNL     1      -0.309  -5.736   1.810  1.00  0.00    -0.335 N 
ATOM     10  N   UNL     1       0.672  -3.775   2.753  1.00  0.00    -0.338 N 
ATOM     11  C   UNL     1      -0.048  -4.888   2.796  1.00  0.00     0.315 C 
ATOM     12  H   UNL     1       0.757  -3.379   3.651  1.00  0.00     0.165 HD
ATOM     13  O   UNL     1      -0.521  -5.188   3.900  1.00  0.00    -0.249 OA
ATOM     14  H   UNL     1      -0.924  -6.428   2.143  1.00  0.00     0.165 HD
BRANCH  10  15
ATOM     15  C   UNL     1       1.374  -2.970   1.763  1.00  0.00     0.123 C 
BRANCH  15  16
ATOM     16  C   UNL     1       0.680  -1.594   1.584  1.00  0.00     0.031 C 
ATOM     17  C   UNL     1       1.113  -0.638   2.708  1.00  0.00     0.012 C 
BRANCH  16  18
ATOM     18  C   UNL     1       0.974  -0.890   0.242  1.00  0.00     0.164 C 
BRANCH  18  19
ATOM     19  O   UNL     1       0.086   0.214   0.015  1.00  0.00    -0.384 OA
ATOM     20  C   UNL     1      -1.180  -0.185  -0.512  1.00  0.00     0.194 C 
ENDBRANCH  18  19
ENDBRANCH  16  18
ENDBRANCH  15  16
ENDBRANCH  10  15
ENDBRANCH   8   9
BRANCH   8  21
ATOM     21  C   UNL     1       1.447  -6.446   0.211  1.00  0.00     0.026 C 
BRANCH  21  22
ATOM     22  C   UNL     1       1.999  -6.326  -1.200  1.00  0.00     0.002 C 
BRANCH  22  23
ATOM     23  C   UNL     1       2.388  -4.891  -1.513  1.00  0.00     0.000 CG0
ATOM     24  G   UNL     1       1.246  -4.040  -2.043  1.00  0.00     0.000 G0
ENDBRANCH  22  23
ENDBRANCH  21  22
ENDBRANCH   8  21
ENDBRANCH   7   8
BRANCH   7  25
ATOM     25  C   UNL     1      -0.036  -3.916  -1.225  1.00  0.00     0.015 C 
BRANCH  25  26
ATOM     26  C   UNL     1       1.246  -4.040  -2.043  1.00  0.00     0.001 CG0
ATOM     27  G   UNL     1       2.388  -4.891  -1.513  1.00  0.00     0.000 G0
ENDBRANCH  25  26
ENDBRANCH   7  25
ENDBRANCH   4   7
ENDBRANCH   2   3
ENDBRANCH   1   2
BRANCH   1  28
ATOM     28  C   UNL     1      -4.932  -7.881   0.683  1.00  0.00     0.002 C 
BRANCH  28  29
ATOM     29  C   UNL     1      -6.036  -7.798  -0.376  1.00  0.00     0.002 C 
BRANCH  29  30
ATOM     30  C   UNL     1      -5.952  -8.848  -1.487  1.00  0.00     0.021 C 
BRANCH  30  31
ATOM     31  C   UNL     1      -5.919 -10.285  -0.990  1.00  0.00     0.116 C 
BRANCH  31  32
ATOM     32  N   UNL     1      -7.150 -10.644  -0.311  1.00  0.00    -0.352 N 
ATOM     33  C   UNL     1      -8.005 -11.677  -0.592  1.00  0.00     0.251 C 
ATOM     34  H   UNL     1      -7.404 -10.071   0.448  1.00  0.00     0.163 HD
ATOM     35  O   UNL     1      -9.128 -11.700  -0.088  1.00  0.00    -0.269 OA
BRANCH  33  36
ATOM     36  C   UNL     1      -7.574 -12.743  -1.520  1.00  0.00     0.039 A 
ATOM     37  C   UNL     1      -8.454 -13.175  -2.512  1.00  0.00     0.014 A 
ATOM     38  C   UNL     1      -6.294 -13.300  -1.418  1.00  0.00     0.014 A 
ATOM     39  C   UNL     1      -8.032 -14.134  -3.434  1.00  0.00     0.010 A 
ATOM     40  C   UNL     1      -5.849 -14.193  -2.388  1.00  0.00     0.010 A 
ATOM     41  C   UNL     1      -6.717 -14.628  -3.400  1.00  0.00    -0.014 A 
BRANCH  41  42
ATOM     42  C   UNL     1      -6.241 -15.614  -4.404  1.00  0.00     0.031 A 
ATOM     43  C   UNL     1      -5.817 -16.989  -3.964  1.00  0.00     0.074 A 
ATOM     44  C   UNL     1      -6.149 -15.256  -5.700  1.00  0.00     0.049 A 
ATOM     45  N   UNL     1      -5.320 -17.969  -4.675  1.00  0.00    -0.248 NA
ATOM     46  C   UNL     1      -5.942 -17.291  -2.530  1.00  0.00     0.031 C 
ATOM     47  C   UNL     1      -6.498 -13.939  -6.238  1.00  0.00     0.029 A 
ATOM     48  N   UNL     1      -5.732 -15.962  -6.800  1.00  0.00    -0.354 N 
ATOM     49  C   UNL     1      -5.066 -18.999  -3.775  1.00  0.00     0.074 A 
ATOM     50  C   UNL     1      -5.398 -18.497  -2.459  1.00  0.00     0.031 C 
ATOM     51  C   UNL     1      -6.310 -13.944  -7.567  1.00  0.00     0.029 A 
ATOM     52  C   UNL     1      -5.778 -15.242  -7.971  1.00  0.00     0.049 A 
ATOM     53  H   UNL     1      -5.428 -16.898  -6.755  1.00  0.00     0.167 HD
ATOM     54  C   UNL     1      -4.624 -20.256  -4.027  1.00  0.00     0.034 A 
ATOM     55  C   UNL     1      -5.420 -15.583  -9.225  1.00  0.00     0.034 A 
ATOM     56  C   UNL     1      -4.304 -20.740  -5.348  1.00  0.00     0.049 A 
ATOM     57  C   UNL     1      -4.890 -16.973  -9.475  1.00  0.00     0.074 A 
ATOM     58  C   UNL     1      -3.892 -22.006  -5.724  1.00  0.00     0.029 A 
ATOM     59  N   UNL     1      -4.351 -19.978  -6.509  1.00  0.00    -0.354 N 
ATOM     60  N   UNL     1      -4.702 -17.952  -8.619  1.00  0.00    -0.248 NA
ATOM     61  C   UNL     1      -4.537 -17.308 -10.860  1.00  0.00     0.031 C 
ATOM     62  C   UNL     1      -3.614 -21.988  -7.095  1.00  0.00     0.029 A 
ATOM     63  C   UNL     1      -3.940 -20.737  -7.594  1.00  0.00     0.049 A 
ATOM     64  H   UNL     1      -4.635 -19.037  -6.554  1.00  0.00     0.167 HD
ATOM     65  C   UNL     1      -4.240 -19.029  -9.372  1.00  0.00     0.074 A 
ATOM     66  C   UNL     1      -4.195 -18.583 -10.749  1.00  0.00     0.031 C 
ATOM     67  C   UNL     1      -3.889 -20.276  -8.963  1.00  0.00     0.034 A 
BRANCH  54  68
ATOM     68  C   UNL     1      -4.436 -21.178  -2.845  1.00  0.00     0.023 A 
ATOM     69  C   UNL     1      -5.512 -21.552  -2.020  1.00  0.00     0.031 A 
ATOM     70  C   UNL     1      -3.160 -21.674  -2.522  1.00  0.00     0.131 A 
ATOM     71  C   UNL     1      -5.281 -22.326  -0.873  1.00  0.00     0.055 A 
ATOM     72  C   UNL     1      -2.952 -22.517  -1.428  1.00  0.00     0.041 A 
ATOM     73  F   UNL     1      -2.089 -21.334  -3.256  1.00  0.00    -0.206 F 
ATOM     74  C   UNL     1      -4.013 -22.835  -0.586  1.00  0.00     0.022 A 
BRANCH  71  75
ATOM     75  S   UNL     1      -6.632 -22.526   0.321  1.00  0.00     0.124 S 
ATOM     76  O   UNL     1      -6.933 -21.137   0.661  1.00  0.00    -0.237 OA
ATOM     77  O   UNL     1      -7.643 -23.227  -0.461  1.00  0.00    -0.237 OA
ATOM     78  O   UNL     1      -6.024 -23.305   1.399  1.00  0.00    -0.744 OA
ENDBRANCH  71  75
ENDBRANCH  54  68
BRANCH  55  79
ATOM     79  C   UNL     1      -5.532 -14.597 -10.339  1.00  0.00     0.023 A 
ATOM     80  C   UNL     1      -6.385 -14.829 -11.430  1.00  0.00     0.031 A 
ATOM     81  C   UNL     1      -4.750 -13.427 -10.354  1.00  0.00     0.131 A 
ATOM     82  C   UNL     1      -6.397 -13.935 -12.512  1.00  0.00     0.055 A 
ATOM     83  C   UNL     1      -4.812 -12.509 -11.404  1.00  0.00     0.041 A 
ATOM     84  F   UNL     1      -3.919 -13.153  -9.335  1.00  0.00    -0.206 F 
ATOM     85  C   UNL     1      -5.629 -12.769 -12.499  1.00  0.00     0.022 A 
BRANCH  82  86
ATOM     86  S   UNL     1      -7.360 -14.370 -13.986  1.00  0.00     0.124 S 
ATOM     87  O   UNL     1      -6.776 -15.655 -14.352  1.00  0.00    -0.237 OA
ATOM     88  O   UNL     1      -8.720 -14.409 -13.459  1.00  0.00    -0.237 OA
ATOM     89  O   UNL     1      -7.083 -13.272 -14.909  1.00  0.00    -0.744 OA
ENDBRANCH  82  86
ENDBRANCH  55  79
BRANCH  67  90
ATOM     90  C   UNL     1      -3.473 -21.259 -10.031  1.00  0.00     0.023 A 
ATOM     91  C   UNL     1      -2.307 -21.076 -10.796  1.00  0.00     0.031 A 
ATOM     92  C   UNL     1      -4.262 -22.393 -10.292  1.00  0.00     0.131 A 
ATOM     93  C   UNL     1      -1.997 -21.978 -11.824  1.00  0.00     0.055 A 
ATOM     94  C   UNL     1      -3.911 -23.325 -11.270  1.00  0.00     0.041 A 
ATOM     95  F   UNL     1      -5.388 -22.618  -9.596  1.00  0.00    -0.206 F 
ATOM     96  C   UNL     1      -2.780 -23.113 -12.052  1.00  0.00     0.022 A 
BRANCH  93  97
ATOM     97  S   UNL     1      -0.611 -21.595 -12.929  1.00  0.00     0.124 S 
ATOM     98  O   UNL     1      -1.001 -20.295 -13.465  1.00  0.00    -0.237 OA
ATOM     99  O   UNL     1       0.526 -21.592 -12.015  1.00  0.00    -0.237 OA
ATOM    100  O   UNL     1      -0.627 -22.694 -13.893  1.00  0.00    -0.744 OA
ENDBRANCH  93  97
ENDBRANCH  67  90
ENDBRANCH  41  42
ENDBRANCH  33  36
ENDBRANCH  31  32
ENDBRANCH  30  31
ENDBRANCH  29  30
ENDBRANCH  28  29
ENDBRANCH   1  28
TORSDOF 21
