REMARK SMILES O=C(NCCCCCCNC(=O)[C@H]1CC2(CCN(S(=O)(=O)N3CCOCC3)CC2)C[NH2+]1)c1ccc(-c2c3nc(c(-c4cc(S(=O)(=O)[O-])ccc4F)c4ccc([nH]4)c(-c4cc(S(=O)(=O)[O-])ccc4F)c4nc(c(-c5cc(S(=O)(=O)[O-])ccc5F)c5ccc2[nH]5)C=C4)C=C3)cc1
REMARK SMILES IDX 6 1 5 2 4 3 3 4 1 5 2 6 32 8 33 9 94 10 34 11 93 12 35 13
REMARK SMILES IDX 36 14 37 15 87 16 38 17 92 18 86 19 88 20 39 21 91 22 85 23
REMARK SMILES IDX 84 24 40 26 72 27 52 28 71 29 53 30 56 31 70 32 89 33 54 34
REMARK SMILES IDX 55 35 69 37 90 38 57 39 41 40 42 41 50 42 43 43 49 44 51 45
REMARK SMILES IDX 48 46 44 47 45 48 46 49 47 50 73 51 74 52 82 53 75 54 81 55
REMARK SMILES IDX 83 56 80 57 76 58 77 59 78 60 79 61 58 62 59 63 67 64 60 65
REMARK SMILES IDX 66 66 68 67 65 68 61 69 62 70 63 71 64 72 7 73 8 74 9 75
REMARK SMILES IDX 10 76 11 77 12 79 13 80 14 81 31 82 15 83 30 84 16 87 29 88
REMARK SMILES IDX 17 89 28 90 18 91 19 92 20 93 21 94 22 95 23 96 27 97 24 98
REMARK SMILES IDX 26 99 25 100
REMARK H PARENT 3 7 88 25 56 36 10 78 31 85 31 86
REMARK Flexibility Score: inf
ROOT
ATOM      1  C   UNL     1       5.272   2.585   4.719  1.00  0.00     0.002 C 
ENDROOT
BRANCH   1   2
ATOM      2  C   UNL     1       3.988   2.484   5.542  1.00  0.00     0.021 C 
BRANCH   2   3
ATOM      3  C   UNL     1       3.687   3.728   6.361  1.00  0.00     0.116 C 
BRANCH   3   4
ATOM      4  N   UNL     1       3.504   4.891   5.511  1.00  0.00    -0.352 N 
ATOM      5  O   UNL     1       2.302   6.500   4.484  1.00  0.00    -0.269 OA
ATOM      6  C   UNL     1       2.405   5.704   5.410  1.00  0.00     0.251 C 
ATOM      7  H   UNL     1       4.265   5.125   4.932  1.00  0.00     0.163 HD
BRANCH   6   8
ATOM      8  C   UNL     1       1.348   5.594   6.434  1.00  0.00     0.039 A 
ATOM      9  C   UNL     1       1.691   5.533   7.789  1.00  0.00     0.014 A 
ATOM     10  C   UNL     1       0.013   5.539   6.035  1.00  0.00     0.014 A 
ATOM     11  C   UNL     1       0.707   5.298   8.738  1.00  0.00     0.010 A 
ATOM     12  C   UNL     1      -0.984   5.399   7.002  1.00  0.00     0.010 A 
ATOM     13  C   UNL     1      -0.643   5.265   8.358  1.00  0.00    -0.014 A 
BRANCH  13  14
ATOM     14  C   UNL     1      -1.692   5.175   9.402  1.00  0.00     0.031 A 
ATOM     15  C   UNL     1      -2.631   4.007   9.457  1.00  0.00     0.074 A 
ATOM     16  C   UNL     1      -1.801   6.182  10.290  1.00  0.00     0.049 A 
ATOM     17  N   UNL     1      -3.650   3.806  10.252  1.00  0.00    -0.248 NA
ATOM     18  C   UNL     1      -2.403   2.932   8.483  1.00  0.00     0.031 C 
ATOM     19  C   UNL     1      -0.940   7.369  10.321  1.00  0.00     0.029 A 
ATOM     20  N   UNL     1      -2.675   6.380  11.326  1.00  0.00    -0.354 N 
ATOM     21  C   UNL     1      -4.202   2.591   9.864  1.00  0.00     0.074 A 
ATOM     22  C   UNL     1      -3.421   2.123   8.736  1.00  0.00     0.031 C 
ATOM     23  C   UNL     1      -1.318   8.159  11.334  1.00  0.00     0.029 A 
ATOM     24  C   UNL     1      -2.498   7.583  11.967  1.00  0.00     0.049 A 
ATOM     25  H   UNL     1      -3.363   5.725  11.586  1.00  0.00     0.167 HD
ATOM     26  C   UNL     1      -5.258   1.932  10.405  1.00  0.00     0.034 A 
ATOM     27  C   UNL     1      -3.230   8.186  12.923  1.00  0.00     0.034 A 
ATOM     28  C   UNL     1      -6.026   2.437  11.521  1.00  0.00     0.049 A 
ATOM     29  C   UNL     1      -4.438   7.473  13.462  1.00  0.00     0.074 A 
ATOM     30  C   UNL     1      -7.087   1.838  12.178  1.00  0.00     0.029 A 
ATOM     31  N   UNL     1      -5.835   3.674  12.128  1.00  0.00    -0.354 N 
ATOM     32  N   UNL     1      -4.930   6.308  13.110  1.00  0.00    -0.248 NA
ATOM     33  C   UNL     1      -5.186   8.150  14.527  1.00  0.00     0.031 C 
ATOM     34  C   UNL     1      -7.594   2.747  13.112  1.00  0.00     0.029 A 
ATOM     35  C   UNL     1      -6.788   3.875  13.116  1.00  0.00     0.049 A 
ATOM     36  H   UNL     1      -5.127   4.315  11.890  1.00  0.00     0.167 HD
ATOM     37  C   UNL     1      -6.035   6.100  13.930  1.00  0.00     0.074 A 
ATOM     38  C   UNL     1      -6.129   7.257  14.798  1.00  0.00     0.031 C 
ATOM     39  C   UNL     1      -6.885   5.042  13.966  1.00  0.00     0.034 A 
BRANCH  26  40
ATOM     40  C   UNL     1      -5.675   0.632   9.754  1.00  0.00     0.023 A 
ATOM     41  C   UNL     1      -4.804  -0.468   9.667  1.00  0.00     0.031 A 
ATOM     42  C   UNL     1      -6.947   0.506   9.167  1.00  0.00     0.131 A 
ATOM     43  C   UNL     1      -5.175  -1.600   8.924  1.00  0.00     0.055 A 
ATOM     44  C   UNL     1      -7.348  -0.661   8.514  1.00  0.00     0.041 A 
ATOM     45  F   UNL     1      -7.819   1.527   9.196  1.00  0.00    -0.206 F 
ATOM     46  C   UNL     1      -6.452  -1.716   8.371  1.00  0.00     0.022 A 
BRANCH  43  47
ATOM     47  S   UNL     1      -3.899  -2.829   8.531  1.00  0.00     0.124 S 
ATOM     48  O   UNL     1      -2.873  -2.000   7.899  1.00  0.00    -0.237 OA
ATOM     49  O   UNL     1      -3.563  -3.367   9.844  1.00  0.00    -0.237 OA
ATOM     50  O   UNL     1      -4.580  -3.755   7.629  1.00  0.00    -0.744 OA
ENDBRANCH  43  47
ENDBRANCH  26  40
BRANCH  27  51
ATOM     51  C   UNL     1      -2.863   9.558  13.372  1.00  0.00     0.023 A 
ATOM     52  C   UNL     1      -2.427   9.808  14.680  1.00  0.00     0.031 A 
ATOM     53  C   UNL     1      -2.930  10.644  12.477  1.00  0.00     0.131 A 
ATOM     54  C   UNL     1      -2.099  11.118  15.066  1.00  0.00     0.055 A 
ATOM     55  C   UNL     1      -2.548  11.932  12.849  1.00  0.00     0.041 A 
ATOM     56  F   UNL     1      -3.335  10.456  11.211  1.00  0.00    -0.206 F 
ATOM     57  C   UNL     1      -2.139  12.177  14.155  1.00  0.00     0.022 A 
BRANCH  54  58
ATOM     58  S   UNL     1      -1.681  11.432  16.802  1.00  0.00     0.124 S 
ATOM     59  O   UNL     1      -2.890  10.982  17.483  1.00  0.00    -0.237 OA
ATOM     60  O   UNL     1      -0.495  10.603  16.983  1.00  0.00    -0.237 OA
ATOM     61  O   UNL     1      -1.443  12.874  16.838  1.00  0.00    -0.744 OA
ENDBRANCH  54  58
ENDBRANCH  27  51
BRANCH  39  62
ATOM     62  C   UNL     1      -7.967   5.062  15.018  1.00  0.00     0.023 A 
ATOM     63  C   UNL     1      -9.024   5.988  14.986  1.00  0.00     0.031 A 
ATOM     64  C   UNL     1      -7.945   4.120  16.063  1.00  0.00     0.131 A 
ATOM     65  C   UNL     1      -9.994   5.976  16.001  1.00  0.00     0.055 A 
ATOM     66  C   UNL     1      -8.946   4.072  17.033  1.00  0.00     0.041 A 
ATOM     67  F   UNL     1      -6.953   3.219  16.149  1.00  0.00    -0.206 F 
ATOM     68  C   UNL     1      -9.974   5.009  17.011  1.00  0.00     0.022 A 
BRANCH  65  69
ATOM     69  S   UNL     1     -11.243   7.290  16.034  1.00  0.00     0.124 S 
ATOM     70  O   UNL     1     -10.419   8.488  16.153  1.00  0.00    -0.237 OA
ATOM     71  O   UNL     1     -11.923   7.108  14.756  1.00  0.00    -0.237 OA
ATOM     72  O   UNL     1     -12.046   6.971  17.213  1.00  0.00    -0.744 OA
ENDBRANCH  65  69
ENDBRANCH  39  62
ENDBRANCH  13  14
ENDBRANCH   6   8
ENDBRANCH   3   4
ENDBRANCH   2   3
ENDBRANCH   1   2
BRANCH   1  73
ATOM     73  C   UNL     1       6.517   2.959   5.531  1.00  0.00     0.002 C 
BRANCH  73  74
ATOM     74  C   UNL     1       6.755   2.078   6.760  1.00  0.00     0.021 C 
BRANCH  74  75
ATOM     75  C   UNL     1       6.750   0.593   6.439  1.00  0.00     0.116 C 
BRANCH  75  76
ATOM     76  N   UNL     1       7.840   0.272   5.544  1.00  0.00    -0.351 N 
ATOM     77  C   UNL     1       8.888  -0.568   5.762  1.00  0.00     0.278 C 
ATOM     78  H   UNL     1       7.821   0.717   4.666  1.00  0.00     0.163 HD
ATOM     79  O   UNL     1       9.788  -0.623   4.923  1.00  0.00    -0.268 OA
BRANCH  77  80
ATOM     80  C   UNL     1       8.856  -1.407   7.033  1.00  0.00     0.273 C 
ATOM     81  C   UNL     1       9.394  -2.791   6.795  1.00  0.00     0.088 C 
ATOM     82  N   UNL     1       9.768  -0.878   8.058  1.00  0.00    -0.336 N 
ATOM     83  C   UNL     1       9.743  -3.267   8.216  1.00  0.00     0.028 C 
ATOM     84  C   UNL     1       9.921  -1.963   9.025  1.00  0.00     0.268 C 
ATOM     85  H   UNL     1       9.366  -0.054   8.504  1.00  0.00     0.346 HD
ATOM     86  H   UNL     1      10.662  -0.588   7.662  1.00  0.00     0.346 HD
ATOM     87  C   UNL     1      11.050  -4.061   8.123  1.00  0.00     0.030 C 
ATOM     88  C   UNL     1       8.582  -4.110   8.823  1.00  0.00     0.030 C 
ATOM     89  C   UNL     1      10.751  -5.403   7.489  1.00  0.00     0.104 C 
ATOM     90  C   UNL     1       8.501  -5.556   8.317  1.00  0.00     0.104 C 
ATOM     91  N   UNL     1       9.847  -6.202   8.332  1.00  0.00    -0.189 NA
BRANCH  91  92
ATOM     92  S   UNL     1      10.328  -6.747   9.867  1.00  0.00     0.282 S 
ATOM     93  O   UNL     1      10.549  -5.604  10.726  1.00  0.00    -0.195 OA
ATOM     94  O   UNL     1       9.388  -7.773  10.248  1.00  0.00    -0.195 OA
BRANCH  92  95
ATOM     95  N   UNL     1      11.791  -7.472   9.594  1.00  0.00    -0.184 NA
ATOM     96  C   UNL     1      11.882  -8.763   8.904  1.00  0.00     0.132 C 
ATOM     97  C   UNL     1      13.081  -6.767   9.687  1.00  0.00     0.132 C 
ATOM     98  C   UNL     1      12.456  -8.536   7.511  1.00  0.00     0.177 C 
ATOM     99  C   UNL     1      13.808  -6.711   8.334  1.00  0.00     0.177 C 
ATOM    100  O   UNL     1      13.759  -7.929   7.575  1.00  0.00    -0.379 OA
ENDBRANCH  92  95
ENDBRANCH  91  92
ENDBRANCH  77  80
ENDBRANCH  75  76
ENDBRANCH  74  75
ENDBRANCH  73  74
ENDBRANCH   1  73
TORSDOF 18
