REMARK SMILES O=C(CC[NH+]1CCC([N@H+]2CCC[C@H](C(=O)NCc3cccnc3)C2)CC1)NCCCCCCNC(=O)c1ccc(-c2c3nc(c(-c4cc(S(=O)(=O)[O-])ccc4F)c4ccc([nH]4)c(-c4cc(S(=O)(=O)[O-])ccc4F)c4nc(c(-c5cc(S(=O)(=O)[O-])ccc5F)c5ccc2[nH]5)C=C4)C=C3)cc1
REMARK SMILES IDX 29 1 28 2 27 3 1 4 2 5 3 7 4 8 5 9 6 10 26 11 7 13 25 14
REMARK SMILES IDX 8 15 9 16 10 17 24 18 11 20 13 21 12 22 14 23 15 24 16 25
REMARK SMILES IDX 17 27 18 28 19 29 23 30 20 31 22 32 21 33 30 34 31 35 32 36
REMARK SMILES IDX 33 37 34 38 35 39 36 41 37 42 38 43 99 44 39 45 98 46 40 47
REMARK SMILES IDX 41 48 42 49 92 50 43 51 97 52 91 53 93 54 44 55 96 56 90 57
REMARK SMILES IDX 89 58 45 60 77 61 57 62 76 63 58 64 61 65 75 66 94 67 59 68
REMARK SMILES IDX 60 69 74 71 95 72 62 73 46 74 47 75 55 76 48 77 54 78 56 79
REMARK SMILES IDX 53 80 49 81 50 82 51 83 52 84 78 85 79 86 87 87 80 88 86 89
REMARK SMILES IDX 88 90 85 91 81 92 82 93 83 94 84 95 63 96 64 97 72 98 65 99
REMARK SMILES IDX 71 100 73 101 70 102 66 103 67 104 68 105 69 106
REMARK H PARENT 27 6 5 12 9 19 16 26 34 40 93 59 61 70
REMARK Flexibility Score: inf
ROOT
ATOM      1  C   UNL     1       2.473   1.662   2.893  1.00  0.00     0.021 C 
ENDROOT
BRANCH   1   2
ATOM      2  C   UNL     1       2.049   1.701   1.425  1.00  0.00     0.116 C 
BRANCH   2   3
ATOM      3  N   UNL     1       2.721   0.682   0.646  1.00  0.00    -0.356 N 
ATOM      4  O   UNL     1       0.849  -0.445  -0.070  1.00  0.00    -0.275 OA
ATOM      5  C   UNL     1       2.068  -0.305  -0.051  1.00  0.00     0.225 C 
ATOM      6  H   UNL     1       3.705   0.698   0.613  1.00  0.00     0.163 HD
BRANCH   5   7
ATOM      7  C   UNL     1       2.997  -1.253  -0.787  1.00  0.00     0.161 C 
BRANCH   7   8
ATOM      8  C   UNL     1       3.761  -0.559  -1.916  1.00  0.00     0.272 C 
BRANCH   8   9
ATOM      9  N   UNL     1       4.841   0.272  -1.357  1.00  0.00    -0.334 N 
ATOM     10  C   UNL     1       6.172  -0.298  -1.607  1.00  0.00     0.268 C 
ATOM     11  C   UNL     1       4.779   1.656  -1.843  1.00  0.00     0.268 C 
ATOM     12  H   UNL     1       4.691   0.282  -0.348  1.00  0.00     0.348 HD
ATOM     13  C   UNL     1       7.224   0.469  -0.804  1.00  0.00     0.126 C 
ATOM     14  C   UNL     1       5.742   2.512  -1.027  1.00  0.00     0.126 C 
ATOM     15  C   UNL     1       7.179   1.976  -1.109  1.00  0.00     0.195 C 
BRANCH  15  16
ATOM     16  N   UNL     1       8.047   2.829  -0.273  1.00  0.00    -0.331 N 
ATOM     17  C   UNL     1       8.107   2.471   1.148  1.00  0.00     0.262 C 
ATOM     18  C   UNL     1       9.388   2.994  -0.837  1.00  0.00     0.275 C 
ATOM     19  H   UNL     1       7.577   3.734  -0.296  1.00  0.00     0.348 HD
ATOM     20  C   UNL     1       8.778   3.570   1.968  1.00  0.00     0.062 C 
ATOM     21  C   UNL     1      10.243   4.022  -0.090  1.00  0.00     0.133 C 
ATOM     22  C   UNL     1      10.148   3.957   1.434  1.00  0.00     0.025 C 
BRANCH  21  23
ATOM     23  C   UNL     1      10.223   5.424  -0.700  1.00  0.00     0.229 C 
ATOM     24  O   UNL     1      11.262   5.859  -1.218  1.00  0.00    -0.275 OA
ATOM     25  N   UNL     1       9.158   6.253  -0.750  1.00  0.00    -0.352 N 
ATOM     26  H   UNL     1       9.366   7.124  -1.159  1.00  0.00     0.163 HD
BRANCH  25  27
ATOM     27  C   UNL     1       7.775   6.137  -0.333  1.00  0.00     0.153 C 
BRANCH  27  28
ATOM     28  C   UNL     1       7.404   7.089   0.769  1.00  0.00    -0.010 A 
ATOM     29  C   UNL     1       6.575   6.681   1.818  1.00  0.00     0.009 A 
ATOM     30  C   UNL     1       7.796   8.423   0.772  1.00  0.00     0.116 A 
ATOM     31  C   UNL     1       6.226   7.575   2.826  1.00  0.00     0.020 A 
ATOM     32  N   UNL     1       7.467   9.317   1.732  1.00  0.00    -0.264 NA
ATOM     33  C   UNL     1       6.698   8.870   2.745  1.00  0.00     0.111 A 
ENDBRANCH  27  28
ENDBRANCH  25  27
ENDBRANCH  21  23
ENDBRANCH  15  16
ENDBRANCH   8   9
ENDBRANCH   7   8
ENDBRANCH   5   7
ENDBRANCH   2   3
ENDBRANCH   1   2
BRANCH   1  34
ATOM     34  C   UNL     1       3.954   1.976   3.142  1.00  0.00     0.002 C 
BRANCH  34  35
ATOM     35  C   UNL     1       4.408   3.371   2.706  1.00  0.00     0.002 C 
BRANCH  35  36
ATOM     36  C   UNL     1       3.682   4.536   3.373  1.00  0.00     0.021 C 
BRANCH  36  37
ATOM     37  C   UNL     1       3.830   4.610   4.889  1.00  0.00     0.116 C 
BRANCH  37  38
ATOM     38  N   UNL     1       5.215   4.713   5.326  1.00  0.00    -0.352 N 
ATOM     39  C   UNL     1       5.841   5.658   6.104  1.00  0.00     0.251 C 
ATOM     40  H   UNL     1       5.800   3.986   5.012  1.00  0.00     0.163 HD
ATOM     41  O   UNL     1       7.060   5.607   6.244  1.00  0.00    -0.269 OA
BRANCH  39  42
ATOM     42  C   UNL     1       5.066   6.759   6.723  1.00  0.00     0.039 A 
ATOM     43  C   UNL     1       5.594   8.055   6.699  1.00  0.00     0.014 A 
ATOM     44  C   UNL     1       3.828   6.523   7.323  1.00  0.00     0.014 A 
ATOM     45  C   UNL     1       4.844   9.122   7.203  1.00  0.00     0.010 A 
ATOM     46  C   UNL     1       3.050   7.594   7.753  1.00  0.00     0.010 A 
ATOM     47  C   UNL     1       3.553   8.903   7.705  1.00  0.00    -0.014 A 
BRANCH  47  48
ATOM     48  C   UNL     1       2.724  10.017   8.233  1.00  0.00     0.031 A 
ATOM     49  C   UNL     1       2.369  10.049   9.695  1.00  0.00     0.074 A 
ATOM     50  C   UNL     1       2.234  10.951   7.395  1.00  0.00     0.049 A 
ATOM     51  N   UNL     1       1.587  10.872  10.344  1.00  0.00    -0.248 NA
ATOM     52  C   UNL     1       2.947   8.984  10.529  1.00  0.00     0.031 C 
ATOM     53  C   UNL     1       2.480  11.007   5.953  1.00  0.00     0.029 A 
ATOM     54  N   UNL     1       1.417  12.027   7.634  1.00  0.00    -0.354 N 
ATOM     55  C   UNL     1       1.564  10.416  11.658  1.00  0.00     0.074 A 
ATOM     56  C   UNL     1       2.356   9.205  11.693  1.00  0.00     0.031 C 
ATOM     57  C   UNL     1       1.845  12.074   5.441  1.00  0.00     0.029 A 
ATOM     58  C   UNL     1       1.114  12.754   6.506  1.00  0.00     0.049 A 
ATOM     59  H   UNL     1       1.078  12.257   8.530  1.00  0.00     0.167 HD
ATOM     60  C   UNL     1       0.958  10.967  12.739  1.00  0.00     0.034 A 
ATOM     61  C   UNL     1       0.331  13.839   6.351  1.00  0.00     0.034 A 
ATOM     62  C   UNL     1       0.181  12.182  12.686  1.00  0.00     0.049 A 
ATOM     63  C   UNL     1      -0.357  14.420   7.560  1.00  0.00     0.074 A 
ATOM     64  C   UNL     1      -0.423  12.868  13.725  1.00  0.00     0.029 A 
ATOM     65  N   UNL     1      -0.111  12.888  11.524  1.00  0.00    -0.354 N 
ATOM     66  N   UNL     1      -0.325  14.011   8.808  1.00  0.00    -0.248 NA
ATOM     67  C   UNL     1      -1.179  15.616   7.338  1.00  0.00     0.031 C 
ATOM     68  C   UNL     1      -1.136  13.945  13.185  1.00  0.00     0.029 A 
ATOM     69  C   UNL     1      -0.917  13.979  11.817  1.00  0.00     0.049 A 
ATOM     70  H   UNL     1       0.207  12.649  10.624  1.00  0.00     0.167 HD
ATOM     71  C   UNL     1      -1.102  14.918   9.524  1.00  0.00     0.074 A 
ATOM     72  C   UNL     1      -1.571  15.903   8.570  1.00  0.00     0.031 C 
ATOM     73  C   UNL     1      -1.399  14.939  10.850  1.00  0.00     0.034 A 
BRANCH  60  74
ATOM     74  C   UNL     1       1.093  10.232  14.053  1.00  0.00     0.023 A 
ATOM     75  C   UNL     1       2.346  10.007  14.650  1.00  0.00     0.031 A 
ATOM     76  C   UNL     1      -0.041   9.695  14.688  1.00  0.00     0.131 A 
ATOM     77  C   UNL     1       2.448   9.185  15.782  1.00  0.00     0.055 A 
ATOM     78  C   UNL     1       0.058   8.954  15.868  1.00  0.00     0.041 A 
ATOM     79  F   UNL     1      -1.263   9.857  14.159  1.00  0.00    -0.206 F 
ATOM     80  C   UNL     1       1.309   8.677  16.411  1.00  0.00     0.022 A 
BRANCH  77  81
ATOM     81  S   UNL     1       4.096   8.643  16.312  1.00  0.00     0.124 S 
ATOM     82  O   UNL     1       4.595   7.991  15.104  1.00  0.00    -0.237 OA
ATOM     83  O   UNL     1       4.740   9.901  16.672  1.00  0.00    -0.237 OA
ATOM     84  O   UNL     1       3.819   7.741  17.428  1.00  0.00    -0.744 OA
ENDBRANCH  77  81
ENDBRANCH  60  74
BRANCH  61  85
ATOM     85  C   UNL     1       0.147  14.453   5.005  1.00  0.00     0.023 A 
ATOM     86  C   UNL     1       0.632  15.742   4.731  1.00  0.00     0.031 A 
ATOM     87  C   UNL     1      -0.547  13.777   3.986  1.00  0.00     0.131 A 
ATOM     88  C   UNL     1       0.380  16.333   3.483  1.00  0.00     0.055 A 
ATOM     89  C   UNL     1      -0.754  14.351   2.730  1.00  0.00     0.041 A 
ATOM     90  F   UNL     1      -1.026  12.540   4.195  1.00  0.00    -0.206 F 
ATOM     91  C   UNL     1      -0.298  15.642   2.477  1.00  0.00     0.022 A 
BRANCH  88  92
ATOM     92  S   UNL     1       0.897  18.051   3.216  1.00  0.00     0.124 S 
ATOM     93  O   UNL     1       0.143  18.752   4.250  1.00  0.00    -0.237 OA
ATOM     94  O   UNL     1       2.340  17.969   3.418  1.00  0.00    -0.237 OA
ATOM     95  O   UNL     1       0.477  18.323   1.843  1.00  0.00    -0.744 OA
ENDBRANCH  88  92
ENDBRANCH  61  85
BRANCH  73  96
ATOM     96  C   UNL     1      -2.249  16.087  11.338  1.00  0.00     0.023 A 
ATOM     97  C   UNL     1      -3.587  16.239  10.932  1.00  0.00     0.031 A 
ATOM     98  C   UNL     1      -1.704  17.061  12.193  1.00  0.00     0.131 A 
ATOM     99  C   UNL     1      -4.313  17.373  11.327  1.00  0.00     0.055 A 
ATOM    100  C   UNL     1      -2.451  18.153  12.636  1.00  0.00     0.041 A 
ATOM    101  F   UNL     1      -0.431  16.969  12.610  1.00  0.00    -0.206 F 
ATOM    102  C   UNL     1      -3.759  18.322  12.189  1.00  0.00     0.022 A 
BRANCH  99 103
ATOM    103  S   UNL     1      -5.955  17.649  10.608  1.00  0.00     0.124 S 
ATOM    104  O   UNL     1      -5.663  17.658   9.178  1.00  0.00    -0.237 OA
ATOM    105  O   UNL     1      -6.707  16.497  11.097  1.00  0.00    -0.237 OA
ATOM    106  O   UNL     1      -6.363  18.937  11.166  1.00  0.00    -0.744 OA
ENDBRANCH  99 103
ENDBRANCH  73  96
ENDBRANCH  47  48
ENDBRANCH  39  42
ENDBRANCH  37  38
ENDBRANCH  36  37
ENDBRANCH  35  36
ENDBRANCH  34  35
ENDBRANCH   1  34
TORSDOF 22
