REMARK SMILES O=C(NCCCCCCNC(=O)[C@@H]1c2ccccc2C(=O)N(C2CCCC2)C12CCCCC2)c1ccc(-c2c3nc(c(-c4cc(S(=O)(=O)[O-])ccc4F)c4ccc([nH]4)c(-c4cc(S(=O)(=O)[O-])ccc4F)c4nc(c(-c5cc(S(=O)(=O)[O-])ccc5F)c5ccc2[nH]5)C=C4)C=C3)cc1
REMARK SMILES IDX 5 1 4 2 3 3 1 4 2 5 34 7 35 8 96 9 36 10 95 11 37 12 38 13
REMARK SMILES IDX 39 14 89 15 40 16 94 17 88 18 90 19 41 20 93 21 87 22 86 23
REMARK SMILES IDX 42 25 74 26 54 27 73 28 55 29 58 30 72 31 91 32 56 33 57 34
REMARK SMILES IDX 71 36 92 37 59 38 43 39 44 40 52 41 45 42 51 43 53 44 50 45
REMARK SMILES IDX 46 46 47 47 48 48 49 49 75 50 76 51 84 52 77 53 83 54 85 55
REMARK SMILES IDX 82 56 78 57 79 58 80 59 81 60 60 61 61 62 69 63 62 64 68 65
REMARK SMILES IDX 70 66 67 67 63 68 64 69 65 70 66 71 6 72 7 73 8 74 9 75
REMARK SMILES IDX 10 76 11 77 12 79 13 80 14 81 28 82 15 83 19 84 22 85 29 86
REMARK SMILES IDX 33 87 16 88 18 89 20 90 30 91 32 92 17 93 21 94 31 95 23 96
REMARK SMILES IDX 24 97 27 98 25 99 26 100
REMARK H PARENT 3 6 90 24 58 35 10 78
REMARK Flexibility Score: inf
ROOT
ATOM      1  C   UNL     1       6.904   7.286  -0.535  1.00  0.00     0.021 C 
ENDROOT
BRANCH   1   2
ATOM      2  C   UNL     1       5.535   7.519   0.084  1.00  0.00     0.116 C 
BRANCH   2   3
ATOM      3  N   UNL     1       5.473   7.205   1.500  1.00  0.00    -0.352 N 
ATOM      4  O   UNL     1       4.862   7.458   3.652  1.00  0.00    -0.269 OA
ATOM      5  C   UNL     1       4.728   7.810   2.482  1.00  0.00     0.251 C 
ATOM      6  H   UNL     1       6.043   6.458   1.796  1.00  0.00     0.163 HD
BRANCH   5   7
ATOM      7  C   UNL     1       3.793   8.905   2.135  1.00  0.00     0.039 A 
ATOM      8  C   UNL     1       3.741  10.028   2.962  1.00  0.00     0.014 A 
ATOM      9  C   UNL     1       2.974   8.832   1.005  1.00  0.00     0.014 A 
ATOM     10  C   UNL     1       2.890  11.086   2.637  1.00  0.00     0.010 A 
ATOM     11  C   UNL     1       2.205   9.928   0.628  1.00  0.00     0.010 A 
ATOM     12  C   UNL     1       2.127  11.054   1.456  1.00  0.00    -0.014 A 
BRANCH  12  13
ATOM     13  C   UNL     1       1.216  12.175   1.108  1.00  0.00     0.031 A 
ATOM     14  C   UNL     1      -0.267  11.943   1.000  1.00  0.00     0.074 A 
ATOM     15  C   UNL     1       1.725  13.400   0.872  1.00  0.00     0.049 A 
ATOM     16  N   UNL     1      -1.219  12.802   0.741  1.00  0.00    -0.248 NA
ATOM     17  C   UNL     1      -0.743  10.561   1.174  1.00  0.00     0.031 C 
ATOM     18  C   UNL     1       3.150  13.727   0.872  1.00  0.00     0.029 A 
ATOM     19  N   UNL     1       1.107  14.593   0.595  1.00  0.00    -0.354 N 
ATOM     20  C   UNL     1      -2.399  12.067   0.730  1.00  0.00     0.074 A 
ATOM     21  C   UNL     1      -2.033  10.681   0.905  1.00  0.00     0.031 C 
ATOM     22  C   UNL     1       3.296  15.043   0.655  1.00  0.00     0.029 A 
ATOM     23  C   UNL     1       1.979  15.648   0.462  1.00  0.00     0.049 A 
ATOM     24  H   UNL     1       0.131  14.686   0.501  1.00  0.00     0.167 HD
ATOM     25  C   UNL     1      -3.675  12.510   0.636  1.00  0.00     0.034 A 
ATOM     26  C   UNL     1       1.749  16.956   0.224  1.00  0.00     0.034 A 
ATOM     27  C   UNL     1      -4.025  13.898   0.475  1.00  0.00     0.049 A 
ATOM     28  C   UNL     1       0.323  17.436   0.133  1.00  0.00     0.074 A 
ATOM     29  C   UNL     1      -5.286  14.460   0.407  1.00  0.00     0.029 A 
ATOM     30  N   UNL     1      -3.117  14.943   0.362  1.00  0.00    -0.354 N 
ATOM     31  N   UNL     1      -0.789  16.742   0.221  1.00  0.00    -0.248 NA
ATOM     32  C   UNL     1       0.113  18.876  -0.068  1.00  0.00     0.031 C 
ATOM     33  C   UNL     1      -5.142  15.832   0.191  1.00  0.00     0.029 A 
ATOM     34  C   UNL     1      -3.791  16.143   0.201  1.00  0.00     0.049 A 
ATOM     35  H   UNL     1      -2.138  14.845   0.392  1.00  0.00     0.167 HD
ATOM     36  C   UNL     1      -1.828  17.660   0.093  1.00  0.00     0.074 A 
ATOM     37  C   UNL     1      -1.210  18.964  -0.029  1.00  0.00     0.031 C 
ATOM     38  C   UNL     1      -3.168  17.441   0.065  1.00  0.00     0.034 A 
BRANCH  25  39
ATOM     39  C   UNL     1      -4.791  11.498   0.748  1.00  0.00     0.023 A 
ATOM     40  C   UNL     1      -5.707  11.326  -0.305  1.00  0.00     0.031 A 
ATOM     41  C   UNL     1      -5.004  10.772   1.936  1.00  0.00     0.131 A 
ATOM     42  C   UNL     1      -6.805  10.472  -0.140  1.00  0.00     0.055 A 
ATOM     43  C   UNL     1      -6.069   9.882   2.075  1.00  0.00     0.041 A 
ATOM     44  F   UNL     1      -4.162  10.900   2.975  1.00  0.00    -0.206 F 
ATOM     45  C   UNL     1      -6.983   9.739   1.038  1.00  0.00     0.022 A 
BRANCH  42  46
ATOM     46  S   UNL     1      -8.082  10.324  -1.419  1.00  0.00     0.124 S 
ATOM     47  O   UNL     1      -8.030   8.897  -1.731  1.00  0.00    -0.237 OA
ATOM     48  O   UNL     1      -9.278  10.763  -0.706  1.00  0.00    -0.237 OA
ATOM     49  O   UNL     1      -7.619  11.209  -2.481  1.00  0.00    -0.744 OA
ENDBRANCH  42  46
ENDBRANCH  25  39
BRANCH  26  50
ATOM     50  C   UNL     1       2.913  17.887   0.144  1.00  0.00     0.023 A 
ATOM     51  C   UNL     1       3.900  17.718  -0.845  1.00  0.00     0.031 A 
ATOM     52  C   UNL     1       3.131  18.859   1.135  1.00  0.00     0.131 A 
ATOM     53  C   UNL     1       5.095  18.446  -0.769  1.00  0.00     0.055 A 
ATOM     54  C   UNL     1       4.288  19.640   1.158  1.00  0.00     0.041 A 
ATOM     55  F   UNL     1       2.228  19.047   2.109  1.00  0.00    -0.206 F 
ATOM     56  C   UNL     1       5.287  19.420   0.215  1.00  0.00     0.022 A 
BRANCH  53  57
ATOM     57  S   UNL     1       6.497  18.038  -1.847  1.00  0.00     0.124 S 
ATOM     58  O   UNL     1       6.746  19.309  -2.520  1.00  0.00    -0.237 OA
ATOM     59  O   UNL     1       7.508  17.629  -0.875  1.00  0.00    -0.237 OA
ATOM     60  O   UNL     1       5.983  16.966  -2.692  1.00  0.00    -0.744 OA
ENDBRANCH  53  57
ENDBRANCH  26  50
BRANCH  38  61
ATOM     61  C   UNL     1      -4.084  18.627  -0.138  1.00  0.00     0.023 A 
ATOM     62  C   UNL     1      -5.047  18.959   0.835  1.00  0.00     0.031 A 
ATOM     63  C   UNL     1      -4.093  19.344  -1.348  1.00  0.00     0.131 A 
ATOM     64  C   UNL     1      -5.996  19.954   0.568  1.00  0.00     0.055 A 
ATOM     65  C   UNL     1      -5.005  20.373  -1.587  1.00  0.00     0.041 A 
ATOM     66  F   UNL     1      -3.209  19.056  -2.317  1.00  0.00    -0.206 F 
ATOM     67  C   UNL     1      -5.971  20.672  -0.632  1.00  0.00     0.022 A 
BRANCH  64  68
ATOM     68  S   UNL     1      -7.357  20.288   1.721  1.00  0.00     0.124 S 
ATOM     69  O   UNL     1      -7.086  21.670   2.113  1.00  0.00    -0.237 OA
ATOM     70  O   UNL     1      -8.532  20.100   0.874  1.00  0.00    -0.237 OA
ATOM     71  O   UNL     1      -7.178  19.295   2.774  1.00  0.00    -0.744 OA
ENDBRANCH  64  68
ENDBRANCH  38  61
ENDBRANCH  12  13
ENDBRANCH   5   7
ENDBRANCH   2   3
ENDBRANCH   1   2
BRANCH   1  72
ATOM     72  C   UNL     1       7.469   5.876  -0.368  1.00  0.00     0.002 C 
BRANCH  72  73
ATOM     73  C   UNL     1       6.540   4.713  -0.729  1.00  0.00     0.002 C 
BRANCH  73  74
ATOM     74  C   UNL     1       5.925   4.707  -2.136  1.00  0.00     0.021 C 
BRANCH  74  75
ATOM     75  C   UNL     1       6.892   4.926  -3.296  1.00  0.00     0.116 C 
BRANCH  75  76
ATOM     76  N   UNL     1       8.030   4.031  -3.268  1.00  0.00    -0.355 N 
ATOM     77  C   UNL     1       9.051   3.878  -4.160  1.00  0.00     0.229 C 
ATOM     78  H   UNL     1       8.074   3.440  -2.482  1.00  0.00     0.163 HD
ATOM     79  O   UNL     1       9.991   3.170  -3.789  1.00  0.00    -0.274 OA
BRANCH  77  80
ATOM     80  C   UNL     1       8.969   4.480  -5.574  1.00  0.00     0.135 C 
ATOM     81  C   UNL     1       9.349   3.438  -6.644  1.00  0.00    -0.020 A 
ATOM     82  C   UNL     1       9.766   5.832  -5.799  1.00  0.00     0.059 C 
ATOM     83  C   UNL     1       9.185   2.054  -6.439  1.00  0.00     0.005 A 
ATOM     84  C   UNL     1       9.839   3.857  -7.892  1.00  0.00     0.044 A 
ATOM     85  N   UNL     1       9.480   6.211  -7.265  1.00  0.00    -0.329 N 
ATOM     86  C   UNL     1      11.330   5.686  -5.692  1.00  0.00     0.030 C 
ATOM     87  C   UNL     1       9.355   6.945  -4.790  1.00  0.00     0.030 C 
ATOM     88  C   UNL     1       9.580   1.125  -7.407  1.00  0.00     0.000 A 
ATOM     89  C   UNL     1      10.240   2.922  -8.860  1.00  0.00     0.014 A 
ATOM     90  C   UNL     1       9.833   5.294  -8.269  1.00  0.00     0.254 C 
ATOM     91  C   UNL     1      11.943   5.646  -4.294  1.00  0.00     0.002 C 
ATOM     92  C   UNL     1       9.965   6.873  -3.388  1.00  0.00     0.002 C 
ATOM     93  C   UNL     1      10.125   1.557  -8.611  1.00  0.00     0.001 A 
ATOM     94  O   UNL     1      10.028   5.602  -9.442  1.00  0.00    -0.269 OA
ATOM     95  C   UNL     1      11.478   6.795  -3.421  1.00  0.00     0.000 C 
BRANCH  85  96
ATOM     96  C   UNL     1       8.742   7.390  -7.751  1.00  0.00     0.086 C 
ATOM     97  C   UNL     1       7.284   7.508  -7.303  1.00  0.00     0.025 C 
ATOM     98  C   UNL     1       9.382   8.772  -7.602  1.00  0.00     0.025 C 
ATOM     99  C   UNL     1       6.942   8.952  -7.632  1.00  0.00     0.002 C 
ATOM    100  C   UNL     1       8.219   9.725  -7.313  1.00  0.00     0.002 C 
ENDBRANCH  85  96
ENDBRANCH  77  80
ENDBRANCH  75  76
ENDBRANCH  74  75
ENDBRANCH  73  74
ENDBRANCH  72  73
ENDBRANCH   1  72
TORSDOF 17
