REMARK SMILES COc1ccc([C@H](C)[N@H+]2CC[C@H](C(=O)NCCCCCCNC(=O)c3ccc(-c4c5nc(c(-c6cc(S(=O)(=O)[O-])ccc6F)c6ccc([nH]6)c(-c6cc(S(=O)(=O)[O-])ccc6F)c6nc(c(-c7cc(S(=O)(=O)[O-])ccc7F)c7ccc4[nH]7)C=C6)C=C5)cc3)[C@@H]2C)cc1
REMARK SMILES IDX 18 1 17 2 16 3 15 4 13 5 14 6 12 8 9 9 10 10 88 11 11 13
REMARK SMILES IDX 89 14 7 15 8 16 6 17 3 18 4 19 91 20 5 21 90 22 2 23 1 24
REMARK SMILES IDX 19 25 20 26 21 27 22 28 23 29 24 31 25 32 26 33 87 34 27 35
REMARK SMILES IDX 86 36 28 37 29 38 30 39 80 40 31 41 85 42 79 43 81 44 32 45
REMARK SMILES IDX 84 46 78 47 77 48 33 50 65 51 45 52 64 53 46 54 49 55 63 56
REMARK SMILES IDX 82 57 47 58 48 59 62 61 83 62 50 63 34 64 35 65 43 66 36 67
REMARK SMILES IDX 42 68 44 69 41 70 37 71 38 72 39 73 40 74 66 75 67 76 75 77
REMARK SMILES IDX 68 78 74 79 76 80 73 81 69 82 70 83 71 84 72 85 51 86 52 87
REMARK SMILES IDX 60 88 53 89 59 90 61 91 58 92 54 93 55 94 56 95 57 96
REMARK H PARENT 15 7 9 12 22 30 81 49 49 60
REMARK Flexibility Score: inf
ROOT
ATOM      1  C   UNL     1      -4.474   9.287  -1.387  1.00  0.00     0.002 C 
ENDROOT
BRANCH   1   2
ATOM      2  C   UNL     1      -3.672   8.015  -1.653  1.00  0.00     0.021 C 
BRANCH   2   3
ATOM      3  C   UNL     1      -2.167   8.243  -1.728  1.00  0.00     0.116 C 
BRANCH   3   4
ATOM      4  N   UNL     1      -1.529   8.172  -0.431  1.00  0.00    -0.356 N 
ATOM      5  C   UNL     1      -0.627   7.328   0.123  1.00  0.00     0.229 C 
ATOM      6  O   UNL     1      -0.322   7.572   1.300  1.00  0.00    -0.275 OA
ATOM      7  H   UNL     1      -1.812   8.892   0.178  1.00  0.00     0.163 HD
BRANCH   5   8
ATOM      8  C   UNL     1       0.059   6.153  -0.578  1.00  0.00     0.142 C 
ATOM      9  N   UNL     1       1.441   6.222  -2.565  1.00  0.00    -0.326 N 
ATOM     10  C   UNL     1       0.059   5.973  -2.962  1.00  0.00     0.264 C 
ATOM     11  C   UNL     1       1.491   6.405  -1.103  1.00  0.00     0.194 C 
ATOM     12  H   UNL     1       1.780   7.103  -2.950  1.00  0.00     0.348 HD
ATOM     13  C   UNL     1      -0.641   5.453  -1.723  1.00  0.00     0.081 C 
ATOM     14  C   UNL     1       2.090   7.767  -0.759  1.00  0.00     0.076 C 
BRANCH   9  15
ATOM     15  C   UNL     1       2.410   5.300  -3.194  1.00  0.00     0.212 C 
ATOM     16  C   UNL     1       2.251   3.844  -2.714  1.00  0.00     0.081 C 
BRANCH  15  17
ATOM     17  C   UNL     1       2.320   5.468  -4.724  1.00  0.00     0.009 A 
ATOM     18  C   UNL     1       1.730   6.009  -7.436  1.00  0.00     0.118 A 
ATOM     19  C   UNL     1       2.273   7.002  -6.623  1.00  0.00     0.047 A 
ATOM     20  C   UNL     1       1.550   4.728  -6.923  1.00  0.00     0.047 A 
ATOM     21  C   UNL     1       2.562   6.738  -5.281  1.00  0.00     0.013 A 
ATOM     22  C   UNL     1       1.847   4.458  -5.581  1.00  0.00     0.013 A 
BRANCH  18  23
ATOM     23  O   UNL     1       1.450   6.373  -8.724  1.00  0.00    -0.497 OA
ATOM     24  C   UNL     1       0.260   5.799  -9.265  1.00  0.00     0.278 C 
ENDBRANCH  18  23
ENDBRANCH  15  17
ENDBRANCH   9  15
ENDBRANCH   5   8
ENDBRANCH   3   4
ENDBRANCH   2   3
ENDBRANCH   1   2
BRANCH   1  25
ATOM     25  C   UNL     1      -4.222  10.429  -2.380  1.00  0.00     0.002 C 
BRANCH  25  26
ATOM     26  C   UNL     1      -4.333  10.051  -3.861  1.00  0.00     0.021 C 
BRANCH  26  27
ATOM     27  C   UNL     1      -5.676   9.452  -4.264  1.00  0.00     0.116 C 
BRANCH  27  28
ATOM     28  N   UNL     1      -6.776  10.350  -3.956  1.00  0.00    -0.352 N 
ATOM     29  C   UNL     1      -7.711  10.901  -4.795  1.00  0.00     0.251 C 
ATOM     30  H   UNL     1      -6.862  10.600  -3.008  1.00  0.00     0.163 HD
ATOM     31  O   UNL     1      -8.396  11.841  -4.407  1.00  0.00    -0.269 OA
BRANCH  29  32
ATOM     32  C   UNL     1      -7.877  10.363  -6.161  1.00  0.00     0.039 A 
ATOM     33  C   UNL     1      -8.036  11.252  -7.225  1.00  0.00     0.014 A 
ATOM     34  C   UNL     1      -7.896   8.983  -6.386  1.00  0.00     0.014 A 
ATOM     35  C   UNL     1      -8.166  10.757  -8.524  1.00  0.00     0.010 A 
ATOM     36  C   UNL     1      -7.950   8.494  -7.688  1.00  0.00     0.010 A 
ATOM     37  C   UNL     1      -8.093   9.376  -8.769  1.00  0.00    -0.014 A 
BRANCH  37  38
ATOM     38  C   UNL     1      -8.178   8.835 -10.150  1.00  0.00     0.031 A 
ATOM     39  C   UNL     1      -9.326   7.944 -10.541  1.00  0.00     0.074 A 
ATOM     40  C   UNL     1      -7.194   9.104 -11.031  1.00  0.00     0.049 A 
ATOM     41  N   UNL     1      -9.541   7.317 -11.669  1.00  0.00    -0.248 NA
ATOM     42  C   UNL     1     -10.352   7.703  -9.515  1.00  0.00     0.031 C 
ATOM     43  C   UNL     1      -6.015   9.928 -10.753  1.00  0.00     0.029 A 
ATOM     44  N   UNL     1      -7.022   8.709 -12.334  1.00  0.00    -0.354 N 
ATOM     45  C   UNL     1     -10.719   6.601 -11.486  1.00  0.00     0.074 A 
ATOM     46  C   UNL     1     -11.133   6.819 -10.117  1.00  0.00     0.031 C 
ATOM     47  C   UNL     1      -5.258   9.999 -11.860  1.00  0.00     0.029 A 
ATOM     48  C   UNL     1      -5.866   9.186 -12.908  1.00  0.00     0.049 A 
ATOM     49  H   UNL     1      -7.665   8.138 -12.813  1.00  0.00     0.167 HD
ATOM     50  C   UNL     1     -11.403   5.850 -12.385  1.00  0.00     0.034 A 
ATOM     51  C   UNL     1      -5.348   8.980 -14.135  1.00  0.00     0.034 A 
ATOM     52  C   UNL     1     -10.975   5.652 -13.749  1.00  0.00     0.049 A 
ATOM     53  C   UNL     1      -6.108   8.111 -15.106  1.00  0.00     0.074 A 
ATOM     54  C   UNL     1     -11.614   4.953 -14.759  1.00  0.00     0.029 A 
ATOM     55  N   UNL     1      -9.795   6.143 -14.294  1.00  0.00    -0.354 N 
ATOM     56  N   UNL     1      -7.246   7.478 -14.933  1.00  0.00    -0.248 NA
ATOM     57  C   UNL     1      -5.519   7.937 -16.439  1.00  0.00     0.031 C 
ATOM     58  C   UNL     1     -10.786   4.956 -15.886  1.00  0.00     0.029 A 
ATOM     59  C   UNL     1      -9.670   5.732 -15.612  1.00  0.00     0.049 A 
ATOM     60  H   UNL     1      -9.142   6.702 -13.814  1.00  0.00     0.167 HD
ATOM     61  C   UNL     1      -7.524   6.860 -16.149  1.00  0.00     0.074 A 
ATOM     62  C   UNL     1      -6.443   7.209 -17.048  1.00  0.00     0.031 C 
ATOM     63  C   UNL     1      -8.580   6.079 -16.494  1.00  0.00     0.034 A 
BRANCH  50  64
ATOM     64  C   UNL     1     -12.665   5.169 -11.909  1.00  0.00     0.023 A 
ATOM     65  C   UNL     1     -13.772   5.902 -11.445  1.00  0.00     0.031 A 
ATOM     66  C   UNL     1     -12.756   3.766 -11.895  1.00  0.00     0.131 A 
ATOM     67  C   UNL     1     -14.886   5.233 -10.917  1.00  0.00     0.055 A 
ATOM     68  C   UNL     1     -13.903   3.106 -11.449  1.00  0.00     0.041 A 
ATOM     69  F   UNL     1     -11.725   3.009 -12.303  1.00  0.00    -0.206 F 
ATOM     70  C   UNL     1     -14.971   3.839 -10.941  1.00  0.00     0.022 A 
BRANCH  67  71
ATOM     71  S   UNL     1     -16.153   6.206 -10.057  1.00  0.00     0.124 S 
ATOM     72  O   UNL     1     -15.367   6.851  -9.008  1.00  0.00    -0.237 OA
ATOM     73  O   UNL     1     -16.650   7.080 -11.114  1.00  0.00    -0.237 OA
ATOM     74  O   UNL     1     -17.098   5.196  -9.585  1.00  0.00    -0.744 OA
ENDBRANCH  67  71
ENDBRANCH  50  64
BRANCH  51  75
ATOM     75  C   UNL     1      -4.042   9.591 -14.517  1.00  0.00     0.023 A 
ATOM     76  C   UNL     1      -3.959  10.527 -15.560  1.00  0.00     0.031 A 
ATOM     77  C   UNL     1      -2.849   9.216 -13.873  1.00  0.00     0.131 A 
ATOM     78  C   UNL     1      -2.707  11.016 -15.964  1.00  0.00     0.055 A 
ATOM     79  C   UNL     1      -1.613   9.751 -14.238  1.00  0.00     0.041 A 
ATOM     80  F   UNL     1      -2.870   8.326 -12.867  1.00  0.00    -0.206 F 
ATOM     81  C   UNL     1      -1.535  10.646 -15.300  1.00  0.00     0.022 A 
BRANCH  78  82
ATOM     82  S   UNL     1      -2.622  12.069 -17.438  1.00  0.00     0.124 S 
ATOM     83  O   UNL     1      -3.220  11.208 -18.452  1.00  0.00    -0.237 OA
ATOM     84  O   UNL     1      -3.414  13.225 -17.030  1.00  0.00    -0.237 OA
ATOM     85  O   UNL     1      -1.191  12.320 -17.595  1.00  0.00    -0.744 OA
ENDBRANCH  78  82
ENDBRANCH  51  75
BRANCH  63  86
ATOM     86  C   UNL     1      -8.635   5.589 -17.922  1.00  0.00     0.023 A 
ATOM     87  C   UNL     1      -7.684   4.691 -18.436  1.00  0.00     0.031 A 
ATOM     88  C   UNL     1      -9.654   6.037 -18.782  1.00  0.00     0.131 A 
ATOM     89  C   UNL     1      -7.738   4.314 -19.787  1.00  0.00     0.055 A 
ATOM     90  C   UNL     1      -9.741   5.607 -20.106  1.00  0.00     0.041 A 
ATOM     91  F   UNL     1     -10.587   6.899 -18.346  1.00  0.00    -0.206 F 
ATOM     92  C   UNL     1      -8.771   4.751 -20.620  1.00  0.00     0.022 A 
BRANCH  89  93
ATOM     93  S   UNL     1      -6.381   3.322 -20.469  1.00  0.00     0.124 S 
ATOM     94  O   UNL     1      -5.224   4.172 -20.207  1.00  0.00    -0.237 OA
ATOM     95  O   UNL     1      -6.463   2.097 -19.680  1.00  0.00    -0.237 OA
ATOM     96  O   UNL     1      -6.737   3.177 -21.879  1.00  0.00    -0.744 OA
ENDBRANCH  89  93
ENDBRANCH  63  86
ENDBRANCH  37  38
ENDBRANCH  29  32
ENDBRANCH  27  28
ENDBRANCH  26  27
ENDBRANCH  25  26
ENDBRANCH   1  25
TORSDOF 19
