REMARK SMILES COc1ccc(NC(=O)[C@@H]2CC=CC[C@H]2C(=O)NCCCCCCNC(=O)c2ccc(-c3c4nc(c(-c5cc(S(=O)(=O)[O-])ccc5F)c5ccc([nH]5)c(-c5cc(S(=O)(=O)[O-])ccc5F)c5nc(c(-c6cc(S(=O)(=O)[O-])ccc6F)c6ccc3[nH]6)C=C5)C=C4)cc2)cc1Cl
REMARK SMILES IDX 21 1 20 2 19 3 18 4 16 5 17 6 15 8 10 9 11 10 12 11 14 12
REMARK SMILES IDX 13 13 8 14 7 15 9 17 6 18 3 19 4 20 92 21 5 22 91 23 93 24
REMARK SMILES IDX 2 25 1 26 22 27 23 28 24 29 25 30 26 31 27 33 28 34 29 35
REMARK SMILES IDX 90 36 30 37 89 38 31 39 32 40 33 41 83 42 34 43 88 44 82 45
REMARK SMILES IDX 84 46 35 47 87 48 81 49 80 50 36 52 68 53 48 54 67 55 49 56
REMARK SMILES IDX 52 57 66 58 85 59 50 60 51 61 65 63 86 64 53 65 37 66 38 67
REMARK SMILES IDX 46 68 39 69 45 70 47 71 44 72 40 73 41 74 42 75 43 76 69 77
REMARK SMILES IDX 70 78 78 79 71 80 77 81 79 82 76 83 72 84 73 85 74 86 75 87
REMARK SMILES IDX 54 88 55 89 63 90 56 91 62 92 64 93 61 94 57 95 58 96 59 97
REMARK SMILES IDX 60 98
REMARK H PARENT 18 7 7 16 25 32 84 51 52 62
REMARK Flexibility Score: inf
ROOT
ATOM      1  C   UNL     1       3.497  -6.631   4.413  1.00  0.00     0.002 C 
ENDROOT
BRANCH   1   2
ATOM      2  C   UNL     1       2.963  -5.442   5.232  1.00  0.00     0.021 C 
BRANCH   2   3
ATOM      3  C   UNL     1       2.414  -4.281   4.403  1.00  0.00     0.116 C 
BRANCH   3   4
ATOM      4  N   UNL     1       1.477  -4.781   3.430  1.00  0.00    -0.356 N 
ATOM      5  C   UNL     1       0.173  -5.043   3.669  1.00  0.00     0.224 C 
ATOM      6  O   UNL     1      -0.204  -6.152   3.306  1.00  0.00    -0.275 OA
ATOM      7  H   UNL     1       1.812  -4.945   2.519  1.00  0.00     0.163 HD
BRANCH   5   8
ATOM      8  C   UNL     1      -0.735  -4.016   4.345  1.00  0.00     0.095 C 
ATOM      9  C   UNL     1      -0.864  -4.262   5.855  1.00  0.00     0.095 C 
ATOM     10  C   UNL     1      -1.275  -2.998   6.657  1.00  0.00     0.041 C 
ATOM     11  C   UNL     1      -0.910  -1.669   6.089  1.00  0.00    -0.030 C 
ATOM     12  C   UNL     1      -0.353  -2.594   3.853  1.00  0.00     0.041 C 
ATOM     13  C   UNL     1      -0.505  -1.487   4.833  1.00  0.00    -0.030 C 
BRANCH   9  14
ATOM     14  C   UNL     1      -1.740  -5.401   6.466  1.00  0.00     0.228 C 
ATOM     15  N   UNL     1      -2.380  -6.442   5.876  1.00  0.00    -0.326 N 
ATOM     16  H   UNL     1      -2.719  -7.091   6.533  1.00  0.00     0.169 HD
ATOM     17  O   UNL     1      -1.782  -5.463   7.711  1.00  0.00    -0.274 OA
BRANCH  15  18
ATOM     18  C   UNL     1      -2.674  -6.816   4.563  1.00  0.00     0.042 A 
ATOM     19  C   UNL     1      -2.510  -7.506   1.877  1.00  0.00     0.137 A 
ATOM     20  C   UNL     1      -3.018  -6.258   2.243  1.00  0.00     0.050 A 
ATOM     21  C   UNL     1      -2.291  -8.479   2.856  1.00  0.00     0.085 A 
ATOM     22  C   UNL     1      -3.151  -5.935   3.598  1.00  0.00     0.030 A 
ATOM     23  C   UNL     1      -2.406  -8.142   4.206  1.00  0.00     0.050 A 
ATOM     24  Cl  UNL     1      -1.769 -10.072   2.443  1.00  0.00    -0.080 Cl
BRANCH  19  25
ATOM     25  O   UNL     1      -1.966  -7.646   0.625  1.00  0.00    -0.495 OA
ATOM     26  C   UNL     1      -2.918  -8.030  -0.351  1.00  0.00     0.278 C 
ENDBRANCH  19  25
ENDBRANCH  15  18
ENDBRANCH   9  14
ENDBRANCH   5   8
ENDBRANCH   3   4
ENDBRANCH   2   3
ENDBRANCH   1   2
BRANCH   1  27
ATOM     27  C   UNL     1       4.452  -6.281   3.266  1.00  0.00     0.002 C 
BRANCH  27  28
ATOM     28  C   UNL     1       5.593  -5.343   3.643  1.00  0.00     0.021 C 
BRANCH  28  29
ATOM     29  C   UNL     1       6.421  -5.830   4.816  1.00  0.00     0.116 C 
BRANCH  29  30
ATOM     30  N   UNL     1       7.183  -7.012   4.469  1.00  0.00    -0.352 N 
ATOM     31  C   UNL     1       8.541  -7.194   4.561  1.00  0.00     0.251 C 
ATOM     32  H   UNL     1       6.666  -7.777   4.127  1.00  0.00     0.163 HD
ATOM     33  O   UNL     1       9.077  -8.134   3.992  1.00  0.00    -0.269 OA
BRANCH  31  34
ATOM     34  C   UNL     1       9.338  -6.219   5.338  1.00  0.00     0.039 A 
ATOM     35  C   UNL     1      10.552  -5.769   4.820  1.00  0.00     0.014 A 
ATOM     36  C   UNL     1       8.875  -5.742   6.570  1.00  0.00     0.014 A 
ATOM     37  C   UNL     1      11.294  -4.827   5.533  1.00  0.00     0.010 A 
ATOM     38  C   UNL     1       9.562  -4.727   7.224  1.00  0.00     0.010 A 
ATOM     39  C   UNL     1      10.800  -4.289   6.733  1.00  0.00    -0.014 A 
BRANCH  39  40
ATOM     40  C   UNL     1      11.607  -3.332   7.532  1.00  0.00     0.031 A 
ATOM     41  C   UNL     1      12.062  -3.721   8.915  1.00  0.00     0.074 A 
ATOM     42  C   UNL     1      11.908  -2.118   7.030  1.00  0.00     0.049 A 
ATOM     43  N   UNL     1      12.749  -3.030   9.788  1.00  0.00    -0.248 NA
ATOM     44  C   UNL     1      11.662  -5.055   9.393  1.00  0.00     0.031 C 
ATOM     45  C   UNL     1      11.490  -1.618   5.719  1.00  0.00     0.029 A 
ATOM     46  N   UNL     1      12.640  -1.087   7.560  1.00  0.00    -0.354 N 
ATOM     47  C   UNL     1      12.846  -3.836  10.918  1.00  0.00     0.074 A 
ATOM     48  C   UNL     1      12.082  -5.033  10.647  1.00  0.00     0.031 C 
ATOM     49  C   UNL     1      12.008  -0.394   5.531  1.00  0.00     0.029 A 
ATOM     50  C   UNL     1      12.754  -0.001   6.722  1.00  0.00     0.049 A 
ATOM     51  H   UNL     1      13.046  -1.120   8.456  1.00  0.00     0.167 HD
ATOM     52  C   UNL     1      13.537  -3.614  12.063  1.00  0.00     0.034 A 
ATOM     53  C   UNL     1      13.388   1.175   6.899  1.00  0.00     0.034 A 
ATOM     54  C   UNL     1      14.310  -2.422  12.305  1.00  0.00     0.049 A 
ATOM     55  C   UNL     1      14.134   1.409   8.190  1.00  0.00     0.074 A 
ATOM     56  C   UNL     1      15.089  -2.108  13.404  1.00  0.00     0.029 A 
ATOM     57  N   UNL     1      14.399  -1.342  11.434  1.00  0.00    -0.354 N 
ATOM     58  N   UNL     1      14.259   0.616   9.230  1.00  0.00    -0.248 NA
ATOM     59  C   UNL     1      14.841   2.688   8.321  1.00  0.00     0.031 C 
ATOM     60  C   UNL     1      15.583  -0.810  13.235  1.00  0.00     0.029 A 
ATOM     61  C   UNL     1      15.194  -0.350  11.987  1.00  0.00     0.049 A 
ATOM     62  H   UNL     1      13.961  -1.289  10.554  1.00  0.00     0.167 HD
ATOM     63  C   UNL     1      15.098   1.285  10.118  1.00  0.00     0.074 A 
ATOM     64  C   UNL     1      15.454   2.537   9.485  1.00  0.00     0.031 C 
ATOM     65  C   UNL     1      15.541   0.896  11.342  1.00  0.00     0.034 A 
BRANCH  52  66
ATOM     66  C   UNL     1      13.456  -4.670  13.142  1.00  0.00     0.023 A 
ATOM     67  C   UNL     1      13.905  -5.987  12.930  1.00  0.00     0.031 A 
ATOM     68  C   UNL     1      12.888  -4.367  14.392  1.00  0.00     0.131 A 
ATOM     69  C   UNL     1      13.701  -6.965  13.914  1.00  0.00     0.055 A 
ATOM     70  C   UNL     1      12.773  -5.324  15.402  1.00  0.00     0.041 A 
ATOM     71  F   UNL     1      12.417  -3.136  14.649  1.00  0.00    -0.206 F 
ATOM     72  C   UNL     1      13.166  -6.636  15.161  1.00  0.00     0.022 A 
BRANCH  69  73
ATOM     73  S   UNL     1      13.997  -8.703  13.483  1.00  0.00     0.124 S 
ATOM     74  O   UNL     1      13.088  -8.884  12.353  1.00  0.00    -0.237 OA
ATOM     75  O   UNL     1      15.420  -8.712  13.166  1.00  0.00    -0.237 OA
ATOM     76  O   UNL     1      13.622  -9.425  14.696  1.00  0.00    -0.744 OA
ENDBRANCH  69  73
ENDBRANCH  52  66
BRANCH  53  77
ATOM     77  C   UNL     1      13.357   2.222   5.835  1.00  0.00     0.023 A 
ATOM     78  C   UNL     1      14.537   2.648   5.204  1.00  0.00     0.031 A 
ATOM     79  C   UNL     1      12.153   2.851   5.471  1.00  0.00     0.131 A 
ATOM     80  C   UNL     1      14.496   3.710   4.287  1.00  0.00     0.055 A 
ATOM     81  C   UNL     1      12.109   3.865   4.513  1.00  0.00     0.041 A 
ATOM     82  F   UNL     1      10.994   2.481   6.040  1.00  0.00    -0.206 F 
ATOM     83  C   UNL     1      13.289   4.311   3.926  1.00  0.00     0.022 A 
BRANCH  80  84
ATOM     84  S   UNL     1      16.063   4.365   3.647  1.00  0.00     0.124 S 
ATOM     85  O   UNL     1      16.751   4.738   4.877  1.00  0.00    -0.237 OA
ATOM     86  O   UNL     1      16.603   3.213   2.933  1.00  0.00    -0.237 OA
ATOM     87  O   UNL     1      15.644   5.480   2.801  1.00  0.00    -0.744 OA
ENDBRANCH  80  84
ENDBRANCH  53  77
BRANCH  65  88
ATOM     88  C   UNL     1      16.519   1.810  12.043  1.00  0.00     0.023 A 
ATOM     89  C   UNL     1      16.167   3.107  12.456  1.00  0.00     0.031 A 
ATOM     90  C   UNL     1      17.836   1.377  12.282  1.00  0.00     0.131 A 
ATOM     91  C   UNL     1      17.138   3.948  13.019  1.00  0.00     0.055 A 
ATOM     92  C   UNL     1      18.777   2.192  12.912  1.00  0.00     0.041 A 
ATOM     93  F   UNL     1      18.232   0.150  11.907  1.00  0.00    -0.206 F 
ATOM     94  C   UNL     1      18.435   3.493  13.268  1.00  0.00     0.022 A 
BRANCH  91  95
ATOM     95  S   UNL     1      16.718   5.689  13.308  1.00  0.00     0.124 S 
ATOM     96  O   UNL     1      16.290   6.122  11.982  1.00  0.00    -0.237 OA
ATOM     97  O   UNL     1      15.668   5.593  14.316  1.00  0.00    -0.237 OA
ATOM     98  O   UNL     1      17.974   6.272  13.776  1.00  0.00    -0.744 OA
ENDBRANCH  91  95
ENDBRANCH  65  88
ENDBRANCH  39  40
ENDBRANCH  31  34
ENDBRANCH  29  30
ENDBRANCH  28  29
ENDBRANCH  27  28
ENDBRANCH   1  27
TORSDOF 19
