REMARK SMILES COc1ccc(-c2ccc(/C=C3\SC(=S)N([C@H](Cc4ccccc4)C(=O)NCCCCCCNC(=O)c4ccc(-c5c6nc(c(-c7cc(S(=O)(=O)[O-])ccc7F)c7ccc([nH]7)c(-c7cc(S(=O)(=O)[O-])ccc7F)c7nc(c(-c8cc(S(=O)(=O)[O-])ccc8F)c8ccc5[nH]8)C=C7)C=C6)cc4)C3=O)o2)cc1
REMARK SMILES IDX 30 1 29 2 28 3 27 4 25 5 26 6 17 8 16 9 11 10 12 11 13 12
REMARK SMILES IDX 100 13 14 14 101 15 15 16 10 17 7 18 8 19 102 20 9 21 6 22
REMARK SMILES IDX 3 23 4 24 104 25 5 26 103 27 2 28 1 29 18 30 19 31 20 32
REMARK SMILES IDX 24 33 21 34 23 35 22 36 31 37 32 38 33 39 34 40 35 41 36 43
REMARK SMILES IDX 37 44 38 45 99 46 39 47 98 48 40 49 41 50 42 51 92 52 43 53
REMARK SMILES IDX 97 54 91 55 93 56 44 57 96 58 90 59 89 60 45 62 77 63 57 64
REMARK SMILES IDX 76 65 58 66 61 67 75 68 94 69 59 70 60 71 74 73 95 74 62 75
REMARK SMILES IDX 46 76 47 77 55 78 48 79 54 80 56 81 53 82 49 83 50 84 51 85
REMARK SMILES IDX 52 86 78 87 79 88 87 89 80 90 86 91 88 92 85 93 81 94 82 95
REMARK SMILES IDX 83 96 84 97 63 98 64 99 72 100 65 101 71 102 73 103 70 104
REMARK SMILES IDX 66 105 67 106 68 107 69 108
REMARK H PARENT 27 7 34 42 93 61 61 72
REMARK Flexibility Score: inf
ROOT
ATOM      1  C   UNL     1       4.287  -4.776  12.124  1.00  0.00     0.002 C 
ENDROOT
BRANCH   1   2
ATOM      2  C   UNL     1       2.990  -4.004  11.848  1.00  0.00     0.021 C 
BRANCH   2   3
ATOM      3  C   UNL     1       1.964  -4.133  12.968  1.00  0.00     0.116 C 
BRANCH   3   4
ATOM      4  N   UNL     1       2.352  -3.364  14.141  1.00  0.00    -0.354 N 
ATOM      5  C   UNL     1       1.670  -2.437  14.877  1.00  0.00     0.243 C 
ATOM      6  O   UNL     1       2.159  -2.104  15.962  1.00  0.00    -0.273 OA
ATOM      7  H   UNL     1       3.266  -3.543  14.460  1.00  0.00     0.163 HD
BRANCH   5   8
ATOM      8  C   UNL     1       0.318  -1.854  14.417  1.00  0.00     0.185 C 
BRANCH   8   9
ATOM      9  N   UNL     1      -0.924  -2.625  14.738  1.00  0.00    -0.280 N 
ATOM     10  C   UNL     1      -4.479  -2.305  14.354  1.00  0.00     0.068 C 
ATOM     11  C   UNL     1      -3.281  -2.788  14.699  1.00  0.00     0.084 C 
ATOM     12  S   UNL     1      -2.810  -4.381  15.076  1.00  0.00    -0.054 SA
ATOM     13  C   UNL     1      -2.101  -1.902  14.771  1.00  0.00     0.267 C 
ATOM     14  C   UNL     1      -1.092  -3.944  15.122  1.00  0.00     0.149 C 
ATOM     15  O   UNL     1      -2.204  -0.690  14.949  1.00  0.00    -0.268 OA
ATOM     16  S   UNL     1      -0.009  -5.081  15.680  1.00  0.00    -0.052 S 
BRANCH  10  17
ATOM     17  C   UNL     1      -5.685  -3.049  14.424  1.00  0.00     0.128 A 
ATOM     18  C   UNL     1      -7.636  -3.907  13.808  1.00  0.00     0.134 A 
ATOM     19  C   UNL     1      -7.567  -4.055  15.174  1.00  0.00     0.051 A 
ATOM     20  O   UNL     1      -6.505  -3.303  13.344  1.00  0.00    -0.457 OA
ATOM     21  C   UNL     1      -6.316  -3.536  15.562  1.00  0.00     0.051 A 
BRANCH  18  22
ATOM     22  C   UNL     1      -8.680  -4.213  12.847  1.00  0.00     0.017 A 
ATOM     23  C   UNL     1     -10.814  -4.958  11.166  1.00  0.00     0.118 A 
ATOM     24  C   UNL     1      -9.547  -5.526  11.004  1.00  0.00     0.047 A 
ATOM     25  C   UNL     1     -11.010  -4.003  12.163  1.00  0.00     0.047 A 
ATOM     26  C   UNL     1      -8.480  -5.147  11.829  1.00  0.00     0.016 A 
ATOM     27  C   UNL     1      -9.949  -3.639  13.001  1.00  0.00     0.016 A 
BRANCH  23  28
ATOM     28  O   UNL     1     -11.778  -5.439  10.325  1.00  0.00    -0.497 OA
ATOM     29  C   UNL     1     -12.970  -4.672  10.212  1.00  0.00     0.278 C 
ENDBRANCH  23  28
ENDBRANCH  18  22
ENDBRANCH  10  17
ENDBRANCH   8   9
BRANCH   8  30
ATOM     30  C   UNL     1       0.429  -1.336  12.944  1.00  0.00     0.071 C 
BRANCH  30  31
ATOM     31  C   UNL     1      -0.438  -0.172  12.513  1.00  0.00    -0.045 A 
ATOM     32  C   UNL     1      -1.733  -0.400  12.023  1.00  0.00     0.004 A 
ATOM     33  C   UNL     1       0.048   1.142  12.538  1.00  0.00     0.004 A 
ATOM     34  C   UNL     1      -2.549   0.663  11.635  1.00  0.00     0.000 A 
ATOM     35  C   UNL     1      -0.757   2.203  12.109  1.00  0.00     0.000 A 
ATOM     36  C   UNL     1      -2.059   1.964  11.674  1.00  0.00     0.000 A 
ENDBRANCH  30  31
ENDBRANCH   8  30
ENDBRANCH   5   8
ENDBRANCH   3   4
ENDBRANCH   2   3
ENDBRANCH   1   2
BRANCH   1  37
ATOM     37  C   UNL     1       4.111  -6.280  12.372  1.00  0.00     0.002 C 
BRANCH  37  38
ATOM     38  C   UNL     1       3.348  -7.038  11.281  1.00  0.00     0.021 C 
BRANCH  38  39
ATOM     39  C   UNL     1       3.962  -6.941   9.888  1.00  0.00     0.116 C 
BRANCH  39  40
ATOM     40  N   UNL     1       5.300  -7.505   9.841  1.00  0.00    -0.352 N 
ATOM     41  C   UNL     1       5.839  -8.379   8.930  1.00  0.00     0.251 C 
ATOM     42  H   UNL     1       5.905  -7.220  10.563  1.00  0.00     0.163 HD
ATOM     43  O   UNL     1       6.931  -8.893   9.152  1.00  0.00    -0.269 OA
BRANCH  41  44
ATOM     44  C   UNL     1       5.089  -8.715   7.701  1.00  0.00     0.039 A 
ATOM     45  C   UNL     1       4.995 -10.054   7.314  1.00  0.00     0.014 A 
ATOM     46  C   UNL     1       4.487  -7.715   6.931  1.00  0.00     0.014 A 
ATOM     47  C   UNL     1       4.250 -10.397   6.183  1.00  0.00     0.010 A 
ATOM     48  C   UNL     1       3.696  -8.064   5.839  1.00  0.00     0.010 A 
ATOM     49  C   UNL     1       3.571  -9.408   5.453  1.00  0.00    -0.014 A 
BRANCH  49  50
ATOM     50  C   UNL     1       2.727  -9.760   4.282  1.00  0.00     0.031 A 
ATOM     51  C   UNL     1       3.116  -9.289   2.906  1.00  0.00     0.074 A 
ATOM     52  C   UNL     1       1.578 -10.438   4.468  1.00  0.00     0.049 A 
ATOM     53  N   UNL     1       2.472  -9.417   1.775  1.00  0.00    -0.248 NA
ATOM     54  C   UNL     1       4.382  -8.549   2.797  1.00  0.00     0.031 C 
ATOM     55  C   UNL     1       1.074 -10.906   5.762  1.00  0.00     0.029 A 
ATOM     56  N   UNL     1       0.616 -10.838   3.575  1.00  0.00    -0.354 N 
ATOM     57  C   UNL     1       3.241  -8.756   0.823  1.00  0.00     0.074 A 
ATOM     58  C   UNL     1       4.375  -8.189   1.522  1.00  0.00     0.031 C 
ATOM     59  C   UNL     1      -0.097 -11.536   5.577  1.00  0.00     0.029 A 
ATOM     60  C   UNL     1      -0.448 -11.484   4.161  1.00  0.00     0.049 A 
ATOM     61  H   UNL     1       0.682 -10.678   2.606  1.00  0.00     0.167 HD
ATOM     62  C   UNL     1       3.028  -8.647  -0.512  1.00  0.00     0.034 A 
ATOM     63  C   UNL     1      -1.585 -11.966   3.621  1.00  0.00     0.034 A 
ATOM     64  C   UNL     1       1.906  -9.243  -1.196  1.00  0.00     0.049 A 
ATOM     65  C   UNL     1      -1.795 -11.840   2.133  1.00  0.00     0.074 A 
ATOM     66  C   UNL     1       1.639  -9.267  -2.554  1.00  0.00     0.029 A 
ATOM     67  N   UNL     1       0.860  -9.912  -0.574  1.00  0.00    -0.354 N 
ATOM     68  N   UNL     1      -1.022 -11.271   1.236  1.00  0.00    -0.248 NA
ATOM     69  C   UNL     1      -3.021 -12.433   1.584  1.00  0.00     0.031 C 
ATOM     70  C   UNL     1       0.402  -9.894  -2.747  1.00  0.00     0.029 A 
ATOM     71  C   UNL     1      -0.070 -10.324  -1.517  1.00  0.00     0.049 A 
ATOM     72  H   UNL     1       0.789 -10.072   0.395  1.00  0.00     0.167 HD
ATOM     73  C   UNL     1      -1.658 -11.463   0.013  1.00  0.00     0.074 A 
ATOM     74  C   UNL     1      -2.867 -12.213   0.287  1.00  0.00     0.031 C 
ATOM     75  C   UNL     1      -1.277 -11.061  -1.226  1.00  0.00     0.034 A 
BRANCH  62  76
ATOM     76  C   UNL     1       4.015  -7.831  -1.312  1.00  0.00     0.023 A 
ATOM     77  C   UNL     1       5.362  -8.212  -1.440  1.00  0.00     0.031 A 
ATOM     78  C   UNL     1       3.604  -6.644  -1.944  1.00  0.00     0.131 A 
ATOM     79  C   UNL     1       6.264  -7.380  -2.120  1.00  0.00     0.055 A 
ATOM     80  C   UNL     1       4.490  -5.860  -2.685  1.00  0.00     0.041 A 
ATOM     81  F   UNL     1       2.335  -6.220  -1.842  1.00  0.00    -0.206 F 
ATOM     82  C   UNL     1       5.832  -6.218  -2.765  1.00  0.00     0.022 A 
BRANCH  79  83
ATOM     83  S   UNL     1       8.033  -7.769  -2.039  1.00  0.00     0.124 S 
ATOM     84  O   UNL     1       8.282  -7.714  -0.601  1.00  0.00    -0.237 OA
ATOM     85  O   UNL     1       8.093  -9.093  -2.648  1.00  0.00    -0.237 OA
ATOM     86  O   UNL     1       8.656  -6.698  -2.814  1.00  0.00    -0.744 OA
ENDBRANCH  79  83
ENDBRANCH  62  76
BRANCH  63  87
ATOM     87  C   UNL     1      -2.624 -12.596   4.485  1.00  0.00     0.023 A 
ATOM     88  C   UNL     1      -2.944 -13.956   4.358  1.00  0.00     0.031 A 
ATOM     89  C   UNL     1      -3.346 -11.832   5.420  1.00  0.00     0.131 A 
ATOM     90  C   UNL     1      -3.990 -14.502   5.117  1.00  0.00     0.055 A 
ATOM     91  C   UNL     1      -4.352 -12.392   6.209  1.00  0.00     0.041 A 
ATOM     92  F   UNL     1      -3.075 -10.528   5.585  1.00  0.00    -0.206 F 
ATOM     93  C   UNL     1      -4.689 -13.732   6.050  1.00  0.00     0.022 A 
BRANCH  90  94
ATOM     94  S   UNL     1      -4.486 -16.219   4.804  1.00  0.00     0.124 S 
ATOM     95  O   UNL     1      -4.794 -16.185   3.379  1.00  0.00    -0.237 OA
ATOM     96  O   UNL     1      -3.283 -16.954   5.183  1.00  0.00    -0.237 OA
ATOM     97  O   UNL     1      -5.634 -16.409   5.687  1.00  0.00    -0.744 OA
ENDBRANCH  90  94
ENDBRANCH  63  87
BRANCH  75  98
ATOM     98  C   UNL     1      -2.162 -11.466  -2.378  1.00  0.00     0.023 A 
ATOM     99  C   UNL     1      -3.453 -10.934  -2.539  1.00  0.00     0.031 A 
ATOM    100  C   UNL     1      -1.709 -12.406  -3.319  1.00  0.00     0.131 A 
ATOM    101  C   UNL     1      -4.268 -11.388  -3.587  1.00  0.00     0.055 A 
ATOM    102  C   UNL     1      -2.503 -12.812  -4.393  1.00  0.00     0.041 A 
ATOM    103  F   UNL     1      -0.484 -12.946  -3.211  1.00  0.00    -0.206 F 
ATOM    104  C   UNL     1      -3.795 -12.311  -4.524  1.00  0.00     0.022 A 
BRANCH 101 105
ATOM    105  S   UNL     1      -5.987 -10.816  -3.664  1.00  0.00     0.124 S 
ATOM    106  O   UNL     1      -6.516 -11.270  -2.382  1.00  0.00    -0.237 OA
ATOM    107  O   UNL     1      -5.831  -9.373  -3.814  1.00  0.00    -0.237 OA
ATOM    108  O   UNL     1      -6.526 -11.505  -4.836  1.00  0.00    -0.744 OA
ENDBRANCH 101 105
ENDBRANCH  75  98
ENDBRANCH  49  50
ENDBRANCH  41  44
ENDBRANCH  39  40
ENDBRANCH  38  39
ENDBRANCH  37  38
ENDBRANCH   1  37
TORSDOF 22
