REMARK SMILES CCNS(=O)(=O)c1ccc(CC(=O)NCCCCCCNC(=O)c2ccc(-c3c4nc(c(-c5cc(S(=O)(=O)[O-])ccc5F)c5ccc([nH]5)c(-c5cc(S(=O)(=O)[O-])ccc5F)c5nc(c(-c6cc(S(=O)(=O)[O-])ccc6F)c6ccc3[nH]6)C=C5)C=C4)cc2)cc1
REMARK SMILES IDX 17 1 16 2 15 3 14 4 12 5 13 6 11 8 10 9 7 10 8 11 88 12 9 13
REMARK SMILES IDX 87 14 4 15 5 16 6 17 3 18 2 20 1 21 18 22 19 23 20 24 21 25
REMARK SMILES IDX 22 26 23 28 24 29 25 30 86 31 26 32 85 33 27 34 28 35 29 36
REMARK SMILES IDX 79 37 30 38 84 39 78 40 80 41 31 42 83 43 77 44 76 45 32 47
REMARK SMILES IDX 64 48 44 49 63 50 45 51 48 52 62 53 81 54 46 55 47 56 61 58
REMARK SMILES IDX 82 59 49 60 33 61 34 62 42 63 35 64 41 65 43 66 40 67 36 68
REMARK SMILES IDX 37 69 38 70 39 71 65 72 66 73 74 74 67 75 73 76 75 77 72 78
REMARK SMILES IDX 68 79 69 80 70 81 71 82 50 83 51 84 59 85 52 86 58 87 60 88
REMARK SMILES IDX 57 89 53 90 54 91 55 92 56 93
REMARK H PARENT 14 7 3 19 21 27 80 46 48 57
REMARK Flexibility Score: inf
ROOT
ATOM      1  C   UNL     1      -4.255   1.914   8.514  1.00  0.00     0.002 C 
ENDROOT
BRANCH   1   2
ATOM      2  C   UNL     1      -3.993   1.395   7.094  1.00  0.00     0.021 C 
BRANCH   2   3
ATOM      3  C   UNL     1      -5.262   0.992   6.339  1.00  0.00     0.116 C 
BRANCH   3   4
ATOM      4  N   UNL     1      -6.046   2.156   5.969  1.00  0.00    -0.356 N 
ATOM      5  C   UNL     1      -6.165   2.765   4.753  1.00  0.00     0.224 C 
ATOM      6  O   UNL     1      -6.802   3.818   4.682  1.00  0.00    -0.275 OA
ATOM      7  H   UNL     1      -6.566   2.565   6.699  1.00  0.00     0.163 HD
BRANCH   5   8
ATOM      8  C   UNL     1      -5.577   2.116   3.512  1.00  0.00     0.135 C 
BRANCH   8   9
ATOM      9  C   UNL     1      -4.068   2.122   3.453  1.00  0.00    -0.039 A 
ATOM     10  C   UNL     1      -1.273   2.093   3.412  1.00  0.00     0.082 A 
ATOM     11  C   UNL     1      -1.949   3.314   3.436  1.00  0.00     0.022 A 
ATOM     12  C   UNL     1      -1.979   0.889   3.423  1.00  0.00     0.022 A 
ATOM     13  C   UNL     1      -3.347   3.326   3.459  1.00  0.00     0.005 A 
ATOM     14  C   UNL     1      -3.370   0.906   3.404  1.00  0.00     0.005 A 
BRANCH  10  15
ATOM     15  S   UNL     1       0.498   2.036   3.446  1.00  0.00     0.240 S 
ATOM     16  O   UNL     1       0.901   0.928   4.280  1.00  0.00    -0.207 OA
ATOM     17  O   UNL     1       0.989   3.379   3.677  1.00  0.00    -0.207 OA
BRANCH  15  18
ATOM     18  N   UNL     1       0.894   1.677   1.847  1.00  0.00    -0.211 NA
ATOM     19  H   UNL     1       0.311   2.266   1.252  1.00  0.00     0.141 HD
BRANCH  18  20
ATOM     20  C   UNL     1       0.733   0.296   1.381  1.00  0.00     0.095 C 
ATOM     21  C   UNL     1       1.268   0.172  -0.034  1.00  0.00     0.022 C 
ENDBRANCH  18  20
ENDBRANCH  15  18
ENDBRANCH  10  15
ENDBRANCH   8   9
ENDBRANCH   5   8
ENDBRANCH   3   4
ENDBRANCH   2   3
ENDBRANCH   1   2
BRANCH   1  22
ATOM     22  C   UNL     1      -4.965   0.927   9.448  1.00  0.00     0.002 C 
BRANCH  22  23
ATOM     23  C   UNL     1      -4.273  -0.429   9.611  1.00  0.00     0.021 C 
BRANCH  23  24
ATOM     24  C   UNL     1      -2.867  -0.363  10.201  1.00  0.00     0.116 C 
BRANCH  24  25
ATOM     25  N   UNL     1      -2.872   0.146  11.563  1.00  0.00    -0.352 N 
ATOM     26  C   UNL     1      -2.338  -0.403  12.703  1.00  0.00     0.251 C 
ATOM     27  H   UNL     1      -3.325   1.011  11.686  1.00  0.00     0.163 HD
ATOM     28  O   UNL     1      -2.625   0.075  13.797  1.00  0.00    -0.269 OA
BRANCH  26  29
ATOM     29  C   UNL     1      -1.443  -1.579  12.614  1.00  0.00     0.039 A 
ATOM     30  C   UNL     1      -1.614  -2.628  13.521  1.00  0.00     0.014 A 
ATOM     31  C   UNL     1      -0.429  -1.641  11.654  1.00  0.00     0.014 A 
ATOM     32  C   UNL     1      -0.810  -3.767  13.424  1.00  0.00     0.010 A 
ATOM     33  C   UNL     1       0.328  -2.804  11.518  1.00  0.00     0.010 A 
ATOM     34  C   UNL     1       0.145  -3.879  12.401  1.00  0.00    -0.014 A 
BRANCH  34  35
ATOM     35  C   UNL     1       0.958  -5.113  12.237  1.00  0.00     0.031 A 
ATOM     36  C   UNL     1       2.451  -5.066  12.422  1.00  0.00     0.074 A 
ATOM     37  C   UNL     1       0.359  -6.260  11.858  1.00  0.00     0.049 A 
ATOM     38  N   UNL     1       3.338  -6.012  12.245  1.00  0.00    -0.248 NA
ATOM     39  C   UNL     1       3.022  -3.775  12.831  1.00  0.00     0.031 C 
ATOM     40  C   UNL     1      -1.075  -6.420  11.609  1.00  0.00     0.029 A 
ATOM     41  N   UNL     1       0.880  -7.504  11.602  1.00  0.00    -0.354 N 
ATOM     42  C   UNL     1       4.573  -5.428  12.507  1.00  0.00     0.074 A 
ATOM     43  C   UNL     1       4.321  -4.032  12.798  1.00  0.00     0.031 C 
ATOM     44  C   UNL     1      -1.320  -7.691  11.254  1.00  0.00     0.029 A 
ATOM     45  C   UNL     1      -0.060  -8.426  11.206  1.00  0.00     0.049 A 
ATOM     46  H   UNL     1       1.837  -7.716  11.694  1.00  0.00     0.167 HD
ATOM     47  C   UNL     1       5.800  -6.007  12.521  1.00  0.00     0.034 A 
ATOM     48  C   UNL     1       0.077  -9.714  10.831  1.00  0.00     0.034 A 
ATOM     49  C   UNL     1       6.032  -7.404  12.239  1.00  0.00     0.049 A 
ATOM     50  C   UNL     1       1.452 -10.332  10.838  1.00  0.00     0.074 A 
ATOM     51  C   UNL     1       7.223  -8.107  12.285  1.00  0.00     0.029 A 
ATOM     52  N   UNL     1       5.054  -8.310  11.848  1.00  0.00    -0.354 N 
ATOM     53  N   UNL     1       2.604  -9.780  11.140  1.00  0.00    -0.248 NA
ATOM     54  C   UNL     1       1.542 -11.750  10.467  1.00  0.00     0.031 C 
ATOM     55  C   UNL     1       6.978  -9.417  11.858  1.00  0.00     0.029 A 
ATOM     56  C   UNL     1       5.621  -9.555  11.618  1.00  0.00     0.049 A 
ATOM     57  H   UNL     1       4.098  -8.099  11.747  1.00  0.00     0.167 HD
ATOM     58  C   UNL     1       3.553 -10.792  11.022  1.00  0.00     0.074 A 
ATOM     59  C   UNL     1       2.834 -11.990  10.636  1.00  0.00     0.031 C 
ATOM     60  C   UNL     1       4.895 -10.738  11.219  1.00  0.00     0.034 A 
BRANCH  47  61
ATOM     61  C   UNL     1       6.984  -5.119  12.826  1.00  0.00     0.023 A 
ATOM     62  C   UNL     1       7.120  -4.466  14.064  1.00  0.00     0.031 A 
ATOM     63  C   UNL     1       7.978  -4.899  11.856  1.00  0.00     0.131 A 
ATOM     64  C   UNL     1       8.177  -3.567  14.271  1.00  0.00     0.055 A 
ATOM     65  C   UNL     1       9.073  -4.067  12.098  1.00  0.00     0.041 A 
ATOM     66  F   UNL     1       7.896  -5.479  10.648  1.00  0.00    -0.206 F 
ATOM     67  C   UNL     1       9.169  -3.382  13.306  1.00  0.00     0.022 A 
BRANCH  64  68
ATOM     68  S   UNL     1       8.157  -2.535  15.763  1.00  0.00     0.124 S 
ATOM     69  O   UNL     1       6.885  -1.831  15.617  1.00  0.00    -0.237 OA
ATOM     70  O   UNL     1       8.220  -3.525  16.831  1.00  0.00    -0.237 OA
ATOM     71  O   UNL     1       9.345  -1.697  15.616  1.00  0.00    -0.744 OA
ENDBRANCH  64  68
ENDBRANCH  47  61
BRANCH  48  72
ATOM     72  C   UNL     1      -1.112 -10.505  10.404  1.00  0.00     0.023 A 
ATOM     73  C   UNL     1      -1.552 -11.610  11.149  1.00  0.00     0.031 A 
ATOM     74  C   UNL     1      -1.804 -10.189   9.221  1.00  0.00     0.131 A 
ATOM     75  C   UNL     1      -2.624 -12.386  10.683  1.00  0.00     0.055 A 
ATOM     76  C   UNL     1      -2.903 -10.933   8.788  1.00  0.00     0.041 A 
ATOM     77  F   UNL     1      -1.429  -9.138   8.475  1.00  0.00    -0.206 F 
ATOM     78  C   UNL     1      -3.311 -12.048   9.514  1.00  0.00     0.022 A 
BRANCH  75  79
ATOM     79  S   UNL     1      -3.061 -13.897  11.587  1.00  0.00     0.124 S 
ATOM     80  O   UNL     1      -1.810 -14.645  11.539  1.00  0.00    -0.237 OA
ATOM     81  O   UNL     1      -3.444 -13.368  12.892  1.00  0.00    -0.237 OA
ATOM     82  O   UNL     1      -4.157 -14.459  10.800  1.00  0.00    -0.744 OA
ENDBRANCH  75  79
ENDBRANCH  48  72
BRANCH  60  83
ATOM     83  C   UNL     1       5.662 -12.028  11.060  1.00  0.00     0.023 A 
ATOM     84  C   UNL     1       5.798 -12.660   9.812  1.00  0.00     0.031 A 
ATOM     85  C   UNL     1       6.252 -12.641  12.180  1.00  0.00     0.131 A 
ATOM     86  C   UNL     1       6.460 -13.894   9.722  1.00  0.00     0.055 A 
ATOM     87  C   UNL     1       6.961 -13.838  12.075  1.00  0.00     0.041 A 
ATOM     88  F   UNL     1       6.150 -12.083  13.397  1.00  0.00    -0.206 F 
ATOM     89  C   UNL     1       7.057 -14.479  10.842  1.00  0.00     0.022 A 
BRANCH  86  90
ATOM     90  S   UNL     1       6.456 -14.772   8.134  1.00  0.00     0.124 S 
ATOM     91  O   UNL     1       5.028 -14.935   7.882  1.00  0.00    -0.237 OA
ATOM     92  O   UNL     1       7.155 -13.838   7.258  1.00  0.00    -0.237 OA
ATOM     93  O   UNL     1       7.179 -16.009   8.424  1.00  0.00    -0.744 OA
ENDBRANCH  86  90
ENDBRANCH  60  83
ENDBRANCH  34  35
ENDBRANCH  26  29
ENDBRANCH  24  25
ENDBRANCH  23  24
ENDBRANCH  22  23
ENDBRANCH   1  22
TORSDOF 20
