REMARK SMILES Cc1ccc(C(=O)NCCCCCCNC(=O)c2ccc(-c3c4nc(c(-c5cc(S(=O)(=O)[O-])ccc5F)c5ccc([nH]5)c(-c5cc(S(=O)(=O)[O-])ccc5F)c5nc(c(-c6cc(S(=O)(=O)[O-])ccc6F)c6ccc3[nH]6)C=C5)C=C4)cc2)c(Oc2cccc(F)c2C(N)=O)c1
REMARK SMILES IDX 11 1 10 2 9 3 8 4 6 5 7 6 5 8 1 9 2 10 3 11 93 12 4 13 81 14
REMARK SMILES IDX 82 15 83 16 84 17 89 18 85 19 87 20 86 21 88 22 90 23 91 24
REMARK SMILES IDX 92 25 12 28 13 29 14 30 15 31 16 32 17 34 18 35 19 36 80 37
REMARK SMILES IDX 20 38 79 39 21 40 22 41 23 42 73 43 24 44 78 45 72 46 74 47
REMARK SMILES IDX 25 48 77 49 71 50 70 51 26 53 58 54 38 55 57 56 39 57 42 58
REMARK SMILES IDX 56 59 75 60 40 61 41 62 55 64 76 65 43 66 27 67 28 68 36 69
REMARK SMILES IDX 29 70 35 71 37 72 34 73 30 74 31 75 32 76 33 77 59 78 60 79
REMARK SMILES IDX 68 80 61 81 67 82 69 83 66 84 62 85 63 86 64 87 65 88 44 89
REMARK SMILES IDX 45 90 53 91 46 92 52 93 54 94 51 95 47 96 48 97 49 98 50 99
REMARK H PARENT 8 7 91 26 91 27 15 33 74 52 42 63
REMARK Flexibility Score: inf
ROOT
ATOM      1  C   UNL     1      -5.887   3.440  -0.988  1.00  0.00     0.002 C 
ENDROOT
BRANCH   1   2
ATOM      2  C   UNL     1      -4.461   3.154  -1.460  1.00  0.00     0.021 C 
BRANCH   2   3
ATOM      3  C   UNL     1      -3.513   2.466  -0.487  1.00  0.00     0.116 C 
BRANCH   3   4
ATOM      4  N   UNL     1      -3.827   1.111  -0.123  1.00  0.00    -0.352 N 
ATOM      5  C   UNL     1      -2.999   0.081   0.259  1.00  0.00     0.255 C 
ATOM      6  O   UNL     1      -3.542  -0.954   0.659  1.00  0.00    -0.269 OA
ATOM      7  H   UNL     1      -4.784   0.885  -0.152  1.00  0.00     0.163 HD
BRANCH   5   8
ATOM      8  C   UNL     1      -1.500   0.082   0.164  1.00  0.00     0.082 A 
ATOM      9  C   UNL     1       2.795  -0.553   0.037  1.00  0.00     0.044 C 
ATOM     10  C   UNL     1       1.310  -0.351   0.095  1.00  0.00    -0.047 A 
ATOM     11  C   UNL     1       0.435  -1.379  -0.244  1.00  0.00     0.004 A 
ATOM     12  C   UNL     1       0.778   0.871   0.514  1.00  0.00     0.051 A 
ATOM     13  C   UNL     1      -0.947  -1.167  -0.195  1.00  0.00     0.018 A 
ATOM     14  C   UNL     1      -0.608   1.118   0.490  1.00  0.00     0.140 A 
BRANCH  14  15
ATOM     15  O   UNL     1      -1.072   2.330   0.921  1.00  0.00    -0.456 OA
BRANCH  15  16
ATOM     16  C   UNL     1      -0.539   3.526   0.469  1.00  0.00     0.143 A 
ATOM     17  C   UNL     1      -0.821   4.579   1.361  1.00  0.00     0.048 A 
ATOM     18  C   UNL     1       0.115   3.825  -0.740  1.00  0.00     0.117 A 
ATOM     19  C   UNL     1      -0.448   5.894   1.079  1.00  0.00     0.007 A 
ATOM     20  C   UNL     1       0.485   5.150  -1.008  1.00  0.00     0.139 A 
ATOM     21  C   UNL     1       0.206   6.179  -0.112  1.00  0.00     0.040 A 
ATOM     22  F   UNL     1       1.106   5.470  -2.153  1.00  0.00    -0.206 F 
BRANCH  18  23
ATOM     23  C   UNL     1       0.541   2.854  -1.760  1.00  0.00     0.255 C 
ATOM     24  N   UNL     1      -0.414   2.335  -2.583  1.00  0.00    -0.365 N 
ATOM     25  O   UNL     1       1.725   2.557  -1.867  1.00  0.00    -0.269 OA
ATOM     26  H   UNL     1      -1.356   2.595  -2.469  1.00  0.00     0.159 HD
ATOM     27  H   UNL     1      -0.161   1.699  -3.291  1.00  0.00     0.159 HD
ENDBRANCH  18  23
ENDBRANCH  15  16
ENDBRANCH  14  15
ENDBRANCH   5   8
ENDBRANCH   3   4
ENDBRANCH   2   3
ENDBRANCH   1   2
BRANCH   1  28
ATOM     28  C   UNL     1      -6.088   4.048   0.406  1.00  0.00     0.002 C 
BRANCH  28  29
ATOM     29  C   UNL     1      -5.252   5.277   0.761  1.00  0.00     0.021 C 
BRANCH  29  30
ATOM     30  C   UNL     1      -5.441   6.489  -0.142  1.00  0.00     0.116 C 
BRANCH  30  31
ATOM     31  N   UNL     1      -6.358   7.493   0.381  1.00  0.00    -0.352 N 
ATOM     32  C   UNL     1      -6.624   8.765  -0.114  1.00  0.00     0.251 C 
ATOM     33  H   UNL     1      -6.856   7.237   1.192  1.00  0.00     0.163 HD
ATOM     34  O   UNL     1      -7.398   9.520   0.430  1.00  0.00    -0.269 OA
BRANCH  32  35
ATOM     35  C   UNL     1      -6.013   9.140  -1.416  1.00  0.00     0.039 A 
ATOM     36  C   UNL     1      -6.885   9.450  -2.464  1.00  0.00     0.014 A 
ATOM     37  C   UNL     1      -4.656   8.944  -1.656  1.00  0.00     0.014 A 
ATOM     38  C   UNL     1      -6.439   9.326  -3.778  1.00  0.00     0.010 A 
ATOM     39  C   UNL     1      -4.236   8.730  -2.957  1.00  0.00     0.010 A 
ATOM     40  C   UNL     1      -5.145   8.853  -4.013  1.00  0.00    -0.014 A 
BRANCH  40  41
ATOM     41  C   UNL     1      -4.742   8.296  -5.300  1.00  0.00     0.031 A 
ATOM     42  C   UNL     1      -3.829   9.017  -6.207  1.00  0.00     0.074 A 
ATOM     43  C   UNL     1      -5.234   7.107  -5.713  1.00  0.00     0.049 A 
ATOM     44  N   UNL     1      -3.921   8.971  -7.496  1.00  0.00    -0.248 NA
ATOM     45  C   UNL     1      -2.749   9.873  -5.729  1.00  0.00     0.031 C 
ATOM     46  C   UNL     1      -4.801   6.323  -6.868  1.00  0.00     0.029 A 
ATOM     47  N   UNL     1      -6.401   6.484  -5.300  1.00  0.00    -0.354 N 
ATOM     48  C   UNL     1      -2.770   9.518  -8.002  1.00  0.00     0.074 A 
ATOM     49  C   UNL     1      -2.114  10.144  -6.874  1.00  0.00     0.031 C 
ATOM     50  C   UNL     1      -5.793   5.493  -7.225  1.00  0.00     0.029 A 
ATOM     51  C   UNL     1      -6.942   5.797  -6.392  1.00  0.00     0.049 A 
ATOM     52  H   UNL     1      -6.784   6.519  -4.394  1.00  0.00     0.167 HD
ATOM     53  C   UNL     1      -2.381   9.258  -9.281  1.00  0.00     0.034 A 
ATOM     54  C   UNL     1      -8.202   6.052  -6.845  1.00  0.00     0.034 A 
ATOM     55  C   UNL     1      -3.279   8.342  -9.974  1.00  0.00     0.049 A 
ATOM     56  C   UNL     1      -8.254   6.505  -8.287  1.00  0.00     0.074 A 
ATOM     57  C   UNL     1      -3.198   6.989 -10.265  1.00  0.00     0.029 A 
ATOM     58  N   UNL     1      -4.586   8.722 -10.257  1.00  0.00    -0.354 N 
ATOM     59  N   UNL     1      -7.219   6.908  -8.971  1.00  0.00    -0.248 NA
ATOM     60  C   UNL     1      -9.487   6.571  -9.061  1.00  0.00     0.031 C 
ATOM     61  C   UNL     1      -4.468   6.555 -10.722  1.00  0.00     0.029 A 
ATOM     62  C   UNL     1      -5.318   7.645 -10.723  1.00  0.00     0.049 A 
ATOM     63  H   UNL     1      -4.942   9.632 -10.140  1.00  0.00     0.167 HD
ATOM     64  C   UNL     1      -7.613   7.302 -10.229  1.00  0.00     0.074 A 
ATOM     65  C   UNL     1      -9.044   7.052 -10.236  1.00  0.00     0.031 C 
ATOM     66  C   UNL     1      -6.711   7.805 -11.131  1.00  0.00     0.034 A 
BRANCH  53  67
ATOM     67  C   UNL     1      -0.992   9.595  -9.753  1.00  0.00     0.023 A 
ATOM     68  C   UNL     1      -0.264   8.671 -10.525  1.00  0.00     0.031 A 
ATOM     69  C   UNL     1      -0.328  10.794  -9.432  1.00  0.00     0.131 A 
ATOM     70  C   UNL     1       1.083   8.899 -10.853  1.00  0.00     0.055 A 
ATOM     71  C   UNL     1       1.028  11.002  -9.713  1.00  0.00     0.041 A 
ATOM     72  F   UNL     1      -0.977  11.803  -8.829  1.00  0.00    -0.206 F 
ATOM     73  C   UNL     1       1.747  10.042 -10.415  1.00  0.00     0.022 A 
BRANCH  70  74
ATOM     74  S   UNL     1       1.959   7.668 -11.858  1.00  0.00     0.124 S 
ATOM     75  O   UNL     1       1.797   6.451 -11.070  1.00  0.00    -0.237 OA
ATOM     76  O   UNL     1       1.226   7.722 -13.118  1.00  0.00    -0.237 OA
ATOM     77  O   UNL     1       3.325   8.188 -11.916  1.00  0.00    -0.744 OA
ENDBRANCH  70  74
ENDBRANCH  53  67
BRANCH  54  78
ATOM     78  C   UNL     1      -9.146   6.477  -5.773  1.00  0.00     0.023 A 
ATOM     79  C   UNL     1      -9.360   5.577  -4.707  1.00  0.00     0.031 A 
ATOM     80  C   UNL     1      -9.501   7.819  -5.585  1.00  0.00     0.131 A 
ATOM     81  C   UNL     1      -9.760   6.054  -3.452  1.00  0.00     0.055 A 
ATOM     82  C   UNL     1      -9.960   8.280  -4.345  1.00  0.00     0.041 A 
ATOM     83  F   UNL     1      -9.293   8.725  -6.552  1.00  0.00    -0.206 F 
ATOM     84  C   UNL     1     -10.049   7.406  -3.260  1.00  0.00     0.022 A 
BRANCH  81  85
ATOM     85  S   UNL     1      -9.658   4.960  -2.003  1.00  0.00     0.124 S 
ATOM     86  O   UNL     1     -11.062   4.668  -1.739  1.00  0.00    -0.237 OA
ATOM     87  O   UNL     1      -8.859   3.837  -2.485  1.00  0.00    -0.237 OA
ATOM     88  O   UNL     1      -8.984   5.798  -1.013  1.00  0.00    -0.744 OA
ENDBRANCH  81  85
ENDBRANCH  54  78
BRANCH  66  89
ATOM     89  C   UNL     1      -6.996   8.410 -12.502  1.00  0.00     0.023 A 
ATOM     90  C   UNL     1      -8.278   8.598 -13.036  1.00  0.00     0.031 A 
ATOM     91  C   UNL     1      -5.934   8.860 -13.334  1.00  0.00     0.131 A 
ATOM     92  C   UNL     1      -8.473   9.152 -14.319  1.00  0.00     0.055 A 
ATOM     93  C   UNL     1      -6.129   9.450 -14.588  1.00  0.00     0.041 A 
ATOM     94  F   UNL     1      -4.649   8.763 -12.966  1.00  0.00    -0.206 F 
ATOM     95  C   UNL     1      -7.407   9.592 -15.095  1.00  0.00     0.022 A 
BRANCH  92  96
ATOM     96  S   UNL     1     -10.165   9.253 -14.964  1.00  0.00     0.124 S 
ATOM     97  O   UNL     1     -10.546   7.845 -15.036  1.00  0.00    -0.237 OA
ATOM     98  O   UNL     1     -10.842  10.039 -13.937  1.00  0.00    -0.237 OA
ATOM     99  O   UNL     1     -10.006   9.921 -16.253  1.00  0.00    -0.744 OA
ENDBRANCH  92  96
ENDBRANCH  66  89
ENDBRANCH  40  41
ENDBRANCH  32  35
ENDBRANCH  30  31
ENDBRANCH  29  30
ENDBRANCH  28  29
ENDBRANCH   1  28
TORSDOF 19
