REMARK SMILES O=C(NCCCCCCNC(=O)[C@H]1CC=CC[C@@H]1C(=O)N[C@@H]1CCCN(c2ccccc2F)C1=O)c1ccc(-c2c3nc(c(-c4cc(S(=O)(=O)[O-])ccc4F)c4ccc([nH]4)c(-c4cc(S(=O)(=O)[O-])ccc4F)c4nc(c(-c5cc(S(=O)(=O)[O-])ccc5F)c5ccc2[nH]5)C=C4)C=C3)cc1
REMARK SMILES IDX 6 1 5 2 4 3 3 4 1 5 2 6 36 8 37 9 98 10 38 11 97 12 39 13
REMARK SMILES IDX 40 14 41 15 91 16 42 17 96 18 90 19 92 20 43 21 95 22 89 23
REMARK SMILES IDX 88 24 44 26 76 27 56 28 75 29 57 30 60 31 74 32 93 33 58 34
REMARK SMILES IDX 59 35 73 37 94 38 61 39 45 40 46 41 54 42 47 43 53 44 55 45
REMARK SMILES IDX 52 46 48 47 49 48 50 49 51 50 77 51 78 52 86 53 79 54 85 55
REMARK SMILES IDX 87 56 84 57 80 58 81 59 82 60 83 61 62 62 63 63 71 64 64 65
REMARK SMILES IDX 70 66 72 67 69 68 65 69 66 70 67 71 68 72 7 73 8 74 9 75
REMARK SMILES IDX 10 76 11 77 12 79 13 80 14 81 18 82 15 83 17 84 16 85 19 86
REMARK SMILES IDX 20 87 21 88 22 90 23 91 34 92 24 93 26 94 35 95 25 96 27 97
REMARK SMILES IDX 28 98 32 99 29 100 31 101 33 102 30 103
REMARK H PARENT 3 7 92 25 60 36 10 78 21 89
REMARK Flexibility Score: inf
ROOT
ATOM      1  C   UNL     1      10.585   4.287  -2.925  1.00  0.00     0.002 C 
ENDROOT
BRANCH   1   2
ATOM      2  C   UNL     1      11.395   5.115  -1.929  1.00  0.00     0.021 C 
BRANCH   2   3
ATOM      3  C   UNL     1      11.035   4.900  -0.467  1.00  0.00     0.116 C 
BRANCH   3   4
ATOM      4  N   UNL     1      11.343   3.560   0.007  1.00  0.00    -0.352 N 
ATOM      5  O   UNL     1      12.236   2.027   1.408  1.00  0.00    -0.269 OA
ATOM      6  C   UNL     1      11.930   3.193   1.199  1.00  0.00     0.251 C 
ATOM      7  H   UNL     1      11.101   2.823  -0.599  1.00  0.00     0.163 HD
BRANCH   6   8
ATOM      8  C   UNL     1      12.213   4.238   2.210  1.00  0.00     0.039 A 
ATOM      9  C   UNL     1      11.240   5.186   2.532  1.00  0.00     0.014 A 
ATOM     10  C   UNL     1      13.473   4.289   2.813  1.00  0.00     0.014 A 
ATOM     11  C   UNL     1      11.574   6.266   3.338  1.00  0.00     0.010 A 
ATOM     12  C   UNL     1      13.776   5.327   3.700  1.00  0.00     0.010 A 
ATOM     13  C   UNL     1      12.838   6.341   3.948  1.00  0.00    -0.014 A 
BRANCH  13  14
ATOM     14  C   UNL     1      13.104   7.455   4.893  1.00  0.00     0.031 A 
ATOM     15  C   UNL     1      14.133   8.510   4.599  1.00  0.00     0.074 A 
ATOM     16  C   UNL     1      12.339   7.542   5.999  1.00  0.00     0.049 A 
ATOM     17  N   UNL     1      14.416   9.591   5.281  1.00  0.00    -0.248 NA
ATOM     18  C   UNL     1      14.958   8.329   3.396  1.00  0.00     0.031 C 
ATOM     19  C   UNL     1      11.316   6.565   6.386  1.00  0.00     0.029 A 
ATOM     20  N   UNL     1      12.260   8.505   6.970  1.00  0.00    -0.354 N 
ATOM     21  C   UNL     1      15.462  10.210   4.605  1.00  0.00     0.074 A 
ATOM     22  C   UNL     1      15.778   9.369   3.469  1.00  0.00     0.031 C 
ATOM     23  C   UNL     1      10.653   7.024   7.455  1.00  0.00     0.029 A 
ATOM     24  C   UNL     1      11.248   8.287   7.875  1.00  0.00     0.049 A 
ATOM     25  H   UNL     1      12.868   9.278   7.015  1.00  0.00     0.167 HD
ATOM     26  C   UNL     1      16.092  11.371   4.907  1.00  0.00     0.034 A 
ATOM     27  C   UNL     1      10.840   9.015   8.931  1.00  0.00     0.034 A 
ATOM     28  C   UNL     1      15.748  12.205   6.035  1.00  0.00     0.049 A 
ATOM     29  C   UNL     1      11.562  10.289   9.254  1.00  0.00     0.074 A 
ATOM     30  C   UNL     1      16.296  13.422   6.404  1.00  0.00     0.029 A 
ATOM     31  N   UNL     1      14.774  11.907   6.978  1.00  0.00    -0.354 N 
ATOM     32  N   UNL     1      12.558  10.850   8.611  1.00  0.00    -0.248 NA
ATOM     33  C   UNL     1      11.123  11.017  10.450  1.00  0.00     0.031 C 
ATOM     34  C   UNL     1      15.696  13.829   7.600  1.00  0.00     0.029 A 
ATOM     35  C   UNL     1      14.728  12.900   7.945  1.00  0.00     0.049 A 
ATOM     36  H   UNL     1      14.200  11.108   6.963  1.00  0.00     0.167 HD
ATOM     37  C   UNL     1      12.868  12.000   9.325  1.00  0.00     0.074 A 
ATOM     38  C   UNL     1      11.946  12.058  10.443  1.00  0.00     0.031 C 
ATOM     39  C   UNL     1      13.826  12.925   9.072  1.00  0.00     0.034 A 
BRANCH  26  40
ATOM     40  C   UNL     1      17.248  11.791   4.034  1.00  0.00     0.023 A 
ATOM     41  C   UNL     1      17.065  12.191   2.699  1.00  0.00     0.031 A 
ATOM     42  C   UNL     1      18.555  11.804   4.554  1.00  0.00     0.131 A 
ATOM     43  C   UNL     1      18.176  12.542   1.916  1.00  0.00     0.055 A 
ATOM     44  C   UNL     1      19.648  12.214   3.789  1.00  0.00     0.041 A 
ATOM     45  F   UNL     1      18.790  11.416   5.817  1.00  0.00    -0.206 F 
ATOM     46  C   UNL     1      19.463  12.578   2.459  1.00  0.00     0.022 A 
BRANCH  43  47
ATOM     47  S   UNL     1      17.929  12.863   0.148  1.00  0.00     0.124 S 
ATOM     48  O   UNL     1      17.426  11.574  -0.319  1.00  0.00    -0.237 OA
ATOM     49  O   UNL     1      16.967  13.959   0.157  1.00  0.00    -0.237 OA
ATOM     50  O   UNL     1      19.266  13.212  -0.327  1.00  0.00    -0.744 OA
ENDBRANCH  43  47
ENDBRANCH  26  40
BRANCH  27  51
ATOM     51  C   UNL     1       9.704   8.524   9.754  1.00  0.00     0.023 A 
ATOM     52  C   UNL     1       8.444   9.137   9.689  1.00  0.00     0.031 A 
ATOM     53  C   UNL     1       9.849   7.379  10.557  1.00  0.00     0.131 A 
ATOM     54  C   UNL     1       7.372   8.596  10.415  1.00  0.00     0.055 A 
ATOM     55  C   UNL     1       8.773   6.826  11.251  1.00  0.00     0.041 A 
ATOM     56  F   UNL     1      11.033   6.750  10.632  1.00  0.00    -0.206 F 
ATOM     57  C   UNL     1       7.524   7.436  11.181  1.00  0.00     0.022 A 
BRANCH  54  58
ATOM     58  S   UNL     1       5.756   9.416  10.332  1.00  0.00     0.124 S 
ATOM     59  O   UNL     1       6.022  10.667  11.033  1.00  0.00    -0.237 OA
ATOM     60  O   UNL     1       5.536   9.519   8.893  1.00  0.00    -0.237 OA
ATOM     61  O   UNL     1       4.868   8.486  11.027  1.00  0.00    -0.744 OA
ENDBRANCH  54  58
ENDBRANCH  27  51
BRANCH  39  62
ATOM     62  C   UNL     1      13.923  14.088  10.020  1.00  0.00     0.023 A 
ATOM     63  C   UNL     1      14.489  13.945  11.297  1.00  0.00     0.031 A 
ATOM     64  C   UNL     1      13.485  15.362   9.619  1.00  0.00     0.131 A 
ATOM     65  C   UNL     1      14.582  15.059  12.143  1.00  0.00     0.055 A 
ATOM     66  C   UNL     1      13.616  16.474  10.450  1.00  0.00     0.041 A 
ATOM     67  F   UNL     1      12.940  15.546   8.406  1.00  0.00    -0.206 F 
ATOM     68  C   UNL     1      14.164  16.326  11.722  1.00  0.00     0.022 A 
BRANCH  65  69
ATOM     69  S   UNL     1      15.248  14.837  13.816  1.00  0.00     0.124 S 
ATOM     70  O   UNL     1      14.196  14.053  14.456  1.00  0.00    -0.237 OA
ATOM     71  O   UNL     1      16.504  14.138  13.569  1.00  0.00    -0.237 OA
ATOM     72  O   UNL     1      15.390  16.205  14.312  1.00  0.00    -0.744 OA
ENDBRANCH  65  69
ENDBRANCH  39  62
ENDBRANCH  13  14
ENDBRANCH   6   8
ENDBRANCH   3   4
ENDBRANCH   2   3
ENDBRANCH   1   2
BRANCH   1  73
ATOM     73  C   UNL     1       9.063   4.416  -2.810  1.00  0.00     0.002 C 
BRANCH  73  74
ATOM     74  C   UNL     1       8.503   5.845  -2.849  1.00  0.00     0.021 C 
BRANCH  74  75
ATOM     75  C   UNL     1       8.935   6.684  -4.050  1.00  0.00     0.116 C 
BRANCH  75  76
ATOM     76  N   UNL     1       8.561   6.054  -5.303  1.00  0.00    -0.356 N 
ATOM     77  C   UNL     1       7.946   6.576  -6.399  1.00  0.00     0.224 C 
ATOM     78  H   UNL     1       8.789   5.099  -5.371  1.00  0.00     0.163 HD
ATOM     79  O   UNL     1       7.657   5.795  -7.309  1.00  0.00    -0.275 OA
BRANCH  77  80
ATOM     80  C   UNL     1       7.623   8.069  -6.459  1.00  0.00     0.095 C 
ATOM     81  C   UNL     1       8.916   8.909  -6.508  1.00  0.00     0.041 C 
ATOM     82  C   UNL     1       6.684   8.353  -7.661  1.00  0.00     0.095 C 
ATOM     83  C   UNL     1       9.556   8.946  -7.859  1.00  0.00    -0.030 C 
ATOM     84  C   UNL     1       7.426   8.347  -9.012  1.00  0.00     0.041 C 
ATOM     85  C   UNL     1       8.887   8.666  -8.982  1.00  0.00    -0.030 C 
BRANCH  82  86
ATOM     86  C   UNL     1       5.916   9.655  -7.461  1.00  0.00     0.224 C 
ATOM     87  O   UNL     1       6.325  10.553  -6.726  1.00  0.00    -0.275 OA
ATOM     88  N   UNL     1       4.738   9.869  -8.110  1.00  0.00    -0.344 N 
ATOM     89  H   UNL     1       4.395  10.788  -8.024  1.00  0.00     0.164 HD
BRANCH  88  90
ATOM     90  C   UNL     1       3.882   8.986  -8.917  1.00  0.00     0.172 C 
ATOM     91  C   UNL     1       4.388   8.850 -10.349  1.00  0.00     0.037 C 
ATOM     92  C   UNL     1       2.428   9.516  -8.774  1.00  0.00     0.249 C 
ATOM     93  C   UNL     1       3.295   8.416 -11.303  1.00  0.00     0.025 C 
ATOM     94  N   UNL     1       1.645   9.620  -9.925  1.00  0.00    -0.308 N 
ATOM     95  O   UNL     1       1.991   9.749  -7.642  1.00  0.00    -0.272 OA
ATOM     96  C   UNL     1       2.189   9.444 -11.267  1.00  0.00     0.126 C 
BRANCH  94  97
ATOM     97  C   UNL     1       0.332  10.176  -9.844  1.00  0.00     0.080 A 
ATOM     98  C   UNL     1      -0.736   9.531 -10.483  1.00  0.00     0.029 A 
ATOM     99  C   UNL     1       0.076  11.367  -9.150  1.00  0.00     0.146 A 
ATOM    100  C   UNL     1      -2.030  10.053 -10.402  1.00  0.00     0.002 A 
ATOM    101  C   UNL     1      -1.211  11.895  -9.076  1.00  0.00     0.041 A 
ATOM    102  F   UNL     1       1.084  12.082  -8.624  1.00  0.00    -0.205 F 
ATOM    103  C   UNL     1      -2.268  11.233  -9.697  1.00  0.00     0.003 A 
ENDBRANCH  94  97
ENDBRANCH  88  90
ENDBRANCH  82  86
ENDBRANCH  77  80
ENDBRANCH  75  76
ENDBRANCH  74  75
ENDBRANCH  73  74
ENDBRANCH   1  73
TORSDOF 19
