REMARK SMILES O=C(NCCCCCCNC(=O)[C@@H]1CC2(CC[NH2+]CC2)C[N@H+]1Cc1cccc2nonc12)c1ccc(-c2c3nc(c(-c4cc(S(=O)(=O)[O-])ccc4F)c4ccc([nH]4)c(-c4cc(S(=O)(=O)[O-])ccc4F)c4nc(c(-c5cc(S(=O)(=O)[O-])ccc5F)c5ccc2[nH]5)C=C4)C=C3)cc1
REMARK SMILES IDX 6 1 5 2 4 3 3 4 1 5 2 6 33 8 34 9 95 10 35 11 94 12 36 13
REMARK SMILES IDX 37 14 38 15 88 16 39 17 93 18 87 19 89 20 40 21 92 22 86 23
REMARK SMILES IDX 85 24 41 26 73 27 53 28 72 29 54 30 57 31 71 32 90 33 55 34
REMARK SMILES IDX 56 35 70 37 91 38 58 39 42 40 43 41 51 42 44 43 50 44 52 45
REMARK SMILES IDX 49 46 45 47 46 48 47 49 48 50 74 51 75 52 83 53 76 54 82 55
REMARK SMILES IDX 84 56 81 57 77 58 78 59 79 60 80 61 59 62 60 63 68 64 61 65
REMARK SMILES IDX 67 66 69 67 66 68 62 69 63 70 64 71 65 72 7 73 8 74 9 75
REMARK SMILES IDX 10 76 11 77 12 79 13 80 14 81 22 82 15 83 21 84 16 86 20 87
REMARK SMILES IDX 17 88 19 89 18 90 23 93 24 94 25 95 32 96 26 97 28 98 31 99
REMARK SMILES IDX 27 100 29 101 30 102
REMARK H PARENT 3 7 89 25 57 36 10 78 22 85 18 91 18 92
REMARK Flexibility Score: inf
ROOT
ATOM      1  C   UNL     1       4.861  -2.692  -1.675  1.00  0.00     0.002 C 
ENDROOT
BRANCH   1   2
ATOM      2  C   UNL     1       5.250  -1.726  -0.553  1.00  0.00     0.021 C 
BRANCH   2   3
ATOM      3  C   UNL     1       4.495  -0.396  -0.533  1.00  0.00     0.116 C 
BRANCH   3   4
ATOM      4  N   UNL     1       3.066  -0.583  -0.341  1.00  0.00    -0.352 N 
ATOM      5  O   UNL     1       1.013  -0.233   0.464  1.00  0.00    -0.269 OA
ATOM      6  C   UNL     1       2.124   0.239   0.220  1.00  0.00     0.251 C 
ATOM      7  H   UNL     1       2.717  -1.444  -0.667  1.00  0.00     0.163 HD
BRANCH   6   8
ATOM      8  C   UNL     1       2.402   1.657   0.556  1.00  0.00     0.039 A 
ATOM      9  C   UNL     1       1.698   2.211   1.634  1.00  0.00     0.014 A 
ATOM     10  C   UNL     1       3.234   2.473  -0.216  1.00  0.00     0.014 A 
ATOM     11  C   UNL     1       1.850   3.558   1.953  1.00  0.00     0.010 A 
ATOM     12  C   UNL     1       3.403   3.818   0.116  1.00  0.00     0.010 A 
ATOM     13  C   UNL     1       2.717   4.364   1.204  1.00  0.00    -0.014 A 
BRANCH  13  14
ATOM     14  C   UNL     1       2.890   5.760   1.637  1.00  0.00     0.031 A 
ATOM     15  C   UNL     1       4.312   6.200   1.822  1.00  0.00     0.074 A 
ATOM     16  C   UNL     1       1.957   6.678   1.305  1.00  0.00     0.049 A 
ATOM     17  N   UNL     1       5.104   6.502   0.833  1.00  0.00    -0.248 NA
ATOM     18  C   UNL     1       5.001   6.072   3.106  1.00  0.00     0.031 C 
ATOM     19  C   UNL     1       1.261   6.693   0.010  1.00  0.00     0.029 A 
ATOM     20  N   UNL     1       1.619   7.875   1.889  1.00  0.00    -0.354 N 
ATOM     21  C   UNL     1       6.392   6.590   1.343  1.00  0.00     0.074 A 
ATOM     22  C   UNL     1       6.277   6.304   2.756  1.00  0.00     0.031 C 
ATOM     23  C   UNL     1       0.727   7.917  -0.178  1.00  0.00     0.029 A 
ATOM     24  C   UNL     1       0.924   8.721   1.025  1.00  0.00     0.049 A 
ATOM     25  H   UNL     1       1.844   8.111   2.818  1.00  0.00     0.167 HD
ATOM     26  C   UNL     1       7.475   6.914   0.584  1.00  0.00     0.034 A 
ATOM     27  C   UNL     1       1.024  10.079   1.058  1.00  0.00     0.034 A 
ATOM     28  C   UNL     1       7.181   7.239  -0.782  1.00  0.00     0.049 A 
ATOM     29  C   UNL     1       2.377  10.259   0.398  1.00  0.00     0.074 A 
ATOM     30  C   UNL     1       7.221   6.628  -2.015  1.00  0.00     0.029 A 
ATOM     31  N   UNL     1       6.676   8.493  -1.040  1.00  0.00    -0.354 N 
ATOM     32  N   UNL     1       2.635  10.168  -0.884  1.00  0.00    -0.248 NA
ATOM     33  C   UNL     1       3.558  10.157   1.258  1.00  0.00     0.031 C 
ATOM     34  C   UNL     1       6.322   7.376  -2.841  1.00  0.00     0.029 A 
ATOM     35  C   UNL     1       5.749   8.368  -2.042  1.00  0.00     0.049 A 
ATOM     36  H   UNL     1       6.934   9.329  -0.587  1.00  0.00     0.167 HD
ATOM     37  C   UNL     1       3.955   9.707  -0.971  1.00  0.00     0.074 A 
ATOM     38  C   UNL     1       4.462   9.740   0.385  1.00  0.00     0.031 C 
ATOM     39  C   UNL     1       4.521   9.148  -2.085  1.00  0.00     0.034 A 
BRANCH  26  40
ATOM     40  C   UNL     1       8.836   7.172   1.118  1.00  0.00     0.023 A 
ATOM     41  C   UNL     1       9.775   6.163   1.382  1.00  0.00     0.031 A 
ATOM     42  C   UNL     1       9.254   8.515   1.200  1.00  0.00     0.131 A 
ATOM     43  C   UNL     1      11.100   6.526   1.690  1.00  0.00     0.055 A 
ATOM     44  C   UNL     1      10.569   8.867   1.487  1.00  0.00     0.041 A 
ATOM     45  F   UNL     1       8.381   9.509   0.961  1.00  0.00    -0.206 F 
ATOM     46  C   UNL     1      11.502   7.868   1.727  1.00  0.00     0.022 A 
BRANCH  43  47
ATOM     47  S   UNL     1      12.376   5.276   2.025  1.00  0.00     0.124 S 
ATOM     48  O   UNL     1      13.385   5.583   1.008  1.00  0.00    -0.237 OA
ATOM     49  O   UNL     1      12.764   5.604   3.398  1.00  0.00    -0.237 OA
ATOM     50  O   UNL     1      11.684   4.011   1.858  1.00  0.00    -0.744 OA
ENDBRANCH  43  47
ENDBRANCH  26  40
BRANCH  27  51
ATOM     51  C   UNL     1       0.623  10.659   2.387  1.00  0.00     0.023 A 
ATOM     52  C   UNL     1       1.464  11.359   3.261  1.00  0.00     0.031 A 
ATOM     53  C   UNL     1      -0.683  10.378   2.857  1.00  0.00     0.131 A 
ATOM     54  C   UNL     1       1.084  11.557   4.599  1.00  0.00     0.055 A 
ATOM     55  C   UNL     1      -1.086  10.640   4.169  1.00  0.00     0.041 A 
ATOM     56  F   UNL     1      -1.586   9.801   2.045  1.00  0.00    -0.206 F 
ATOM     57  C   UNL     1      -0.182  11.196   5.063  1.00  0.00     0.022 A 
BRANCH  54  58
ATOM     58  S   UNL     1       2.281  12.184   5.811  1.00  0.00     0.124 S 
ATOM     59  O   UNL     1       1.516  13.219   6.499  1.00  0.00    -0.237 OA
ATOM     60  O   UNL     1       2.559  10.979   6.587  1.00  0.00    -0.237 OA
ATOM     61  O   UNL     1       3.381  12.663   4.980  1.00  0.00    -0.744 OA
ENDBRANCH  54  58
ENDBRANCH  27  51
BRANCH  39  62
ATOM     62  C   UNL     1       3.729   9.182  -3.359  1.00  0.00     0.023 A 
ATOM     63  C   UNL     1       3.414   7.991  -4.043  1.00  0.00     0.031 A 
ATOM     64  C   UNL     1       3.422  10.401  -3.980  1.00  0.00     0.131 A 
ATOM     65  C   UNL     1       2.908   8.043  -5.348  1.00  0.00     0.055 A 
ATOM     66  C   UNL     1       2.846  10.448  -5.252  1.00  0.00     0.041 A 
ATOM     67  F   UNL     1       3.737  11.569  -3.396  1.00  0.00    -0.206 F 
ATOM     68  C   UNL     1       2.607   9.267  -5.951  1.00  0.00     0.022 A 
BRANCH  65  69
ATOM     69  S   UNL     1       2.730   6.536  -6.342  1.00  0.00     0.124 S 
ATOM     70  O   UNL     1       1.369   6.657  -6.859  1.00  0.00    -0.237 OA
ATOM     71  O   UNL     1       3.790   6.704  -7.335  1.00  0.00    -0.237 OA
ATOM     72  O   UNL     1       2.939   5.452  -5.387  1.00  0.00    -0.744 OA
ENDBRANCH  65  69
ENDBRANCH  39  62
ENDBRANCH  13  14
ENDBRANCH   6   8
ENDBRANCH   3   4
ENDBRANCH   2   3
ENDBRANCH   1   2
BRANCH   1  73
ATOM     73  C   UNL     1       5.090  -2.264  -3.127  1.00  0.00     0.002 C 
BRANCH  73  74
ATOM     74  C   UNL     1       6.520  -2.009  -3.642  1.00  0.00     0.021 C 
BRANCH  74  75
ATOM     75  C   UNL     1       7.623  -3.088  -3.577  1.00  0.00     0.116 C 
BRANCH  75  76
ATOM     76  N   UNL     1       7.336  -4.334  -4.274  1.00  0.00    -0.351 N 
ATOM     77  C   UNL     1       7.878  -5.594  -4.150  1.00  0.00     0.278 C 
ATOM     78  H   UNL     1       6.628  -4.263  -4.954  1.00  0.00     0.163 HD
ATOM     79  O   UNL     1       7.499  -6.462  -4.944  1.00  0.00    -0.268 OA
BRANCH  77  80
ATOM     80  C   UNL     1       8.959  -5.886  -3.094  1.00  0.00     0.275 C 
ATOM     81  C   UNL     1       9.715  -7.242  -3.325  1.00  0.00     0.089 C 
ATOM     82  N   UNL     1       8.481  -6.098  -1.732  1.00  0.00    -0.320 N 
ATOM     83  C   UNL     1       9.681  -8.006  -1.962  1.00  0.00     0.036 C 
ATOM     84  C   UNL     1       9.450  -6.854  -0.985  1.00  0.00     0.270 C 
ATOM     85  H   UNL     1       7.494  -6.218  -1.960  1.00  0.00     0.349 HD
ATOM     86  C   UNL     1      10.982  -8.749  -1.608  1.00  0.00     0.074 C 
ATOM     87  C   UNL     1       8.474  -8.986  -1.884  1.00  0.00     0.074 C 
ATOM     88  C   UNL     1      11.105 -10.117  -2.276  1.00  0.00     0.261 C 
ATOM     89  C   UNL     1       8.736 -10.342  -2.527  1.00  0.00     0.261 C 
ATOM     90  N   UNL     1       9.947 -10.964  -1.992  1.00  0.00    -0.346 N 
ATOM     91  H   UNL     1       9.851 -11.079  -0.983  1.00  0.00     0.346 HD
ATOM     92  H   UNL     1      10.081 -11.875  -2.430  1.00  0.00     0.346 HD
BRANCH  82  93
ATOM     93  C   UNL     1       7.356  -5.517  -1.071  1.00  0.00     0.302 C 
BRANCH  93  94
ATOM     94  C   UNL     1       6.077  -6.317  -1.164  1.00  0.00     0.038 A 
ATOM     95  C   UNL     1       5.709  -7.191  -0.107  1.00  0.00     0.012 A 
ATOM     96  C   UNL     1       5.081  -6.240  -2.175  1.00  0.00     0.144 A 
ATOM     97  C   UNL     1       4.469  -7.879  -0.031  1.00  0.00     0.003 A 
ATOM     98  C   UNL     1       3.812  -6.952  -2.094  1.00  0.00     0.135 A 
ATOM     99  N   UNL     1       5.043  -5.529  -3.305  1.00  0.00    -0.049 NA
ATOM    100  C   UNL     1       3.473  -7.777  -1.014  1.00  0.00     0.034 A 
ATOM    101  N   UNL     1       3.076  -6.657  -3.173  1.00  0.00    -0.050 NA
ATOM    102  O   UNL     1       3.847  -5.794  -3.922  1.00  0.00    -0.243 OA
ENDBRANCH  93  94
ENDBRANCH  82  93
ENDBRANCH  77  80
ENDBRANCH  75  76
ENDBRANCH  74  75
ENDBRANCH  73  74
ENDBRANCH   1  73
TORSDOF 18
