REMARK SMILES O=C(NCCCCCCNC(=O)c1conc1-c1ccc(Cl)cc1)c1ccc(-c2c3nc(c(-c4cc(S(=O)(=O)[O-])ccc4F)c4ccc([nH]4)c(-c4cc(S(=O)(=O)[O-])ccc4F)c4nc(c(-c5cc(S(=O)(=O)[O-])ccc5F)c5ccc2[nH]5)C=C4)C=C3)cc1
REMARK SMILES IDX 5 1 4 2 3 3 1 4 2 5 25 7 26 8 87 9 27 10 86 11 28 12 29 13
REMARK SMILES IDX 30 14 80 15 31 16 85 17 79 18 81 19 32 20 84 21 78 22 77 23
REMARK SMILES IDX 33 25 65 26 45 27 64 28 46 29 49 30 63 31 82 32 47 33 48 34
REMARK SMILES IDX 62 36 83 37 50 38 34 39 35 40 43 41 36 42 42 43 44 44 41 45
REMARK SMILES IDX 37 46 38 47 39 48 40 49 66 50 67 51 75 52 68 53 74 54 76 55
REMARK SMILES IDX 73 56 69 57 70 58 71 59 72 60 51 61 52 62 60 63 53 64 59 65
REMARK SMILES IDX 61 66 58 67 54 68 55 69 56 70 57 71 6 72 7 73 8 74 9 75
REMARK SMILES IDX 10 76 11 77 12 79 13 80 14 81 17 82 15 83 16 84 18 85 19 86
REMARK SMILES IDX 24 87 20 88 23 89 21 90 22 91
REMARK H PARENT 3 6 81 24 49 35 10 78
REMARK Flexibility Score: inf
ROOT
ATOM      1  C   UNL     1       4.694   2.762  -1.210  1.00  0.00     0.021 C 
ENDROOT
BRANCH   1   2
ATOM      2  C   UNL     1       4.560   1.452  -0.437  1.00  0.00     0.116 C 
BRANCH   2   3
ATOM      3  N   UNL     1       3.193   1.167  -0.042  1.00  0.00    -0.352 N 
ATOM      4  O   UNL     1       1.347  -0.077   0.274  1.00  0.00    -0.269 OA
ATOM      5  C   UNL     1       2.551  -0.046   0.032  1.00  0.00     0.251 C 
ATOM      6  H   UNL     1       2.651   1.950   0.207  1.00  0.00     0.163 HD
BRANCH   5   7
ATOM      7  C   UNL     1       3.289  -1.310  -0.206  1.00  0.00     0.039 A 
ATOM      8  C   UNL     1       4.533  -1.558   0.383  1.00  0.00     0.014 A 
ATOM      9  C   UNL     1       2.690  -2.291  -1.005  1.00  0.00     0.014 A 
ATOM     10  C   UNL     1       5.211  -2.748   0.108  1.00  0.00     0.010 A 
ATOM     11  C   UNL     1       3.354  -3.496  -1.254  1.00  0.00     0.010 A 
ATOM     12  C   UNL     1       4.629  -3.723  -0.715  1.00  0.00    -0.014 A 
BRANCH  12  13
ATOM     13  C   UNL     1       5.349  -4.992  -0.980  1.00  0.00     0.031 A 
ATOM     14  C   UNL     1       6.013  -5.235  -2.305  1.00  0.00     0.074 A 
ATOM     15  C   UNL     1       5.406  -5.930  -0.017  1.00  0.00     0.049 A 
ATOM     16  N   UNL     1       6.707  -6.270  -2.703  1.00  0.00    -0.248 NA
ATOM     17  C   UNL     1       5.868  -4.179  -3.318  1.00  0.00     0.031 C 
ATOM     18  C   UNL     1       4.778  -5.827   1.301  1.00  0.00     0.029 A 
ATOM     19  N   UNL     1       6.022  -7.154  -0.001  1.00  0.00    -0.354 N 
ATOM     20  C   UNL     1       7.077  -6.000  -4.014  1.00  0.00     0.074 A 
ATOM     21  C   UNL     1       6.512  -4.708  -4.350  1.00  0.00     0.031 C 
ATOM     22  C   UNL     1       5.049  -6.940   2.002  1.00  0.00     0.029 A 
ATOM     23  C   UNL     1       5.856  -7.836   1.179  1.00  0.00     0.049 A 
ATOM     24  H   UNL     1       6.534  -7.511  -0.763  1.00  0.00     0.167 HD
ATOM     25  C   UNL     1       7.821  -6.755  -4.860  1.00  0.00     0.034 A 
ATOM     26  C   UNL     1       6.299  -9.049   1.555  1.00  0.00     0.034 A 
ATOM     27  C   UNL     1       8.389  -8.037  -4.526  1.00  0.00     0.049 A 
ATOM     28  C   UNL     1       7.129  -9.863   0.606  1.00  0.00     0.074 A 
ATOM     29  C   UNL     1       9.204  -8.850  -5.296  1.00  0.00     0.029 A 
ATOM     30  N   UNL     1       8.191  -8.700  -3.324  1.00  0.00    -0.354 N 
ATOM     31  N   UNL     1       7.492  -9.579  -0.621  1.00  0.00    -0.248 NA
ATOM     32  C   UNL     1       7.610 -11.160   1.099  1.00  0.00     0.031 C 
ATOM     33  C   UNL     1       9.471 -10.020  -4.570  1.00  0.00     0.029 A 
ATOM     34  C   UNL     1       8.849  -9.920  -3.337  1.00  0.00     0.049 A 
ATOM     35  H   UNL     1       7.660  -8.354  -2.570  1.00  0.00     0.167 HD
ATOM     36  C   UNL     1       8.247 -10.664  -1.049  1.00  0.00     0.074 A 
ATOM     37  C   UNL     1       8.292 -11.605   0.052  1.00  0.00     0.031 C 
ATOM     38  C   UNL     1       8.856 -10.859  -2.245  1.00  0.00     0.034 A 
BRANCH  25  39
ATOM     39  C   UNL     1       8.025  -6.214  -6.248  1.00  0.00     0.023 A 
ATOM     40  C   UNL     1       8.883  -5.128  -6.491  1.00  0.00     0.031 A 
ATOM     41  C   UNL     1       7.323  -6.766  -7.332  1.00  0.00     0.131 A 
ATOM     42  C   UNL     1       8.978  -4.593  -7.784  1.00  0.00     0.055 A 
ATOM     43  C   UNL     1       7.460  -6.261  -8.626  1.00  0.00     0.041 A 
ATOM     44  F   UNL     1       6.475  -7.790  -7.144  1.00  0.00    -0.206 F 
ATOM     45  C   UNL     1       8.284  -5.162  -8.856  1.00  0.00     0.022 A 
BRANCH  42  46
ATOM     46  S   UNL     1       9.946  -3.079  -8.029  1.00  0.00     0.124 S 
ATOM     47  O   UNL     1       9.228  -2.128  -7.183  1.00  0.00    -0.237 OA
ATOM     48  O   UNL     1      11.271  -3.472  -7.565  1.00  0.00    -0.237 OA
ATOM     49  O   UNL     1       9.836  -2.830  -9.465  1.00  0.00    -0.744 OA
ENDBRANCH  42  46
ENDBRANCH  25  39
BRANCH  26  50
ATOM     50  C   UNL     1       5.938  -9.580   2.890  1.00  0.00     0.023 A 
ATOM     51  C   UNL     1       6.838  -9.512   3.961  1.00  0.00     0.031 A 
ATOM     52  C   UNL     1       4.675 -10.155   3.106  1.00  0.00     0.131 A 
ATOM     53  C   UNL     1       6.464 -10.025   5.212  1.00  0.00     0.055 A 
ATOM     54  C   UNL     1       4.304 -10.655   4.353  1.00  0.00     0.041 A 
ATOM     55  F   UNL     1       3.783 -10.223   2.105  1.00  0.00    -0.206 F 
ATOM     56  C   UNL     1       5.203 -10.595   5.415  1.00  0.00     0.022 A 
BRANCH  53  57
ATOM     57  S   UNL     1       7.659  -9.949   6.574  1.00  0.00     0.124 S 
ATOM     58  O   UNL     1       8.785 -10.701   6.032  1.00  0.00    -0.237 OA
ATOM     59  O   UNL     1       7.858  -8.510   6.718  1.00  0.00    -0.237 OA
ATOM     60  O   UNL     1       6.954 -10.591   7.681  1.00  0.00    -0.744 OA
ENDBRANCH  53  57
ENDBRANCH  26  50
BRANCH  38  61
ATOM     61  C   UNL     1       9.624 -12.139  -2.402  1.00  0.00     0.023 A 
ATOM     62  C   UNL     1       8.967 -13.352  -2.666  1.00  0.00     0.031 A 
ATOM     63  C   UNL     1      11.021 -12.149  -2.253  1.00  0.00     0.131 A 
ATOM     64  C   UNL     1       9.708 -14.540  -2.744  1.00  0.00     0.055 A 
ATOM     65  C   UNL     1      11.756 -13.331  -2.356  1.00  0.00     0.041 A 
ATOM     66  F   UNL     1      11.686 -11.013  -1.993  1.00  0.00    -0.206 F 
ATOM     67  C   UNL     1      11.099 -14.536  -2.596  1.00  0.00     0.022 A 
BRANCH  64  68
ATOM     68  S   UNL     1       8.826 -16.106  -2.991  1.00  0.00     0.124 S 
ATOM     69  O   UNL     1       7.947 -16.148  -1.826  1.00  0.00    -0.237 OA
ATOM     70  O   UNL     1       8.171 -15.896  -4.278  1.00  0.00    -0.237 OA
ATOM     71  O   UNL     1       9.894 -17.104  -2.997  1.00  0.00    -0.744 OA
ENDBRANCH  64  68
ENDBRANCH  38  61
ENDBRANCH  12  13
ENDBRANCH   5   7
ENDBRANCH   2   3
ENDBRANCH   1   2
BRANCH   1  72
ATOM     72  C   UNL     1       4.324   4.035  -0.443  1.00  0.00     0.002 C 
BRANCH  72  73
ATOM     73  C   UNL     1       5.052   4.265   0.884  1.00  0.00     0.002 C 
BRANCH  73  74
ATOM     74  C   UNL     1       6.584   4.209   0.842  1.00  0.00     0.021 C 
BRANCH  74  75
ATOM     75  C   UNL     1       7.258   5.098  -0.204  1.00  0.00     0.116 C 
BRANCH  75  76
ATOM     76  N   UNL     1       6.919   6.499  -0.030  1.00  0.00    -0.352 N 
ATOM     77  C   UNL     1       7.692   7.566   0.338  1.00  0.00     0.256 C 
ATOM     78  H   UNL     1       5.975   6.718  -0.206  1.00  0.00     0.163 HD
ATOM     79  O   UNL     1       7.125   8.626   0.609  1.00  0.00    -0.269 OA
BRANCH  77  80
ATOM     80  C   UNL     1       9.126   7.440   0.404  1.00  0.00     0.107 A 
ATOM     81  C   UNL     1       9.960   6.879  -0.535  1.00  0.00     0.245 A 
ATOM     82  C   UNL     1      10.023   7.981   1.372  1.00  0.00     0.126 A 
ATOM     83  O   UNL     1      11.249   7.034  -0.158  1.00  0.00    -0.363 OA
ATOM     84  N   UNL     1      11.299   7.731   1.032  1.00  0.00    -0.079 NA
BRANCH  82  85
ATOM     85  C   UNL     1       9.710   8.714   2.594  1.00  0.00     0.005 A 
ATOM     86  C   UNL     1       8.759   8.224   3.500  1.00  0.00     0.012 A 
ATOM     87  C   UNL     1      10.366   9.921   2.875  1.00  0.00     0.012 A 
ATOM     88  C   UNL     1       8.459   8.938   4.664  1.00  0.00     0.021 A 
ATOM     89  C   UNL     1      10.062  10.638   4.036  1.00  0.00     0.021 A 
ATOM     90  C   UNL     1       9.109  10.144   4.924  1.00  0.00     0.041 A 
ATOM     91  Cl  UNL     1       8.733  11.027   6.352  1.00  0.00    -0.084 Cl
ENDBRANCH  82  85
ENDBRANCH  77  80
ENDBRANCH  75  76
ENDBRANCH  74  75
ENDBRANCH  73  74
ENDBRANCH  72  73
ENDBRANCH   1  72
TORSDOF 17
