REMARK SMILES NS(=O)(=O)c1ccc(-c2cc(Cl)cc3c2O[C@H](C(F)(F)F)C(C(=O)NCCCCCCNC(=O)c2ccc(-c4c5nc(c(-c6cc(S(=O)(=O)[O-])ccc6F)c6ccc([nH]6)c(-c6cc(S(=O)(=O)[O-])ccc6F)c6nc(c(-c7cc(S(=O)(=O)[O-])ccc7F)c7ccc4[nH]7)C=C6)C=C5)cc2)=C3)cc1
REMARK SMILES IDX 28 1 27 2 26 3 25 4 23 5 24 6 22 8 9 9 10 10 15 11 11 12
REMARK SMILES IDX 14 13 16 14 12 15 13 16 98 17 17 18 8 19 5 20 6 21 100 22
REMARK SMILES IDX 7 23 99 24 2 25 3 26 4 27 1 28 18 31 19 32 20 33 21 34 29 35
REMARK SMILES IDX 30 36 31 37 32 38 33 39 34 41 35 42 36 43 97 44 37 45 96 46
REMARK SMILES IDX 38 47 39 48 40 49 90 50 41 51 95 52 89 53 91 54 42 55 94 56
REMARK SMILES IDX 88 57 87 58 43 60 75 61 55 62 74 63 56 64 59 65 73 66 92 67
REMARK SMILES IDX 57 68 58 69 72 71 93 72 60 73 44 74 45 75 53 76 46 77 52 78
REMARK SMILES IDX 54 79 51 80 47 81 48 82 49 83 50 84 76 85 77 86 85 87 78 88
REMARK SMILES IDX 84 89 86 90 83 91 79 92 80 93 81 94 82 95 61 96 62 97 70 98
REMARK SMILES IDX 63 99 69 100 71 101 68 102 64 103 65 104 66 105 67 106
REMARK H PARENT 25 7 1 29 1 30 32 40 91 59 59 70
REMARK Flexibility Score: inf
ROOT
ATOM      1  C   UNL     1       0.709  10.105  12.053  1.00  0.00     0.002 C 
ENDROOT
BRANCH   1   2
ATOM      2  C   UNL     1      -0.438   9.955  11.038  1.00  0.00     0.021 C 
BRANCH   2   3
ATOM      3  C   UNL     1      -0.077  10.344   9.597  1.00  0.00     0.116 C 
BRANCH   3   4
ATOM      4  N   UNL     1       1.033   9.533   9.138  1.00  0.00    -0.352 N 
ATOM      5  C   UNL     1       1.005   8.666   8.096  1.00  0.00     0.251 C 
ATOM      6  O   UNL     1       1.460   7.536   8.229  1.00  0.00    -0.270 OA
ATOM      7  H   UNL     1       1.883   9.619   9.626  1.00  0.00     0.163 HD
BRANCH   5   8
ATOM      8  C   UNL     1       0.577   9.224   6.781  1.00  0.00     0.067 C 
ATOM      9  C   UNL     1       1.241   5.931   4.496  1.00  0.00     0.026 A 
ATOM     10  C   UNL     1       2.525   5.445   4.866  1.00  0.00     0.033 A 
ATOM     11  C   UNL     1       0.921   7.231   4.938  1.00  0.00     0.135 A 
ATOM     12  C   UNL     1       3.488   6.240   5.482  1.00  0.00     0.042 A 
ATOM     13  C   UNL     1       1.958   8.058   5.448  1.00  0.00     0.019 A 
ATOM     14  O   UNL     1      -0.375   7.739   4.970  1.00  0.00    -0.475 OA
ATOM     15  Cl  UNL     1       4.997   5.556   5.939  1.00  0.00    -0.084 Cl
ATOM     16  C   UNL     1       3.237   7.576   5.707  1.00  0.00     0.032 A 
ATOM     17  C   UNL     1       1.599   9.410   5.924  1.00  0.00     0.025 C 
ATOM     18  C   UNL     1      -0.663   8.593   6.171  1.00  0.00     0.314 C 
BRANCH   9  19
ATOM     19  C   UNL     1       0.518   5.063   3.519  1.00  0.00    -0.015 A 
ATOM     20  C   UNL     1       0.230   3.256   1.344  1.00  0.00     0.082 A 
ATOM     21  C   UNL     1       0.339   2.763   2.641  1.00  0.00     0.022 A 
ATOM     22  C   UNL     1       0.168   4.637   1.130  1.00  0.00     0.022 A 
ATOM     23  C   UNL     1       0.455   3.661   3.717  1.00  0.00     0.010 A 
ATOM     24  C   UNL     1       0.296   5.530   2.211  1.00  0.00     0.010 A 
BRANCH  20  25
ATOM     25  S   UNL     1       0.286   2.177  -0.064  1.00  0.00     0.238 S 
ATOM     26  O   UNL     1       1.195   2.731  -1.039  1.00  0.00    -0.207 OA
ATOM     27  O   UNL     1      -1.063   1.778  -0.395  1.00  0.00    -0.207 OA
BRANCH  25  28
ATOM     28  N   UNL     1       1.052   0.775   0.475  1.00  0.00    -0.225 NA
ATOM     29  H   UNL     1       1.117   0.107  -0.292  1.00  0.00     0.137 HD
ATOM     30  H   UNL     1       0.513   0.365   1.238  1.00  0.00     0.137 HD
ENDBRANCH  25  28
ENDBRANCH  20  25
ENDBRANCH   9  19
BRANCH  18  31
ATOM     31  C   UNL     1      -1.656   9.740   5.862  1.00  0.00     0.429 C 
ATOM     32  F   UNL     1      -1.766   9.990   4.539  1.00  0.00    -0.167 F 
ATOM     33  F   UNL     1      -2.893   9.462   6.337  1.00  0.00    -0.167 F 
ATOM     34  F   UNL     1      -1.286  10.914   6.445  1.00  0.00    -0.167 F 
ENDBRANCH  18  31
ENDBRANCH   5   8
ENDBRANCH   3   4
ENDBRANCH   2   3
ENDBRANCH   1   2
BRANCH   1  35
ATOM     35  C   UNL     1       1.342  11.497  12.103  1.00  0.00     0.002 C 
BRANCH  35  36
ATOM     36  C   UNL     1       0.367  12.621  12.450  1.00  0.00     0.021 C 
BRANCH  36  37
ATOM     37  C   UNL     1      -0.394  12.415  13.754  1.00  0.00     0.116 C 
BRANCH  37  38
ATOM     38  N   UNL     1       0.496  12.330  14.902  1.00  0.00    -0.352 N 
ATOM     39  C   UNL     1       0.426  13.005  16.096  1.00  0.00     0.251 C 
ATOM     40  H   UNL     1       1.250  11.704  14.810  1.00  0.00     0.163 HD
ATOM     41  O   UNL     1       1.367  12.959  16.882  1.00  0.00    -0.269 OA
BRANCH  39  42
ATOM     42  C   UNL     1      -0.776  13.807  16.405  1.00  0.00     0.039 A 
ATOM     43  C   UNL     1      -0.615  15.097  16.915  1.00  0.00     0.014 A 
ATOM     44  C   UNL     1      -2.055  13.296  16.168  1.00  0.00     0.014 A 
ATOM     45  C   UNL     1      -1.739  15.896  17.130  1.00  0.00     0.010 A 
ATOM     46  C   UNL     1      -3.165  14.123  16.302  1.00  0.00     0.010 A 
ATOM     47  C   UNL     1      -3.020  15.430  16.791  1.00  0.00    -0.014 A 
BRANCH  47  48
ATOM     48  C   UNL     1      -4.216  16.298  16.944  1.00  0.00     0.031 A 
ATOM     49  C   UNL     1      -5.322  15.905  17.883  1.00  0.00     0.074 A 
ATOM     50  C   UNL     1      -4.333  17.408  16.189  1.00  0.00     0.049 A 
ATOM     51  N   UNL     1      -6.464  16.500  18.114  1.00  0.00    -0.248 NA
ATOM     52  C   UNL     1      -5.131  14.656  18.634  1.00  0.00     0.031 C 
ATOM     53  C   UNL     1      -3.351  17.862  15.202  1.00  0.00     0.029 A 
ATOM     54  N   UNL     1      -5.329  18.350  16.124  1.00  0.00    -0.354 N 
ATOM     55  C   UNL     1      -7.135  15.690  19.026  1.00  0.00     0.074 A 
ATOM     56  C   UNL     1      -6.299  14.529  19.243  1.00  0.00     0.031 C 
ATOM     57  C   UNL     1      -3.782  19.005  14.648  1.00  0.00     0.029 A 
ATOM     58  C   UNL     1      -5.092  19.339  15.198  1.00  0.00     0.049 A 
ATOM     59  H   UNL     1      -6.136  18.320  16.686  1.00  0.00     0.167 HD
ATOM     60  C   UNL     1      -8.325  15.909  19.640  1.00  0.00     0.034 A 
ATOM     61  C   UNL     1      -5.851  20.386  14.818  1.00  0.00     0.034 A 
ATOM     62  C   UNL     1      -9.142  17.076  19.402  1.00  0.00     0.049 A 
ATOM     63  C   UNL     1      -7.180  20.603  15.491  1.00  0.00     0.074 A 
ATOM     64  C   UNL     1     -10.327  17.439  20.017  1.00  0.00     0.029 A 
ATOM     65  N   UNL     1      -8.871  18.060  18.457  1.00  0.00    -0.354 N 
ATOM     66  N   UNL     1      -7.770  19.871  16.409  1.00  0.00    -0.248 NA
ATOM     67  C   UNL     1      -7.940  21.791  15.087  1.00  0.00     0.031 C 
ATOM     68  C   UNL     1     -10.818  18.585  19.383  1.00  0.00     0.029 A 
ATOM     69  C   UNL     1      -9.892  19.000  18.438  1.00  0.00     0.049 A 
ATOM     70  H   UNL     1      -8.071  18.086  17.884  1.00  0.00     0.167 HD
ATOM     71  C   UNL     1      -8.962  20.524  16.709  1.00  0.00     0.074 A 
ATOM     72  C   UNL     1      -8.997  21.716  15.884  1.00  0.00     0.031 C 
ATOM     73  C   UNL     1      -9.933  20.173  17.592  1.00  0.00     0.034 A 
BRANCH  60  74
ATOM     74  C   UNL     1      -8.823  14.838  20.587  1.00  0.00     0.023 A 
ATOM     75  C   UNL     1      -8.078  14.436  21.711  1.00  0.00     0.031 A 
ATOM     76  C   UNL     1     -10.027  14.160  20.328  1.00  0.00     0.131 A 
ATOM     77  C   UNL     1      -8.483  13.321  22.461  1.00  0.00     0.055 A 
ATOM     78  C   UNL     1     -10.479  13.118  21.141  1.00  0.00     0.041 A 
ATOM     79  F   UNL     1     -10.776  14.478  19.260  1.00  0.00    -0.206 F 
ATOM     80  C   UNL     1      -9.694  12.677  22.201  1.00  0.00     0.022 A 
BRANCH  77  81
ATOM     81  S   UNL     1      -7.306  12.602  23.641  1.00  0.00     0.124 S 
ATOM     82  O   UNL     1      -6.144  12.361  22.788  1.00  0.00    -0.237 OA
ATOM     83  O   UNL     1      -7.165  13.663  24.631  1.00  0.00    -0.237 OA
ATOM     84  O   UNL     1      -7.985  11.395  24.109  1.00  0.00    -0.744 OA
ENDBRANCH  77  81
ENDBRANCH  60  74
BRANCH  61  85
ATOM     85  C   UNL     1      -5.375  21.286  13.729  1.00  0.00     0.023 A 
ATOM     86  C   UNL     1      -5.035  22.625  13.978  1.00  0.00     0.031 A 
ATOM     87  C   UNL     1      -5.241  20.805  12.413  1.00  0.00     0.131 A 
ATOM     88  C   UNL     1      -4.599  23.442  12.922  1.00  0.00     0.055 A 
ATOM     89  C   UNL     1      -4.760  21.607  11.378  1.00  0.00     0.041 A 
ATOM     90  F   UNL     1      -5.548  19.530  12.123  1.00  0.00    -0.206 F 
ATOM     91  C   UNL     1      -4.443  22.937  11.629  1.00  0.00     0.022 A 
BRANCH  88  92
ATOM     92  S   UNL     1      -4.284  25.198  13.251  1.00  0.00     0.124 S 
ATOM     93  O   UNL     1      -5.593  25.655  13.702  1.00  0.00    -0.237 OA
ATOM     94  O   UNL     1      -3.240  25.135  14.267  1.00  0.00    -0.237 OA
ATOM     95  O   UNL     1      -3.856  25.715  11.952  1.00  0.00    -0.744 OA
ENDBRANCH  88  92
ENDBRANCH  61  85
BRANCH  73  96
ATOM     96  C   UNL     1     -11.107  21.115  17.735  1.00  0.00     0.023 A 
ATOM     97  C   UNL     1     -12.005  21.352  16.679  1.00  0.00     0.031 A 
ATOM     98  C   UNL     1     -11.325  21.792  18.949  1.00  0.00     0.131 A 
ATOM     99  C   UNL     1     -13.043  22.283  16.839  1.00  0.00     0.055 A 
ATOM    100  C   UNL     1     -12.402  22.663  19.125  1.00  0.00     0.041 A 
ATOM    101  F   UNL     1     -10.497  21.613  19.991  1.00  0.00    -0.206 F 
ATOM    102  C   UNL     1     -13.260  22.923  18.061  1.00  0.00     0.022 A 
BRANCH  99 103
ATOM    103  S   UNL     1     -14.043  22.730  15.393  1.00  0.00     0.124 S 
ATOM    104  O   UNL     1     -13.028  23.213  14.462  1.00  0.00    -0.237 OA
ATOM    105  O   UNL     1     -14.676  21.463  15.046  1.00  0.00    -0.237 OA
ATOM    106  O   UNL     1     -14.949  23.756  15.906  1.00  0.00    -0.744 OA
ENDBRANCH  99 103
ENDBRANCH  73  96
ENDBRANCH  47  48
ENDBRANCH  39  42
ENDBRANCH  37  38
ENDBRANCH  36  37
ENDBRANCH  35  36
ENDBRANCH   1  35
TORSDOF 20
