REMARK SMILES CN1C(=O)C[C@@H](C(=O)NCCCCCCNC(=O)c2ccc(-c3c4nc(c(-c5cc(S(=O)(=O)[O-])ccc5F)c5ccc([nH]5)c(-c5cc(S(=O)(=O)[O-])ccc5F)c5nc(c(-c6cc(S(=O)(=O)[O-])ccc6F)c6ccc3[nH]6)C=C5)C=C4)cc2)C12CCN(C(=O)c1ccccc1-n1cccn1)CC2
REMARK SMILES IDX 13 1 12 2 11 3 10 4 9 5 7 6 8 7 6 9 1 10 2 11 3 12 82 13
REMARK SMILES IDX 4 14 5 15 83 16 100 17 84 18 99 19 85 20 86 21 87 22 88 23
REMARK SMILES IDX 89 24 93 25 90 26 92 27 91 28 94 29 95 30 98 31 96 32 97 33
REMARK SMILES IDX 14 34 15 35 16 36 17 37 18 39 19 40 20 41 81 42 21 43 80 44
REMARK SMILES IDX 22 45 23 46 24 47 74 48 25 49 79 50 73 51 75 52 26 53 78 54
REMARK SMILES IDX 72 55 71 56 27 58 59 59 39 60 58 61 40 62 43 63 57 64 76 65
REMARK SMILES IDX 41 66 42 67 56 69 77 70 44 71 28 72 29 73 37 74 30 75 36 76
REMARK SMILES IDX 38 77 35 78 31 79 32 80 33 81 34 82 60 83 61 84 69 85 62 86
REMARK SMILES IDX 68 87 70 88 67 89 63 90 64 91 65 92 66 93 45 94 46 95 54 96
REMARK SMILES IDX 47 97 53 98 55 99 52 100 48 101 49 102 50 103 51 104
REMARK H PARENT 9 8 16 38 75 57 43 68
REMARK Flexibility Score: inf
ROOT
ATOM      1  C   UNL     1       2.927  -0.885  -6.142  1.00  0.00     0.002 C 
ENDROOT
BRANCH   1   2
ATOM      2  C   UNL     1       1.639  -1.407  -5.505  1.00  0.00     0.002 C 
BRANCH   2   3
ATOM      3  C   UNL     1       1.390  -0.895  -4.089  1.00  0.00     0.021 C 
BRANCH   3   4
ATOM      4  C   UNL     1       1.271   0.630  -3.969  1.00  0.00     0.116 C 
BRANCH   4   5
ATOM      5  N   UNL     1       0.042   1.166  -4.534  1.00  0.00    -0.356 N 
ATOM      6  C   UNL     1      -1.002   1.860  -4.013  1.00  0.00     0.226 C 
ATOM      7  O   UNL     1      -1.900   2.169  -4.807  1.00  0.00    -0.275 OA
ATOM      8  H   UNL     1      -0.052   0.988  -5.498  1.00  0.00     0.163 HD
BRANCH   6   9
ATOM      9  C   UNL     1      -1.161   2.268  -2.541  1.00  0.00     0.113 C 
ATOM     10  C   UNL     1       0.806   0.266  -0.059  1.00  0.00     0.147 C 
ATOM     11  N   UNL     1       0.181   1.258  -0.914  1.00  0.00    -0.339 N 
ATOM     12  C   UNL     1       0.796   2.473  -1.187  1.00  0.00     0.223 C 
ATOM     13  C   UNL     1      -1.183   1.156  -1.464  1.00  0.00     0.058 C 
ATOM     14  O   UNL     1       1.882   2.852  -0.775  1.00  0.00    -0.275 OA
ATOM     15  C   UNL     1      -0.085   3.262  -2.108  1.00  0.00     0.116 C 
ATOM     16  C   UNL     1      -1.533  -0.221  -2.050  1.00  0.00     0.051 C 
ATOM     17  C   UNL     1      -2.191   1.452  -0.310  1.00  0.00     0.051 C 
ATOM     18  C   UNL     1      -2.994  -0.348  -2.452  1.00  0.00     0.122 C 
ATOM     19  C   UNL     1      -3.658   1.154  -0.647  1.00  0.00     0.122 C 
ATOM     20  N   UNL     1      -3.811  -0.160  -1.267  1.00  0.00    -0.338 N 
ATOM     21  C   UNL     1      -4.688  -1.103  -0.730  1.00  0.00     0.256 C 
ATOM     22  O   UNL     1      -5.400  -0.887   0.247  1.00  0.00    -0.269 OA
BRANCH  21  23
ATOM     23  C   UNL     1      -4.824  -2.432  -1.382  1.00  0.00     0.065 A 
ATOM     24  C   UNL     1      -6.048  -2.664  -2.033  1.00  0.00     0.016 A 
ATOM     25  C   UNL     1      -3.808  -3.399  -1.462  1.00  0.00     0.077 A 
ATOM     26  C   UNL     1      -6.244  -3.823  -2.788  1.00  0.00     0.001 A 
ATOM     27  C   UNL     1      -3.995  -4.533  -2.276  1.00  0.00     0.029 A 
ATOM     28  C   UNL     1      -5.213  -4.747  -2.924  1.00  0.00     0.002 A 
BRANCH  25  29
ATOM     29  N   UNL     1      -2.589  -3.303  -0.747  1.00  0.00    -0.240 N 
ATOM     30  C   UNL     1      -2.345  -2.705   0.469  1.00  0.00     0.115 A 
ATOM     31  N   UNL     1      -1.456  -3.862  -1.254  1.00  0.00    -0.177 NA
ATOM     32  C   UNL     1      -1.002  -2.850   0.730  1.00  0.00     0.042 A 
ATOM     33  C   UNL     1      -0.502  -3.554  -0.376  1.00  0.00     0.135 A 
ENDBRANCH  25  29
ENDBRANCH  21  23
ENDBRANCH   6   9
ENDBRANCH   4   5
ENDBRANCH   3   4
ENDBRANCH   2   3
ENDBRANCH   1   2
BRANCH   1  34
ATOM     34  C   UNL     1       4.182  -1.062  -5.283  1.00  0.00     0.021 C 
BRANCH  34  35
ATOM     35  C   UNL     1       4.447  -2.495  -4.832  1.00  0.00     0.116 C 
BRANCH  35  36
ATOM     36  N   UNL     1       4.629  -3.387  -5.964  1.00  0.00    -0.352 N 
ATOM     37  C   UNL     1       5.718  -4.152  -6.293  1.00  0.00     0.251 C 
ATOM     38  H   UNL     1       3.865  -3.450  -6.581  1.00  0.00     0.163 HD
ATOM     39  O   UNL     1       5.805  -4.642  -7.414  1.00  0.00    -0.269 OA
BRANCH  37  40
ATOM     40  C   UNL     1       6.787  -4.365  -5.293  1.00  0.00     0.039 A 
ATOM     41  C   UNL     1       8.119  -4.251  -5.692  1.00  0.00     0.014 A 
ATOM     42  C   UNL     1       6.471  -4.680  -3.968  1.00  0.00     0.014 A 
ATOM     43  C   UNL     1       9.136  -4.403  -4.747  1.00  0.00     0.010 A 
ATOM     44  C   UNL     1       7.481  -4.753  -3.014  1.00  0.00     0.010 A 
ATOM     45  C   UNL     1       8.825  -4.623  -3.395  1.00  0.00    -0.014 A 
BRANCH  45  46
ATOM     46  C   UNL     1       9.898  -4.728  -2.370  1.00  0.00     0.031 A 
ATOM     47  C   UNL     1      10.089  -6.010  -1.606  1.00  0.00     0.074 A 
ATOM     48  C   UNL     1      10.664  -3.654  -2.096  1.00  0.00     0.049 A 
ATOM     49  N   UNL     1      10.928  -6.280  -0.639  1.00  0.00    -0.248 NA
ATOM     50  C   UNL     1       9.199  -7.127  -1.958  1.00  0.00     0.031 C 
ATOM     51  C   UNL     1      10.544  -2.346  -2.744  1.00  0.00     0.029 A 
ATOM     52  N   UNL     1      11.689  -3.486  -1.200  1.00  0.00    -0.354 N 
ATOM     53  C   UNL     1      10.661  -7.592  -0.260  1.00  0.00     0.074 A 
ATOM     54  C   UNL     1       9.538  -8.037  -1.057  1.00  0.00     0.031 C 
ATOM     55  C   UNL     1      11.477  -1.520  -2.245  1.00  0.00     0.029 A 
ATOM     56  C   UNL     1      12.226  -2.219  -1.205  1.00  0.00     0.049 A 
ATOM     57  H   UNL     1      12.011  -4.204  -0.609  1.00  0.00     0.167 HD
ATOM     58  C   UNL     1      11.309  -8.359   0.652  1.00  0.00     0.034 A 
ATOM     59  C   UNL     1      13.200  -1.675  -0.447  1.00  0.00     0.034 A 
ATOM     60  C   UNL     1      12.431  -7.897   1.433  1.00  0.00     0.049 A 
ATOM     61  C   UNL     1      13.882  -2.537   0.586  1.00  0.00     0.074 A 
ATOM     62  C   UNL     1      13.195  -8.605   2.344  1.00  0.00     0.029 A 
ATOM     63  N   UNL     1      12.942  -6.605   1.408  1.00  0.00    -0.354 N 
ATOM     64  N   UNL     1      13.655  -3.794   0.893  1.00  0.00    -0.248 NA
ATOM     65  C   UNL     1      14.957  -1.912   1.365  1.00  0.00     0.031 C 
ATOM     66  C   UNL     1      14.110  -7.723   2.929  1.00  0.00     0.029 A 
ATOM     67  C   UNL     1      13.984  -6.486   2.316  1.00  0.00     0.049 A 
ATOM     68  H   UNL     1      12.613  -5.879   0.830  1.00  0.00     0.167 HD
ATOM     69  C   UNL     1      14.584  -4.117   1.879  1.00  0.00     0.074 A 
ATOM     70  C   UNL     1      15.382  -2.928   2.100  1.00  0.00     0.031 C 
ATOM     71  C   UNL     1      14.764  -5.290   2.538  1.00  0.00     0.034 A 
BRANCH  58  72
ATOM     72  C   UNL     1      10.795  -9.764   0.872  1.00  0.00     0.023 A 
ATOM     73  C   UNL     1      10.780 -10.719  -0.160  1.00  0.00     0.031 A 
ATOM     74  C   UNL     1      10.289 -10.149   2.127  1.00  0.00     0.131 A 
ATOM     75  C   UNL     1      10.197 -11.977   0.055  1.00  0.00     0.055 A 
ATOM     76  C   UNL     1       9.793 -11.433   2.360  1.00  0.00     0.041 A 
ATOM     77  F   UNL     1      10.253  -9.277   3.147  1.00  0.00    -0.206 F 
ATOM     78  C   UNL     1       9.730 -12.351   1.317  1.00  0.00     0.022 A 
BRANCH  75  79
ATOM     79  S   UNL     1       9.915 -13.057  -1.375  1.00  0.00     0.124 S 
ATOM     80  O   UNL     1       9.085 -12.207  -2.226  1.00  0.00    -0.237 OA
ATOM     81  O   UNL     1      11.270 -13.310  -1.851  1.00  0.00    -0.237 OA
ATOM     82  O   UNL     1       9.227 -14.212  -0.802  1.00  0.00    -0.744 OA
ENDBRANCH  75  79
ENDBRANCH  58  72
BRANCH  59  83
ATOM     83  C   UNL     1      13.577  -0.241  -0.617  1.00  0.00     0.023 A 
ATOM     84  C   UNL     1      14.865   0.127  -1.035  1.00  0.00     0.031 A 
ATOM     85  C   UNL     1      12.663   0.786  -0.321  1.00  0.00     0.131 A 
ATOM     86  C   UNL     1      15.219   1.484  -1.098  1.00  0.00     0.055 A 
ATOM     87  C   UNL     1      13.001   2.135  -0.444  1.00  0.00     0.041 A 
ATOM     88  F   UNL     1      11.416   0.491   0.083  1.00  0.00    -0.206 F 
ATOM     89  C   UNL     1      14.291   2.490  -0.822  1.00  0.00     0.022 A 
BRANCH  86  90
ATOM     90  S   UNL     1      16.945   1.916  -1.455  1.00  0.00     0.124 S 
ATOM     91  O   UNL     1      17.651   1.225  -0.382  1.00  0.00    -0.237 OA
ATOM     92  O   UNL     1      17.123   1.371  -2.796  1.00  0.00    -0.237 OA
ATOM     93  O   UNL     1      16.954   3.375  -1.371  1.00  0.00    -0.744 OA
ENDBRANCH  86  90
ENDBRANCH  59  83
BRANCH  71  94
ATOM     94  C   UNL     1      15.903  -5.355   3.529  1.00  0.00     0.023 A 
ATOM     95  C   UNL     1      15.915  -4.578   4.700  1.00  0.00     0.031 A 
ATOM     96  C   UNL     1      16.999  -6.204   3.290  1.00  0.00     0.131 A 
ATOM     97  C   UNL     1      17.027  -4.619   5.556  1.00  0.00     0.055 A 
ATOM     98  C   UNL     1      18.069  -6.294   4.181  1.00  0.00     0.041 A 
ATOM     99  F   UNL     1      17.045  -6.967   2.186  1.00  0.00    -0.206 F 
ATOM    100  C   UNL     1      18.095  -5.487   5.314  1.00  0.00     0.022 A 
BRANCH  97 101
ATOM    101  S   UNL     1      17.110  -3.443   6.935  1.00  0.00     0.124 S 
ATOM    102  O   UNL     1      17.015  -2.161   6.245  1.00  0.00    -0.237 OA
ATOM    103  O   UNL     1      15.952  -3.822   7.738  1.00  0.00    -0.237 OA
ATOM    104  O   UNL     1      18.407  -3.724   7.548  1.00  0.00    -0.744 OA
ENDBRANCH  97 101
ENDBRANCH  71  94
ENDBRANCH  45  46
ENDBRANCH  37  40
ENDBRANCH  35  36
ENDBRANCH  34  35
ENDBRANCH   1  34
TORSDOF 18
