REMARK SMILES CC[C@@H](C)Nc1cc(OC)c(C(=O)NCCCCCCNC(=O)c2ccc(-c3c4nc(c(-c5cc(S(=O)(=O)[O-])ccc5F)c5ccc([nH]5)c(-c5cc(S(=O)(=O)[O-])ccc5F)c5nc(c(-c6cc(S(=O)(=O)[O-])ccc6F)c6ccc3[nH]6)C=C5)C=C4)cc2)cc1Cl
REMARK SMILES IDX 17 1 16 2 15 3 14 4 12 5 13 6 11 8 6 9 7 10 88 11 8 12 87 13
REMARK SMILES IDX 89 14 5 15 3 17 4 18 2 19 1 20 9 21 10 22 18 23 19 24 20 25
REMARK SMILES IDX 21 26 22 27 23 29 24 30 25 31 86 32 26 33 85 34 27 35 28 36
REMARK SMILES IDX 29 37 79 38 30 39 84 40 78 41 80 42 31 43 83 44 77 45 76 46
REMARK SMILES IDX 32 48 64 49 44 50 63 51 45 52 48 53 62 54 81 55 46 56 47 57
REMARK SMILES IDX 61 59 82 60 49 61 33 62 34 63 42 64 35 65 41 66 43 67 40 68
REMARK SMILES IDX 36 69 37 70 38 71 39 72 65 73 66 74 74 75 67 76 73 77 75 78
REMARK SMILES IDX 72 79 68 80 69 81 70 82 71 83 50 84 51 85 59 86 52 87 58 88
REMARK SMILES IDX 60 89 57 90 53 91 54 92 55 93 56 94
REMARK H PARENT 14 7 5 16 21 28 80 47 48 58
REMARK Flexibility Score: inf
ROOT
ATOM      1  C   UNL     1       7.001   5.444   7.523  1.00  0.00     0.002 C 
ENDROOT
BRANCH   1   2
ATOM      2  C   UNL     1       5.963   5.044   6.461  1.00  0.00     0.021 C 
BRANCH   2   3
ATOM      3  C   UNL     1       6.024   3.558   6.082  1.00  0.00     0.116 C 
BRANCH   3   4
ATOM      4  N   UNL     1       5.488   2.767   7.176  1.00  0.00    -0.352 N 
ATOM      5  C   UNL     1       4.237   2.301   7.504  1.00  0.00     0.255 C 
ATOM      6  O   UNL     1       4.114   1.989   8.686  1.00  0.00    -0.269 OA
ATOM      7  H   UNL     1       6.175   2.506   7.831  1.00  0.00     0.163 HD
BRANCH   5   8
ATOM      8  C   UNL     1       3.109   2.162   6.521  1.00  0.00     0.083 A 
ATOM      9  C   UNL     1       1.246   1.878   4.330  1.00  0.00     0.057 A 
ATOM     10  C   UNL     1       1.238   1.028   5.448  1.00  0.00     0.074 A 
ATOM     11  C   UNL     1       2.174   2.921   4.369  1.00  0.00     0.065 A 
ATOM     12  C   UNL     1       2.148   1.135   6.533  1.00  0.00     0.133 A 
ATOM     13  C   UNL     1       3.021   3.091   5.475  1.00  0.00     0.040 A 
ATOM     14  Cl  UNL     1       2.339   4.107   3.121  1.00  0.00    -0.082 Cl
BRANCH   9  15
ATOM     15  N   UNL     1       0.382   1.574   3.285  1.00  0.00    -0.381 N 
ATOM     16  H   UNL     1      -0.564   1.409   3.502  1.00  0.00     0.160 HD
BRANCH  15  17
ATOM     17  C   UNL     1       0.792   1.484   1.880  1.00  0.00     0.075 C 
ATOM     18  C   UNL     1       0.076   2.568   1.073  1.00  0.00     0.031 C 
BRANCH  17  19
ATOM     19  C   UNL     1       0.408   0.080   1.359  1.00  0.00     0.021 C 
ATOM     20  C   UNL     1       0.904  -0.207  -0.053  1.00  0.00     0.006 C 
ENDBRANCH  17  19
ENDBRANCH  15  17
ENDBRANCH   9  15
BRANCH  12  21
ATOM     21  O   UNL     1       1.970   0.080   7.388  1.00  0.00    -0.496 OA
ATOM     22  C   UNL     1       2.211   0.227   8.777  1.00  0.00     0.278 C 
ENDBRANCH  12  21
ENDBRANCH   5   8
ENDBRANCH   3   4
ENDBRANCH   2   3
ENDBRANCH   1   2
BRANCH   1  23
ATOM     23  C   UNL     1       8.458   5.191   7.118  1.00  0.00     0.002 C 
BRANCH  23  24
ATOM     24  C   UNL     1       8.855   5.793   5.769  1.00  0.00     0.021 C 
BRANCH  24  25
ATOM     25  C   UNL     1       8.717   7.310   5.706  1.00  0.00     0.116 C 
BRANCH  25  26
ATOM     26  N   UNL     1       9.645   7.961   6.617  1.00  0.00    -0.352 N 
ATOM     27  C   UNL     1      10.642   8.861   6.330  1.00  0.00     0.251 C 
ATOM     28  H   UNL     1       9.544   7.726   7.567  1.00  0.00     0.163 HD
ATOM     29  O   UNL     1      11.509   9.099   7.162  1.00  0.00    -0.269 OA
BRANCH  27  30
ATOM     30  C   UNL     1      10.662   9.521   5.008  1.00  0.00     0.039 A 
ATOM     31  C   UNL     1      11.871   9.636   4.321  1.00  0.00     0.014 A 
ATOM     32  C   UNL     1       9.482  10.025   4.451  1.00  0.00     0.014 A 
ATOM     33  C   UNL     1      11.888  10.211   3.049  1.00  0.00     0.010 A 
ATOM     34  C   UNL     1       9.488  10.525   3.153  1.00  0.00     0.010 A 
ATOM     35  C   UNL     1      10.693  10.632   2.442  1.00  0.00    -0.014 A 
BRANCH  35  36
ATOM     36  C   UNL     1      10.683  11.200   1.070  1.00  0.00     0.031 A 
ATOM     37  C   UNL     1      10.259  12.626   0.850  1.00  0.00     0.074 A 
ATOM     38  C   UNL     1      11.003  10.417   0.022  1.00  0.00     0.049 A 
ATOM     39  N   UNL     1      10.127  13.289  -0.271  1.00  0.00    -0.248 NA
ATOM     40  C   UNL     1       9.906  13.397   2.050  1.00  0.00     0.031 C 
ATOM     41  C   UNL     1      11.403   9.011   0.109  1.00  0.00     0.029 A 
ATOM     42  N   UNL     1      11.043  10.690  -1.321  1.00  0.00    -0.354 N 
ATOM     43  C   UNL     1       9.670  14.552   0.089  1.00  0.00     0.074 A 
ATOM     44  C   UNL     1       9.473  14.531   1.523  1.00  0.00     0.031 C 
ATOM     45  C   UNL     1      11.687   8.558  -1.122  1.00  0.00     0.029 A 
ATOM     46  C   UNL     1      11.440   9.621  -2.091  1.00  0.00     0.049 A 
ATOM     47  H   UNL     1      10.810  11.568  -1.700  1.00  0.00     0.167 HD
ATOM     48  C   UNL     1       9.461  15.637  -0.699  1.00  0.00     0.034 A 
ATOM     49  C   UNL     1      11.582   9.510  -3.426  1.00  0.00     0.034 A 
ATOM     50  C   UNL     1       9.659  15.634  -2.129  1.00  0.00     0.049 A 
ATOM     51  C   UNL     1      11.278  10.707  -4.291  1.00  0.00     0.074 A 
ATOM     52  C   UNL     1       9.522  16.682  -3.022  1.00  0.00     0.029 A 
ATOM     53  N   UNL     1      10.024  14.522  -2.880  1.00  0.00    -0.354 N 
ATOM     54  N   UNL     1      10.894  11.911  -3.933  1.00  0.00    -0.248 NA
ATOM     55  C   UNL     1      11.435  10.530  -5.739  1.00  0.00     0.031 C 
ATOM     56  C   UNL     1       9.723  16.187  -4.316  1.00  0.00     0.029 A 
ATOM     57  C   UNL     1      10.074  14.849  -4.227  1.00  0.00     0.049 A 
ATOM     58  H   UNL     1      10.218  13.631  -2.509  1.00  0.00     0.167 HD
ATOM     59  C   UNL     1      10.797  12.644  -5.114  1.00  0.00     0.074 A 
ATOM     60  C   UNL     1      11.176  11.749  -6.188  1.00  0.00     0.031 C 
ATOM     61  C   UNL     1      10.436  13.941  -5.292  1.00  0.00     0.034 A 
BRANCH  48  62
ATOM     62  C   UNL     1       8.964  16.895  -0.023  1.00  0.00     0.023 A 
ATOM     63  C   UNL     1       9.703  17.526   0.995  1.00  0.00     0.031 A 
ATOM     64  C   UNL     1       7.709  17.438  -0.351  1.00  0.00     0.131 A 
ATOM     65  C   UNL     1       9.140  18.589   1.717  1.00  0.00     0.055 A 
ATOM     66  C   UNL     1       7.197  18.561   0.304  1.00  0.00     0.041 A 
ATOM     67  F   UNL     1       6.945  16.872  -1.298  1.00  0.00    -0.206 F 
ATOM     68  C   UNL     1       7.903  19.129   1.361  1.00  0.00     0.022 A 
BRANCH  65  69
ATOM     69  S   UNL     1       9.960  19.123   3.245  1.00  0.00     0.124 S 
ATOM     70  O   UNL     1      10.009  17.875   4.004  1.00  0.00    -0.237 OA
ATOM     71  O   UNL     1      11.238  19.627   2.757  1.00  0.00    -0.237 OA
ATOM     72  O   UNL     1       9.053  20.134   3.784  1.00  0.00    -0.744 OA
ENDBRANCH  65  69
ENDBRANCH  48  62
BRANCH  49  73
ATOM     73  C   UNL     1      12.039   8.228  -4.033  1.00  0.00     0.023 A 
ATOM     74  C   UNL     1      13.261   8.157  -4.721  1.00  0.00     0.031 A 
ATOM     75  C   UNL     1      11.250   7.065  -3.968  1.00  0.00     0.131 A 
ATOM     76  C   UNL     1      13.640   6.964  -5.353  1.00  0.00     0.055 A 
ATOM     77  C   UNL     1      11.658   5.865  -4.553  1.00  0.00     0.041 A 
ATOM     78  F   UNL     1      10.074   7.077  -3.321  1.00  0.00    -0.206 F 
ATOM     79  C   UNL     1      12.854   5.813  -5.261  1.00  0.00     0.022 A 
BRANCH  76  80
ATOM     80  S   UNL     1      15.142   6.961  -6.369  1.00  0.00     0.124 S 
ATOM     81  O   UNL     1      14.832   7.986  -7.359  1.00  0.00    -0.237 OA
ATOM     82  O   UNL     1      16.170   7.301  -5.392  1.00  0.00    -0.237 OA
ATOM     83  O   UNL     1      15.202   5.594  -6.883  1.00  0.00    -0.744 OA
ENDBRANCH  76  80
ENDBRANCH  49  73
BRANCH  61  84
ATOM     84  C   UNL     1      10.478  14.475  -6.705  1.00  0.00     0.023 A 
ATOM     85  C   UNL     1       9.616  13.994  -7.706  1.00  0.00     0.031 A 
ATOM     86  C   UNL     1      11.408  15.470  -7.057  1.00  0.00     0.131 A 
ATOM     87  C   UNL     1       9.742  14.464  -9.023  1.00  0.00     0.055 A 
ATOM     88  C   UNL     1      11.482  15.983  -8.353  1.00  0.00     0.041 A 
ATOM     89  F   UNL     1      12.260  15.964  -6.144  1.00  0.00    -0.206 F 
ATOM     90  C   UNL     1      10.656  15.469  -9.348  1.00  0.00     0.022 A 
BRANCH  87  91
ATOM     91  S   UNL     1       8.764  13.670 -10.328  1.00  0.00     0.124 S 
ATOM     92  O   UNL     1       9.196  12.280 -10.227  1.00  0.00    -0.237 OA
ATOM     93  O   UNL     1       7.395  13.944  -9.904  1.00  0.00    -0.237 OA
ATOM     94  O   UNL     1       9.187  14.364 -11.543  1.00  0.00    -0.744 OA
ENDBRANCH  87  91
ENDBRANCH  61  84
ENDBRANCH  35  36
ENDBRANCH  27  30
ENDBRANCH  25  26
ENDBRANCH  24  25
ENDBRANCH  23  24
ENDBRANCH   1  23
TORSDOF 20
