REMARK SMILES CC(=O)NS(=O)(=O)c1ccc(-c2ccn(C(F)F)c(=O)c2)cc1C(=O)NCCCCCCNC(=O)c1ccc(-c2c3nc(c(-c4cc(S(=O)(=O)[O-])ccc4F)c4ccc([nH]4)c(-c4cc(S(=O)(=O)[O-])ccc4F)c4nc(c(-c5cc(S(=O)(=O)[O-])ccc5F)c5ccc2[nH]5)C=C4)C=C3)cc1
REMARK SMILES IDX 30 1 29 2 28 3 27 4 26 5 24 6 25 7 23 9 8 10 9 11 10 12
REMARK SMILES IDX 22 13 11 14 5 15 6 16 7 17 4 18 1 19 2 20 3 21 12 23 13 24
REMARK SMILES IDX 21 25 14 26 19 27 15 28 20 29 16 30 17 31 18 32 31 33 32 34
REMARK SMILES IDX 33 35 34 36 35 38 36 39 37 40 98 41 38 42 97 43 39 44 40 45
REMARK SMILES IDX 41 46 91 47 42 48 96 49 90 50 92 51 43 52 95 53 89 54 88 55
REMARK SMILES IDX 44 57 76 58 56 59 75 60 57 61 60 62 74 63 93 64 58 65 59 66
REMARK SMILES IDX 73 68 94 69 61 70 45 71 46 72 54 73 47 74 53 75 55 76 52 77
REMARK SMILES IDX 48 78 49 79 50 80 51 81 77 82 78 83 86 84 79 85 85 86 87 87
REMARK SMILES IDX 84 88 80 89 81 90 82 91 83 92 62 93 63 94 71 95 64 96 70 97
REMARK SMILES IDX 72 98 69 99 65 100 66 101 67 102 68 103
REMARK H PARENT 26 8 4 22 33 37 92 56 60 67
REMARK Flexibility Score: inf
ROOT
ATOM      1  C   UNL     1       3.363   5.947   1.556  1.00  0.00     0.002 C 
ENDROOT
BRANCH   1   2
ATOM      2  C   UNL     1       4.227   5.056   2.452  1.00  0.00     0.002 C 
BRANCH   2   3
ATOM      3  C   UNL     1       3.636   3.668   2.687  1.00  0.00     0.021 C 
BRANCH   3   4
ATOM      4  C   UNL     1       3.621   2.777   1.440  1.00  0.00     0.116 C 
BRANCH   4   5
ATOM      5  N   UNL     1       4.509   1.656   1.626  1.00  0.00    -0.352 N 
ATOM      6  C   UNL     1       4.442   0.345   1.975  1.00  0.00     0.252 C 
ATOM      7  O   UNL     1       5.561  -0.144   2.197  1.00  0.00    -0.269 OA
ATOM      8  H   UNL     1       5.440   1.919   1.446  1.00  0.00     0.163 HD
BRANCH   6   9
ATOM      9  C   UNL     1       3.291  -0.619   2.004  1.00  0.00     0.060 A 
ATOM     10  C   UNL     1       1.969  -0.563   2.475  1.00  0.00     0.100 A 
ATOM     11  C   UNL     1       1.212  -1.760   2.607  1.00  0.00     0.024 A 
ATOM     12  C   UNL     1       1.700  -2.996   2.220  1.00  0.00     0.010 A 
ATOM     13  C   UNL     1       3.733  -1.905   1.563  1.00  0.00     0.024 A 
ATOM     14  C   UNL     1       2.962  -3.072   1.661  1.00  0.00    -0.017 A 
BRANCH  10  15
ATOM     15  S   UNL     1       1.098   0.846   3.074  1.00  0.00     0.264 S 
ATOM     16  O   UNL     1       2.038   1.623   3.838  1.00  0.00    -0.201 OA
ATOM     17  O   UNL     1      -0.119   0.390   3.715  1.00  0.00    -0.201 OA
BRANCH  15  18
ATOM     18  N   UNL     1       0.590   1.738   1.779  1.00  0.00    -0.249 N 
ATOM     19  C   UNL     1       0.541   0.119  -0.164  1.00  0.00     0.115 C 
ATOM     20  C   UNL     1       0.302   1.471   0.432  1.00  0.00     0.230 C 
ATOM     21  O   UNL     1      -0.045   2.410  -0.273  1.00  0.00    -0.274 OA
ATOM     22  H   UNL     1       0.456   2.686   2.008  1.00  0.00     0.183 HD
ENDBRANCH  15  18
ENDBRANCH  10  15
BRANCH  14  23
ATOM     23  C   UNL     1       3.474  -4.373   1.213  1.00  0.00    -0.011 A 
ATOM     24  C   UNL     1       4.539  -5.084   1.889  1.00  0.00     0.027 A 
ATOM     25  C   UNL     1       2.877  -4.932   0.147  1.00  0.00     0.080 A 
ATOM     26  C   UNL     1       4.916  -6.295   1.462  1.00  0.00     0.095 A 
ATOM     27  C   UNL     1       3.289  -6.272  -0.342  1.00  0.00     0.255 A 
ATOM     28  N   UNL     1       4.307  -6.886   0.370  1.00  0.00    -0.258 N 
ATOM     29  O   UNL     1       2.711  -6.741  -1.316  1.00  0.00    -0.269 OA
BRANCH  28  30
ATOM     30  C   UNL     1       4.724  -8.183  -0.091  1.00  0.00     0.451 C 
ATOM     31  F   UNL     1       3.693  -9.062  -0.083  1.00  0.00    -0.185 F 
ATOM     32  F   UNL     1       5.207  -8.115  -1.356  1.00  0.00    -0.185 F 
ENDBRANCH  28  30
ENDBRANCH  14  23
ENDBRANCH   6   9
ENDBRANCH   4   5
ENDBRANCH   3   4
ENDBRANCH   2   3
ENDBRANCH   1   2
BRANCH   1  33
ATOM     33  C   UNL     1       1.920   6.150   2.034  1.00  0.00     0.021 C 
BRANCH  33  34
ATOM     34  C   UNL     1       1.786   6.658   3.468  1.00  0.00     0.116 C 
BRANCH  34  35
ATOM     35  N   UNL     1       2.485   7.919   3.652  1.00  0.00    -0.352 N 
ATOM     36  C   UNL     1       1.976   9.168   3.901  1.00  0.00     0.251 C 
ATOM     37  H   UNL     1       3.466   7.870   3.588  1.00  0.00     0.163 HD
ATOM     38  O   UNL     1       2.680  10.158   3.724  1.00  0.00    -0.269 OA
BRANCH  36  39
ATOM     39  C   UNL     1       0.584   9.314   4.375  1.00  0.00     0.039 A 
ATOM     40  C   UNL     1      -0.212  10.332   3.847  1.00  0.00     0.014 A 
ATOM     41  C   UNL     1       0.074   8.463   5.361  1.00  0.00     0.014 A 
ATOM     42  C   UNL     1      -1.536  10.464   4.271  1.00  0.00     0.010 A 
ATOM     43  C   UNL     1      -1.266   8.546   5.724  1.00  0.00     0.010 A 
ATOM     44  C   UNL     1      -2.084   9.553   5.190  1.00  0.00    -0.014 A 
BRANCH  44  45
ATOM     45  C   UNL     1      -3.506   9.647   5.609  1.00  0.00     0.031 A 
ATOM     46  C   UNL     1      -3.854   9.925   7.046  1.00  0.00     0.074 A 
ATOM     47  C   UNL     1      -4.481   9.427   4.705  1.00  0.00     0.049 A 
ATOM     48  N   UNL     1      -5.029   9.985   7.617  1.00  0.00    -0.248 NA
ATOM     49  C   UNL     1      -2.727  10.133   7.967  1.00  0.00     0.031 C 
ATOM     50  C   UNL     1      -4.265   9.111   3.292  1.00  0.00     0.029 A 
ATOM     51  N   UNL     1      -5.847   9.429   4.838  1.00  0.00    -0.354 N 
ATOM     52  C   UNL     1      -4.784  10.226   8.965  1.00  0.00     0.074 A 
ATOM     53  C   UNL     1      -3.346  10.231   9.133  1.00  0.00     0.031 C 
ATOM     54  C   UNL     1      -5.454   8.979   2.684  1.00  0.00     0.029 A 
ATOM     55  C   UNL     1      -6.516   9.146   3.670  1.00  0.00     0.049 A 
ATOM     56  H   UNL     1      -6.305   9.615   5.690  1.00  0.00     0.167 HD
ATOM     57  C   UNL     1      -5.676  10.447   9.964  1.00  0.00     0.034 A 
ATOM     58  C   UNL     1      -7.835   9.021   3.423  1.00  0.00     0.034 A 
ATOM     59  C   UNL     1      -7.107  10.436   9.773  1.00  0.00     0.049 A 
ATOM     60  C   UNL     1      -8.808   9.229   4.556  1.00  0.00     0.074 A 
ATOM     61  C   UNL     1      -8.102  10.698  10.699  1.00  0.00     0.029 A 
ATOM     62  N   UNL     1      -7.750  10.133   8.579  1.00  0.00    -0.354 N 
ATOM     63  N   UNL     1      -8.563   9.512   5.815  1.00  0.00    -0.248 NA
ATOM     64  C   UNL     1     -10.235   9.111   4.231  1.00  0.00     0.031 C 
ATOM     65  C   UNL     1      -9.340  10.470  10.089  1.00  0.00     0.029 A 
ATOM     66  C   UNL     1      -9.125  10.160   8.756  1.00  0.00     0.049 A 
ATOM     67  H   UNL     1      -7.295   9.928   7.730  1.00  0.00     0.167 HD
ATOM     68  C   UNL     1      -9.808   9.637   6.425  1.00  0.00     0.074 A 
ATOM     69  C   UNL     1     -10.799   9.413   5.392  1.00  0.00     0.031 C 
ATOM     70  C   UNL     1     -10.105   9.918   7.721  1.00  0.00     0.034 A 
BRANCH  57  71
ATOM     71  C   UNL     1      -5.121  10.680  11.352  1.00  0.00     0.023 A 
ATOM     72  C   UNL     1      -4.264  11.759  11.636  1.00  0.00     0.031 A 
ATOM     73  C   UNL     1      -5.420   9.790  12.399  1.00  0.00     0.131 A 
ATOM     74  C   UNL     1      -3.666  11.867  12.901  1.00  0.00     0.055 A 
ATOM     75  C   UNL     1      -4.896   9.958  13.683  1.00  0.00     0.041 A 
ATOM     76  F   UNL     1      -6.214   8.728  12.189  1.00  0.00    -0.206 F 
ATOM     77  C   UNL     1      -3.998  10.990  13.935  1.00  0.00     0.022 A 
BRANCH  74  78
ATOM     78  S   UNL     1      -2.319  13.063  13.120  1.00  0.00     0.124 S 
ATOM     79  O   UNL     1      -1.378  12.639  12.087  1.00  0.00    -0.237 OA
ATOM     80  O   UNL     1      -2.989  14.338  12.892  1.00  0.00    -0.237 OA
ATOM     81  O   UNL     1      -1.873  12.828  14.492  1.00  0.00    -0.744 OA
ENDBRANCH  74  78
ENDBRANCH  57  71
BRANCH  58  82
ATOM     82  C   UNL     1      -8.313   8.669   2.055  1.00  0.00     0.023 A 
ATOM     83  C   UNL     1      -9.097   9.562   1.308  1.00  0.00     0.031 A 
ATOM     84  C   UNL     1      -8.012   7.419   1.483  1.00  0.00     0.131 A 
ATOM     85  C   UNL     1      -9.587   9.179   0.049  1.00  0.00     0.055 A 
ATOM     86  C   UNL     1      -8.454   7.065   0.207  1.00  0.00     0.041 A 
ATOM     87  F   UNL     1      -7.264   6.528   2.153  1.00  0.00    -0.206 F 
ATOM     88  C   UNL     1      -9.257   7.943  -0.513  1.00  0.00     0.022 A 
BRANCH  85  89
ATOM     89  S   UNL     1     -10.733  10.289  -0.813  1.00  0.00     0.124 S 
ATOM     90  O   UNL     1     -11.820  10.401   0.153  1.00  0.00    -0.237 OA
ATOM     91  O   UNL     1      -9.915  11.483  -1.001  1.00  0.00    -0.237 OA
ATOM     92  O   UNL     1     -11.058   9.559  -2.037  1.00  0.00    -0.744 OA
ENDBRANCH  85  89
ENDBRANCH  58  82
BRANCH  70  93
ATOM     93  C   UNL     1     -11.568  10.042   8.080  1.00  0.00     0.023 A 
ATOM     94  C   UNL     1     -12.447   8.948   8.009  1.00  0.00     0.031 A 
ATOM     95  C   UNL     1     -12.090  11.282   8.491  1.00  0.00     0.131 A 
ATOM     96  C   UNL     1     -13.811   9.127   8.287  1.00  0.00     0.055 A 
ATOM     97  C   UNL     1     -13.433  11.438   8.835  1.00  0.00     0.041 A 
ATOM     98  F   UNL     1     -11.299  12.365   8.572  1.00  0.00    -0.206 F 
ATOM     99  C   UNL     1     -14.306  10.361   8.720  1.00  0.00     0.022 A 
BRANCH  96 100
ATOM    100  S   UNL     1     -14.953   7.753   7.973  1.00  0.00     0.124 S 
ATOM    101  O   UNL     1     -14.729   7.491   6.555  1.00  0.00    -0.237 OA
ATOM    102  O   UNL     1     -14.471   6.729   8.895  1.00  0.00    -0.237 OA
ATOM    103  O   UNL     1     -16.263   8.314   8.301  1.00  0.00    -0.744 OA
ENDBRANCH  96 100
ENDBRANCH  70  93
ENDBRANCH  44  45
ENDBRANCH  36  39
ENDBRANCH  34  35
ENDBRANCH  33  34
ENDBRANCH   1  33
TORSDOF 20
