REMARK SMILES O=C(NCCCCCCNC(=O)c1cnc(OCC2CC2)c(Cl)c1)c1ccc(-c2c3nc(c(-c4cc(S(=O)(=O)[O-])ccc4F)c4ccc([nH]4)c(-c4cc(S(=O)(=O)[O-])ccc4F)c4nc(c(-c5cc(S(=O)(=O)[O-])ccc5F)c5ccc2[nH]5)C=C4)C=C3)cc1
REMARK SMILES IDX 6 1 5 2 4 3 3 4 1 5 2 6 25 8 26 9 87 10 27 11 86 12 28 13
REMARK SMILES IDX 29 14 30 15 80 16 31 17 85 18 79 19 81 20 32 21 84 22 78 23
REMARK SMILES IDX 77 24 33 26 65 27 45 28 64 29 46 30 49 31 63 32 82 33 47 34
REMARK SMILES IDX 48 35 62 37 83 38 50 39 34 40 35 41 43 42 36 43 42 44 44 45
REMARK SMILES IDX 41 46 37 47 38 48 39 49 40 50 66 51 67 52 75 53 68 54 74 55
REMARK SMILES IDX 76 56 73 57 69 58 70 59 71 60 72 61 51 62 52 63 60 64 53 65
REMARK SMILES IDX 59 66 61 67 58 68 54 69 55 70 56 71 57 72 7 73 8 74 9 75
REMARK SMILES IDX 10 76 11 77 12 79 13 80 14 81 24 82 15 83 22 84 16 85 23 86
REMARK SMILES IDX 17 87 18 88 19 89 20 90 21 91
REMARK H PARENT 3 7 81 25 49 36 10 78
REMARK Flexibility Score: inf
ROOT
ATOM      1  C   UNL     1       4.140   2.080  -3.525  1.00  0.00     0.002 C 
ENDROOT
BRANCH   1   2
ATOM      2  C   UNL     1       4.567   0.789  -2.829  1.00  0.00     0.021 C 
BRANCH   2   3
ATOM      3  C   UNL     1       4.356   0.770  -1.321  1.00  0.00     0.116 C 
BRANCH   3   4
ATOM      4  N   UNL     1       2.951   0.799  -0.942  1.00  0.00    -0.352 N 
ATOM      5  O   UNL     1       1.076   0.075   0.090  1.00  0.00    -0.269 OA
ATOM      6  C   UNL     1       2.297   0.014  -0.019  1.00  0.00     0.251 C 
ATOM      7  H   UNL     1       2.396   1.466  -1.406  1.00  0.00     0.163 HD
BRANCH   6   8
ATOM      8  C   UNL     1       3.078  -0.922   0.822  1.00  0.00     0.039 A 
ATOM      9  C   UNL     1       4.264  -0.502   1.427  1.00  0.00     0.014 A 
ATOM     10  C   UNL     1       2.632  -2.237   0.990  1.00  0.00     0.014 A 
ATOM     11  C   UNL     1       5.076  -1.429   2.066  1.00  0.00     0.010 A 
ATOM     12  C   UNL     1       3.408  -3.147   1.718  1.00  0.00     0.010 A 
ATOM     13  C   UNL     1       4.652  -2.758   2.238  1.00  0.00    -0.014 A 
BRANCH  13  14
ATOM     14  C   UNL     1       5.509  -3.679   3.031  1.00  0.00     0.031 A 
ATOM     15  C   UNL     1       6.158  -4.884   2.408  1.00  0.00     0.074 A 
ATOM     16  C   UNL     1       5.753  -3.365   4.319  1.00  0.00     0.049 A 
ATOM     17  N   UNL     1       6.990  -5.740   2.946  1.00  0.00    -0.248 NA
ATOM     18  C   UNL     1       5.826  -5.174   1.005  1.00  0.00     0.031 C 
ATOM     19  C   UNL     1       5.160  -2.228   5.031  1.00  0.00     0.029 A 
ATOM     20  N   UNL     1       6.581  -3.939   5.249  1.00  0.00    -0.354 N 
ATOM     21  C   UNL     1       7.280  -6.672   1.955  1.00  0.00     0.074 A 
ATOM     22  C   UNL     1       6.502  -6.295   0.792  1.00  0.00     0.031 C 
ATOM     23  C   UNL     1       5.690  -2.151   6.259  1.00  0.00     0.029 A 
ATOM     24  C   UNL     1       6.604  -3.270   6.451  1.00  0.00     0.049 A 
ATOM     25  H   UNL     1       7.108  -4.752   5.073  1.00  0.00     0.167 HD
ATOM     26  C   UNL     1       8.123  -7.734   2.010  1.00  0.00     0.034 A 
ATOM     27  C   UNL     1       7.273  -3.532   7.589  1.00  0.00     0.034 A 
ATOM     28  C   UNL     1       8.886  -8.098   3.182  1.00  0.00     0.049 A 
ATOM     29  C   UNL     1       8.192  -4.722   7.623  1.00  0.00     0.074 A 
ATOM     30  C   UNL     1       9.768  -9.154   3.347  1.00  0.00     0.029 A 
ATOM     31  N   UNL     1       8.859  -7.418   4.395  1.00  0.00    -0.354 N 
ATOM     32  N   UNL     1       8.456  -5.587   6.671  1.00  0.00    -0.248 NA
ATOM     33  C   UNL     1       8.907  -4.967   8.880  1.00  0.00     0.031 C 
ATOM     34  C   UNL     1      10.227  -9.145   4.669  1.00  0.00     0.029 A 
ATOM     35  C   UNL     1       9.690  -8.043   5.314  1.00  0.00     0.049 A 
ATOM     36  H   UNL     1       8.326  -6.610   4.575  1.00  0.00     0.167 HD
ATOM     37  C   UNL     1       9.372  -6.479   7.217  1.00  0.00     0.074 A 
ATOM     38  C   UNL     1       9.647  -6.018   8.563  1.00  0.00     0.031 C 
ATOM     39  C   UNL     1       9.928  -7.587   6.663  1.00  0.00     0.034 A 
BRANCH  26  40
ATOM     40  C   UNL     1       8.238  -8.599   0.776  1.00  0.00     0.023 A 
ATOM     41  C   UNL     1       8.793  -8.110  -0.419  1.00  0.00     0.031 A 
ATOM     42  C   UNL     1       7.789  -9.932   0.796  1.00  0.00     0.131 A 
ATOM     43  C   UNL     1       8.836  -8.929  -1.559  1.00  0.00     0.055 A 
ATOM     44  C   UNL     1       7.898 -10.763  -0.321  1.00  0.00     0.041 A 
ATOM     45  F   UNL     1       7.233 -10.449   1.903  1.00  0.00    -0.206 F 
ATOM     46  C   UNL     1       8.414 -10.259  -1.512  1.00  0.00     0.022 A 
BRANCH  43  47
ATOM     47  S   UNL     1       9.350  -8.196  -3.137  1.00  0.00     0.124 S 
ATOM     48  O   UNL     1       8.348  -7.147  -3.317  1.00  0.00    -0.237 OA
ATOM     49  O   UNL     1      10.705  -7.739  -2.848  1.00  0.00    -0.237 OA
ATOM     50  O   UNL     1       9.254  -9.308  -4.080  1.00  0.00    -0.744 OA
ENDBRANCH  43  47
ENDBRANCH  26  40
BRANCH  27  51
ATOM     51  C   UNL     1       7.069  -2.679   8.794  1.00  0.00     0.023 A 
ATOM     52  C   UNL     1       8.123  -1.944   9.356  1.00  0.00     0.031 A 
ATOM     53  C   UNL     1       5.812  -2.616   9.423  1.00  0.00     0.131 A 
ATOM     54  C   UNL     1       7.913  -1.214  10.536  1.00  0.00     0.055 A 
ATOM     55  C   UNL     1       5.593  -1.840  10.562  1.00  0.00     0.041 A 
ATOM     56  F   UNL     1       4.767  -3.297   8.925  1.00  0.00    -0.206 F 
ATOM     57  C   UNL     1       6.652  -1.145  11.134  1.00  0.00     0.022 A 
BRANCH  54  58
ATOM     58  S   UNL     1       9.339  -0.430  11.337  1.00  0.00     0.124 S 
ATOM     59  O   UNL     1      10.252  -1.556  11.492  1.00  0.00    -0.237 OA
ATOM     60  O   UNL     1       9.723   0.576  10.351  1.00  0.00    -0.237 OA
ATOM     61  O   UNL     1       8.783   0.099  12.580  1.00  0.00    -0.744 OA
ENDBRANCH  54  58
ENDBRANCH  27  51
BRANCH  39  62
ATOM     62  C   UNL     1      10.896  -8.354   7.530  1.00  0.00     0.023 A 
ATOM     63  C   UNL     1      10.469  -9.009   8.699  1.00  0.00     0.031 A 
ATOM     64  C   UNL     1      12.266  -8.380   7.217  1.00  0.00     0.131 A 
ATOM     65  C   UNL     1      11.413  -9.597   9.554  1.00  0.00     0.055 A 
ATOM     66  C   UNL     1      13.192  -9.023   8.039  1.00  0.00     0.041 A 
ATOM     67  F   UNL     1      12.728  -7.769   6.114  1.00  0.00    -0.206 F 
ATOM     68  C   UNL     1      12.770  -9.620   9.224  1.00  0.00     0.022 A 
BRANCH  65  69
ATOM     69  S   UNL     1      10.854 -10.223  11.162  1.00  0.00     0.124 S 
ATOM     70  O   UNL     1      10.238  -9.039  11.752  1.00  0.00    -0.237 OA
ATOM     71  O   UNL     1       9.940 -11.294  10.779  1.00  0.00    -0.237 OA
ATOM     72  O   UNL     1      12.091 -10.665  11.805  1.00  0.00    -0.744 OA
ENDBRANCH  65  69
ENDBRANCH  39  62
ENDBRANCH  13  14
ENDBRANCH   6   8
ENDBRANCH   3   4
ENDBRANCH   2   3
ENDBRANCH   1   2
BRANCH   1  73
ATOM     73  C   UNL     1       4.792   3.361  -2.994  1.00  0.00     0.002 C 
BRANCH  73  74
ATOM     74  C   UNL     1       6.325   3.354  -2.945  1.00  0.00     0.021 C 
BRANCH  74  75
ATOM     75  C   UNL     1       7.011   3.063  -4.280  1.00  0.00     0.116 C 
BRANCH  75  76
ATOM     76  N   UNL     1       6.707   4.094  -5.262  1.00  0.00    -0.352 N 
ATOM     77  C   UNL     1       7.578   4.873  -5.969  1.00  0.00     0.252 C 
ATOM     78  H   UNL     1       5.751   4.248  -5.440  1.00  0.00     0.163 HD
ATOM     79  O   UNL     1       7.187   5.817  -6.656  1.00  0.00    -0.269 OA
BRANCH  77  80
ATOM     80  C   UNL     1       9.002   4.552  -5.933  1.00  0.00     0.059 A 
ATOM     81  C   UNL     1       9.884   5.355  -5.237  1.00  0.00     0.129 A 
ATOM     82  C   UNL     1       9.493   3.461  -6.643  1.00  0.00     0.041 A 
ATOM     83  N   UNL     1      11.209   5.090  -5.152  1.00  0.00    -0.220 NA
ATOM     84  C   UNL     1      10.863   3.198  -6.617  1.00  0.00     0.104 A 
ATOM     85  C   UNL     1      11.682   4.002  -5.817  1.00  0.00     0.232 A 
ATOM     86  Cl  UNL     1      11.428   1.947  -7.660  1.00  0.00    -0.078 Cl
BRANCH  85  87
ATOM     87  O   UNL     1      13.034   3.876  -5.693  1.00  0.00    -0.476 OA
BRANCH  87  88
ATOM     88  C   UNL     1      13.541   2.605  -5.269  1.00  0.00     0.235 C 
BRANCH  88  89
ATOM     89  C   UNL     1      13.005   2.136  -3.951  1.00  0.00     0.027 C 
ATOM     90  C   UNL     1      11.741   1.322  -3.802  1.00  0.00     0.007 C 
ATOM     91  C   UNL     1      13.077   0.658  -3.642  1.00  0.00     0.007 C 
ENDBRANCH  88  89
ENDBRANCH  87  88
ENDBRANCH  85  87
ENDBRANCH  77  80
ENDBRANCH  75  76
ENDBRANCH  74  75
ENDBRANCH  73  74
ENDBRANCH   1  73
TORSDOF 19
