REMARK SMILES Cc1ccc(-c2nn(-c3ccccc3)cc2[C@@H]2[NH2+][C@H](C(=O)NCCCCCCNC(=O)c3ccc(-c4c5nc(c(-c6cc(S(=O)(=O)[O-])ccc6F)c6ccc([nH]6)c(-c6cc(S(=O)(=O)[O-])ccc6F)c6nc(c(-c7cc(S(=O)(=O)[O-])ccc7F)c7ccc4[nH]7)C=C6)C=C5)cc3)CS2)cc1
REMARK SMILES IDX 26 1 25 2 24 3 23 4 22 5 20 6 21 7 19 9 17 10 18 11 96 12
REMARK SMILES IDX 95 15 16 16 6 17 7 18 8 19 15 20 5 21 1 22 2 23 3 24 98 25
REMARK SMILES IDX 4 26 97 27 9 28 10 29 14 30 11 31 13 32 12 33 27 34 28 35
REMARK SMILES IDX 29 36 30 37 31 39 32 40 33 41 94 42 34 43 93 44 35 45 36 46
REMARK SMILES IDX 37 47 87 48 38 49 92 50 86 51 88 52 39 53 91 54 85 55 84 56
REMARK SMILES IDX 40 58 72 59 52 60 71 61 53 62 56 63 70 64 89 65 54 66 55 67
REMARK SMILES IDX 69 69 90 70 57 71 41 72 42 73 50 74 43 75 49 76 51 77 48 78
REMARK SMILES IDX 44 79 45 80 46 81 47 82 73 83 74 84 82 85 75 86 81 87 83 88
REMARK SMILES IDX 80 89 76 90 77 91 78 92 79 93 58 94 59 95 67 96 60 97 66 98
REMARK SMILES IDX 68 99 65 100 61 101 62 102 63 103 64 104
REMARK H PARENT 22 8 18 13 18 14 29 38 88 57 56 68
REMARK Flexibility Score: inf
ROOT
ATOM      1  C   UNL     1      -5.843  -0.263  -3.507  1.00  0.00     0.002 C 
ENDROOT
BRANCH   1   2
ATOM      2  C   UNL     1      -4.849  -1.435  -3.436  1.00  0.00     0.002 C 
BRANCH   2   3
ATOM      3  C   UNL     1      -4.230  -1.956  -2.120  1.00  0.00     0.021 C 
BRANCH   3   4
ATOM      4  C   UNL     1      -4.922  -1.796  -0.767  1.00  0.00     0.116 C 
BRANCH   4   5
ATOM      5  N   UNL     1      -5.810  -2.848  -0.298  1.00  0.00    -0.351 N 
ATOM      6  C   UNL     1      -6.138  -3.246   0.972  1.00  0.00     0.279 C 
ATOM      7  O   UNL     1      -7.167  -3.936   1.071  1.00  0.00    -0.268 OA
ATOM      8  H   UNL     1      -6.249  -3.362  -1.014  1.00  0.00     0.163 HD
BRANCH   6   9
ATOM      9  C   UNL     1      -5.346  -2.979   2.288  1.00  0.00     0.283 C 
ATOM     10  C   UNL     1      -4.063  -1.015   2.914  1.00  0.00     0.278 C 
ATOM     11  N   UNL     1      -4.045  -2.281   2.178  1.00  0.00    -0.320 N 
ATOM     12  S   UNL     1      -5.148  -1.285   4.331  1.00  0.00    -0.087 SA
ATOM     13  H   UNL     1      -3.313  -2.879   2.562  1.00  0.00     0.348 HD
ATOM     14  H   UNL     1      -3.866  -2.081   1.194  1.00  0.00     0.348 HD
ATOM     15  C   UNL     1      -6.240  -2.369   3.376  1.00  0.00     0.151 C 
BRANCH  10  16
ATOM     16  C   UNL     1      -4.517   0.071   1.992  1.00  0.00     0.067 A 
ATOM     17  C   UNL     1      -3.740   0.833   1.039  1.00  0.00     0.103 A 
ATOM     18  N   UNL     1      -4.526   1.754   0.427  1.00  0.00    -0.167 NA
ATOM     19  N   UNL     1      -5.791   1.400   0.765  1.00  0.00    -0.240 N 
ATOM     20  C   UNL     1      -5.808   0.523   1.806  1.00  0.00     0.126 A 
BRANCH  17  21
ATOM     21  C   UNL     1      -2.304   0.671   0.691  1.00  0.00     0.003 A 
ATOM     22  C   UNL     1       1.924   0.145  -0.215  1.00  0.00     0.044 C 
ATOM     23  C   UNL     1       0.464   0.346   0.079  1.00  0.00    -0.051 A 
ATOM     24  C   UNL     1      -0.338  -0.762   0.329  1.00  0.00     0.004 A 
ATOM     25  C   UNL     1      -0.132   1.613   0.086  1.00  0.00     0.004 A 
ATOM     26  C   UNL     1      -1.694  -0.596   0.631  1.00  0.00     0.011 A 
ATOM     27  C   UNL     1      -1.500   1.772   0.381  1.00  0.00     0.011 A 
ENDBRANCH  17  21
BRANCH  19  28
ATOM     28  C   UNL     1      -6.940   1.743   0.013  1.00  0.00     0.065 A 
ATOM     29  C   UNL     1      -7.761   0.712  -0.485  1.00  0.00     0.028 A 
ATOM     30  C   UNL     1      -7.255   3.074  -0.242  1.00  0.00     0.028 A 
ATOM     31  C   UNL     1      -8.841   1.014  -1.312  1.00  0.00     0.002 A 
ATOM     32  C   UNL     1      -8.397   3.369  -0.996  1.00  0.00     0.002 A 
ATOM     33  C   UNL     1      -9.168   2.344  -1.555  1.00  0.00     0.000 A 
ENDBRANCH  19  28
ENDBRANCH  10  16
ENDBRANCH   6   9
ENDBRANCH   4   5
ENDBRANCH   3   4
ENDBRANCH   2   3
ENDBRANCH   1   2
BRANCH   1  34
ATOM     34  C   UNL     1      -5.410   1.122  -3.031  1.00  0.00     0.021 C 
BRANCH  34  35
ATOM     35  C   UNL     1      -4.617   1.993  -4.005  1.00  0.00     0.116 C 
BRANCH  35  36
ATOM     36  N   UNL     1      -5.402   2.977  -4.773  1.00  0.00    -0.352 N 
ATOM     37  C   UNL     1      -4.932   4.042  -5.547  1.00  0.00     0.251 C 
ATOM     38  H   UNL     1      -6.380   2.871  -4.735  1.00  0.00     0.163 HD
ATOM     39  O   UNL     1      -5.649   4.822  -6.127  1.00  0.00    -0.269 OA
BRANCH  37  40
ATOM     40  C   UNL     1      -3.461   4.119  -5.730  1.00  0.00     0.039 A 
ATOM     41  C   UNL     1      -2.975   3.628  -6.946  1.00  0.00     0.014 A 
ATOM     42  C   UNL     1      -2.661   4.183  -4.594  1.00  0.00     0.014 A 
ATOM     43  C   UNL     1      -1.796   2.896  -6.941  1.00  0.00     0.010 A 
ATOM     44  C   UNL     1      -1.538   3.379  -4.570  1.00  0.00     0.010 A 
ATOM     45  C   UNL     1      -1.171   2.658  -5.717  1.00  0.00    -0.014 A 
BRANCH  45  46
ATOM     46  C   UNL     1      -0.229   1.561  -5.521  1.00  0.00     0.031 A 
ATOM     47  C   UNL     1       1.202   1.855  -5.343  1.00  0.00     0.074 A 
ATOM     48  C   UNL     1      -0.640   0.273  -5.516  1.00  0.00     0.049 A 
ATOM     49  N   UNL     1       2.153   1.020  -5.589  1.00  0.00    -0.248 NA
ATOM     50  C   UNL     1       1.680   3.178  -4.969  1.00  0.00     0.031 C 
ATOM     51  C   UNL     1       0.129  -0.896  -5.098  1.00  0.00     0.029 A 
ATOM     52  N   UNL     1      -1.766  -0.261  -6.137  1.00  0.00    -0.354 N 
ATOM     53  C   UNL     1       3.327   1.578  -5.147  1.00  0.00     0.074 A 
ATOM     54  C   UNL     1       2.993   2.957  -4.891  1.00  0.00     0.031 C 
ATOM     55  C   UNL     1      -0.393  -1.990  -5.673  1.00  0.00     0.029 A 
ATOM     56  C   UNL     1      -1.438  -1.556  -6.581  1.00  0.00     0.049 A 
ATOM     57  H   UNL     1      -2.636   0.188  -6.247  1.00  0.00     0.167 HD
ATOM     58  C   UNL     1       4.401   0.765  -4.930  1.00  0.00     0.034 A 
ATOM     59  C   UNL     1      -1.531  -1.892  -7.900  1.00  0.00     0.034 A 
ATOM     60  C   UNL     1       4.164  -0.592  -5.445  1.00  0.00     0.049 A 
ATOM     61  C   UNL     1      -0.206  -2.260  -8.546  1.00  0.00     0.074 A 
ATOM     62  C   UNL     1       3.888  -1.825  -4.876  1.00  0.00     0.029 A 
ATOM     63  N   UNL     1       3.961  -0.756  -6.806  1.00  0.00    -0.354 N 
ATOM     64  N   UNL     1       0.944  -2.268  -7.929  1.00  0.00    -0.248 NA
ATOM     65  C   UNL     1      -0.067  -2.557  -9.973  1.00  0.00     0.031 C 
ATOM     66  C   UNL     1       3.505  -2.723  -5.919  1.00  0.00     0.029 A 
ATOM     67  C   UNL     1       3.569  -2.042  -7.121  1.00  0.00     0.049 A 
ATOM     68  H   UNL     1       4.083  -0.040  -7.470  1.00  0.00     0.167 HD
ATOM     69  C   UNL     1       1.952  -2.453  -8.843  1.00  0.00     0.074 A 
ATOM     70  C   UNL     1       1.267  -2.653 -10.107  1.00  0.00     0.031 C 
ATOM     71  C   UNL     1       3.275  -2.365  -8.511  1.00  0.00     0.034 A 
BRANCH  58  72
ATOM     72  C   UNL     1       5.584   1.110  -4.042  1.00  0.00     0.023 A 
ATOM     73  C   UNL     1       6.385   0.056  -3.555  1.00  0.00     0.031 A 
ATOM     74  C   UNL     1       5.944   2.388  -3.566  1.00  0.00     0.131 A 
ATOM     75  C   UNL     1       7.391   0.271  -2.593  1.00  0.00     0.055 A 
ATOM     76  C   UNL     1       6.925   2.602  -2.589  1.00  0.00     0.041 A 
ATOM     77  F   UNL     1       5.409   3.515  -4.037  1.00  0.00    -0.206 F 
ATOM     78  C   UNL     1       7.648   1.539  -2.085  1.00  0.00     0.022 A 
BRANCH  75  79
ATOM     79  S   UNL     1       8.345  -1.143  -1.986  1.00  0.00     0.124 S 
ATOM     80  O   UNL     1       7.306  -1.982  -1.398  1.00  0.00    -0.237 OA
ATOM     81  O   UNL     1       8.970  -1.639  -3.206  1.00  0.00    -0.237 OA
ATOM     82  O   UNL     1       9.267  -0.539  -1.023  1.00  0.00    -0.744 OA
ENDBRANCH  75  79
ENDBRANCH  58  72
BRANCH  59  83
ATOM     83  C   UNL     1      -2.665  -1.205  -8.582  1.00  0.00     0.023 A 
ATOM     84  C   UNL     1      -3.974  -1.515  -8.152  1.00  0.00     0.031 A 
ATOM     85  C   UNL     1      -2.471  -0.022  -9.308  1.00  0.00     0.131 A 
ATOM     86  C   UNL     1      -5.011  -0.589  -8.332  1.00  0.00     0.055 A 
ATOM     87  C   UNL     1      -3.517   0.885  -9.511  1.00  0.00     0.041 A 
ATOM     88  F   UNL     1      -1.244   0.337  -9.714  1.00  0.00    -0.206 F 
ATOM     89  C   UNL     1      -4.781   0.624  -8.985  1.00  0.00     0.022 A 
BRANCH  86  90
ATOM     90  S   UNL     1      -6.622  -0.857  -7.535  1.00  0.00     0.124 S 
ATOM     91  O   UNL     1      -7.455  -1.265  -8.661  1.00  0.00    -0.237 OA
ATOM     92  O   UNL     1      -6.343  -1.899  -6.550  1.00  0.00    -0.237 OA
ATOM     93  O   UNL     1      -6.924   0.455  -6.968  1.00  0.00    -0.744 OA
ENDBRANCH  86  90
ENDBRANCH  59  83
BRANCH  71  94
ATOM     94  C   UNL     1       4.401  -2.543  -9.503  1.00  0.00     0.023 A 
ATOM     95  C   UNL     1       4.367  -3.523 -10.509  1.00  0.00     0.031 A 
ATOM     96  C   UNL     1       5.589  -1.781  -9.417  1.00  0.00     0.131 A 
ATOM     97  C   UNL     1       5.444  -3.671 -11.405  1.00  0.00     0.055 A 
ATOM     98  C   UNL     1       6.690  -1.990 -10.252  1.00  0.00     0.041 A 
ATOM     99  F   UNL     1       5.717  -0.768  -8.548  1.00  0.00    -0.206 F 
ATOM    100  C   UNL     1       6.618  -2.934 -11.263  1.00  0.00     0.022 A 
BRANCH  97 101
ATOM    101  S   UNL     1       5.257  -4.795 -12.814  1.00  0.00     0.124 S 
ATOM    102  O   UNL     1       4.884  -6.052 -12.174  1.00  0.00    -0.237 OA
ATOM    103  O   UNL     1       4.203  -4.135 -13.580  1.00  0.00    -0.237 OA
ATOM    104  O   UNL     1       6.577  -4.784 -13.443  1.00  0.00    -0.744 OA
ENDBRANCH  97 101
ENDBRANCH  71  94
ENDBRANCH  45  46
ENDBRANCH  37  40
ENDBRANCH  35  36
ENDBRANCH  34  35
ENDBRANCH   1  34
TORSDOF 19
