REMARK SMILES O=C(NCCCCCCNC(=O)c1ccccc1Nc1cccc(S(F)(F)(F)(F)F)c1)c1ccc(-c2c3nc(c(-c4cc(S(=O)(=O)[O-])ccc4F)c4ccc([nH]4)c(-c4cc(S(=O)(=O)[O-])ccc4F)c4nc(c(-c5cc(S(=O)(=O)[O-])ccc5F)c5ccc2[nH]5)C=C4)C=C3)cc1
REMARK SMILES IDX 6 1 5 2 4 3 3 4 1 5 2 6 32 8 33 9 94 10 34 11 93 12 35 13
REMARK SMILES IDX 36 14 37 15 87 16 38 17 92 18 86 19 88 20 39 21 91 22 85 23
REMARK SMILES IDX 84 24 40 26 72 27 52 28 71 29 53 30 56 31 70 32 89 33 54 34
REMARK SMILES IDX 55 35 69 37 90 38 57 39 41 40 42 41 50 42 43 43 49 44 51 45
REMARK SMILES IDX 48 46 44 47 45 48 46 49 47 50 73 51 74 52 82 53 75 54 81 55
REMARK SMILES IDX 83 56 80 57 76 58 77 59 78 60 79 61 58 62 59 63 67 64 60 65
REMARK SMILES IDX 66 66 68 67 65 68 61 69 62 70 63 71 64 72 7 73 8 74 9 75
REMARK SMILES IDX 10 76 11 77 12 79 13 80 14 81 18 82 15 83 17 84 16 85 19 86
REMARK SMILES IDX 20 88 21 89 31 90 22 91 24 92 23 93 25 94 26 95 27 96 28 97
REMARK SMILES IDX 29 98 30 99
REMARK H PARENT 3 7 88 25 56 36 10 78 19 87
REMARK Flexibility Score: inf
ROOT
ATOM      1  C   UNL     1       4.408  -3.209  -1.600  1.00  0.00     0.002 C 
ENDROOT
BRANCH   1   2
ATOM      2  C   UNL     1       4.915  -2.207  -0.575  1.00  0.00     0.021 C 
BRANCH   2   3
ATOM      3  C   UNL     1       4.408  -0.819  -0.930  1.00  0.00     0.116 C 
BRANCH   3   4
ATOM      4  N   UNL     1       2.938  -0.819  -0.930  1.00  0.00    -0.352 N 
ATOM      5  O   UNL     1       0.932   0.071  -0.019  1.00  0.00    -0.269 OA
ATOM      6  C   UNL     1       2.203   0.071  -0.019  1.00  0.00     0.251 C 
ATOM      7  H   UNL     1       2.446  -1.415  -1.540  1.00  0.00     0.163 HD
BRANCH   6   8
ATOM      8  C   UNL     1       2.963   0.991   0.922  1.00  0.00     0.039 A 
ATOM      9  C   UNL     1       4.124   1.640   0.534  1.00  0.00     0.014 A 
ATOM     10  C   UNL     1       2.533   1.043   2.177  1.00  0.00     0.014 A 
ATOM     11  C   UNL     1       4.922   2.083   1.615  1.00  0.00     0.010 A 
ATOM     12  C   UNL     1       3.306   1.613   3.159  1.00  0.00     0.010 A 
ATOM     13  C   UNL     1       4.493   2.220   2.856  1.00  0.00    -0.014 A 
BRANCH  13  14
ATOM     14  C   UNL     1       5.277   3.009   3.892  1.00  0.00     0.031 A 
ATOM     15  C   UNL     1       5.678   2.284   5.015  1.00  0.00     0.074 A 
ATOM     16  C   UNL     1       5.649   4.319   3.643  1.00  0.00     0.049 A 
ATOM     17  N   UNL     1       6.486   2.686   5.997  1.00  0.00    -0.248 NA
ATOM     18  C   UNL     1       5.255   0.904   5.299  1.00  0.00     0.031 C 
ATOM     19  C   UNL     1       5.256   5.055   2.508  1.00  0.00     0.029 A 
ATOM     20  N   UNL     1       6.444   5.134   4.418  1.00  0.00    -0.354 N 
ATOM     21  C   UNL     1       6.652   1.706   6.888  1.00  0.00     0.074 A 
ATOM     22  C   UNL     1       5.857   0.548   6.455  1.00  0.00     0.031 C 
ATOM     23  C   UNL     1       5.796   6.298   2.604  1.00  0.00     0.029 A 
ATOM     24  C   UNL     1       6.537   6.361   3.799  1.00  0.00     0.049 A 
ATOM     25  H   UNL     1       6.872   4.882   5.269  1.00  0.00     0.167 HD
ATOM     26  C   UNL     1       7.435   1.731   8.043  1.00  0.00     0.034 A 
ATOM     27  C   UNL     1       7.221   7.483   4.238  1.00  0.00     0.034 A 
ATOM     28  C   UNL     1       8.154   2.840   8.459  1.00  0.00     0.049 A 
ATOM     29  C   UNL     1       7.958   7.528   5.424  1.00  0.00     0.074 A 
ATOM     30  C   UNL     1       8.955   2.881   9.617  1.00  0.00     0.029 A 
ATOM     31  N   UNL     1       8.227   4.075   7.853  1.00  0.00    -0.354 N 
ATOM     32  N   UNL     1       8.154   6.536   6.294  1.00  0.00    -0.248 NA
ATOM     33  C   UNL     1       8.660   8.721   5.914  1.00  0.00     0.031 C 
ATOM     34  C   UNL     1       9.495   4.125   9.713  1.00  0.00     0.029 A 
ATOM     35  C   UNL     1       9.040   4.883   8.616  1.00  0.00     0.049 A 
ATOM     36  H   UNL     1       7.775   4.335   7.017  1.00  0.00     0.167 HD
ATOM     37  C   UNL     1       8.930   6.952   7.297  1.00  0.00     0.074 A 
ATOM     38  C   UNL     1       9.260   8.365   7.071  1.00  0.00     0.031 C 
ATOM     39  C   UNL     1       9.378   6.208   8.390  1.00  0.00     0.034 A 
BRANCH  26  40
ATOM     40  C   UNL     1       7.502   0.473   8.892  1.00  0.00     0.023 A 
ATOM     41  C   UNL     1       7.960  -0.723   8.364  1.00  0.00     0.031 A 
ATOM     42  C   UNL     1       7.086   0.556  10.151  1.00  0.00     0.131 A 
ATOM     43  C   UNL     1       7.667  -1.853   9.165  1.00  0.00     0.055 A 
ATOM     44  C   UNL     1       6.952  -0.575  10.919  1.00  0.00     0.041 A 
ATOM     45  F   UNL     1       6.795   1.745  10.671  1.00  0.00    -0.206 F 
ATOM     46  C   UNL     1       7.330  -1.799  10.441  1.00  0.00     0.022 A 
BRANCH  43  47
ATOM     47  S   UNL     1       7.761  -3.484   8.387  1.00  0.00     0.124 S 
ATOM     48  O   UNL     1       6.772  -3.551   7.221  1.00  0.00    -0.237 OA
ATOM     49  O   UNL     1       9.181  -3.719   7.865  1.00  0.00    -0.237 OA
ATOM     50  O   UNL     1       7.370  -4.688   9.537  1.00  0.00    -0.744 OA
ENDBRANCH  43  47
ENDBRANCH  26  40
BRANCH  27  51
ATOM     51  C   UNL     1       7.167   8.736   3.379  1.00  0.00     0.023 A 
ATOM     52  C   UNL     1       8.362   9.234   2.885  1.00  0.00     0.031 A 
ATOM     53  C   UNL     1       6.010   9.327   3.106  1.00  0.00     0.131 A 
ATOM     54  C   UNL     1       8.260  10.537   2.344  1.00  0.00     0.055 A 
ATOM     55  C   UNL     1       5.978  10.535   2.452  1.00  0.00     0.041 A 
ATOM     56  F   UNL     1       4.870   8.743   3.467  1.00  0.00    -0.206 F 
ATOM     57  C   UNL     1       7.127  11.114   1.988  1.00  0.00     0.022 A 
BRANCH  54  58
ATOM     58  S   UNL     1       9.790  11.479   2.123  1.00  0.00     0.124 S 
ATOM     59  O   UNL     1      10.477  11.660   3.478  1.00  0.00    -0.237 OA
ATOM     60  O   UNL     1      10.722  10.722   1.174  1.00  0.00    -0.237 OA
ATOM     61  O   UNL     1       9.424  13.012   1.459  1.00  0.00    -0.744 OA
ENDBRANCH  54  58
ENDBRANCH  27  51
BRANCH  39  62
ATOM     62  C   UNL     1      10.293   6.892   9.393  1.00  0.00     0.023 A 
ATOM     63  C   UNL     1       9.913   8.066  10.023  1.00  0.00     0.031 A 
ATOM     64  C   UNL     1      11.501   6.372   9.575  1.00  0.00     0.131 A 
ATOM     65  C   UNL     1      10.988   8.777  10.606  1.00  0.00     0.055 A 
ATOM     66  C   UNL     1      12.462   7.064  10.272  1.00  0.00     0.041 A 
ATOM     67  F   UNL     1      11.783   5.171   9.078  1.00  0.00    -0.206 F 
ATOM     68  C   UNL     1      12.173   8.258  10.872  1.00  0.00     0.022 A 
BRANCH  65  69
ATOM     69  S   UNL     1      10.720  10.519  11.018  1.00  0.00     0.124 S 
ATOM     70  O   UNL     1      10.368  11.295   9.746  1.00  0.00    -0.237 OA
ATOM     71  O   UNL     1       9.570  10.636  12.021  1.00  0.00    -0.237 OA
ATOM     72  O   UNL     1      12.145  11.168  11.705  1.00  0.00    -0.744 OA
ENDBRANCH  65  69
ENDBRANCH  39  62
ENDBRANCH  13  14
ENDBRANCH   6   8
ENDBRANCH   3   4
ENDBRANCH   2   3
ENDBRANCH   1   2
BRANCH   1  73
ATOM     73  C   UNL     1       4.915  -2.822  -2.979  1.00  0.00     0.002 C 
BRANCH  73  74
ATOM     74  C   UNL     1       6.435  -2.822  -2.979  1.00  0.00     0.021 C 
BRANCH  74  75
ATOM     75  C   UNL     1       6.942  -4.210  -2.625  1.00  0.00     0.116 C 
BRANCH  75  76
ATOM     76  N   UNL     1       6.452  -5.179  -3.616  1.00  0.00    -0.352 N 
ATOM     77  C   UNL     1       7.407  -5.960  -4.415  1.00  0.00     0.253 C 
ATOM     78  H   UNL     1       5.484  -5.305  -3.744  1.00  0.00     0.163 HD
ATOM     79  O   UNL     1       6.983  -6.797  -5.272  1.00  0.00    -0.269 OA
BRANCH  77  80
ATOM     80  C   UNL     1       8.901  -5.766  -4.216  1.00  0.00     0.063 A 
ATOM     81  C   UNL     1       9.726  -5.655  -5.324  1.00  0.00     0.016 A 
ATOM     82  C   UNL     1       9.392  -5.705  -2.984  1.00  0.00     0.051 A 
ATOM     83  C   UNL     1      11.104  -5.772  -5.027  1.00  0.00     0.001 A 
ATOM     84  C   UNL     1      10.749  -5.686  -2.771  1.00  0.00     0.027 A 
ATOM     85  C   UNL     1      11.624  -5.636  -3.821  1.00  0.00     0.002 A 
BRANCH  82  86
ATOM     86  N   UNL     1       8.475  -5.659  -1.836  1.00  0.00    -0.355 N 
ATOM     87  H   UNL     1       7.501  -5.673  -1.983  1.00  0.00     0.167 HD
BRANCH  86  88
ATOM     88  C   UNL     1       9.010  -5.592  -0.469  1.00  0.00     0.040 A 
ATOM     89  C   UNL     1       8.701  -6.598   0.432  1.00  0.00     0.026 A 
ATOM     90  C   UNL     1       9.779  -4.568  -0.120  1.00  0.00     0.050 A 
ATOM     91  C   UNL     1       9.018  -6.282   1.775  1.00  0.00     0.004 A 
ATOM     92  C   UNL     1      10.164  -4.395   1.188  1.00  0.00     0.109 A 
ATOM     93  C   UNL     1       9.843  -5.319   2.143  1.00  0.00     0.024 A 
BRANCH  92  94
ATOM     94  S   UNL     1      11.110  -2.923   1.652  1.00  0.00     0.310 S 
ATOM     95  F   UNL     1      10.498  -2.954   3.115  1.00  0.00    -0.094 F 
ATOM     96  F   UNL     1       9.848  -2.085   1.217  1.00  0.00    -0.094 F 
ATOM     97  F   UNL     1      11.864  -1.627   2.062  1.00  0.00    -0.094 F 
ATOM     98  F   UNL     1      12.306  -3.788   2.213  1.00  0.00    -0.094 F 
ATOM     99  F   UNL     1      10.312  -4.253   1.346  1.00  0.00    -0.094 F 
ENDBRANCH  92  94
ENDBRANCH  86  88
ENDBRANCH  82  86
ENDBRANCH  77  80
ENDBRANCH  75  76
ENDBRANCH  74  75
ENDBRANCH  73  74
ENDBRANCH   1  73
TORSDOF 19
