REMARK SMILES CC(C)(C(=O)NCCCCCCNC(=O)c1ccc(-c2c3nc(c(-c4cc(S(=O)(=O)[O-])ccc4F)c4ccc([nH]4)c(-c4cc(S(=O)(=O)[O-])ccc4F)c4nc(c(-c5cc(S(=O)(=O)[O-])ccc5F)c5ccc2[nH]5)C=C4)C=C3)cc1)N1C(=O)/C(=C/c2ccc(C=O)cc2)SC1=S
REMARK SMILES IDX 9 1 8 2 7 3 6 4 4 5 5 6 2 8 1 9 3 10 79 11 80 12 93 13 81 14
REMARK SMILES IDX 82 15 92 16 94 17 83 18 84 19 85 20 91 21 86 22 90 23 87 24
REMARK SMILES IDX 88 25 89 26 10 27 11 28 12 29 13 30 14 31 15 33 16 34 17 35
REMARK SMILES IDX 78 36 18 37 77 38 19 39 20 40 21 41 71 42 22 43 76 44 70 45
REMARK SMILES IDX 72 46 23 47 75 48 69 49 68 50 24 52 56 53 36 54 55 55 37 56
REMARK SMILES IDX 40 57 54 58 73 59 38 60 39 61 53 63 74 64 41 65 25 66 26 67
REMARK SMILES IDX 34 68 27 69 33 70 35 71 32 72 28 73 29 74 30 75 31 76 57 77
REMARK SMILES IDX 58 78 66 79 59 80 65 81 67 82 64 83 60 84 61 85 62 86 63 87
REMARK SMILES IDX 42 88 43 89 51 90 44 91 50 92 52 93 49 94 45 95 46 96 47 97
REMARK SMILES IDX 48 98
REMARK H PARENT 6 7 13 32 72 51 40 62
REMARK Flexibility Score: inf
ROOT
ATOM      1  C   UNL     1      -3.195  -0.220  -2.704  1.00  0.00     0.002 C 
ENDROOT
BRANCH   1   2
ATOM      2  C   UNL     1      -1.688  -0.212  -2.427  1.00  0.00     0.021 C 
BRANCH   2   3
ATOM      3  C   UNL     1      -1.171   1.120  -1.891  1.00  0.00     0.116 C 
BRANCH   3   4
ATOM      4  N   UNL     1      -1.569   1.310  -0.512  1.00  0.00    -0.354 N 
ATOM      5  C   UNL     1      -0.852   1.335   0.643  1.00  0.00     0.245 C 
ATOM      6  O   UNL     1      -1.515   1.388   1.687  1.00  0.00    -0.272 OA
ATOM      7  H   UNL     1      -2.537   1.446  -0.388  1.00  0.00     0.163 HD
BRANCH   5   8
ATOM      8  C   UNL     1       0.708   1.311   0.666  1.00  0.00     0.122 C 
ATOM      9  C   UNL     1       1.287   0.045  -0.002  1.00  0.00     0.046 C 
ATOM     10  C   UNL     1       1.281   2.521  -0.122  1.00  0.00     0.046 C 
BRANCH   8  11
ATOM     11  N   UNL     1       1.070   1.404   2.142  1.00  0.00    -0.278 N 
ATOM     12  C   UNL     1       1.077   2.661   2.747  1.00  0.00     0.267 C 
ATOM     13  C   UNL     1       1.140   0.353   3.046  1.00  0.00     0.149 C 
ATOM     14  O   UNL     1       0.763   3.732   2.248  1.00  0.00    -0.268 OA
ATOM     15  C   UNL     1       1.524   2.573   4.157  1.00  0.00     0.081 C 
ATOM     16  S   UNL     1       1.663   0.939   4.627  1.00  0.00    -0.054 SA
ATOM     17  S   UNL     1       0.838  -1.281   2.870  1.00  0.00    -0.052 S 
ATOM     18  C   UNL     1       1.786   3.667   4.886  1.00  0.00     0.029 C 
BRANCH  18  19
ATOM     19  C   UNL     1       2.326   3.657   6.247  1.00  0.00    -0.024 A 
ATOM     20  C   UNL     1       1.572   4.172   7.306  1.00  0.00     0.009 A 
ATOM     21  C   UNL     1       3.604   3.136   6.494  1.00  0.00     0.009 A 
ATOM     22  C   UNL     1       2.078   4.133   8.608  1.00  0.00     0.012 A 
ATOM     23  C   UNL     1       4.110   3.088   7.792  1.00  0.00     0.012 A 
ATOM     24  C   UNL     1       3.341   3.581   8.847  1.00  0.00     0.014 A 
BRANCH  24  25
ATOM     25  C   UNL     1       3.876   3.505  10.221  1.00  0.00     0.260 C 
ATOM     26  O   UNL     1       3.265   3.943  11.187  1.00  0.00    -0.298 OA
ENDBRANCH  24  25
ENDBRANCH  18  19
ENDBRANCH   8  11
ENDBRANCH   5   8
ENDBRANCH   3   4
ENDBRANCH   2   3
ENDBRANCH   1   2
BRANCH   1  27
ATOM     27  C   UNL     1      -3.675   0.857  -3.684  1.00  0.00     0.002 C 
BRANCH  27  28
ATOM     28  C   UNL     1      -2.930   0.893  -5.021  1.00  0.00     0.021 C 
BRANCH  28  29
ATOM     29  C   UNL     1      -2.992  -0.409  -5.812  1.00  0.00     0.116 C 
BRANCH  29  30
ATOM     30  N   UNL     1      -4.356  -0.748  -6.183  1.00  0.00    -0.352 N 
ATOM     31  C   UNL     1      -4.884  -0.981  -7.428  1.00  0.00     0.251 C 
ATOM     32  H   UNL     1      -4.992  -0.820  -5.434  1.00  0.00     0.163 HD
ATOM     33  O   UNL     1      -6.102  -1.018  -7.575  1.00  0.00    -0.269 OA
BRANCH  31  34
ATOM     34  C   UNL     1      -3.982  -1.165  -8.584  1.00  0.00     0.039 A 
ATOM     35  C   UNL     1      -4.286  -0.529  -9.789  1.00  0.00     0.014 A 
ATOM     36  C   UNL     1      -2.840  -1.966  -8.480  1.00  0.00     0.014 A 
ATOM     37  C   UNL     1      -3.412  -0.648 -10.872  1.00  0.00     0.010 A 
ATOM     38  C   UNL     1      -1.932  -2.019  -9.534  1.00  0.00     0.010 A 
ATOM     39  C   UNL     1      -2.210  -1.364 -10.743  1.00  0.00    -0.014 A 
BRANCH  39  40
ATOM     40  C   UNL     1      -1.235  -1.439 -11.863  1.00  0.00     0.031 A 
ATOM     41  C   UNL     1      -0.908  -2.767 -12.491  1.00  0.00     0.074 A 
ATOM     42  C   UNL     1      -0.609  -0.321 -12.278  1.00  0.00     0.049 A 
ATOM     43  N   UNL     1      -0.038  -3.048 -13.427  1.00  0.00    -0.248 NA
ATOM     44  C   UNL     1      -1.637  -3.937 -11.978  1.00  0.00     0.031 C 
ATOM     45  C   UNL     1      -0.821   1.020 -11.727  1.00  0.00     0.029 A 
ATOM     46  N   UNL     1       0.335  -0.129 -13.256  1.00  0.00    -0.354 N 
ATOM     47  C   UNL     1      -0.111  -4.424 -13.612  1.00  0.00     0.074 A 
ATOM     48  C   UNL     1      -1.059  -4.926 -12.641  1.00  0.00     0.031 C 
ATOM     49  C   UNL     1      -0.057   1.897 -12.396  1.00  0.00     0.029 A 
ATOM     50  C   UNL     1       0.741   1.179 -13.385  1.00  0.00     0.049 A 
ATOM     51  H   UNL     1       0.688  -0.860 -13.813  1.00  0.00     0.167 HD
ATOM     52  C   UNL     1       0.533  -5.193 -14.525  1.00  0.00     0.034 A 
ATOM     53  C   UNL     1       1.661   1.737 -14.198  1.00  0.00     0.034 A 
ATOM     54  C   UNL     1       1.475  -4.674 -15.488  1.00  0.00     0.049 A 
ATOM     55  C   UNL     1       2.404   0.853 -15.169  1.00  0.00     0.074 A 
ATOM     56  C   UNL     1       2.156  -5.357 -16.481  1.00  0.00     0.029 A 
ATOM     57  N   UNL     1       1.878  -3.347 -15.574  1.00  0.00    -0.354 N 
ATOM     58  N   UNL     1       2.296  -0.442 -15.356  1.00  0.00    -0.248 NA
ATOM     59  C   UNL     1       3.385   1.509 -16.043  1.00  0.00     0.031 C 
ATOM     60  C   UNL     1       3.025  -4.462 -17.113  1.00  0.00     0.029 A 
ATOM     61  C   UNL     1       2.822  -3.199 -16.579  1.00  0.00     0.049 A 
ATOM     62  H   UNL     1       1.541  -2.618 -15.005  1.00  0.00     0.167 HD
ATOM     63  C   UNL     1       3.171  -0.749 -16.395  1.00  0.00     0.074 A 
ATOM     64  C   UNL     1       3.786   0.499 -16.800  1.00  0.00     0.031 C 
ATOM     65  C   UNL     1       3.438  -1.951 -16.967  1.00  0.00     0.034 A 
BRANCH  52  66
ATOM     66  C   UNL     1       0.256  -6.679 -14.503  1.00  0.00     0.023 A 
ATOM     67  C   UNL     1      -1.031  -7.192 -14.741  1.00  0.00     0.031 A 
ATOM     68  C   UNL     1       1.284  -7.594 -14.217  1.00  0.00     0.131 A 
ATOM     69  C   UNL     1      -1.273  -8.568 -14.611  1.00  0.00     0.055 A 
ATOM     70  C   UNL     1       1.056  -8.971 -14.177  1.00  0.00     0.041 A 
ATOM     71  F   UNL     1       2.530  -7.165 -13.958  1.00  0.00    -0.206 F 
ATOM     72  C   UNL     1      -0.233  -9.465 -14.359  1.00  0.00     0.022 A 
BRANCH  69  73
ATOM     73  S   UNL     1      -2.991  -9.148 -14.621  1.00  0.00     0.124 S 
ATOM     74  O   UNL     1      -3.563  -8.394 -13.508  1.00  0.00    -0.237 OA
ATOM     75  O   UNL     1      -3.446  -8.766 -15.953  1.00  0.00    -0.237 OA
ATOM     76  O   UNL     1      -2.869 -10.586 -14.391  1.00  0.00    -0.744 OA
ENDBRANCH  69  73
ENDBRANCH  52  66
BRANCH  53  77
ATOM     77  C   UNL     1       1.945   3.200 -14.128  1.00  0.00     0.023 A 
ATOM     78  C   UNL     1       1.694   4.038 -15.225  1.00  0.00     0.031 A 
ATOM     79  C   UNL     1       2.511   3.775 -12.976  1.00  0.00     0.131 A 
ATOM     80  C   UNL     1       2.054   5.394 -15.168  1.00  0.00     0.055 A 
ATOM     81  C   UNL     1       2.811   5.136 -12.902  1.00  0.00     0.041 A 
ATOM     82  F   UNL     1       2.770   3.021 -11.896  1.00  0.00    -0.206 F 
ATOM     83  C   UNL     1       2.595   5.952 -14.008  1.00  0.00     0.022 A 
BRANCH  80  84
ATOM     84  S   UNL     1       1.889   6.400 -16.668  1.00  0.00     0.124 S 
ATOM     85  O   UNL     1       2.732   5.669 -17.607  1.00  0.00    -0.237 OA
ATOM     86  O   UNL     1       0.452   6.343 -16.914  1.00  0.00    -0.237 OA
ATOM     87  O   UNL     1       2.398   7.707 -16.257  1.00  0.00    -0.744 OA
ENDBRANCH  80  84
ENDBRANCH  53  77
BRANCH  65  88
ATOM     88  C   UNL     1       4.404  -1.963 -18.128  1.00  0.00     0.023 A 
ATOM     89  C   UNL     1       5.761  -1.630 -17.970  1.00  0.00     0.031 A 
ATOM     90  C   UNL     1       3.955  -2.308 -19.416  1.00  0.00     0.131 A 
ATOM     91  C   UNL     1       6.607  -1.591 -19.089  1.00  0.00     0.055 A 
ATOM     92  C   UNL     1       4.817  -2.335 -20.513  1.00  0.00     0.041 A 
ATOM     93  F   UNL     1       2.669  -2.630 -19.628  1.00  0.00    -0.206 F 
ATOM     94  C   UNL     1       6.148  -1.961 -20.356  1.00  0.00     0.022 A 
BRANCH  91  95
ATOM     95  S   UNL     1       8.292  -0.953 -18.885  1.00  0.00     0.124 S 
ATOM     96  O   UNL     1       8.046   0.388 -18.362  1.00  0.00    -0.237 OA
ATOM     97  O   UNL     1       8.876  -1.905 -17.947  1.00  0.00    -0.237 OA
ATOM     98  O   UNL     1       8.843  -0.999 -20.238  1.00  0.00    -0.744 OA
ENDBRANCH  91  95
ENDBRANCH  65  88
ENDBRANCH  39  40
ENDBRANCH  31  34
ENDBRANCH  29  30
ENDBRANCH  28  29
ENDBRANCH  27  28
ENDBRANCH   1  27
TORSDOF 19
