REMARK SMILES COc1cc(OC)c([C@H]2CC(=O)Nc3c(C(=O)NCCCCCCNC(=O)c4ccc(-c5c6nc(c(-c7cc(S(=O)(=O)[O-])ccc7F)c7ccc([nH]7)c(-c7cc(S(=O)(=O)[O-])ccc7F)c7nc(c(-c8cc(S(=O)(=O)[O-])ccc8F)c8ccc5[nH]8)C=C7)C=C6)cc4)cn(-c4ccccc4)c32)cc1OC
REMARK SMILES IDX 22 1 21 2 20 3 19 4 18 5 16 6 17 7 15 9 9 10 10 11 99 12
REMARK SMILES IDX 11 13 14 14 92 15 12 16 13 17 91 18 8 20 3 21 4 22 101 23
REMARK SMILES IDX 5 24 100 25 2 26 1 27 102 28 103 29 6 30 7 31 93 32 94 33
REMARK SMILES IDX 98 34 95 35 97 36 96 37 23 38 24 39 25 40 26 41 27 43 28 44
REMARK SMILES IDX 29 45 90 46 30 47 89 48 31 49 32 50 33 51 83 52 34 53 88 54
REMARK SMILES IDX 82 55 84 56 35 57 87 58 81 59 80 60 36 62 68 63 48 64 67 65
REMARK SMILES IDX 49 66 52 67 66 68 85 69 50 70 51 71 65 73 86 74 53 75 37 76
REMARK SMILES IDX 38 77 46 78 39 79 45 80 47 81 44 82 40 83 41 84 42 85 43 86
REMARK SMILES IDX 69 87 70 88 78 89 71 90 77 91 79 92 76 93 72 94 73 95 74 96
REMARK SMILES IDX 75 97 54 98 55 99 63 100 56 101 62 102 64 103 61 104 57 105
REMARK SMILES IDX 58 106 59 107 60 108
REMARK H PARENT 18 8 13 19 25 42 84 61 52 72
REMARK Flexibility Score: inf
ROOT
ATOM      1  C   UNL     1       6.660 -11.925  -3.614  1.00  0.00     0.002 C 
ENDROOT
BRANCH   1   2
ATOM      2  C   UNL     1       5.200 -12.245  -3.251  1.00  0.00     0.002 C 
BRANCH   2   3
ATOM      3  C   UNL     1       4.428 -11.068  -2.657  1.00  0.00     0.021 C 
BRANCH   3   4
ATOM      4  C   UNL     1       4.314  -9.871  -3.616  1.00  0.00     0.116 C 
BRANCH   4   5
ATOM      5  N   UNL     1       2.999  -9.795  -4.200  1.00  0.00    -0.352 N 
ATOM      6  C   UNL     1       1.834  -9.164  -3.866  1.00  0.00     0.254 C 
ATOM      7  O   UNL     1       0.937  -9.280  -4.709  1.00  0.00    -0.269 OA
ATOM      8  H   UNL     1       2.923 -10.318  -5.031  1.00  0.00     0.163 HD
BRANCH   6   9
ATOM      9  C   UNL     1       1.610  -8.361  -2.654  1.00  0.00     0.081 A 
ATOM     10  C   UNL     1       2.028  -6.651   0.674  1.00  0.00     0.082 C 
ATOM     11  C   UNL     1       2.995  -7.687   1.287  1.00  0.00     0.115 C 
ATOM     12  C   UNL     1       1.543  -7.181  -0.670  1.00  0.00     0.055 A 
ATOM     13  C   UNL     1       3.973  -8.220   0.297  1.00  0.00     0.225 C 
ATOM     14  C   UNL     1       2.269  -8.100  -1.419  1.00  0.00     0.076 A 
ATOM     15  N   UNL     1       0.453  -6.810  -1.433  1.00  0.00    -0.317 N 
ATOM     16  O   UNL     1       5.146  -8.463   0.571  1.00  0.00    -0.275 OA
ATOM     17  N   UNL     1       3.465  -8.544  -0.920  1.00  0.00    -0.324 N 
ATOM     18  C   UNL     1       0.449  -7.597  -2.563  1.00  0.00     0.107 A 
ATOM     19  H   UNL     1       3.998  -9.146  -1.488  1.00  0.00     0.170 HD
BRANCH  10  20
ATOM     20  C   UNL     1       1.081  -6.336   1.829  1.00  0.00     0.008 A 
ATOM     21  C   UNL     1      -0.470  -6.398   4.210  1.00  0.00     0.164 A 
ATOM     22  C   UNL     1       0.775  -5.760   4.177  1.00  0.00     0.097 A 
ATOM     23  C   UNL     1      -0.996  -6.938   3.039  1.00  0.00     0.161 A 
ATOM     24  C   UNL     1       1.540  -5.691   3.000  1.00  0.00     0.126 A 
ATOM     25  C   UNL     1      -0.197  -6.931   1.883  1.00  0.00     0.058 A 
BRANCH  21  26
ATOM     26  O   UNL     1      -1.134  -6.393   5.407  1.00  0.00    -0.493 OA
ATOM     27  C   UNL     1      -0.826  -7.554   6.188  1.00  0.00     0.278 C 
ENDBRANCH  21  26
BRANCH  23  28
ATOM     28  O   UNL     1      -2.216  -7.512   2.819  1.00  0.00    -0.493 OA
ATOM     29  C   UNL     1      -3.071  -7.783   3.916  1.00  0.00     0.278 C 
ENDBRANCH  23  28
BRANCH  24  30
ATOM     30  O   UNL     1       2.771  -5.125   3.225  1.00  0.00    -0.496 OA
ATOM     31  C   UNL     1       3.403  -4.377   2.197  1.00  0.00     0.278 C 
ENDBRANCH  24  30
ENDBRANCH  10  20
BRANCH  15  32
ATOM     32  C   UNL     1      -0.515  -5.811  -1.185  1.00  0.00     0.045 A 
ATOM     33  C   UNL     1      -0.129  -4.539  -0.755  1.00  0.00     0.026 A 
ATOM     34  C   UNL     1      -1.871  -6.127  -1.353  1.00  0.00     0.026 A 
ATOM     35  C   UNL     1      -1.109  -3.594  -0.454  1.00  0.00     0.002 A 
ATOM     36  C   UNL     1      -2.842  -5.189  -1.011  1.00  0.00     0.002 A 
ATOM     37  C   UNL     1      -2.462  -3.925  -0.559  1.00  0.00     0.000 A 
ENDBRANCH  15  32
ENDBRANCH   6   9
ENDBRANCH   4   5
ENDBRANCH   3   4
ENDBRANCH   2   3
ENDBRANCH   1   2
BRANCH   1  38
ATOM     38  C   UNL     1       7.544 -11.384  -2.477  1.00  0.00     0.021 C 
BRANCH  38  39
ATOM     39  C   UNL     1       7.901 -12.444  -1.448  1.00  0.00     0.116 C 
BRANCH  39  40
ATOM     40  N   UNL     1       8.715 -13.510  -2.040  1.00  0.00    -0.352 N 
ATOM     41  C   UNL     1       9.197 -14.675  -1.466  1.00  0.00     0.251 C 
ATOM     42  H   UNL     1       8.955 -13.379  -2.986  1.00  0.00     0.163 HD
ATOM     43  O   UNL     1      10.139 -15.264  -1.963  1.00  0.00    -0.269 OA
BRANCH  41  44
ATOM     44  C   UNL     1       8.530 -15.183  -0.253  1.00  0.00     0.039 A 
ATOM     45  C   UNL     1       9.230 -15.816   0.779  1.00  0.00     0.014 A 
ATOM     46  C   UNL     1       7.158 -14.989  -0.163  1.00  0.00     0.014 A 
ATOM     47  C   UNL     1       8.526 -16.200   1.920  1.00  0.00     0.010 A 
ATOM     48  C   UNL     1       6.529 -15.140   1.035  1.00  0.00     0.010 A 
ATOM     49  C   UNL     1       7.172 -15.851   2.034  1.00  0.00    -0.014 A 
BRANCH  49  50
ATOM     50  C   UNL     1       6.382 -16.110   3.227  1.00  0.00     0.031 A 
ATOM     51  C   UNL     1       6.901 -15.422   4.433  1.00  0.00     0.074 A 
ATOM     52  C   UNL     1       5.150 -16.667   3.165  1.00  0.00     0.049 A 
ATOM     53  N   UNL     1       7.532 -15.953   5.425  1.00  0.00    -0.248 NA
ATOM     54  C   UNL     1       6.924 -13.949   4.440  1.00  0.00     0.031 C 
ATOM     55  C   UNL     1       4.392 -17.084   1.977  1.00  0.00     0.029 A 
ATOM     56  N   UNL     1       4.254 -16.879   4.163  1.00  0.00    -0.354 N 
ATOM     57  C   UNL     1       7.770 -14.914   6.317  1.00  0.00     0.074 A 
ATOM     58  C   UNL     1       7.633 -13.711   5.546  1.00  0.00     0.031 C 
ATOM     59  C   UNL     1       3.093 -17.275   2.304  1.00  0.00     0.029 A 
ATOM     60  C   UNL     1       2.952 -17.157   3.745  1.00  0.00     0.049 A 
ATOM     61  H   UNL     1       4.506 -16.839   5.114  1.00  0.00     0.167 HD
ATOM     62  C   UNL     1       7.762 -15.139   7.662  1.00  0.00     0.034 A 
ATOM     63  C   UNL     1       1.842 -17.262   4.530  1.00  0.00     0.034 A 
ATOM     64  C   UNL     1       7.790 -16.567   7.929  1.00  0.00     0.049 A 
ATOM     65  C   UNL     1       2.337 -17.540   5.904  1.00  0.00     0.074 A 
ATOM     66  C   UNL     1       8.661 -17.594   7.617  1.00  0.00     0.029 A 
ATOM     67  N   UNL     1       6.596 -17.183   8.247  1.00  0.00    -0.354 N 
ATOM     68  N   UNL     1       2.984 -18.631   6.217  1.00  0.00    -0.248 NA
ATOM     69  C   UNL     1       2.597 -16.401   6.775  1.00  0.00     0.031 C 
ATOM     70  C   UNL     1       7.819 -18.693   7.266  1.00  0.00     0.029 A 
ATOM     71  C   UNL     1       6.490 -18.322   7.485  1.00  0.00     0.049 A 
ATOM     72  H   UNL     1       5.936 -16.863   8.904  1.00  0.00     0.167 HD
ATOM     73  C   UNL     1       4.041 -18.211   7.013  1.00  0.00     0.074 A 
ATOM     74  C   UNL     1       3.696 -16.840   7.399  1.00  0.00     0.031 C 
ATOM     75  C   UNL     1       5.229 -18.888   7.034  1.00  0.00     0.034 A 
BRANCH  62  76
ATOM     76  C   UNL     1       7.307 -14.146   8.717  1.00  0.00     0.023 A 
ATOM     77  C   UNL     1       7.222 -14.638  10.034  1.00  0.00     0.031 A 
ATOM     78  C   UNL     1       6.697 -12.891   8.502  1.00  0.00     0.131 A 
ATOM     79  C   UNL     1       6.428 -14.000  11.000  1.00  0.00     0.055 A 
ATOM     80  C   UNL     1       5.960 -12.224   9.488  1.00  0.00     0.041 A 
ATOM     81  F   UNL     1       6.710 -12.259   7.326  1.00  0.00    -0.206 F 
ATOM     82  C   UNL     1       5.785 -12.799  10.733  1.00  0.00     0.022 A 
BRANCH  79  83
ATOM     83  S   UNL     1       6.095 -14.889  12.539  1.00  0.00     0.124 S 
ATOM     84  O   UNL     1       5.585 -16.160  12.033  1.00  0.00    -0.237 OA
ATOM     85  O   UNL     1       7.416 -14.923  13.157  1.00  0.00    -0.237 OA
ATOM     86  O   UNL     1       5.112 -14.043  13.210  1.00  0.00    -0.744 OA
ENDBRANCH  79  83
ENDBRANCH  62  76
BRANCH  63  87
ATOM     87  C   UNL     1       0.456 -16.784   4.226  1.00  0.00     0.023 A 
ATOM     88  C   UNL     1      -0.700 -17.225   4.916  1.00  0.00     0.031 A 
ATOM     89  C   UNL     1       0.288 -15.663   3.380  1.00  0.00     0.131 A 
ATOM     90  C   UNL     1      -1.940 -16.554   4.743  1.00  0.00     0.055 A 
ATOM     91  C   UNL     1      -0.934 -15.005   3.219  1.00  0.00     0.041 A 
ATOM     92  F   UNL     1       1.333 -15.112   2.744  1.00  0.00    -0.206 F 
ATOM     93  C   UNL     1      -2.053 -15.442   3.906  1.00  0.00     0.022 A 
BRANCH  90  94
ATOM     94  S   UNL     1      -3.433 -17.067   5.667  1.00  0.00     0.124 S 
ATOM     95  O   UNL     1      -3.723 -18.375   5.093  1.00  0.00    -0.237 OA
ATOM     96  O   UNL     1      -2.969 -17.052   7.050  1.00  0.00    -0.237 OA
ATOM     97  O   UNL     1      -4.411 -16.027   5.343  1.00  0.00    -0.744 OA
ENDBRANCH  90  94
ENDBRANCH  63  87
BRANCH  75  98
ATOM     98  C   UNL     1       5.292 -20.256   6.374  1.00  0.00     0.023 A 
ATOM     99  C   UNL     1       5.019 -20.522   5.010  1.00  0.00     0.031 A 
ATOM    100  C   UNL     1       5.783 -21.318   7.154  1.00  0.00     0.131 A 
ATOM    101  C   UNL     1       5.232 -21.815   4.485  1.00  0.00     0.055 A 
ATOM    102  C   UNL     1       6.015 -22.587   6.626  1.00  0.00     0.041 A 
ATOM    103  F   UNL     1       6.086 -21.126   8.449  1.00  0.00    -0.206 F 
ATOM    104  C   UNL     1       5.736 -22.842   5.290  1.00  0.00     0.022 A 
BRANCH 101 105
ATOM    105  S   UNL     1       4.837 -22.199   2.745  1.00  0.00     0.124 S 
ATOM    106  O   UNL     1       3.496 -21.655   2.571  1.00  0.00    -0.237 OA
ATOM    107  O   UNL     1       5.904 -21.516   2.018  1.00  0.00    -0.237 OA
ATOM    108  O   UNL     1       4.911 -23.661   2.694  1.00  0.00    -0.744 OA
ENDBRANCH 101 105
ENDBRANCH  75  98
ENDBRANCH  49  50
ENDBRANCH  41  44
ENDBRANCH  39  40
ENDBRANCH  38  39
ENDBRANCH   1  38
TORSDOF 21
