REMARK SMILES N#C[C@H]1CN(c2cc(C(=O)NCCCCCCNC(=O)c3ccc(-c4c5nc(c(-c6cc(S(=O)(=O)[O-])ccc6F)c6ccc([nH]6)c(-c6cc(S(=O)(=O)[O-])ccc6F)c6nc(c(-c7cc(S(=O)(=O)[O-])ccc7F)c7ccc4[nH]7)C=C6)C=C5)cc3)c(N)cc2F)CCO1
REMARK SMILES IDX 15 1 14 2 13 3 12 4 11 5 9 6 10 7 8 9 6 10 7 11 87 12 86 13
REMARK SMILES IDX 88 14 84 15 5 16 3 17 4 18 91 19 90 20 89 21 2 22 1 23 85 24
REMARK SMILES IDX 16 27 17 28 18 29 19 30 20 32 21 33 22 34 83 35 23 36 82 37
REMARK SMILES IDX 24 38 25 39 26 40 76 41 27 42 81 43 75 44 77 45 28 46 80 47
REMARK SMILES IDX 74 48 73 49 29 51 61 52 41 53 60 54 42 55 45 56 59 57 78 58
REMARK SMILES IDX 43 59 44 60 58 62 79 63 46 64 30 65 31 66 39 67 32 68 38 69
REMARK SMILES IDX 40 70 37 71 33 72 34 73 35 74 36 75 62 76 63 77 71 78 64 79
REMARK SMILES IDX 70 80 72 81 69 82 65 83 66 84 67 85 68 86 47 87 48 88 56 89
REMARK SMILES IDX 49 90 55 91 57 92 54 93 50 94 51 95 52 96 53 97
REMARK H PARENT 11 8 85 25 85 26 18 31 77 50 45 61
REMARK Flexibility Score: inf
ROOT
ATOM      1  C   UNL     1       1.073   7.723  -8.287  1.00  0.00     0.002 C 
ENDROOT
BRANCH   1   2
ATOM      2  C   UNL     1       0.972   8.045  -6.792  1.00  0.00     0.002 C 
BRANCH   2   3
ATOM      3  C   UNL     1       0.450   6.932  -5.880  1.00  0.00     0.021 C 
BRANCH   3   4
ATOM      4  C   UNL     1       1.133   5.578  -6.013  1.00  0.00     0.116 C 
BRANCH   4   5
ATOM      5  N   UNL     1       2.540   5.558  -5.671  1.00  0.00    -0.352 N 
ATOM      6  C   UNL     1       3.318   4.531  -5.181  1.00  0.00     0.253 C 
ATOM      7  O   UNL     1       4.516   4.763  -5.004  1.00  0.00    -0.269 OA
ATOM      8  H   UNL     1       3.014   6.410  -5.810  1.00  0.00     0.163 HD
BRANCH   6   9
ATOM      9  C   UNL     1       2.775   3.190  -4.786  1.00  0.00     0.065 A 
ATOM     10  C   UNL     1       3.065   1.306  -3.228  1.00  0.00     0.074 A 
ATOM     11  C   UNL     1       3.433   2.574  -3.692  1.00  0.00     0.045 A 
ATOM     12  C   UNL     1       1.904   0.747  -3.772  1.00  0.00     0.148 A 
ATOM     13  C   UNL     1       1.247   1.322  -4.850  1.00  0.00     0.067 A 
ATOM     14  F   UNL     1       1.432  -0.415  -3.292  1.00  0.00    -0.205 F 
ATOM     15  C   UNL     1       1.752   2.480  -5.448  1.00  0.00     0.047 A 
BRANCH  10  16
ATOM     16  N   UNL     1       3.870   0.603  -2.358  1.00  0.00    -0.363 N 
ATOM     17  C   UNL     1       3.701   0.013   0.028  1.00  0.00     0.240 C 
ATOM     18  C   UNL     1       4.198   1.058  -1.004  1.00  0.00     0.164 C 
ATOM     19  O   UNL     1       4.187  -1.317  -0.292  1.00  0.00    -0.360 OA
ATOM     20  C   UNL     1       3.733  -1.725  -1.595  1.00  0.00     0.183 C 
ATOM     21  C   UNL     1       4.253  -0.778  -2.680  1.00  0.00     0.145 C 
BRANCH  17  22
ATOM     22  C   UNL     1       4.156   0.393   1.379  1.00  0.00     0.096 C 
ATOM     23  N   UNL     1       4.509   0.704   2.439  1.00  0.00    -0.195 NA
ENDBRANCH  17  22
ENDBRANCH  10  16
BRANCH  15  24
ATOM     24  N   UNL     1       1.228   2.824  -6.687  1.00  0.00    -0.398 N 
ATOM     25  H   UNL     1       1.549   3.631  -7.151  1.00  0.00     0.156 HD
ATOM     26  H   UNL     1       0.535   2.261  -7.102  1.00  0.00     0.156 HD
ENDBRANCH  15  24
ENDBRANCH   6   9
ENDBRANCH   4   5
ENDBRANCH   3   4
ENDBRANCH   2   3
ENDBRANCH   1   2
BRANCH   1  27
ATOM     27  C   UNL     1      -0.190   7.176  -8.955  1.00  0.00     0.021 C 
BRANCH  27  28
ATOM     28  C   UNL     1      -1.457   7.995  -8.741  1.00  0.00     0.116 C 
BRANCH  28  29
ATOM     29  N   UNL     1      -1.329   9.360  -9.221  1.00  0.00    -0.352 N 
ATOM     30  C   UNL     1      -2.143  10.063 -10.075  1.00  0.00     0.251 C 
ATOM     31  H   UNL     1      -0.545   9.852  -8.886  1.00  0.00     0.163 HD
ATOM     32  O   UNL     1      -1.778  11.153 -10.505  1.00  0.00    -0.269 OA
BRANCH  30  33
ATOM     33  C   UNL     1      -3.441   9.489 -10.495  1.00  0.00     0.039 A 
ATOM     34  C   UNL     1      -3.811   9.564 -11.839  1.00  0.00     0.014 A 
ATOM     35  C   UNL     1      -4.285   8.869  -9.569  1.00  0.00     0.014 A 
ATOM     36  C   UNL     1      -4.997   8.960 -12.265  1.00  0.00     0.010 A 
ATOM     37  C   UNL     1      -5.419   8.194 -10.010  1.00  0.00     0.010 A 
ATOM     38  C   UNL     1      -5.791   8.236 -11.362  1.00  0.00    -0.014 A 
BRANCH  38  39
ATOM     39  C   UNL     1      -7.018   7.525 -11.809  1.00  0.00     0.031 A 
ATOM     40  C   UNL     1      -8.361   7.915 -11.255  1.00  0.00     0.074 A 
ATOM     41  C   UNL     1      -6.920   6.494 -12.671  1.00  0.00     0.049 A 
ATOM     42  N   UNL     1      -9.535   7.377 -11.467  1.00  0.00    -0.248 NA
ATOM     43  C   UNL     1      -8.378   9.043 -10.313  1.00  0.00     0.031 C 
ATOM     44  C   UNL     1      -5.673   6.006 -13.264  1.00  0.00     0.029 A 
ATOM     45  N   UNL     1      -7.883   5.673 -13.202  1.00  0.00    -0.354 N 
ATOM     46  C   UNL     1     -10.429   8.098 -10.684  1.00  0.00     0.074 A 
ATOM     47  C   UNL     1      -9.644   9.052  -9.928  1.00  0.00     0.031 C 
ATOM     48  C   UNL     1      -5.953   5.002 -14.109  1.00  0.00     0.029 A 
ATOM     49  C   UNL     1      -7.387   4.732 -14.075  1.00  0.00     0.049 A 
ATOM     50  H   UNL     1      -8.838   5.750 -12.979  1.00  0.00     0.167 HD
ATOM     51  C   UNL     1     -11.781   7.998 -10.622  1.00  0.00     0.034 A 
ATOM     52  C   UNL     1      -8.014   3.757 -14.762  1.00  0.00     0.034 A 
ATOM     53  C   UNL     1     -12.546   7.031 -11.372  1.00  0.00     0.049 A 
ATOM     54  C   UNL     1      -9.507   3.603 -14.613  1.00  0.00     0.074 A 
ATOM     55  C   UNL     1     -13.918   6.855 -11.406  1.00  0.00     0.029 A 
ATOM     56  N   UNL     1     -12.003   6.062 -12.209  1.00  0.00    -0.354 N 
ATOM     57  N   UNL     1     -10.345   4.314 -13.893  1.00  0.00    -0.248 NA
ATOM     58  C   UNL     1     -10.138   2.517 -15.373  1.00  0.00     0.031 C 
ATOM     59  C   UNL     1     -14.197   5.728 -12.187  1.00  0.00     0.029 A 
ATOM     60  C   UNL     1     -13.010   5.261 -12.728  1.00  0.00     0.049 A 
ATOM     61  H   UNL     1     -11.044   5.960 -12.405  1.00  0.00     0.167 HD
ATOM     62  C   UNL     1     -11.608   3.787 -14.150  1.00  0.00     0.074 A 
ATOM     63  C   UNL     1     -11.420   2.703 -15.094  1.00  0.00     0.031 C 
ATOM     64  C   UNL     1     -12.814   4.172 -13.659  1.00  0.00     0.034 A 
BRANCH  51  65
ATOM     65  C   UNL     1     -12.500   8.940  -9.682  1.00  0.00     0.023 A 
ATOM     66  C   UNL     1     -12.395  10.336  -9.820  1.00  0.00     0.031 A 
ATOM     67  C   UNL     1     -13.245   8.446  -8.598  1.00  0.00     0.131 A 
ATOM     68  C   UNL     1     -12.921  11.181  -8.832  1.00  0.00     0.055 A 
ATOM     69  C   UNL     1     -13.862   9.297  -7.678  1.00  0.00     0.041 A 
ATOM     70  F   UNL     1     -13.367   7.124  -8.396  1.00  0.00    -0.206 F 
ATOM     71  C   UNL     1     -13.681  10.673  -7.777  1.00  0.00     0.022 A 
BRANCH  68  72
ATOM     72  S   UNL     1     -12.416  12.923  -8.834  1.00  0.00     0.124 S 
ATOM     73  O   UNL     1     -10.960  12.807  -8.785  1.00  0.00    -0.237 OA
ATOM     74  O   UNL     1     -12.976  13.413 -10.088  1.00  0.00    -0.237 OA
ATOM     75  O   UNL     1     -13.031  13.459  -7.621  1.00  0.00    -0.744 OA
ENDBRANCH  68  72
ENDBRANCH  51  65
BRANCH  52  76
ATOM     76  C   UNL     1      -7.241   2.853 -15.661  1.00  0.00     0.023 A 
ATOM     77  C   UNL     1      -7.479   2.841 -17.044  1.00  0.00     0.031 A 
ATOM     78  C   UNL     1      -6.276   1.966 -15.150  1.00  0.00     0.131 A 
ATOM     79  C   UNL     1      -6.794   1.931 -17.864  1.00  0.00     0.055 A 
ATOM     80  C   UNL     1      -5.553   1.106 -15.979  1.00  0.00     0.041 A 
ATOM     81  F   UNL     1      -6.010   1.935 -13.835  1.00  0.00    -0.206 F 
ATOM     82  C   UNL     1      -5.820   1.077 -17.344  1.00  0.00     0.022 A 
BRANCH  79  83
ATOM     83  S   UNL     1      -7.261   1.820 -19.613  1.00  0.00     0.124 S 
ATOM     84  O   UNL     1      -8.670   1.458 -19.519  1.00  0.00    -0.237 OA
ATOM     85  O   UNL     1      -6.973   3.168 -20.091  1.00  0.00    -0.237 OA
ATOM     86  O   UNL     1      -6.380   0.775 -20.133  1.00  0.00    -0.744 OA
ENDBRANCH  79  83
ENDBRANCH  52  76
BRANCH  64  87
ATOM     87  C   UNL     1     -14.037   3.451 -14.178  1.00  0.00     0.023 A 
ATOM     88  C   UNL     1     -14.258   2.084 -13.934  1.00  0.00     0.031 A 
ATOM     89  C   UNL     1     -14.998   4.148 -14.933  1.00  0.00     0.131 A 
ATOM     90  C   UNL     1     -15.378   1.446 -14.489  1.00  0.00     0.055 A 
ATOM     91  C   UNL     1     -16.148   3.526 -15.418  1.00  0.00     0.041 A 
ATOM     92  F   UNL     1     -14.838   5.453 -15.206  1.00  0.00    -0.206 F 
ATOM     93  C   UNL     1     -16.337   2.163 -15.209  1.00  0.00     0.022 A 
BRANCH  90  94
ATOM     94  S   UNL     1     -15.511  -0.357 -14.351  1.00  0.00     0.124 S 
ATOM     95  O   UNL     1     -14.274  -0.801 -14.985  1.00  0.00    -0.237 OA
ATOM     96  O   UNL     1     -15.594  -0.555 -12.908  1.00  0.00    -0.237 OA
ATOM     97  O   UNL     1     -16.733  -0.669 -15.090  1.00  0.00    -0.744 OA
ENDBRANCH  90  94
ENDBRANCH  64  87
ENDBRANCH  38  39
ENDBRANCH  30  33
ENDBRANCH  28  29
ENDBRANCH  27  28
ENDBRANCH   1  27
TORSDOF 19
