REMARK SMILES O=C(NCCCCCCNC(=O)c1nc(NC[C@H]2c3ccccc3CSc3ccccc32)c2ccccc2n1)c1ccc(-c2c3nc(c(-c4cc(S(=O)(=O)[O-])ccc4F)c4ccc([nH]4)c(-c4cc(S(=O)(=O)[O-])ccc4F)c4nc(c(-c5cc(S(=O)(=O)[O-])ccc5F)c5ccc2[nH]5)C=C4)C=C3)cc1
REMARK SMILES IDX 6 1 5 2 4 3 3 4 1 5 2 6 40 8 41 9 102 10 42 11 101 12 43 13
REMARK SMILES IDX 44 14 45 15 95 16 46 17 100 18 94 19 96 20 47 21 99 22 93 23
REMARK SMILES IDX 92 24 48 26 80 27 60 28 79 29 61 30 64 31 78 32 97 33 62 34
REMARK SMILES IDX 63 35 77 37 98 38 65 39 49 40 50 41 58 42 51 43 57 44 59 45
REMARK SMILES IDX 56 46 52 47 53 48 54 49 55 50 81 51 82 52 90 53 83 54 89 55
REMARK SMILES IDX 91 56 88 57 84 58 85 59 86 60 87 61 66 62 67 63 75 64 68 65
REMARK SMILES IDX 74 66 76 67 73 68 69 69 70 70 71 71 72 72 7 73 8 74 9 75
REMARK SMILES IDX 10 76 11 77 12 79 13 80 14 81 39 82 15 83 38 84 33 85 37 86
REMARK SMILES IDX 34 87 36 88 35 89 16 90 17 92 18 93 19 94 32 95 20 96 24 97
REMARK SMILES IDX 27 98 31 99 21 100 23 101 25 102 26 103 28 104 30 105 22 106
REMARK SMILES IDX 29 107
REMARK H PARENT 3 7 96 25 64 36 10 78 16 91
REMARK Flexibility Score: inf
ROOT
ATOM      1  C   UNL     1       4.284   2.735   2.603  1.00  0.00     0.002 C 
ENDROOT
BRANCH   1   2
ATOM      2  C   UNL     1       4.745   2.225   1.234  1.00  0.00     0.021 C 
BRANCH   2   3
ATOM      3  C   UNL     1       4.423   0.762   0.935  1.00  0.00     0.116 C 
BRANCH   3   4
ATOM      4  N   UNL     1       2.993   0.504   0.933  1.00  0.00    -0.352 N 
ATOM      5  O   UNL     1       0.992  -0.081   0.095  1.00  0.00    -0.269 OA
ATOM      6  C   UNL     1       2.218  -0.130  -0.004  1.00  0.00     0.251 C 
ATOM      7  H   UNL     1       2.507   0.834   1.723  1.00  0.00     0.163 HD
BRANCH   6   8
ATOM      8  C   UNL     1       2.834  -0.870  -1.129  1.00  0.00     0.039 A 
ATOM      9  C   UNL     1       2.247  -0.777  -2.397  1.00  0.00     0.014 A 
ATOM     10  C   UNL     1       3.933  -1.711  -0.932  1.00  0.00     0.014 A 
ATOM     11  C   UNL     1       2.772  -1.507  -3.467  1.00  0.00     0.010 A 
ATOM     12  C   UNL     1       4.488  -2.397  -2.011  1.00  0.00     0.010 A 
ATOM     13  C   UNL     1       3.901  -2.319  -3.284  1.00  0.00    -0.014 A 
BRANCH  13  14
ATOM     14  C   UNL     1       4.463  -3.131  -4.394  1.00  0.00     0.031 A 
ATOM     15  C   UNL     1       4.399  -4.631  -4.329  1.00  0.00     0.074 A 
ATOM     16  C   UNL     1       5.092  -2.527  -5.419  1.00  0.00     0.049 A 
ATOM     17  N   UNL     1       4.921  -5.515  -5.138  1.00  0.00    -0.248 NA
ATOM     18  C   UNL     1       3.670  -5.215  -3.191  1.00  0.00     0.031 C 
ATOM     19  C   UNL     1       5.233  -1.081  -5.579  1.00  0.00     0.029 A 
ATOM     20  N   UNL     1       5.748  -3.051  -6.506  1.00  0.00    -0.354 N 
ATOM     21  C   UNL     1       4.609  -6.756  -4.595  1.00  0.00     0.074 A 
ATOM     22  C   UNL     1       3.886  -6.510  -3.367  1.00  0.00     0.031 C 
ATOM     23  C   UNL     1       5.928  -0.832  -6.699  1.00  0.00     0.029 A 
ATOM     24  C   UNL     1       6.327  -2.099  -7.312  1.00  0.00     0.049 A 
ATOM     25  H   UNL     1       5.800  -4.017  -6.691  1.00  0.00     0.167 HD
ATOM     26  C   UNL     1       4.886  -7.985  -5.089  1.00  0.00     0.034 A 
ATOM     27  C   UNL     1       7.109  -2.225  -8.406  1.00  0.00     0.034 A 
ATOM     28  C   UNL     1       5.569  -8.210  -6.336  1.00  0.00     0.049 A 
ATOM     29  C   UNL     1       7.421  -3.603  -8.931  1.00  0.00     0.074 A 
ATOM     30  C   UNL     1       5.796  -9.416  -6.974  1.00  0.00     0.029 A 
ATOM     31  N   UNL     1       6.138  -7.223  -7.127  1.00  0.00    -0.354 N 
ATOM     32  N   UNL     1       7.034  -4.767  -8.464  1.00  0.00    -0.248 NA
ATOM     33  C   UNL     1       8.272  -3.694 -10.126  1.00  0.00     0.031 C 
ATOM     34  C   UNL     1       6.563  -9.166  -8.113  1.00  0.00     0.029 A 
ATOM     35  C   UNL     1       6.757  -7.798  -8.225  1.00  0.00     0.049 A 
ATOM     36  H   UNL     1       6.106  -6.258  -6.937  1.00  0.00     0.167 HD
ATOM     37  C   UNL     1       7.579  -5.726  -9.314  1.00  0.00     0.074 A 
ATOM     38  C   UNL     1       8.309  -5.005 -10.336  1.00  0.00     0.031 C 
ATOM     39  C   UNL     1       7.482  -7.078  -9.246  1.00  0.00     0.034 A 
BRANCH  26  40
ATOM     40  C   UNL     1       4.447  -9.196  -4.306  1.00  0.00     0.023 A 
ATOM     41  C   UNL     1       5.410 -10.098  -3.813  1.00  0.00     0.031 A 
ATOM     42  C   UNL     1       3.088  -9.523  -4.151  1.00  0.00     0.131 A 
ATOM     43  C   UNL     1       5.000 -11.293  -3.210  1.00  0.00     0.055 A 
ATOM     44  C   UNL     1       2.685 -10.697  -3.514  1.00  0.00     0.041 A 
ATOM     45  F   UNL     1       2.132  -8.699  -4.609  1.00  0.00    -0.206 F 
ATOM     46  C   UNL     1       3.643 -11.594  -3.051  1.00  0.00     0.022 A 
BRANCH  43  47
ATOM     47  S   UNL     1       6.209 -12.530  -2.666  1.00  0.00     0.124 S 
ATOM     48  O   UNL     1       5.934 -12.604  -1.231  1.00  0.00    -0.237 OA
ATOM     49  O   UNL     1       5.807 -13.707  -3.436  1.00  0.00    -0.237 OA
ATOM     50  O   UNL     1       7.494 -11.951  -3.025  1.00  0.00    -0.744 OA
ENDBRANCH  43  47
ENDBRANCH  26  40
BRANCH  27  51
ATOM     51  C   UNL     1       7.595  -0.987  -9.081  1.00  0.00     0.023 A 
ATOM     52  C   UNL     1       8.442  -0.083  -8.411  1.00  0.00     0.031 A 
ATOM     53  C   UNL     1       7.101  -0.619 -10.343  1.00  0.00     0.131 A 
ATOM     54  C   UNL     1       8.693   1.178  -8.966  1.00  0.00     0.055 A 
ATOM     55  C   UNL     1       7.413   0.611 -10.925  1.00  0.00     0.041 A 
ATOM     56  F   UNL     1       6.284  -1.444 -11.015  1.00  0.00    -0.206 F 
ATOM     57  C   UNL     1       8.197   1.526 -10.226  1.00  0.00     0.022 A 
BRANCH  54  58
ATOM     58  S   UNL     1       9.552   2.459  -8.009  1.00  0.00     0.124 S 
ATOM     59  O   UNL     1      10.647   2.828  -8.902  1.00  0.00    -0.237 OA
ATOM     60  O   UNL     1       8.502   3.463  -7.851  1.00  0.00    -0.237 OA
ATOM     61  O   UNL     1       9.944   1.772  -6.783  1.00  0.00    -0.744 OA
ENDBRANCH  54  58
ENDBRANCH  27  51
BRANCH  39  62
ATOM     62  C   UNL     1       8.187  -7.916 -10.286  1.00  0.00     0.023 A 
ATOM     63  C   UNL     1       7.440  -8.743 -11.148  1.00  0.00     0.031 A 
ATOM     64  C   UNL     1       9.586  -8.045 -10.285  1.00  0.00     0.131 A 
ATOM     65  C   UNL     1       8.092  -9.709 -11.924  1.00  0.00     0.055 A 
ATOM     66  C   UNL     1      10.235  -8.976 -11.098  1.00  0.00     0.041 A 
ATOM     67  F   UNL     1      10.340  -7.284  -9.476  1.00  0.00    -0.206 F 
ATOM     68  C   UNL     1       9.486  -9.826 -11.908  1.00  0.00     0.022 A 
BRANCH  65  69
ATOM     69  S   UNL     1       7.152 -10.914 -12.902  1.00  0.00     0.124 S 
ATOM     70  O   UNL     1       7.680 -10.691 -14.246  1.00  0.00    -0.237 OA
ATOM     71  O   UNL     1       7.536 -12.179 -12.283  1.00  0.00    -0.237 OA
ATOM     72  O   UNL     1       5.761 -10.516 -12.709  1.00  0.00    -0.744 OA
ENDBRANCH  65  69
ENDBRANCH  39  62
ENDBRANCH  13  14
ENDBRANCH   6   8
ENDBRANCH   3   4
ENDBRANCH   2   3
ENDBRANCH   1   2
BRANCH   1  73
ATOM     73  C   UNL     1       4.826   1.970   3.814  1.00  0.00     0.002 C 
BRANCH  73  74
ATOM     74  C   UNL     1       6.351   1.867   3.904  1.00  0.00     0.021 C 
BRANCH  74  75
ATOM     75  C   UNL     1       7.100   3.200   3.905  1.00  0.00     0.116 C 
BRANCH  75  76
ATOM     76  N   UNL     1       6.782   4.007   5.073  1.00  0.00    -0.349 N 
ATOM     77  C   UNL     1       7.656   4.581   5.980  1.00  0.00     0.289 C 
ATOM     78  H   UNL     1       5.825   4.165   5.239  1.00  0.00     0.163 HD
ATOM     79  O   UNL     1       7.200   5.122   6.988  1.00  0.00    -0.266 OA
BRANCH  77  80
ATOM     80  C   UNL     1       9.138   4.509   5.742  1.00  0.00     0.220 A 
ATOM     81  N   UNL     1       9.878   4.031   6.755  1.00  0.00    -0.206 NA
ATOM     82  N   UNL     1       9.579   4.820   4.513  1.00  0.00    -0.224 NA
ATOM     83  C   UNL     1      11.164   3.765   6.499  1.00  0.00     0.138 A 
ATOM     84  C   UNL     1      10.865   4.580   4.274  1.00  0.00     0.077 A 
ATOM     85  C   UNL     1      11.732   4.024   5.231  1.00  0.00     0.043 A 
ATOM     86  C   UNL     1      11.349   4.874   3.007  1.00  0.00     0.029 A 
ATOM     87  C   UNL     1      13.081   3.779   4.858  1.00  0.00     0.014 A 
ATOM     88  C   UNL     1      12.676   4.634   2.650  1.00  0.00     0.002 A 
ATOM     89  C   UNL     1      13.546   4.084   3.579  1.00  0.00     0.001 A 
BRANCH  83  90
ATOM     90  N   UNL     1      11.900   3.148   7.500  1.00  0.00    -0.368 N 
ATOM     91  H   UNL     1      12.765   2.741   7.265  1.00  0.00     0.162 HD
BRANCH  90  92
ATOM     92  C   UNL     1      11.445   3.077   8.891  1.00  0.00     0.127 C 
BRANCH  92  93
ATOM     93  C   UNL     1      11.326   1.599   9.426  1.00  0.00     0.070 C 
ATOM     94  C   UNL     1      11.882   1.501  10.858  1.00  0.00    -0.035 A 
ATOM     95  C   UNL     1       9.991   0.854   9.252  1.00  0.00    -0.025 A 
ATOM     96  C   UNL     1      11.788   2.563  11.777  1.00  0.00     0.005 A 
ATOM     97  C   UNL     1      12.528   0.317  11.273  1.00  0.00    -0.034 A 
ATOM     98  C   UNL     1       9.789  -0.509   9.593  1.00  0.00     0.011 A 
ATOM     99  C   UNL     1       8.896   1.528   8.662  1.00  0.00     0.005 A 
ATOM    100  C   UNL     1      12.392   2.486  13.035  1.00  0.00     0.000 A 
ATOM    101  C   UNL     1      13.114   0.244  12.549  1.00  0.00     0.005 A 
ATOM    102  C   UNL     1      12.528  -0.900  10.389  1.00  0.00     0.110 C 
ATOM    103  S   UNL     1      10.906  -1.695  10.364  1.00  0.00    -0.121 SA
ATOM    104  C   UNL     1       8.531  -1.109   9.334  1.00  0.00     0.015 A 
ATOM    105  C   UNL     1       7.675   0.908   8.387  1.00  0.00     0.000 A 
ATOM    106  C   UNL     1      13.063   1.331  13.417  1.00  0.00     0.000 A 
ATOM    107  C   UNL     1       7.489  -0.416   8.726  1.00  0.00     0.001 A 
ENDBRANCH  92  93
ENDBRANCH  90  92
ENDBRANCH  83  90
ENDBRANCH  77  80
ENDBRANCH  75  76
ENDBRANCH  74  75
ENDBRANCH  73  74
ENDBRANCH   1  73
TORSDOF 19
