REMARK SMILES C[C@H]1CN(c2ccc(C(=O)NCCCCCCNC(=O)c3ccc(-c4c5nc(c(-c6cc(S(=O)(=O)[O-])ccc6F)c6ccc([nH]6)c(-c6cc(S(=O)(=O)[O-])ccc6F)c6nc(c(-c7cc(S(=O)(=O)[O-])ccc7F)c7ccc4[nH]7)C=C6)C=C5)cc3)cc2[N+](=O)[O-])C[C@@H]1C
REMARK SMILES IDX 15 1 14 2 13 3 12 4 11 5 9 6 10 7 8 9 5 10 6 11 85 12 7 13
REMARK SMILES IDX 84 14 4 15 1 16 2 17 3 18 90 19 89 20 91 21 86 22 87 23
REMARK SMILES IDX 88 24 16 25 17 26 18 27 19 28 20 30 21 31 22 32 83 33 23 34
REMARK SMILES IDX 82 35 24 36 25 37 26 38 76 39 27 40 81 41 75 42 77 43 28 44
REMARK SMILES IDX 80 45 74 46 73 47 29 49 61 50 41 51 60 52 42 53 45 54 59 55
REMARK SMILES IDX 78 56 43 57 44 58 58 60 79 61 46 62 30 63 31 64 39 65 32 66
REMARK SMILES IDX 38 67 40 68 37 69 33 70 34 71 35 72 36 73 62 74 63 75 71 76
REMARK SMILES IDX 64 77 70 78 72 79 69 80 65 81 66 82 67 83 68 84 47 85 48 86
REMARK SMILES IDX 56 87 49 88 55 89 57 90 54 91 50 92 51 93 52 94 53 95
REMARK H PARENT 11 8 18 29 77 48 45 59
REMARK Flexibility Score: inf
ROOT
ATOM      1  C   UNL     1      -3.307  10.783  -4.606  1.00  0.00     0.002 C 
ENDROOT
BRANCH   1   2
ATOM      2  C   UNL     1      -2.881  10.795  -3.133  1.00  0.00     0.002 C 
BRANCH   2   3
ATOM      3  C   UNL     1      -2.539   9.413  -2.561  1.00  0.00     0.021 C 
BRANCH   3   4
ATOM      4  C   UNL     1      -1.323   8.779  -3.239  1.00  0.00     0.116 C 
BRANCH   4   5
ATOM      5  N   UNL     1      -0.106   9.329  -2.670  1.00  0.00    -0.352 N 
ATOM      6  C   UNL     1       0.778   8.851  -1.740  1.00  0.00     0.251 C 
ATOM      7  O   UNL     1       1.726   9.569  -1.422  1.00  0.00    -0.269 OA
ATOM      8  H   UNL     1       0.129  10.218  -3.020  1.00  0.00     0.163 HD
BRANCH   6   9
ATOM      9  C   UNL     1       0.685   7.485  -1.158  1.00  0.00     0.046 A 
ATOM     10  C   UNL     1       0.735   4.803  -0.174  1.00  0.00     0.116 A 
ATOM     11  C   UNL     1       1.903   5.572  -0.271  1.00  0.00     0.034 A 
ATOM     12  C   UNL     1      -0.457   5.441  -0.539  1.00  0.00     0.293 A 
ATOM     13  C   UNL     1       1.886   6.880  -0.770  1.00  0.00     0.016 A 
ATOM     14  C   UNL     1      -0.500   6.778  -0.974  1.00  0.00     0.101 A 
BRANCH  10  15
ATOM     15  N   UNL     1       0.846   3.517   0.274  1.00  0.00    -0.365 N 
ATOM     16  C   UNL     1      -0.878   0.873   0.999  1.00  0.00     0.010 C 
ATOM     17  C   UNL     1       0.542   1.186   0.520  1.00  0.00     0.010 C 
ATOM     18  C   UNL     1       0.551   2.327  -0.514  1.00  0.00     0.120 C 
ATOM     19  C   UNL     1       1.421   1.723   1.668  1.00  0.00     0.010 C 
ATOM     20  C   UNL     1       1.107   3.224   1.676  1.00  0.00     0.120 C 
ATOM     21  C   UNL     1       2.911   1.483   1.408  1.00  0.00     0.010 C 
ENDBRANCH  10  15
BRANCH  12  22
ATOM     22  N   UNL     1      -1.727   4.736  -0.504  1.00  0.00     0.065 N 
ATOM     23  O   UNL     1      -2.387   4.738  -1.554  1.00  0.00    -0.258 OA
ATOM     24  O   UNL     1      -2.087   4.230   0.567  1.00  0.00    -0.258 OA
ENDBRANCH  12  22
ENDBRANCH   6   9
ENDBRANCH   4   5
ENDBRANCH   3   4
ENDBRANCH   2   3
ENDBRANCH   1   2
BRANCH   1  25
ATOM     25  C   UNL     1      -4.488   9.862  -4.923  1.00  0.00     0.021 C 
BRANCH  25  26
ATOM     26  C   UNL     1      -5.774  10.230  -4.192  1.00  0.00     0.116 C 
BRANCH  26  27
ATOM     27  N   UNL     1      -6.261  11.537  -4.604  1.00  0.00    -0.352 N 
ATOM     28  C   UNL     1      -7.467  11.874  -5.167  1.00  0.00     0.251 C 
ATOM     29  H   UNL     1      -5.638  12.286  -4.457  1.00  0.00     0.163 HD
ATOM     30  O   UNL     1      -7.607  12.969  -5.700  1.00  0.00    -0.269 OA
BRANCH  28  31
ATOM     31  C   UNL     1      -8.581  10.902  -5.136  1.00  0.00     0.039 A 
ATOM     32  C   UNL     1      -9.358  10.721  -6.282  1.00  0.00     0.014 A 
ATOM     33  C   UNL     1      -8.859  10.178  -3.973  1.00  0.00     0.014 A 
ATOM     34  C   UNL     1     -10.383   9.773  -6.276  1.00  0.00     0.010 A 
ATOM     35  C   UNL     1      -9.828   9.180  -3.994  1.00  0.00     0.010 A 
ATOM     36  C   UNL     1     -10.606   8.973  -5.143  1.00  0.00    -0.014 A 
BRANCH  36  37
ATOM     37  C   UNL     1     -11.656   7.923  -5.135  1.00  0.00     0.031 A 
ATOM     38  C   UNL     1     -12.823   8.031  -4.192  1.00  0.00     0.074 A 
ATOM     39  C   UNL     1     -11.530   6.847  -5.935  1.00  0.00     0.049 A 
ATOM     40  N   UNL     1     -13.808   7.194  -3.991  1.00  0.00    -0.248 NA
ATOM     41  C   UNL     1     -12.866   9.228  -3.340  1.00  0.00     0.031 C 
ATOM     42  C   UNL     1     -10.425   6.615  -6.868  1.00  0.00     0.029 A 
ATOM     43  N   UNL     1     -12.334   5.747  -6.092  1.00  0.00    -0.354 N 
ATOM     44  C   UNL     1     -14.585   7.759  -2.985  1.00  0.00     0.074 A 
ATOM     45  C   UNL     1     -13.907   8.968  -2.565  1.00  0.00     0.031 C 
ATOM     46  C   UNL     1     -10.642   5.465  -7.526  1.00  0.00     0.029 A 
ATOM     47  C   UNL     1     -11.870   4.854  -7.028  1.00  0.00     0.049 A 
ATOM     48  H   UNL     1     -13.164   5.610  -5.581  1.00  0.00     0.167 HD
ATOM     49  C   UNL     1     -15.768   7.327  -2.479  1.00  0.00     0.034 A 
ATOM     50  C   UNL     1     -12.375   3.673  -7.435  1.00  0.00     0.034 A 
ATOM     51  C   UNL     1     -16.423   6.113  -2.906  1.00  0.00     0.049 A 
ATOM     52  C   UNL     1     -13.658   3.178  -6.819  1.00  0.00     0.074 A 
ATOM     53  C   UNL     1     -17.639   5.596  -2.495  1.00  0.00     0.029 A 
ATOM     54  N   UNL     1     -15.908   5.216  -3.836  1.00  0.00    -0.354 N 
ATOM     55  N   UNL     1     -14.407   3.744  -5.900  1.00  0.00    -0.248 NA
ATOM     56  C   UNL     1     -14.165   1.888  -7.301  1.00  0.00     0.031 C 
ATOM     57  C   UNL     1     -17.822   4.355  -3.115  1.00  0.00     0.029 A 
ATOM     58  C   UNL     1     -16.763   4.133  -3.981  1.00  0.00     0.049 A 
ATOM     59  H   UNL     1     -15.059   5.332  -4.320  1.00  0.00     0.167 HD
ATOM     60  C   UNL     1     -15.492   2.891  -5.718  1.00  0.00     0.074 A 
ATOM     61  C   UNL     1     -15.303   1.781  -6.631  1.00  0.00     0.031 C 
ATOM     62  C   UNL     1     -16.553   3.019  -4.880  1.00  0.00     0.034 A 
BRANCH  49  63
ATOM     63  C   UNL     1     -16.395   8.165  -1.386  1.00  0.00     0.023 A 
ATOM     64  C   UNL     1     -16.742   9.512  -1.600  1.00  0.00     0.031 A 
ATOM     65  C   UNL     1     -16.588   7.638  -0.097  1.00  0.00     0.131 A 
ATOM     66  C   UNL     1     -17.154  10.311  -0.523  1.00  0.00     0.055 A 
ATOM     67  C   UNL     1     -17.096   8.413   0.948  1.00  0.00     0.041 A 
ATOM     68  F   UNL     1     -16.260   6.366   0.179  1.00  0.00    -0.206 F 
ATOM     69  C   UNL     1     -17.360   9.764   0.745  1.00  0.00     0.022 A 
BRANCH  66  70
ATOM     70  S   UNL     1     -17.223  12.108  -0.761  1.00  0.00     0.124 S 
ATOM     71  O   UNL     1     -15.862  12.399  -1.207  1.00  0.00    -0.237 OA
ATOM     72  O   UNL     1     -18.270  12.254  -1.765  1.00  0.00    -0.237 OA
ATOM     73  O   UNL     1     -17.555  12.617   0.568  1.00  0.00    -0.744 OA
ENDBRANCH  66  70
ENDBRANCH  49  63
BRANCH  50  74
ATOM     74  C   UNL     1     -11.675   2.880  -8.485  1.00  0.00     0.023 A 
ATOM     75  C   UNL     1     -12.267   2.669  -9.739  1.00  0.00     0.031 A 
ATOM     76  C   UNL     1     -10.412   2.309  -8.245  1.00  0.00     0.131 A 
ATOM     77  C   UNL     1     -11.614   1.877 -10.697  1.00  0.00     0.055 A 
ATOM     78  C   UNL     1      -9.745   1.563  -9.218  1.00  0.00     0.041 A 
ATOM     79  F   UNL     1      -9.800   2.486  -7.064  1.00  0.00    -0.206 F 
ATOM     80  C   UNL     1     -10.351   1.335 -10.450  1.00  0.00     0.022 A 
BRANCH  77  81
ATOM     81  S   UNL     1     -12.472   1.512 -12.252  1.00  0.00     0.124 S 
ATOM     82  O   UNL     1     -13.665   0.819 -11.779  1.00  0.00    -0.237 OA
ATOM     83  O   UNL     1     -12.681   2.847 -12.804  1.00  0.00    -0.237 OA
ATOM     84  O   UNL     1     -11.515   0.682 -12.981  1.00  0.00    -0.744 OA
ENDBRANCH  77  81
ENDBRANCH  50  74
BRANCH  62  85
ATOM     85  C   UNL     1     -17.612   1.944  -4.946  1.00  0.00     0.023 A 
ATOM     86  C   UNL     1     -17.349   0.618  -4.561  1.00  0.00     0.031 A 
ATOM     87  C   UNL     1     -18.901   2.251  -5.418  1.00  0.00     0.131 A 
ATOM     88  C   UNL     1     -18.342  -0.363  -4.709  1.00  0.00     0.055 A 
ATOM     89  C   UNL     1     -19.905   1.285  -5.501  1.00  0.00     0.041 A 
ATOM     90  F   UNL     1     -19.208   3.500  -5.805  1.00  0.00    -0.206 F 
ATOM     91  C   UNL     1     -19.624  -0.034  -5.158  1.00  0.00     0.022 A 
BRANCH  88  92
ATOM     92  S   UNL     1     -17.908  -2.098  -4.401  1.00  0.00     0.124 S 
ATOM     93  O   UNL     1     -16.819  -2.310  -5.349  1.00  0.00    -0.237 OA
ATOM     94  O   UNL     1     -17.531  -2.080  -2.991  1.00  0.00    -0.237 OA
ATOM     95  O   UNL     1     -19.142  -2.820  -4.703  1.00  0.00    -0.744 OA
ENDBRANCH  88  92
ENDBRANCH  62  85
ENDBRANCH  36  37
ENDBRANCH  28  31
ENDBRANCH  26  27
ENDBRANCH  25  26
ENDBRANCH   1  25
TORSDOF 18
