REMARK SMILES O=C(NCCCCCCNC(=O)[C@@]1([NH2+]C2CC2)CC[C@@H]([N@@H+]2CC[N@@H+]3CCC[C@@H]3C2)C1)c1ccc(-c2c3nc(c(-c4cc(S(=O)(=O)[O-])ccc4F)c4ccc([nH]4)c(-c4cc(S(=O)(=O)[O-])ccc4F)c4nc(c(-c5cc(S(=O)(=O)[O-])ccc5F)c5ccc2[nH]5)C=C4)C=C3)cc1
REMARK SMILES IDX 6 1 5 2 4 3 3 4 1 5 2 6 31 8 32 9 93 10 33 11 92 12 34 13
REMARK SMILES IDX 35 14 36 15 86 16 37 17 91 18 85 19 87 20 38 21 90 22 84 23
REMARK SMILES IDX 83 24 39 26 71 27 51 28 70 29 52 30 55 31 69 32 88 33 53 34
REMARK SMILES IDX 54 35 68 37 89 38 56 39 40 40 41 41 49 42 42 43 48 44 50 45
REMARK SMILES IDX 47 46 43 47 44 48 45 49 46 50 72 51 73 52 81 53 74 54 80 55
REMARK SMILES IDX 82 56 79 57 75 58 76 59 77 60 78 61 57 62 58 63 66 64 59 65
REMARK SMILES IDX 65 66 67 67 64 68 60 69 61 70 62 71 63 72 7 73 8 74 9 75
REMARK SMILES IDX 10 76 11 77 12 79 13 80 18 81 30 82 19 83 20 84 14 85 15 88
REMARK SMILES IDX 16 89 17 90 21 91 22 92 29 93 23 95 28 96 24 97 27 98 25 99
REMARK SMILES IDX 26 101
REMARK H PARENT 3 7 87 25 55 36 10 78 14 86 14 87 21 94 24 100
REMARK Flexibility Score: inf
ROOT
ATOM      1  C   UNL     1       4.154  -2.565  -3.128  1.00  0.00     0.002 C 
ENDROOT
BRANCH   1   2
ATOM      2  C   UNL     1       4.642  -2.308  -1.702  1.00  0.00     0.021 C 
BRANCH   2   3
ATOM      3  C   UNL     1       4.389  -0.908  -1.155  1.00  0.00     0.116 C 
BRANCH   3   4
ATOM      4  N   UNL     1       2.979  -0.565  -1.075  1.00  0.00    -0.352 N 
ATOM      5  O   UNL     1       1.070   0.152  -0.108  1.00  0.00    -0.269 OA
ATOM      6  C   UNL     1       2.290   0.024  -0.040  1.00  0.00     0.251 C 
ATOM      7  H   UNL     1       2.443  -0.784  -1.871  1.00  0.00     0.163 HD
BRANCH   6   8
ATOM      8  C   UNL     1       3.018   0.475   1.169  1.00  0.00     0.039 A 
ATOM      9  C   UNL     1       4.208   1.199   1.060  1.00  0.00     0.014 A 
ATOM     10  C   UNL     1       2.504   0.160   2.430  1.00  0.00     0.014 A 
ATOM     11  C   UNL     1       4.954   1.477   2.201  1.00  0.00     0.010 A 
ATOM     12  C   UNL     1       3.216   0.514   3.581  1.00  0.00     0.010 A 
ATOM     13  C   UNL     1       4.465   1.145   3.475  1.00  0.00    -0.014 A 
BRANCH  13  14
ATOM     14  C   UNL     1       5.264   1.505   4.678  1.00  0.00     0.031 A 
ATOM     15  C   UNL     1       5.847   0.444   5.571  1.00  0.00     0.074 A 
ATOM     16  C   UNL     1       5.493   2.808   4.936  1.00  0.00     0.049 A 
ATOM     17  N   UNL     1       6.597   0.581   6.636  1.00  0.00    -0.248 NA
ATOM     18  C   UNL     1       5.538  -0.952   5.232  1.00  0.00     0.031 C 
ATOM     19  C   UNL     1       4.973   3.924   4.143  1.00  0.00     0.029 A 
ATOM     20  N   UNL     1       6.236   3.415   5.915  1.00  0.00    -0.354 N 
ATOM     21  C   UNL     1       6.837  -0.706   7.106  1.00  0.00     0.074 A 
ATOM     22  C   UNL     1       6.120  -1.607   6.227  1.00  0.00     0.031 C 
ATOM     23  C   UNL     1       5.458   5.074   4.632  1.00  0.00     0.029 A 
ATOM     24  C   UNL     1       6.268   4.786   5.810  1.00  0.00     0.049 A 
ATOM     25  H   UNL     1       6.702   2.918   6.625  1.00  0.00     0.167 HD
ATOM     26  C   UNL     1       7.591  -1.097   8.165  1.00  0.00     0.034 A 
ATOM     27  C   UNL     1       6.870   5.711   6.581  1.00  0.00     0.034 A 
ATOM     28  C   UNL     1       8.303  -0.182   9.029  1.00  0.00     0.049 A 
ATOM     29  C   UNL     1       7.670   5.253   7.769  1.00  0.00     0.074 A 
ATOM     30  C   UNL     1       9.125  -0.472  10.105  1.00  0.00     0.029 A 
ATOM     31  N   UNL     1       8.269   1.204   8.924  1.00  0.00    -0.354 N 
ATOM     32  N   UNL     1       7.905   4.031   8.185  1.00  0.00    -0.248 NA
ATOM     33  C   UNL     1       8.288   6.302   8.589  1.00  0.00     0.031 C 
ATOM     34  C   UNL     1       9.532   0.735  10.688  1.00  0.00     0.029 A 
ATOM     35  C   UNL     1       9.026   1.781   9.934  1.00  0.00     0.049 A 
ATOM     36  H   UNL     1       7.778   1.704   8.232  1.00  0.00     0.167 HD
ATOM     37  C   UNL     1       8.716   4.164   9.308  1.00  0.00     0.074 A 
ATOM     38  C   UNL     1       8.945   5.584   9.487  1.00  0.00     0.031 C 
ATOM     39  C   UNL     1       9.227   3.200  10.116  1.00  0.00     0.034 A 
BRANCH  26  40
ATOM     40  C   UNL     1       7.643  -2.577   8.474  1.00  0.00     0.023 A 
ATOM     41  C   UNL     1       8.200  -3.505   7.576  1.00  0.00     0.031 A 
ATOM     42  C   UNL     1       7.098  -3.071   9.673  1.00  0.00     0.131 A 
ATOM     43  C   UNL     1       8.132  -4.880   7.855  1.00  0.00     0.055 A 
ATOM     44  C   UNL     1       7.105  -4.433   9.981  1.00  0.00     0.041 A 
ATOM     45  F   UNL     1       6.535  -2.237  10.562  1.00  0.00    -0.206 F 
ATOM     46  C   UNL     1       7.609  -5.348   9.062  1.00  0.00     0.022 A 
BRANCH  43  47
ATOM     47  S   UNL     1       8.599  -6.053   6.552  1.00  0.00     0.124 S 
ATOM     48  O   UNL     1       7.718  -5.650   5.458  1.00  0.00    -0.237 OA
ATOM     49  O   UNL     1      10.018  -5.770   6.367  1.00  0.00    -0.237 OA
ATOM     50  O   UNL     1       8.294  -7.357   7.138  1.00  0.00    -0.744 OA
ENDBRANCH  43  47
ENDBRANCH  26  40
BRANCH  27  51
ATOM     51  C   UNL     1       6.724   7.160   6.265  1.00  0.00     0.023 A 
ATOM     52  C   UNL     1       7.832   7.932   5.887  1.00  0.00     0.031 A 
ATOM     53  C   UNL     1       5.473   7.797   6.356  1.00  0.00     0.131 A 
ATOM     54  C   UNL     1       7.676   9.306   5.647  1.00  0.00     0.055 A 
ATOM     55  C   UNL     1       5.314   9.152   6.067  1.00  0.00     0.041 A 
ATOM     56  F   UNL     1       4.380   7.100   6.708  1.00  0.00    -0.206 F 
ATOM     57  C   UNL     1       6.423   9.918   5.721  1.00  0.00     0.022 A 
BRANCH  54  58
ATOM     58  S   UNL     1       9.153  10.300   5.302  1.00  0.00     0.124 S 
ATOM     59  O   UNL     1       9.956  10.066   6.497  1.00  0.00    -0.237 OA
ATOM     60  O   UNL     1       9.645   9.693   4.069  1.00  0.00    -0.237 OA
ATOM     61  O   UNL     1       8.625  11.655   5.159  1.00  0.00    -0.744 OA
ENDBRANCH  54  58
ENDBRANCH  27  51
BRANCH  39  62
ATOM     62  C   UNL     1      10.113   3.666  11.244  1.00  0.00     0.023 A 
ATOM     63  C   UNL     1       9.606   4.419  12.318  1.00  0.00     0.031 A 
ATOM     64  C   UNL     1      11.492   3.389  11.222  1.00  0.00     0.131 A 
ATOM     65  C   UNL     1      10.481   4.926  13.291  1.00  0.00     0.055 A 
ATOM     66  C   UNL     1      12.348   3.845  12.225  1.00  0.00     0.041 A 
ATOM     67  F   UNL     1      12.030   2.678  10.219  1.00  0.00    -0.206 F 
ATOM     68  C   UNL     1      11.847   4.631  13.259  1.00  0.00     0.022 A 
BRANCH  65  69
ATOM     69  S   UNL     1       9.827   6.066  14.541  1.00  0.00     0.124 S 
ATOM     70  O   UNL     1       9.271   7.134  13.717  1.00  0.00    -0.237 OA
ATOM     71  O   UNL     1       8.858   5.233  15.246  1.00  0.00    -0.237 OA
ATOM     72  O   UNL     1      11.008   6.435  15.320  1.00  0.00    -0.744 OA
ENDBRANCH  65  69
ENDBRANCH  39  62
ENDBRANCH  13  14
ENDBRANCH   6   8
ENDBRANCH   3   4
ENDBRANCH   2   3
ENDBRANCH   1   2
BRANCH   1  73
ATOM     73  C   UNL     1       4.617  -1.565  -4.191  1.00  0.00     0.002 C 
BRANCH  73  74
ATOM     74  C   UNL     1       6.128  -1.316  -4.277  1.00  0.00     0.021 C 
BRANCH  74  75
ATOM     75  C   UNL     1       6.990  -2.558  -4.489  1.00  0.00     0.116 C 
BRANCH  75  76
ATOM     76  N   UNL     1       6.739  -3.205  -5.763  1.00  0.00    -0.351 N 
ATOM     77  C   UNL     1       7.578  -3.990  -6.508  1.00  0.00     0.281 C 
ATOM     78  H   UNL     1       5.843  -3.061  -6.144  1.00  0.00     0.163 HD
ATOM     79  O   UNL     1       7.086  -4.549  -7.496  1.00  0.00    -0.268 OA
BRANCH  77  80
ATOM     80  C   UNL     1       9.094  -4.098  -6.177  1.00  0.00     0.181 C 
ATOM     81  C   UNL     1       9.846  -5.069  -7.110  1.00  0.00     0.085 C 
ATOM     82  C   UNL     1       9.759  -2.742  -6.546  1.00  0.00     0.144 C 
ATOM     83  C   UNL     1      11.284  -4.567  -7.105  1.00  0.00     0.072 C 
ATOM     84  C   UNL     1      11.161  -3.038  -7.125  1.00  0.00     0.191 C 
BRANCH  80  85
ATOM     85  N   UNL     1       9.353  -4.439  -4.760  1.00  0.00    -0.331 N 
ATOM     86  H   UNL     1       9.191  -3.588  -4.219  1.00  0.00     0.347 HD
ATOM     87  H   UNL     1      10.302  -4.811  -4.779  1.00  0.00     0.347 HD
BRANCH  85  88
ATOM     88  C   UNL     1       8.588  -5.507  -4.106  1.00  0.00     0.183 C 
ATOM     89  C   UNL     1       7.837  -6.604  -4.804  1.00  0.00     0.071 C 
ATOM     90  C   UNL     1       9.128  -6.912  -4.109  1.00  0.00     0.071 C 
ENDBRANCH  85  88
ENDBRANCH  80  85
BRANCH  84  91
ATOM     91  N   UNL     1      11.444  -2.458  -8.444  1.00  0.00    -0.323 N 
ATOM     92  C   UNL     1      11.553  -0.986  -8.453  1.00  0.00     0.324 C 
ATOM     93  C   UNL     1      10.676  -2.959  -9.586  1.00  0.00     0.328 C 
ATOM     94  H   UNL     1      12.377  -2.836  -8.608  1.00  0.00     0.348 HD
ATOM     95  C   UNL     1      11.112  -0.285  -9.773  1.00  0.00     0.324 C 
ATOM     96  C   UNL     1      11.299  -2.449 -10.903  1.00  0.00     0.240 C 
ATOM     97  N   UNL     1      11.506  -0.988 -11.000  1.00  0.00    -0.323 N 
ATOM     98  C   UNL     1      10.484  -2.846 -12.132  1.00  0.00     0.077 C 
ATOM     99  C   UNL     1      10.802  -0.505 -12.191  1.00  0.00     0.263 C 
ATOM    100  H   UNL     1      12.501  -0.787 -11.100  1.00  0.00     0.348 HD
ATOM    101  C   UNL     1      10.753  -1.716 -13.105  1.00  0.00     0.068 C 
ENDBRANCH  84  91
ENDBRANCH  77  80
ENDBRANCH  75  76
ENDBRANCH  74  75
ENDBRANCH  73  74
ENDBRANCH   1  73
TORSDOF 19
