REMARK SMILES N#CCCn1cc(C(=O)NCCCCCCNC(=O)c2ccc(-c3c4nc(c(-c5cc(S(=O)(=O)[O-])ccc5F)c5ccc([nH]5)c(-c5cc(S(=O)(=O)[O-])ccc5F)c5nc(c(-c6cc(S(=O)(=O)[O-])ccc6F)c6ccc3[nH]6)C=C5)C=C4)cc2)c(-c2cccc([N+](=O)[O-])c2)n1
REMARK SMILES IDX 13 1 12 2 11 3 10 4 8 5 9 6 7 8 5 9 6 10 93 11 83 12 4 13
REMARK SMILES IDX 3 14 2 15 1 16 84 17 85 18 92 19 86 20 88 21 87 22 89 23
REMARK SMILES IDX 90 24 91 25 14 26 15 27 16 28 17 29 18 30 19 32 20 33 21 34
REMARK SMILES IDX 82 35 22 36 81 37 23 38 24 39 25 40 75 41 26 42 80 43 74 44
REMARK SMILES IDX 76 45 27 46 79 47 73 48 72 49 28 51 60 52 40 53 59 54 41 55
REMARK SMILES IDX 44 56 58 57 77 58 42 59 43 60 57 62 78 63 45 64 29 65 30 66
REMARK SMILES IDX 38 67 31 68 37 69 39 70 36 71 32 72 33 73 34 74 35 75 61 76
REMARK SMILES IDX 62 77 70 78 63 79 69 80 71 81 68 82 64 83 65 84 66 85 67 86
REMARK SMILES IDX 46 87 47 88 55 89 48 90 54 91 56 92 53 93 49 94 50 95 51 96
REMARK SMILES IDX 52 97
REMARK H PARENT 10 7 17 31 76 50 44 61
REMARK Flexibility Score: inf
ROOT
ATOM      1  C   UNL     1       4.620  -8.625   1.227  1.00  0.00     0.002 C 
ENDROOT
BRANCH   1   2
ATOM      2  C   UNL     1       4.451  -7.103   1.308  1.00  0.00     0.021 C 
BRANCH   2   3
ATOM      3  C   UNL     1       5.197  -6.379   0.191  1.00  0.00     0.116 C 
BRANCH   3   4
ATOM      4  N   UNL     1       4.502  -6.558  -1.060  1.00  0.00    -0.352 N 
ATOM      5  C   UNL     1       3.752  -5.715  -1.835  1.00  0.00     0.255 C 
ATOM      6  O   UNL     1       3.304  -6.196  -2.868  1.00  0.00    -0.269 OA
ATOM      7  H   UNL     1       4.583  -7.467  -1.430  1.00  0.00     0.163 HD
BRANCH   5   8
ATOM      8  C   UNL     1       3.611  -4.307  -1.489  1.00  0.00     0.085 A 
ATOM      9  N   UNL     1       3.853  -2.333  -0.573  1.00  0.00    -0.270 N 
ATOM     10  C   UNL     1       3.796  -3.660  -0.286  1.00  0.00     0.123 A 
ATOM     11  N   UNL     1       3.492  -2.046  -1.833  1.00  0.00    -0.172 NA
ATOM     12  C   UNL     1       3.194  -3.248  -2.362  1.00  0.00     0.105 A 
BRANCH   9  13
ATOM     13  C   UNL     1       4.323  -1.314   0.346  1.00  0.00     0.159 C 
BRANCH  13  14
ATOM     14  C   UNL     1       3.816   0.078   0.053  1.00  0.00     0.144 C 
BRANCH  14  15
ATOM     15  C   UNL     1       2.296   0.078   0.053  1.00  0.00     0.064 C 
ATOM     16  N   UNL     1       1.034   0.078   0.053  1.00  0.00    -0.198 NA
ENDBRANCH  14  15
ENDBRANCH  13  14
ENDBRANCH   9  13
BRANCH  12  17
ATOM     17  C   UNL     1       2.570  -3.376  -3.676  1.00  0.00     0.010 A 
ATOM     18  C   UNL     1       1.437  -4.197  -3.826  1.00  0.00     0.011 A 
ATOM     19  C   UNL     1       3.106  -2.735  -4.793  1.00  0.00     0.096 A 
ATOM     20  C   UNL     1       0.887  -4.441  -5.084  1.00  0.00     0.008 A 
ATOM     21  C   UNL     1       2.547  -2.982  -6.055  1.00  0.00     0.270 A 
ATOM     22  C   UNL     1       1.448  -3.842  -6.208  1.00  0.00     0.085 A 
BRANCH  21  23
ATOM     23  N   UNL     1       3.140  -2.357  -7.242  1.00  0.00     0.062 N 
ATOM     24  O   UNL     1       2.648  -2.631  -8.347  1.00  0.00    -0.258 OA
ATOM     25  O   UNL     1       4.105  -1.597  -7.077  1.00  0.00    -0.258 OA
ENDBRANCH  21  23
ENDBRANCH  12  17
ENDBRANCH   5   8
ENDBRANCH   3   4
ENDBRANCH   2   3
ENDBRANCH   1   2
BRANCH   1  26
ATOM     26  C   UNL     1       6.076  -9.112   1.115  1.00  0.00     0.002 C 
BRANCH  26  27
ATOM     27  C   UNL     1       7.066  -8.522   2.135  1.00  0.00     0.021 C 
BRANCH  27  28
ATOM     28  C   UNL     1       6.783  -8.958   3.561  1.00  0.00     0.116 C 
BRANCH  28  29
ATOM     29  N   UNL     1       6.979 -10.401   3.740  1.00  0.00    -0.352 N 
ATOM     30  C   UNL     1       6.740 -11.200   4.848  1.00  0.00     0.251 C 
ATOM     31  H   UNL     1       7.336 -10.875   2.954  1.00  0.00     0.163 HD
ATOM     32  O   UNL     1       7.323 -12.268   4.977  1.00  0.00    -0.269 OA
BRANCH  30  33
ATOM     33  C   UNL     1       5.759 -10.747   5.851  1.00  0.00     0.039 A 
ATOM     34  C   UNL     1       5.835 -11.044   7.216  1.00  0.00     0.014 A 
ATOM     35  C   UNL     1       4.737  -9.947   5.378  1.00  0.00     0.014 A 
ATOM     36  C   UNL     1       4.842 -10.538   8.058  1.00  0.00     0.010 A 
ATOM     37  C   UNL     1       4.101  -9.131   6.252  1.00  0.00     0.010 A 
ATOM     38  C   UNL     1       3.946  -9.601   7.536  1.00  0.00    -0.014 A 
BRANCH  38  39
ATOM     39  C   UNL     1       2.876  -8.955   8.273  1.00  0.00     0.031 A 
ATOM     40  C   UNL     1       3.385  -7.999   9.276  1.00  0.00     0.074 A 
ATOM     41  C   UNL     1       1.595  -8.946   7.831  1.00  0.00     0.049 A 
ATOM     42  N   UNL     1       3.555  -8.217  10.537  1.00  0.00    -0.248 NA
ATOM     43  C   UNL     1       4.048  -6.773   8.793  1.00  0.00     0.031 C 
ATOM     44  C   UNL     1       1.024  -9.542   6.615  1.00  0.00     0.029 A 
ATOM     45  N   UNL     1       0.526  -8.284   8.347  1.00  0.00    -0.354 N 
ATOM     46  C   UNL     1       4.036  -7.017  11.040  1.00  0.00     0.074 A 
ATOM     47  C   UNL     1       4.629  -6.351   9.917  1.00  0.00     0.031 C 
ATOM     48  C   UNL     1      -0.209  -9.028   6.387  1.00  0.00     0.029 A 
ATOM     49  C   UNL     1      -0.578  -8.171   7.501  1.00  0.00     0.049 A 
ATOM     50  H   UNL     1       0.530  -7.910   9.258  1.00  0.00     0.167 HD
ATOM     51  C   UNL     1       3.583  -6.524  12.228  1.00  0.00     0.034 A 
ATOM     52  C   UNL     1      -1.670  -7.375   7.702  1.00  0.00     0.034 A 
ATOM     53  C   UNL     1       2.794  -7.531  12.921  1.00  0.00     0.049 A 
ATOM     54  C   UNL     1      -1.695  -7.077   9.165  1.00  0.00     0.074 A 
ATOM     55  C   UNL     1       3.022  -8.842  13.301  1.00  0.00     0.029 A 
ATOM     56  N   UNL     1       1.419  -7.390  12.918  1.00  0.00    -0.354 N 
ATOM     57  N   UNL     1      -1.873  -8.002  10.074  1.00  0.00    -0.248 NA
ATOM     58  C   UNL     1      -0.969  -5.898   9.625  1.00  0.00     0.031 C 
ATOM     59  C   UNL     1       1.817  -9.531  12.967  1.00  0.00     0.029 A 
ATOM     60  C   UNL     1       0.878  -8.593  12.532  1.00  0.00     0.049 A 
ATOM     61  H   UNL     1       0.917  -6.575  13.150  1.00  0.00     0.167 HD
ATOM     62  C   UNL     1      -0.934  -7.730  11.062  1.00  0.00     0.074 A 
ATOM     63  C   UNL     1      -0.453  -6.379  10.762  1.00  0.00     0.031 C 
ATOM     64  C   UNL     1      -0.388  -8.725  11.828  1.00  0.00     0.034 A 
BRANCH  51  65
ATOM     65  C   UNL     1       3.462  -5.051  12.577  1.00  0.00     0.023 A 
ATOM     66  C   UNL     1       2.892  -4.763  13.831  1.00  0.00     0.031 A 
ATOM     67  C   UNL     1       3.592  -3.946  11.705  1.00  0.00     0.131 A 
ATOM     68  C   UNL     1       2.335  -3.505  14.104  1.00  0.00     0.055 A 
ATOM     69  C   UNL     1       3.098  -2.674  12.009  1.00  0.00     0.041 A 
ATOM     70  F   UNL     1       4.134  -4.025  10.487  1.00  0.00    -0.206 F 
ATOM     71  C   UNL     1       2.424  -2.457  13.196  1.00  0.00     0.022 A 
BRANCH  68  72
ATOM     72  S   UNL     1       1.314  -3.342  15.586  1.00  0.00     0.124 S 
ATOM     73  O   UNL     1       0.350  -4.419  15.387  1.00  0.00    -0.237 OA
ATOM     74  O   UNL     1       2.297  -3.543  16.646  1.00  0.00    -0.237 OA
ATOM     75  O   UNL     1       0.778  -1.989  15.478  1.00  0.00    -0.744 OA
ENDBRANCH  68  72
ENDBRANCH  51  65
BRANCH  52  76
ATOM     76  C   UNL     1      -2.421  -6.582   6.671  1.00  0.00     0.023 A 
ATOM     77  C   UNL     1      -3.699  -6.011   6.890  1.00  0.00     0.031 A 
ATOM     78  C   UNL     1      -1.758  -6.176   5.488  1.00  0.00     0.131 A 
ATOM     79  C   UNL     1      -4.251  -5.094   5.953  1.00  0.00     0.055 A 
ATOM     80  C   UNL     1      -2.307  -5.274   4.571  1.00  0.00     0.041 A 
ATOM     81  F   UNL     1      -0.506  -6.577   5.219  1.00  0.00    -0.206 F 
ATOM     82  C   UNL     1      -3.553  -4.722   4.803  1.00  0.00     0.022 A 
BRANCH  79  83
ATOM     83  S   UNL     1      -5.870  -4.296   6.248  1.00  0.00     0.124 S 
ATOM     84  O   UNL     1      -6.798  -5.410   6.095  1.00  0.00    -0.237 OA
ATOM     85  O   UNL     1      -5.715  -3.759   7.595  1.00  0.00    -0.237 OA
ATOM     86  O   UNL     1      -5.950  -3.282   5.195  1.00  0.00    -0.744 OA
ENDBRANCH  79  83
ENDBRANCH  52  76
BRANCH  64  87
ATOM     87  C   UNL     1      -1.005 -10.113  11.806  1.00  0.00     0.023 A 
ATOM     88  C   UNL     1      -1.193 -10.915  10.655  1.00  0.00     0.031 A 
ATOM     89  C   UNL     1      -1.276 -10.702  13.055  1.00  0.00     0.131 A 
ATOM     90  C   UNL     1      -1.637 -12.249  10.790  1.00  0.00     0.055 A 
ATOM     91  C   UNL     1      -1.689 -12.026  13.185  1.00  0.00     0.041 A 
ATOM     92  F   UNL     1      -1.095 -10.004  14.189  1.00  0.00    -0.206 F 
ATOM     93  C   UNL     1      -1.876 -12.804  12.051  1.00  0.00     0.022 A 
BRANCH  90  94
ATOM     94  S   UNL     1      -1.936 -13.295   9.325  1.00  0.00     0.124 S 
ATOM     95  O   UNL     1      -2.681 -12.420   8.428  1.00  0.00    -0.237 OA
ATOM     96  O   UNL     1      -0.581 -13.640   8.902  1.00  0.00    -0.237 OA
ATOM     97  O   UNL     1      -2.709 -14.417   9.861  1.00  0.00    -0.744 OA
ENDBRANCH  90  94
ENDBRANCH  64  87
ENDBRANCH  38  39
ENDBRANCH  30  33
ENDBRANCH  28  29
ENDBRANCH  27  28
ENDBRANCH  26  27
ENDBRANCH   1  26
TORSDOF 21
