REMARK SMILES COc1cc([C@@H]2CC(=O)Nc3c(C(=O)NCCCCCCNC(=O)c4ccc(-c5c6nc(c(-c7cc(S(=O)(=O)[O-])ccc7F)c7ccc([nH]7)c(-c7cc(S(=O)(=O)[O-])ccc7F)c7nc(c(-c8cc(S(=O)(=O)[O-])ccc8F)c8ccc5[nH]8)C=C7)C=C6)cc4)cn(-c4ccc(F)cc4)c32)c(OC)c2c1OCO2
REMARK SMILES IDX 19 1 18 2 17 3 16 4 15 5 13 6 14 7 12 9 6 10 7 11 97 12 8 13
REMARK SMILES IDX 11 14 89 15 9 16 10 17 88 18 5 20 3 21 4 22 102 23 101 24
REMARK SMILES IDX 103 25 98 26 105 27 104 28 2 29 1 30 99 31 100 32 90 33
REMARK SMILES IDX 91 34 96 35 92 36 95 37 93 38 94 39 20 40 21 41 22 42 23 43
REMARK SMILES IDX 24 45 25 46 26 47 87 48 27 49 86 50 28 51 29 52 30 53 80 54
REMARK SMILES IDX 31 55 85 56 79 57 81 58 32 59 84 60 78 61 77 62 33 64 65 65
REMARK SMILES IDX 45 66 64 67 46 68 49 69 63 70 82 71 47 72 48 73 62 75 83 76
REMARK SMILES IDX 50 77 34 78 35 79 43 80 36 81 42 82 44 83 41 84 37 85 38 86
REMARK SMILES IDX 39 87 40 88 66 89 67 90 75 91 68 92 74 93 76 94 73 95 69 96
REMARK SMILES IDX 70 97 71 98 72 99 51 100 52 101 60 102 53 103 59 104 61 105
REMARK SMILES IDX 58 106 54 107 55 108 56 109 57 110
REMARK H PARENT 15 8 10 19 22 44 81 63 49 74
REMARK Flexibility Score: inf
ROOT
ATOM      1  C   UNL     1       1.161  11.775  -6.807  1.00  0.00     0.002 C 
ENDROOT
BRANCH   1   2
ATOM      2  C   UNL     1      -0.279  11.307  -6.536  1.00  0.00     0.002 C 
BRANCH   2   3
ATOM      3  C   UNL     1      -0.384   9.926  -5.885  1.00  0.00     0.021 C 
BRANCH   3   4
ATOM      4  C   UNL     1       0.288   9.852  -4.509  1.00  0.00     0.116 C 
BRANCH   4   5
ATOM      5  N   UNL     1      -0.681  10.087  -3.473  1.00  0.00    -0.352 N 
ATOM      6  C   UNL     1      -1.430   9.259  -2.689  1.00  0.00     0.254 C 
ATOM      7  O   UNL     1      -2.160   9.842  -1.878  1.00  0.00    -0.269 OA
ATOM      8  H   UNL     1      -0.837  11.042  -3.293  1.00  0.00     0.163 HD
BRANCH   6   9
ATOM      9  C   UNL     1      -1.371   7.791  -2.712  1.00  0.00     0.081 A 
ATOM     10  C   UNL     1      -0.781   4.190  -3.581  1.00  0.00     0.082 C 
ATOM     11  C   UNL     1      -0.618   4.323  -5.099  1.00  0.00     0.115 C 
ATOM     12  C   UNL     1      -1.090   5.526  -2.956  1.00  0.00     0.055 A 
ATOM     13  C   UNL     1      -0.030   5.639  -5.550  1.00  0.00     0.225 C 
ATOM     14  C   UNL     1      -0.908   6.750  -3.577  1.00  0.00     0.076 A 
ATOM     15  N   UNL     1      -1.781   5.749  -1.785  1.00  0.00    -0.317 N 
ATOM     16  O   UNL     1       0.617   5.747  -6.592  1.00  0.00    -0.275 OA
ATOM     17  N   UNL     1      -0.366   6.760  -4.841  1.00  0.00    -0.324 N 
ATOM     18  C   UNL     1      -1.966   7.100  -1.657  1.00  0.00     0.107 A 
ATOM     19  H   UNL     1      -0.209   7.634  -5.264  1.00  0.00     0.170 HD
BRANCH  10  20
ATOM     20  C   UNL     1       0.386   3.411  -2.969  1.00  0.00     0.012 A 
ATOM     21  C   UNL     1       1.061   1.311  -1.884  1.00  0.00     0.165 A 
ATOM     22  C   UNL     1       0.106   2.086  -2.536  1.00  0.00     0.059 A 
ATOM     23  C   UNL     1       2.335   1.824  -1.775  1.00  0.00     0.211 A 
ATOM     24  C   UNL     1       2.649   3.089  -2.241  1.00  0.00     0.211 A 
ATOM     25  O   UNL     1       3.410   1.185  -1.232  1.00  0.00    -0.449 OA
ATOM     26  C   UNL     1       1.698   3.919  -2.828  1.00  0.00     0.168 A 
ATOM     27  O   UNL     1       3.969   3.373  -2.024  1.00  0.00    -0.449 OA
ATOM     28  C   UNL     1       4.456   2.126  -1.506  1.00  0.00     0.468 C 
BRANCH  21  29
ATOM     29  O   UNL     1       0.660   0.088  -1.433  1.00  0.00    -0.493 OA
ATOM     30  C   UNL     1       0.974  -0.119  -0.057  1.00  0.00     0.278 C 
ENDBRANCH  21  29
BRANCH  26  31
ATOM     31  O   UNL     1       1.904   5.188  -3.280  1.00  0.00    -0.492 OA
ATOM     32  C   UNL     1       3.232   5.690  -3.319  1.00  0.00     0.278 C 
ENDBRANCH  26  31
ENDBRANCH  10  20
BRANCH  15  33
ATOM     33  C   UNL     1      -2.351   4.787  -0.925  1.00  0.00     0.046 A 
ATOM     34  C   UNL     1      -1.553   3.790  -0.363  1.00  0.00     0.029 A 
ATOM     35  C   UNL     1      -3.732   4.812  -0.697  1.00  0.00     0.029 A 
ATOM     36  C   UNL     1      -2.150   2.747   0.342  1.00  0.00     0.041 A 
ATOM     37  C   UNL     1      -4.323   3.767   0.013  1.00  0.00     0.041 A 
ATOM     38  C   UNL     1      -3.530   2.734   0.506  1.00  0.00     0.123 A 
ATOM     39  F   UNL     1      -4.104   1.710   1.151  1.00  0.00    -0.207 F 
ENDBRANCH  15  33
ENDBRANCH   6   9
ENDBRANCH   4   5
ENDBRANCH   3   4
ENDBRANCH   2   3
ENDBRANCH   1   2
BRANCH   1  40
ATOM     40  C   UNL     1       2.036  10.803  -7.614  1.00  0.00     0.021 C 
BRANCH  40  41
ATOM     41  C   UNL     1       1.617  10.710  -9.072  1.00  0.00     0.116 C 
BRANCH  41  42
ATOM     42  N   UNL     1       1.859  11.970  -9.771  1.00  0.00    -0.352 N 
ATOM     43  C   UNL     1       1.641  12.276 -11.099  1.00  0.00     0.251 C 
ATOM     44  H   UNL     1       2.228  12.698  -9.220  1.00  0.00     0.163 HD
ATOM     45  O   UNL     1       2.202  13.228 -11.612  1.00  0.00    -0.269 OA
BRANCH  43  46
ATOM     46  C   UNL     1       0.728  11.415 -11.873  1.00  0.00     0.039 A 
ATOM     47  C   UNL     1       1.042  11.030 -13.177  1.00  0.00     0.014 A 
ATOM     48  C   UNL     1      -0.438  10.969 -11.257  1.00  0.00     0.014 A 
ATOM     49  C   UNL     1       0.209  10.121 -13.825  1.00  0.00     0.010 A 
ATOM     50  C   UNL     1      -1.178   9.970 -11.840  1.00  0.00     0.010 A 
ATOM     51  C   UNL     1      -0.890   9.573 -13.141  1.00  0.00    -0.014 A 
BRANCH  51  52
ATOM     52  C   UNL     1      -1.669   8.484 -13.729  1.00  0.00     0.031 A 
ATOM     53  C   UNL     1      -0.857   7.329 -14.197  1.00  0.00     0.074 A 
ATOM     54  C   UNL     1      -3.019   8.422 -13.673  1.00  0.00     0.049 A 
ATOM     55  N   UNL     1      -0.656   6.954 -15.416  1.00  0.00    -0.248 NA
ATOM     56  C   UNL     1      -0.045   6.594 -13.213  1.00  0.00     0.031 C 
ATOM     57  C   UNL     1      -3.940   9.358 -13.016  1.00  0.00     0.029 A 
ATOM     58  N   UNL     1      -3.858   7.441 -14.111  1.00  0.00    -0.354 N 
ATOM     59  C   UNL     1       0.102   5.789 -15.343  1.00  0.00     0.074 A 
ATOM     60  C   UNL     1       0.611   5.736 -13.999  1.00  0.00     0.031 C 
ATOM     61  C   UNL     1      -5.161   8.793 -12.896  1.00  0.00     0.029 A 
ATOM     62  C   UNL     1      -5.162   7.543 -13.631  1.00  0.00     0.049 A 
ATOM     63  H   UNL     1      -3.566   6.721 -14.715  1.00  0.00     0.167 HD
ATOM     64  C   UNL     1       0.036   4.850 -16.328  1.00  0.00     0.034 A 
ATOM     65  C   UNL     1      -6.193   6.679 -13.828  1.00  0.00     0.034 A 
ATOM     66  C   UNL     1      -0.586   5.394 -17.515  1.00  0.00     0.049 A 
ATOM     67  C   UNL     1      -5.877   5.929 -15.064  1.00  0.00     0.074 A 
ATOM     68  C   UNL     1      -0.288   6.412 -18.398  1.00  0.00     0.029 A 
ATOM     69  N   UNL     1      -1.919   5.111 -17.705  1.00  0.00    -0.354 N 
ATOM     70  N   UNL     1      -5.791   6.499 -16.235  1.00  0.00    -0.248 NA
ATOM     71  C   UNL     1      -5.192   4.651 -14.952  1.00  0.00     0.031 C 
ATOM     72  C   UNL     1      -1.548   7.001 -18.720  1.00  0.00     0.029 A 
ATOM     73  C   UNL     1      -2.553   6.270 -18.079  1.00  0.00     0.049 A 
ATOM     74  H   UNL     1      -2.345   4.231 -17.592  1.00  0.00     0.167 HD
ATOM     75  C   UNL     1      -4.695   5.907 -16.841  1.00  0.00     0.074 A 
ATOM     76  C   UNL     1      -4.455   4.690 -16.067  1.00  0.00     0.031 C 
ATOM     77  C   UNL     1      -3.924   6.600 -17.732  1.00  0.00     0.034 A 
BRANCH  64  78
ATOM     78  C   UNL     1       0.154   3.354 -16.117  1.00  0.00     0.023 A 
ATOM     79  C   UNL     1       0.054   2.531 -17.258  1.00  0.00     0.031 A 
ATOM     80  C   UNL     1       0.050   2.691 -14.873  1.00  0.00     0.131 A 
ATOM     81  C   UNL     1      -0.244   1.162 -17.140  1.00  0.00     0.055 A 
ATOM     82  C   UNL     1      -0.181   1.317 -14.761  1.00  0.00     0.041 A 
ATOM     83  F   UNL     1       0.064   3.338 -13.703  1.00  0.00    -0.206 F 
ATOM     84  C   UNL     1      -0.363   0.548 -15.897  1.00  0.00     0.022 A 
BRANCH  81  85
ATOM     85  S   UNL     1      -0.661   0.237 -18.642  1.00  0.00     0.124 S 
ATOM     86  O   UNL     1      -1.727   1.057 -19.208  1.00  0.00    -0.237 OA
ATOM     87  O   UNL     1       0.609   0.242 -19.361  1.00  0.00    -0.237 OA
ATOM     88  O   UNL     1      -1.082  -1.065 -18.131  1.00  0.00    -0.744 OA
ENDBRANCH  81  85
ENDBRANCH  64  78
BRANCH  65  89
ATOM     89  C   UNL     1      -7.215   6.266 -12.829  1.00  0.00     0.023 A 
ATOM     90  C   UNL     1      -8.488   5.758 -13.168  1.00  0.00     0.031 A 
ATOM     91  C   UNL     1      -6.829   6.156 -11.473  1.00  0.00     0.131 A 
ATOM     92  C   UNL     1      -9.309   5.173 -12.172  1.00  0.00     0.055 A 
ATOM     93  C   UNL     1      -7.642   5.578 -10.496  1.00  0.00     0.041 A 
ATOM     94  F   UNL     1      -5.606   6.537 -11.070  1.00  0.00    -0.206 F 
ATOM     95  C   UNL     1      -8.885   5.076 -10.844  1.00  0.00     0.022 A 
BRANCH  92  96
ATOM     96  S   UNL     1     -10.936   4.466 -12.600  1.00  0.00     0.124 S 
ATOM     97  O   UNL     1     -11.647   5.616 -13.145  1.00  0.00    -0.237 OA
ATOM     98  O   UNL     1     -10.578   3.415 -13.546  1.00  0.00    -0.237 OA
ATOM     99  O   UNL     1     -11.448   3.982 -11.316  1.00  0.00    -0.744 OA
ENDBRANCH  92  96
ENDBRANCH  65  89
BRANCH  77 100
ATOM    100  C   UNL     1      -4.468   7.917 -18.258  1.00  0.00     0.023 A 
ATOM    101  C   UNL     1      -4.745   9.055 -17.464  1.00  0.00     0.031 A 
ATOM    102  C   UNL     1      -4.605   8.046 -19.650  1.00  0.00     0.131 A 
ATOM    103  C   UNL     1      -5.154  10.259 -18.074  1.00  0.00     0.055 A 
ATOM    104  C   UNL     1      -4.988   9.244 -20.251  1.00  0.00     0.041 A 
ATOM    105  F   UNL     1      -4.330   7.009 -20.459  1.00  0.00    -0.206 F 
ATOM    106  C   UNL     1      -5.269  10.355 -19.464  1.00  0.00     0.022 A 
BRANCH 103 107
ATOM    107  S   UNL     1      -5.551  11.727 -17.065  1.00  0.00     0.124 S 
ATOM    108  O   UNL     1      -6.527  11.226 -16.105  1.00  0.00    -0.237 OA
ATOM    109  O   UNL     1      -4.250  12.101 -16.517  1.00  0.00    -0.237 OA
ATOM    110  O   UNL     1      -6.091  12.676 -18.041  1.00  0.00    -0.744 OA
ENDBRANCH 103 107
ENDBRANCH  77 100
ENDBRANCH  51  52
ENDBRANCH  43  46
ENDBRANCH  41  42
ENDBRANCH  40  41
ENDBRANCH   1  40
TORSDOF 20
