REMARK SMILES COc1ccc2c(c1)[C@@](NC=O)(C(=O)NCCCCCCNC(=O)c1ccc(-c3c4nc(c(-c5cc(S(=O)(=O)[O-])ccc5F)c5ccc([nH]5)c(-c5cc(S(=O)(=O)[O-])ccc5F)c5nc(c(-c6cc(S(=O)(=O)[O-])ccc6F)c6ccc3[nH]6)C=C5)C=C4)cc1)CCC2
REMARK SMILES IDX 19 1 18 2 17 3 16 4 15 5 13 6 14 7 9 9 3 10 4 11 8 12 5 13
REMARK SMILES IDX 7 14 6 15 90 16 88 17 89 18 2 19 1 20 10 21 11 22 12 24
REMARK SMILES IDX 20 25 21 26 22 27 23 28 24 30 25 31 26 32 87 33 27 34 86 35
REMARK SMILES IDX 28 36 29 37 30 38 80 39 31 40 85 41 79 42 81 43 32 44 84 45
REMARK SMILES IDX 78 46 77 47 33 49 65 50 45 51 64 52 46 53 49 54 63 55 82 56
REMARK SMILES IDX 47 57 48 58 62 60 83 61 50 62 34 63 35 64 43 65 36 66 42 67
REMARK SMILES IDX 44 68 41 69 37 70 38 71 39 72 40 73 66 74 67 75 75 76 68 77
REMARK SMILES IDX 74 78 76 79 73 80 69 81 70 82 71 83 72 84 51 85 52 86 60 87
REMARK SMILES IDX 53 88 59 89 61 90 58 91 54 92 55 93 56 94 57 95
REMARK H PARENT 15 8 10 23 22 29 81 48 49 59
REMARK Flexibility Score: inf
ROOT
ATOM      1  C   UNL     1       3.788   4.430   3.049  1.00  0.00     0.002 C 
ENDROOT
BRANCH   1   2
ATOM      2  C   UNL     1       4.274   3.938   4.414  1.00  0.00     0.002 C 
BRANCH   2   3
ATOM      3  C   UNL     1       3.495   2.778   5.036  1.00  0.00     0.021 C 
BRANCH   3   4
ATOM      4  C   UNL     1       3.360   1.523   4.182  1.00  0.00     0.116 C 
BRANCH   4   5
ATOM      5  N   UNL     1       4.624   0.896   3.841  1.00  0.00    -0.354 N 
ATOM      6  C   UNL     1       4.905  -0.398   3.510  1.00  0.00     0.250 C 
ATOM      7  O   UNL     1       6.048  -0.604   3.068  1.00  0.00    -0.272 OA
ATOM      8  H   UNL     1       5.402   1.500   3.851  1.00  0.00     0.163 HD
BRANCH   6   9
ATOM      9  C   UNL     1       3.947  -1.623   3.790  1.00  0.00     0.144 C 
ATOM     10  C   UNL     1       0.681  -0.370   2.234  1.00  0.00     0.119 A 
ATOM     11  C   UNL     1      -0.213  -0.548   3.286  1.00  0.00     0.047 A 
ATOM     12  C   UNL     1       2.008  -0.770   2.385  1.00  0.00     0.053 A 
ATOM     13  C   UNL     1       0.194  -1.177   4.462  1.00  0.00     0.008 A 
ATOM     14  C   UNL     1       2.459  -1.332   3.598  1.00  0.00    -0.006 A 
ATOM     15  C   UNL     1       1.521  -1.597   4.621  1.00  0.00    -0.042 A 
ATOM     16  C   UNL     1       1.915  -2.244   5.926  1.00  0.00     0.036 C 
ATOM     17  C   UNL     1       4.297  -2.076   5.229  1.00  0.00     0.044 C 
ATOM     18  C   UNL     1       3.239  -2.990   5.830  1.00  0.00     0.008 C 
BRANCH  10  19
ATOM     19  O   UNL     1       0.172   0.267   1.138  1.00  0.00    -0.497 OA
ATOM     20  C   UNL     1       0.835   0.009  -0.094  1.00  0.00     0.278 C 
ENDBRANCH  10  19
BRANCH   9  21
ATOM     21  N   UNL     1       4.400  -2.644   2.820  1.00  0.00    -0.341 N 
ATOM     22  C   UNL     1       3.710  -3.698   2.317  1.00  0.00     0.338 C 
ATOM     23  H   UNL     1       5.325  -2.545   2.497  1.00  0.00     0.164 HD
ATOM     24  O   UNL     1       4.210  -4.508   1.545  1.00  0.00    -0.279 OA
ENDBRANCH   9  21
ENDBRANCH   6   9
ENDBRANCH   4   5
ENDBRANCH   3   4
ENDBRANCH   2   3
ENDBRANCH   1   2
BRANCH   1  25
ATOM     25  C   UNL     1       2.310   4.817   2.955  1.00  0.00     0.021 C 
BRANCH  25  26
ATOM     26  C   UNL     1       1.814   5.813   3.999  1.00  0.00     0.116 C 
BRANCH  26  27
ATOM     27  N   UNL     1       2.539   7.071   3.968  1.00  0.00    -0.352 N 
ATOM     28  C   UNL     1       2.060   8.358   3.955  1.00  0.00     0.251 C 
ATOM     29  H   UNL     1       3.520   6.989   3.954  1.00  0.00     0.163 HD
ATOM     30  O   UNL     1       2.842   9.288   3.771  1.00  0.00    -0.269 OA
BRANCH  28  31
ATOM     31  C   UNL     1       0.613   8.626   4.130  1.00  0.00     0.039 A 
ATOM     32  C   UNL     1       0.011   9.605   3.336  1.00  0.00     0.014 A 
ATOM     33  C   UNL     1      -0.146   7.941   5.083  1.00  0.00     0.014 A 
ATOM     34  C   UNL     1      -1.356   9.863   3.464  1.00  0.00     0.010 A 
ATOM     35  C   UNL     1      -1.523   8.140   5.152  1.00  0.00     0.010 A 
ATOM     36  C   UNL     1      -2.143   9.114   4.355  1.00  0.00    -0.014 A 
BRANCH  36  37
ATOM     37  C   UNL     1      -3.604   9.361   4.480  1.00  0.00     0.031 A 
ATOM     38  C   UNL     1      -4.182   9.841   5.784  1.00  0.00     0.074 A 
ATOM     39  C   UNL     1      -4.419   9.108   3.437  1.00  0.00     0.049 A 
ATOM     40  N   UNL     1      -5.431  10.068   6.107  1.00  0.00    -0.248 NA
ATOM     41  C   UNL     1      -3.229  10.057   6.882  1.00  0.00     0.031 C 
ATOM     42  C   UNL     1      -3.987   8.588   2.138  1.00  0.00     0.029 A 
ATOM     43  N   UNL     1      -5.778   9.243   3.305  1.00  0.00    -0.354 N 
ATOM     44  C   UNL     1      -5.413  10.446   7.446  1.00  0.00     0.074 A 
ATOM     45  C   UNL     1      -4.040  10.331   7.891  1.00  0.00     0.031 C 
ATOM     46  C   UNL     1      -5.056   8.467   1.336  1.00  0.00     0.029 A 
ATOM     47  C   UNL     1      -6.254   8.857   2.074  1.00  0.00     0.049 A 
ATOM     48  H   UNL     1      -6.358   9.583   4.024  1.00  0.00     0.167 HD
ATOM     49  C   UNL     1      -6.439  10.877   8.224  1.00  0.00     0.034 A 
ATOM     50  C   UNL     1      -7.513   8.809   1.594  1.00  0.00     0.034 A 
ATOM     51  C   UNL     1      -7.803  10.978   7.761  1.00  0.00     0.049 A 
ATOM     52  C   UNL     1      -8.645   9.272   2.474  1.00  0.00     0.074 A 
ATOM     53  C   UNL     1      -8.915  11.445   8.441  1.00  0.00     0.029 A 
ATOM     54  N   UNL     1      -8.248  10.591   6.501  1.00  0.00    -0.354 N 
ATOM     55  N   UNL     1      -8.608   9.687   3.719  1.00  0.00    -0.248 NA
ATOM     56  C   UNL     1      -9.986   9.278   1.876  1.00  0.00     0.031 C 
ATOM     57  C   UNL     1     -10.038  11.266   7.625  1.00  0.00     0.029 A 
ATOM     58  C   UNL     1      -9.620  10.774   6.399  1.00  0.00     0.049 A 
ATOM     59  H   UNL     1      -7.672  10.237   5.785  1.00  0.00     0.167 HD
ATOM     60  C   UNL     1      -9.917  10.029   4.046  1.00  0.00     0.074 A 
ATOM     61  C   UNL     1     -10.714   9.786   2.860  1.00  0.00     0.031 C 
ATOM     62  C   UNL     1     -10.412  10.507   5.218  1.00  0.00     0.034 A 
BRANCH  49  63
ATOM     63  C   UNL     1      -6.112  11.234   9.659  1.00  0.00     0.023 A 
ATOM     64  C   UNL     1      -5.166  12.227   9.975  1.00  0.00     0.031 A 
ATOM     65  C   UNL     1      -6.695  10.528  10.726  1.00  0.00     0.131 A 
ATOM     66  C   UNL     1      -4.746  12.403  11.302  1.00  0.00     0.055 A 
ATOM     67  C   UNL     1      -6.350  10.783  12.056  1.00  0.00     0.041 A 
ATOM     68  F   UNL     1      -7.591   9.555  10.495  1.00  0.00    -0.206 F 
ATOM     69  C   UNL     1      -5.352  11.707  12.349  1.00  0.00     0.022 A 
BRANCH  66  70
ATOM     70  S   UNL     1      -3.258  13.395  11.611  1.00  0.00     0.124 S 
ATOM     71  O   UNL     1      -2.273  12.718  10.769  1.00  0.00    -0.237 OA
ATOM     72  O   UNL     1      -3.668  14.723  11.173  1.00  0.00    -0.237 OA
ATOM     73  O   UNL     1      -3.041  13.248  13.048  1.00  0.00    -0.744 OA
ENDBRANCH  66  70
ENDBRANCH  49  63
BRANCH  50  74
ATOM     74  C   UNL     1      -7.764   8.288   0.220  1.00  0.00     0.023 A 
ATOM     75  C   UNL     1      -8.238   9.120  -0.806  1.00  0.00     0.031 A 
ATOM     76  C   UNL     1      -7.525   6.935  -0.085  1.00  0.00     0.131 A 
ATOM     77  C   UNL     1      -8.486   8.586  -2.081  1.00  0.00     0.055 A 
ATOM     78  C   UNL     1      -7.725   6.420  -1.366  1.00  0.00     0.041 A 
ATOM     79  F   UNL     1      -7.064   6.098   0.859  1.00  0.00    -0.206 F 
ATOM     80  C   UNL     1      -8.217   7.246  -2.372  1.00  0.00     0.022 A 
BRANCH  77  81
ATOM     81  S   UNL     1      -9.218   9.657  -3.349  1.00  0.00     0.124 S 
ATOM     82  O   UNL     1     -10.482  10.032  -2.727  1.00  0.00    -0.237 OA
ATOM     83  O   UNL     1      -8.221  10.715  -3.466  1.00  0.00    -0.237 OA
ATOM     84  O   UNL     1      -9.330   8.779  -4.512  1.00  0.00    -0.744 OA
ENDBRANCH  77  81
ENDBRANCH  50  74
BRANCH  62  85
ATOM     85  C   UNL     1     -11.887  10.838   5.257  1.00  0.00     0.023 A 
ATOM     86  C   UNL     1     -12.877   9.848   5.116  1.00  0.00     0.031 A 
ATOM     87  C   UNL     1     -12.308  12.170   5.421  1.00  0.00     0.131 A 
ATOM     88  C   UNL     1     -14.232  10.213   5.078  1.00  0.00     0.055 A 
ATOM     89  C   UNL     1     -13.659  12.518   5.453  1.00  0.00     0.041 A 
ATOM     90  F   UNL     1     -11.410  13.159   5.555  1.00  0.00    -0.206 F 
ATOM     91  C   UNL     1     -14.630  11.539   5.266  1.00  0.00     0.022 A 
BRANCH  88  92
ATOM     92  S   UNL     1     -15.464   8.948   4.665  1.00  0.00     0.124 S 
ATOM     93  O   UNL     1     -14.985   8.469   3.372  1.00  0.00    -0.237 OA
ATOM     94  O   UNL     1     -15.337   8.013   5.778  1.00  0.00    -0.237 OA
ATOM     95  O   UNL     1     -16.721   9.694   4.622  1.00  0.00    -0.744 OA
ENDBRANCH  88  92
ENDBRANCH  62  85
ENDBRANCH  36  37
ENDBRANCH  28  31
ENDBRANCH  26  27
ENDBRANCH  25  26
ENDBRANCH   1  25
TORSDOF 18
