REMARK SMILES COc1ccc([C@H](C(=O)NCCCCCCNC(=O)c2ccc(-c3c4nc(c(-c5cc(S(=O)(=O)[O-])ccc5F)c5ccc([nH]5)c(-c5cc(S(=O)(=O)[O-])ccc5F)c5nc(c(-c6cc(S(=O)(=O)[O-])ccc6F)c6ccc3[nH]6)C=C5)C=C4)cc2)[NH+]2CCC[N@H+](Cc3ccccn3)CC2)cn1
REMARK SMILES IDX 12 1 11 2 10 3 8 4 9 5 7 7 6 8 3 9 4 10 98 11 5 12 97 13
REMARK SMILES IDX 2 14 1 15 83 16 84 18 85 19 96 21 95 22 87 23 86 25 88 27
REMARK SMILES IDX 89 28 90 29 94 30 91 31 93 32 92 33 13 34 14 35 15 36 16 37
REMARK SMILES IDX 17 38 18 39 19 41 20 42 21 43 82 44 22 45 81 46 23 47 24 48
REMARK SMILES IDX 25 49 75 50 26 51 80 52 74 53 76 54 27 55 79 56 73 57 72 58
REMARK SMILES IDX 28 60 60 61 40 62 59 63 41 64 44 65 58 66 77 67 42 68 43 69
REMARK SMILES IDX 57 71 78 72 45 73 29 74 30 75 38 76 31 77 37 78 39 79 36 80
REMARK SMILES IDX 32 81 33 82 34 83 35 84 61 85 62 86 70 87 63 88 69 89 71 90
REMARK SMILES IDX 68 91 64 92 65 93 66 94 67 95 46 96 47 97 55 98 48 99 54 100
REMARK SMILES IDX 56 101 53 102 49 103 50 104 51 105 52 106
REMARK H PARENT 10 6 83 17 87 24 17 40 76 59 44 70
REMARK Flexibility Score: 90.00
ROOT
ATOM      1  C   UNL     1      -2.583  -4.201   2.299  1.00  0.00     0.021 C 
ENDROOT
BRANCH   1   2
ATOM      2  C   UNL     1      -1.112  -4.156   1.893  1.00  0.00     0.116 C 
BRANCH   2   3
ATOM      3  N   UNL     1      -0.212  -3.891   2.998  1.00  0.00    -0.351 N 
ATOM      4  C   UNL     1       1.083  -4.361   3.009  1.00  0.00     0.283 C 
ATOM      5  O   UNL     1       1.987  -3.537   2.821  1.00  0.00    -0.268 OA
ATOM      6  H   UNL     1      -0.535  -3.361   3.761  1.00  0.00     0.163 HD
BRANCH   4   7
ATOM      7  C   UNL     1       1.398  -5.779   3.572  1.00  0.00     0.307 C 
BRANCH   7   8
ATOM      8  C   UNL     1       1.084  -5.934   5.063  1.00  0.00     0.038 A 
ATOM      9  C   UNL     1       0.625  -6.096   7.784  1.00  0.00     0.212 A 
ATOM     10  C   UNL     1       0.991  -7.246   7.103  1.00  0.00     0.069 A 
ATOM     11  N   UNL     1       0.509  -4.894   7.200  1.00  0.00    -0.222 NA
ATOM     12  C   UNL     1       1.238  -7.156   5.730  1.00  0.00     0.017 A 
ATOM     13  C   UNL     1       0.752  -4.840   5.868  1.00  0.00     0.125 A 
BRANCH   9  14
ATOM     14  O   UNL     1       0.257  -6.137   9.102  1.00  0.00    -0.481 OA
ATOM     15  C   UNL     1       1.376  -6.401   9.939  1.00  0.00     0.280 C 
ENDBRANCH   9  14
ENDBRANCH   7   8
BRANCH   7  16
ATOM     16  N   UNL     1       0.985  -6.886   2.691  1.00  0.00    -0.316 N 
ATOM     17  H   UNL     1       0.124  -7.401   2.872  1.00  0.00     0.349 HD
BRANCH  16  18
ATOM     18  C   UNL     1       2.004  -7.413   1.799  1.00  0.00     0.269 C 
BRANCH  18  19
ATOM     19  C   UNL     1       1.745  -8.750   1.088  1.00  0.00     0.123 CG0
ATOM     20  G   UNL     1       0.646  -8.792   0.027  1.00  0.00     0.000 G0
ENDBRANCH  18  19
ENDBRANCH  16  18
BRANCH  16  21
ATOM     21  C   UNL     1      -0.365  -7.405   2.698  1.00  0.00     0.325 C 
BRANCH  21  22
ATOM     22  C   UNL     1      -1.092  -7.656   1.339  1.00  0.00     0.324 C 
BRANCH  22  23
ATOM     23  N   UNL     1      -0.314  -7.729   0.118  1.00  0.00    -0.325 N 
ATOM     24  H   UNL     1      -1.145  -7.824  -0.466  1.00  0.00     0.348 HD
BRANCH  23  25
ATOM     25  C   UNL     1       0.646  -8.792   0.027  1.00  0.00     0.268 CG0
ATOM     26  G   UNL     1       1.745  -8.750   1.088  1.00  0.00     0.000 G0
ENDBRANCH  23  25
BRANCH  23  27
ATOM     27  C   UNL     1      -0.369  -6.706  -0.924  1.00  0.00     0.319 C 
BRANCH  27  28
ATOM     28  C   UNL     1       0.801  -5.733  -1.003  1.00  0.00     0.095 A 
ATOM     29  C   UNL     1       2.048  -6.141  -1.471  1.00  0.00     0.030 A 
ATOM     30  N   UNL     1       0.597  -4.470  -0.548  1.00  0.00    -0.255 NA
ATOM     31  C   UNL     1       3.137  -5.279  -1.345  1.00  0.00     0.004 A 
ATOM     32  C   UNL     1       1.667  -3.651  -0.445  1.00  0.00     0.111 A 
ATOM     33  C   UNL     1       2.950  -4.016  -0.802  1.00  0.00     0.020 A 
ENDBRANCH  27  28
ENDBRANCH  23  27
ENDBRANCH  22  23
ENDBRANCH  21  22
ENDBRANCH  16  21
ENDBRANCH   7  16
ENDBRANCH   4   7
ENDBRANCH   2   3
ENDBRANCH   1   2
BRANCH   1  34
ATOM     34  C   UNL     1      -3.499  -3.415   1.348  1.00  0.00     0.002 C 
BRANCH  34  35
ATOM     35  C   UNL     1      -3.455  -3.802  -0.135  1.00  0.00     0.002 C 
BRANCH  35  36
ATOM     36  C   UNL     1      -3.882  -5.228  -0.472  1.00  0.00     0.021 C 
BRANCH  36  37
ATOM     37  C   UNL     1      -5.255  -5.652   0.018  1.00  0.00     0.116 C 
BRANCH  37  38
ATOM     38  N   UNL     1      -6.323  -4.901  -0.614  1.00  0.00    -0.352 N 
ATOM     39  C   UNL     1      -7.330  -5.337  -1.437  1.00  0.00     0.251 C 
ATOM     40  H   UNL     1      -6.325  -3.935  -0.425  1.00  0.00     0.163 HD
ATOM     41  O   UNL     1      -8.011  -4.508  -2.045  1.00  0.00    -0.269 OA
BRANCH  39  42
ATOM     42  C   UNL     1      -7.590  -6.785  -1.618  1.00  0.00     0.039 A 
ATOM     43  C   UNL     1      -7.935  -7.260  -2.887  1.00  0.00     0.014 A 
ATOM     44  C   UNL     1      -7.535  -7.671  -0.539  1.00  0.00     0.014 A 
ATOM     45  C   UNL     1      -8.181  -8.624  -3.081  1.00  0.00     0.010 A 
ATOM     46  C   UNL     1      -7.690  -9.039  -0.750  1.00  0.00     0.010 A 
ATOM     47  C   UNL     1      -8.040  -9.529  -2.018  1.00  0.00    -0.014 A 
BRANCH  47  48
ATOM     48  C   UNL     1      -8.330 -10.979  -2.176  1.00  0.00     0.031 A 
ATOM     49  C   UNL     1      -9.451 -11.597  -1.380  1.00  0.00     0.074 A 
ATOM     50  C   UNL     1      -7.559 -11.749  -2.969  1.00  0.00     0.049 A 
ATOM     51  N   UNL     1      -9.782 -12.855  -1.246  1.00  0.00    -0.248 NA
ATOM     52  C   UNL     1     -10.286 -10.670  -0.599  1.00  0.00     0.031 C 
ATOM     53  C   UNL     1      -6.435 -11.274  -3.777  1.00  0.00     0.029 A 
ATOM     54  N   UNL     1      -7.594 -13.100  -3.214  1.00  0.00    -0.354 N 
ATOM     55  C   UNL     1     -10.842 -12.873  -0.343  1.00  0.00     0.074 A 
ATOM     56  C   UNL     1     -11.054 -11.506   0.082  1.00  0.00     0.031 C 
ATOM     57  C   UNL     1      -5.899 -12.312  -4.439  1.00  0.00     0.029 A 
ATOM     58  C   UNL     1      -6.604 -13.535  -4.065  1.00  0.00     0.049 A 
ATOM     59  H   UNL     1      -8.265 -13.701  -2.818  1.00  0.00     0.167 HD
ATOM     60  C   UNL     1     -11.585 -13.928   0.074  1.00  0.00     0.034 A 
ATOM     61  C   UNL     1      -6.288 -14.779  -4.480  1.00  0.00     0.034 A 
ATOM     62  C   UNL     1     -11.379 -15.279  -0.386  1.00  0.00     0.049 A 
ATOM     63  C   UNL     1      -7.115 -15.943  -3.989  1.00  0.00     0.074 A 
ATOM     64  C   UNL     1     -12.101 -16.417  -0.071  1.00  0.00     0.029 A 
ATOM     65  N   UNL     1     -10.376 -15.675  -1.261  1.00  0.00    -0.354 N 
ATOM     66  N   UNL     1      -8.129 -15.941  -3.154  1.00  0.00    -0.248 NA
ATOM     67  C   UNL     1      -6.761 -17.274  -4.500  1.00  0.00     0.031 C 
ATOM     68  C   UNL     1     -11.498 -17.508  -0.704  1.00  0.00     0.029 A 
ATOM     69  C   UNL     1     -10.447 -17.042  -1.477  1.00  0.00     0.049 A 
ATOM     70  H   UNL     1      -9.712 -15.073  -1.668  1.00  0.00     0.167 HD
ATOM     71  C   UNL     1      -8.558 -17.263  -3.074  1.00  0.00     0.074 A 
ATOM     72  C   UNL     1      -7.694 -18.034  -3.944  1.00  0.00     0.031 C 
ATOM     73  C   UNL     1      -9.580 -17.792  -2.355  1.00  0.00     0.034 A 
BRANCH  60  74
ATOM     74  C   UNL     1     -12.666 -13.658   1.094  1.00  0.00     0.023 A 
ATOM     75  C   UNL     1     -13.751 -12.807   0.816  1.00  0.00     0.031 A 
ATOM     76  C   UNL     1     -12.594 -14.231   2.377  1.00  0.00     0.131 A 
ATOM     77  C   UNL     1     -14.668 -12.486   1.828  1.00  0.00     0.055 A 
ATOM     78  C   UNL     1     -13.560 -13.977   3.353  1.00  0.00     0.041 A 
ATOM     79  F   UNL     1     -11.573 -15.035   2.710  1.00  0.00    -0.206 F 
ATOM     80  C   UNL     1     -14.596 -13.086   3.087  1.00  0.00     0.022 A 
BRANCH  77  81
ATOM     81  S   UNL     1     -15.861 -11.155   1.522  1.00  0.00     0.124 S 
ATOM     82  O   UNL     1     -14.976 -10.026   1.241  1.00  0.00    -0.237 OA
ATOM     83  O   UNL     1     -16.622 -11.668   0.388  1.00  0.00    -0.237 OA
ATOM     84  O   UNL     1     -16.599 -11.060   2.779  1.00  0.00    -0.744 OA
ENDBRANCH  77  81
ENDBRANCH  60  74
BRANCH  61  85
ATOM     85  C   UNL     1      -5.134 -15.000  -5.398  1.00  0.00     0.023 A 
ATOM     86  C   UNL     1      -5.327 -15.499  -6.696  1.00  0.00     0.031 A 
ATOM     87  C   UNL     1      -3.814 -14.752  -4.977  1.00  0.00     0.131 A 
ATOM     88  C   UNL     1      -4.218 -15.778  -7.511  1.00  0.00     0.055 A 
ATOM     89  C   UNL     1      -2.718 -14.980  -5.811  1.00  0.00     0.041 A 
ATOM     90  F   UNL     1      -3.572 -14.270  -3.748  1.00  0.00    -0.206 F 
ATOM     91  C   UNL     1      -2.917 -15.509  -7.083  1.00  0.00     0.022 A 
BRANCH  88  92
ATOM     92  S   UNL     1      -4.498 -16.582  -9.113  1.00  0.00     0.124 S 
ATOM     93  O   UNL     1      -5.189 -17.803  -8.715  1.00  0.00    -0.237 OA
ATOM     94  O   UNL     1      -5.303 -15.587  -9.814  1.00  0.00    -0.237 OA
ATOM     95  O   UNL     1      -3.148 -16.771  -9.639  1.00  0.00    -0.744 OA
ENDBRANCH  88  92
ENDBRANCH  61  85
BRANCH  73  96
ATOM     96  C   UNL     1      -9.865 -19.262  -2.533  1.00  0.00     0.023 A 
ATOM     97  C   UNL     1      -8.992 -20.254  -2.055  1.00  0.00     0.031 A 
ATOM     98  C   UNL     1     -11.049 -19.671  -3.173  1.00  0.00     0.131 A 
ATOM     99  C   UNL     1      -9.300 -21.608  -2.258  1.00  0.00     0.055 A 
ATOM    100  C   UNL     1     -11.375 -21.018  -3.325  1.00  0.00     0.041 A 
ATOM    101  F   UNL     1     -11.917 -18.762  -3.648  1.00  0.00    -0.206 F 
ATOM    102  C   UNL     1     -10.493 -21.996  -2.873  1.00  0.00     0.022 A 
BRANCH  99 103
ATOM    103  S   UNL     1      -8.089 -22.863  -1.758  1.00  0.00     0.124 S 
ATOM    104  O   UNL     1      -6.934 -22.513  -2.578  1.00  0.00    -0.237 OA
ATOM    105  O   UNL     1      -7.953 -22.614  -0.327  1.00  0.00    -0.237 OA
ATOM    106  O   UNL     1      -8.739 -24.125  -2.107  1.00  0.00    -0.744 OA
ENDBRANCH  99 103
ENDBRANCH  73  96
ENDBRANCH  47  48
ENDBRANCH  39  42
ENDBRANCH  37  38
ENDBRANCH  36  37
ENDBRANCH  35  36
ENDBRANCH  34  35
ENDBRANCH   1  34
TORSDOF 21
