REMARK SMILES O=C(NCCCCCCNC(=O)[C@H]1C=C[C@@H](NS(=O)(=O)c2ccc(Br)cc2)C1)c1ccc(-c2c3nc(c(-c4cc(S(=O)(=O)[O-])ccc4F)c4ccc([nH]4)c(-c4cc(S(=O)(=O)[O-])ccc4F)c4nc(c(-c5cc(S(=O)(=O)[O-])ccc5F)c5ccc2[nH]5)C=C4)C=C3)cc1
REMARK SMILES IDX 6 1 5 2 4 3 3 4 1 5 2 6 29 8 30 9 91 10 31 11 90 12 32 13
REMARK SMILES IDX 33 14 34 15 84 16 35 17 89 18 83 19 85 20 36 21 88 22 82 23
REMARK SMILES IDX 81 24 37 26 69 27 49 28 68 29 50 30 53 31 67 32 86 33 51 34
REMARK SMILES IDX 52 35 66 37 87 38 54 39 38 40 39 41 47 42 40 43 46 44 48 45
REMARK SMILES IDX 45 46 41 47 42 48 43 49 44 50 70 51 71 52 79 53 72 54 78 55
REMARK SMILES IDX 80 56 77 57 73 58 74 59 75 60 76 61 55 62 56 63 64 64 57 65
REMARK SMILES IDX 63 66 65 67 62 68 58 69 59 70 60 71 61 72 7 73 8 74 9 75
REMARK SMILES IDX 10 76 11 77 12 79 13 80 14 81 28 82 15 83 16 84 17 85 18 87
REMARK SMILES IDX 19 88 20 89 21 90 22 91 27 92 23 93 26 94 24 95 25 96
REMARK H PARENT 3 7 85 25 53 36 10 78 17 86
REMARK Flexibility Score: inf
ROOT
ATOM      1  C   UNL     1       4.092  -1.288  -3.501  1.00  0.00     0.002 C 
ENDROOT
BRANCH   1   2
ATOM      2  C   UNL     1       4.597  -1.449  -2.067  1.00  0.00     0.021 C 
BRANCH   2   3
ATOM      3  C   UNL     1       4.377  -0.228  -1.185  1.00  0.00     0.116 C 
BRANCH   3   4
ATOM      4  N   UNL     1       2.963   0.066  -1.003  1.00  0.00    -0.352 N 
ATOM      5  O   UNL     1       1.021   0.210   0.137  1.00  0.00    -0.269 OA
ATOM      6  C   UNL     1       2.246   0.151   0.165  1.00  0.00     0.251 C 
ATOM      7  H   UNL     1       2.451   0.225  -1.829  1.00  0.00     0.163 HD
BRANCH   6   8
ATOM      8  C   UNL     1       2.969   0.160   1.455  1.00  0.00     0.039 A 
ATOM      9  C   UNL     1       4.109   0.951   1.612  1.00  0.00     0.014 A 
ATOM     10  C   UNL     1       2.510  -0.635   2.508  1.00  0.00     0.014 A 
ATOM     11  C   UNL     1       4.870   0.840   2.767  1.00  0.00     0.010 A 
ATOM     12  C   UNL     1       3.224  -0.666   3.709  1.00  0.00     0.010 A 
ATOM     13  C   UNL     1       4.421   0.056   3.841  1.00  0.00    -0.014 A 
BRANCH  13  14
ATOM     14  C   UNL     1       5.181   0.079   5.118  1.00  0.00     0.031 A 
ATOM     15  C   UNL     1       5.829  -1.161   5.665  1.00  0.00     0.074 A 
ATOM     16  C   UNL     1       5.295   1.254   5.769  1.00  0.00     0.049 A 
ATOM     17  N   UNL     1       6.516  -1.311   6.768  1.00  0.00    -0.248 NA
ATOM     18  C   UNL     1       5.677  -2.394   4.879  1.00  0.00     0.031 C 
ATOM     19  C   UNL     1       4.704   2.520   5.325  1.00  0.00     0.029 A 
ATOM     20  N   UNL     1       5.952   1.585   6.925  1.00  0.00    -0.354 N 
ATOM     21  C   UNL     1       6.869  -2.655   6.821  1.00  0.00     0.074 A 
ATOM     22  C   UNL     1       6.286  -3.283   5.652  1.00  0.00     0.031 C 
ATOM     23  C   UNL     1       5.066   3.496   6.169  1.00  0.00     0.029 A 
ATOM     24  C   UNL     1       5.837   2.914   7.260  1.00  0.00     0.049 A 
ATOM     25  H   UNL     1       6.459   0.935   7.464  1.00  0.00     0.167 HD
ATOM     26  C   UNL     1       7.613  -3.297   7.756  1.00  0.00     0.034 A 
ATOM     27  C   UNL     1       6.271   3.589   8.341  1.00  0.00     0.034 A 
ATOM     28  C   UNL     1       8.179  -2.645   8.916  1.00  0.00     0.049 A 
ATOM     29  C   UNL     1       7.042   2.839   9.393  1.00  0.00     0.074 A 
ATOM     30  C   UNL     1       8.975  -3.192   9.908  1.00  0.00     0.029 A 
ATOM     31  N   UNL     1       7.998  -1.308   9.251  1.00  0.00    -0.354 N 
ATOM     32  N   UNL     1       7.382   1.571   9.419  1.00  0.00    -0.248 NA
ATOM     33  C   UNL     1       7.489   3.610  10.558  1.00  0.00     0.031 C 
ATOM     34  C   UNL     1       9.201  -2.213  10.882  1.00  0.00     0.029 A 
ATOM     35  C   UNL     1       8.631  -1.025  10.454  1.00  0.00     0.049 A 
ATOM     36  H   UNL     1       7.494  -0.655   8.713  1.00  0.00     0.167 HD
ATOM     37  C   UNL     1       8.107   1.399  10.594  1.00  0.00     0.074 A 
ATOM     38  C   UNL     1       8.170   2.698  11.234  1.00  0.00     0.031 C 
ATOM     39  C   UNL     1       8.671   0.270  11.095  1.00  0.00     0.034 A 
BRANCH  26  40
ATOM     40  C   UNL     1       7.812  -4.788   7.595  1.00  0.00     0.023 A 
ATOM     41  C   UNL     1       8.496  -5.338   6.497  1.00  0.00     0.031 A 
ATOM     42  C   UNL     1       7.299  -5.677   8.559  1.00  0.00     0.131 A 
ATOM     43  C   UNL     1       8.592  -6.732   6.356  1.00  0.00     0.055 A 
ATOM     44  C   UNL     1       7.470  -7.059   8.455  1.00  0.00     0.041 A 
ATOM     45  F   UNL     1       6.615  -5.217   9.618  1.00  0.00    -0.206 F 
ATOM     46  C   UNL     1       8.108  -7.595   7.341  1.00  0.00     0.022 A 
BRANCH  43  47
ATOM     47  S   UNL     1       9.233  -7.407   4.798  1.00  0.00     0.124 S 
ATOM     48  O   UNL     1       8.321  -6.818   3.821  1.00  0.00    -0.237 OA
ATOM     49  O   UNL     1      10.603  -6.908   4.776  1.00  0.00    -0.237 OA
ATOM     50  O   UNL     1       9.099  -8.853   4.969  1.00  0.00    -0.744 OA
ENDBRANCH  43  47
ENDBRANCH  26  40
BRANCH  27  51
ATOM     51  C   UNL     1       5.948   5.035   8.501  1.00  0.00     0.023 A 
ATOM     52  C   UNL     1       6.960   6.005   8.556  1.00  0.00     0.031 A 
ATOM     53  C   UNL     1       4.614   5.466   8.629  1.00  0.00     0.131 A 
ATOM     54  C   UNL     1       6.626   7.350   8.777  1.00  0.00     0.055 A 
ATOM     55  C   UNL     1       4.283   6.812   8.783  1.00  0.00     0.041 A 
ATOM     56  F   UNL     1       3.606   4.580   8.583  1.00  0.00    -0.206 F 
ATOM     57  C   UNL     1       5.294   7.762   8.872  1.00  0.00     0.022 A 
BRANCH  54  58
ATOM     58  S   UNL     1       7.965   8.544   9.033  1.00  0.00     0.124 S 
ATOM     59  O   UNL     1       8.665   7.964  10.173  1.00  0.00    -0.237 OA
ATOM     60  O   UNL     1       8.667   8.492   7.755  1.00  0.00    -0.237 OA
ATOM     61  O   UNL     1       7.258   9.794   9.304  1.00  0.00    -0.744 OA
ENDBRANCH  54  58
ENDBRANCH  27  51
BRANCH  39  62
ATOM     62  C   UNL     1       9.447   0.410  12.383  1.00  0.00     0.023 A 
ATOM     63  C   UNL     1       8.822   0.764  13.592  1.00  0.00     0.031 A 
ATOM     64  C   UNL     1      10.839   0.206  12.395  1.00  0.00     0.131 A 
ATOM     65  C   UNL     1       9.595   0.966  14.746  1.00  0.00     0.055 A 
ATOM     66  C   UNL     1      11.592   0.338  13.562  1.00  0.00     0.041 A 
ATOM     67  F   UNL     1      11.491  -0.126  11.269  1.00  0.00    -0.206 F 
ATOM     68  C   UNL     1      10.973   0.735  14.743  1.00  0.00     0.022 A 
BRANCH  65  69
ATOM     69  S   UNL     1       8.792   1.642  16.225  1.00  0.00     0.124 S 
ATOM     70  O   UNL     1       8.250   2.901  15.726  1.00  0.00    -0.237 OA
ATOM     71  O   UNL     1       7.813   0.610  16.549  1.00  0.00    -0.237 OA
ATOM     72  O   UNL     1       9.890   1.775  17.180  1.00  0.00    -0.744 OA
ENDBRANCH  65  69
ENDBRANCH  39  62
ENDBRANCH  13  14
ENDBRANCH   6   8
ENDBRANCH   3   4
ENDBRANCH   2   3
ENDBRANCH   1   2
BRANCH   1  73
ATOM     73  C   UNL     1       4.679  -0.098  -4.267  1.00  0.00     0.002 C 
BRANCH  73  74
ATOM     74  C   UNL     1       6.209  -0.018  -4.270  1.00  0.00     0.021 C 
BRANCH  74  75
ATOM     75  C   UNL     1       6.897  -1.283  -4.771  1.00  0.00     0.116 C 
BRANCH  75  76
ATOM     76  N   UNL     1       6.682  -1.490  -6.189  1.00  0.00    -0.356 N 
ATOM     77  C   UNL     1       7.569  -1.536  -7.219  1.00  0.00     0.226 C 
ATOM     78  H   UNL     1       5.741  -1.618  -6.450  1.00  0.00     0.163 HD
ATOM     79  O   UNL     1       7.112  -1.671  -8.359  1.00  0.00    -0.274 OA
BRANCH  77  80
ATOM     80  C   UNL     1       9.083  -1.436  -7.008  1.00  0.00     0.103 C 
ATOM     81  C   UNL     1       9.520  -0.146  -6.398  1.00  0.00    -0.016 C 
ATOM     82  C   UNL     1       9.678  -2.513  -6.090  1.00  0.00     0.042 C 
ATOM     83  C   UNL     1      10.343  -0.343  -5.362  1.00  0.00    -0.011 C 
ATOM     84  C   UNL     1      10.605  -1.786  -5.091  1.00  0.00     0.093 C 
BRANCH  84  85
ATOM     85  N   UNL     1      10.235  -2.146  -3.731  1.00  0.00    -0.204 NA
ATOM     86  H   UNL     1      10.254  -3.166  -3.693  1.00  0.00     0.142 HD
BRANCH  85  87
ATOM     87  S   UNL     1      11.091  -1.616  -2.390  1.00  0.00     0.241 S 
ATOM     88  O   UNL     1      10.974  -0.178  -2.322  1.00  0.00    -0.207 OA
ATOM     89  O   UNL     1      10.674  -2.470  -1.302  1.00  0.00    -0.207 OA
BRANCH  87  90
ATOM     90  C   UNL     1      12.774  -2.022  -2.785  1.00  0.00     0.082 A 
ATOM     91  C   UNL     1      13.696  -0.995  -3.010  1.00  0.00     0.023 A 
ATOM     92  C   UNL     1      13.163  -3.364  -2.867  1.00  0.00     0.023 A 
ATOM     93  C   UNL     1      15.013  -1.312  -3.346  1.00  0.00     0.017 A 
ATOM     94  C   UNL     1      14.481  -3.675  -3.209  1.00  0.00     0.017 A 
ATOM     95  C   UNL     1      15.397  -2.649  -3.452  1.00  0.00     0.018 A 
ATOM     96  Br  UNL     1      17.177  -3.073  -3.929  1.00  0.00    -0.051 Br
ENDBRANCH  87  90
ENDBRANCH  85  87
ENDBRANCH  84  85
ENDBRANCH  77  80
ENDBRANCH  75  76
ENDBRANCH  74  75
ENDBRANCH  73  74
ENDBRANCH   1  73
TORSDOF 19
