REMARK SMILES CC(=O)Nc1cccc(-c2ccc(F)c(C(=O)NCCCCCCNC(=O)c3ccc(-c4c5nc(c(-c6cc(S(=O)(=O)[O-])ccc6F)c6ccc([nH]6)c(-c6cc(S(=O)(=O)[O-])ccc6F)c6nc(c(-c7cc(S(=O)(=O)[O-])ccc7F)c7ccc4[nH]7)C=C6)C=C5)cc3)c2)c1
REMARK SMILES IDX 22 1 21 2 20 3 19 4 18 5 16 6 17 7 15 9 10 10 11 11 91 12
REMARK SMILES IDX 12 13 13 14 14 15 9 16 5 17 6 18 92 19 7 20 8 21 4 22 1 23
REMARK SMILES IDX 2 24 3 25 23 27 24 28 25 29 26 30 27 32 28 33 29 34 90 35
REMARK SMILES IDX 30 36 89 37 31 38 32 39 33 40 83 41 34 42 88 43 82 44 84 45
REMARK SMILES IDX 35 46 87 47 81 48 80 49 36 51 68 52 48 53 67 54 49 55 52 56
REMARK SMILES IDX 66 57 85 58 50 59 51 60 65 62 86 63 53 64 37 65 38 66 46 67
REMARK SMILES IDX 39 68 45 69 47 70 44 71 40 72 41 73 42 74 43 75 69 76 70 77
REMARK SMILES IDX 78 78 71 79 77 80 79 81 76 82 72 83 73 84 74 85 75 86 54 87
REMARK SMILES IDX 55 88 63 89 56 90 62 91 64 92 61 93 57 94 58 95 59 96 60 97
REMARK H PARENT 18 8 4 26 25 31 84 50 52 61
REMARK Flexibility Score: inf
ROOT
ATOM      1  C   UNL     1       6.919   5.262  -0.975  1.00  0.00     0.002 C 
ENDROOT
BRANCH   1   2
ATOM      2  C   UNL     1       7.788   4.974   0.252  1.00  0.00     0.002 C 
BRANCH   2   3
ATOM      3  C   UNL     1       7.176   4.074   1.322  1.00  0.00     0.021 C 
BRANCH   3   4
ATOM      4  C   UNL     1       6.663   2.715   0.862  1.00  0.00     0.116 C 
BRANCH   4   5
ATOM      5  N   UNL     1       7.691   1.807   0.372  1.00  0.00    -0.352 N 
ATOM      6  C   UNL     1       7.887   0.449   0.545  1.00  0.00     0.254 C 
ATOM      7  O   UNL     1       8.838  -0.071  -0.036  1.00  0.00    -0.269 OA
ATOM      8  H   UNL     1       8.375   2.241  -0.186  1.00  0.00     0.163 HD
BRANCH   6   9
ATOM      9  C   UNL     1       7.014  -0.380   1.421  1.00  0.00     0.076 A 
ATOM     10  C   UNL     1       4.909  -0.668   2.647  1.00  0.00    -0.017 A 
ATOM     11  C   UNL     1       5.469  -1.755   3.327  1.00  0.00     0.012 A 
ATOM     12  C   UNL     1       5.666  -0.078   1.617  1.00  0.00     0.025 A 
ATOM     13  C   UNL     1       6.767  -2.180   3.029  1.00  0.00     0.041 A 
ATOM     14  C   UNL     1       7.543  -1.472   2.109  1.00  0.00     0.135 A 
ATOM     15  F   UNL     1       8.815  -1.859   1.940  1.00  0.00    -0.206 F 
BRANCH  10  16
ATOM     16  C   UNL     1       3.643  -0.028   3.058  1.00  0.00    -0.016 A 
ATOM     17  C   UNL     1       1.636   1.240   2.445  1.00  0.00     0.041 A 
ATOM     18  C   UNL     1       1.466   1.604   3.782  1.00  0.00     0.026 A 
ATOM     19  C   UNL     1       2.723   0.433   2.099  1.00  0.00     0.034 A 
ATOM     20  C   UNL     1       2.334   1.120   4.761  1.00  0.00     0.003 A 
ATOM     21  C   UNL     1       3.412   0.308   4.402  1.00  0.00     0.009 A 
BRANCH  17  22
ATOM     22  N   UNL     1       0.756   1.795   1.501  1.00  0.00    -0.326 N 
ATOM     23  C   UNL     1       0.828   0.073  -0.301  1.00  0.00     0.114 C 
ATOM     24  C   UNL     1       0.462   1.437   0.216  1.00  0.00     0.221 C 
ATOM     25  O   UNL     1      -0.153   2.228  -0.501  1.00  0.00    -0.275 OA
ATOM     26  H   UNL     1       0.263   2.584   1.823  1.00  0.00     0.169 HD
ENDBRANCH  17  22
ENDBRANCH  10  16
ENDBRANCH   6   9
ENDBRANCH   4   5
ENDBRANCH   3   4
ENDBRANCH   2   3
ENDBRANCH   1   2
BRANCH   1  27
ATOM     27  C   UNL     1       5.503   5.775  -0.703  1.00  0.00     0.021 C 
BRANCH  27  28
ATOM     28  C   UNL     1       5.403   7.009   0.190  1.00  0.00     0.116 C 
BRANCH  28  29
ATOM     29  N   UNL     1       6.102   8.156  -0.363  1.00  0.00    -0.352 N 
ATOM     30  C   UNL     1       5.641   9.426  -0.616  1.00  0.00     0.251 C 
ATOM     31  H   UNL     1       7.047   8.001  -0.591  1.00  0.00     0.163 HD
ATOM     32  O   UNL     1       6.338  10.206  -1.256  1.00  0.00    -0.269 OA
BRANCH  30  33
ATOM     33  C   UNL     1       4.301   9.841  -0.141  1.00  0.00     0.039 A 
ATOM     34  C   UNL     1       3.479  10.574  -1.002  1.00  0.00     0.014 A 
ATOM     35  C   UNL     1       3.858   9.526   1.147  1.00  0.00     0.014 A 
ATOM     36  C   UNL     1       2.194  10.938  -0.592  1.00  0.00     0.010 A 
ATOM     37  C   UNL     1       2.549   9.821   1.524  1.00  0.00     0.010 A 
ATOM     38  C   UNL     1       1.704  10.534   0.660  1.00  0.00    -0.014 A 
BRANCH  38  39
ATOM     39  C   UNL     1       0.311  10.851   1.077  1.00  0.00     0.031 A 
ATOM     40  C   UNL     1       0.055  11.723   2.276  1.00  0.00     0.074 A 
ATOM     41  C   UNL     1      -0.724  10.300   0.413  1.00  0.00     0.049 A 
ATOM     42  N   UNL     1      -1.083  12.064   2.826  1.00  0.00    -0.248 NA
ATOM     43  C   UNL     1       1.239  12.250   2.967  1.00  0.00     0.031 C 
ATOM     44  C   UNL     1      -0.602   9.393  -0.731  1.00  0.00     0.029 A 
ATOM     45  N   UNL     1      -2.078  10.408   0.607  1.00  0.00    -0.354 N 
ATOM     46  C   UNL     1      -0.751  12.833   3.937  1.00  0.00     0.074 A 
ATOM     47  C   UNL     1       0.694  12.844   4.017  1.00  0.00     0.031 C 
ATOM     48  C   UNL     1      -1.829   9.046  -1.149  1.00  0.00     0.029 A 
ATOM     49  C   UNL     1      -2.823   9.662  -0.276  1.00  0.00     0.049 A 
ATOM     50  H   UNL     1      -2.478  10.967   1.312  1.00  0.00     0.167 HD
ATOM     51  C   UNL     1      -1.576  13.487   4.794  1.00  0.00     0.034 A 
ATOM     52  C   UNL     1      -4.155   9.477  -0.365  1.00  0.00     0.034 A 
ATOM     53  C   UNL     1      -3.017  13.460   4.694  1.00  0.00     0.049 A 
ATOM     54  C   UNL     1      -5.056  10.192   0.606  1.00  0.00     0.074 A 
ATOM     55  C   UNL     1      -3.948  14.140   5.460  1.00  0.00     0.029 A 
ATOM     56  N   UNL     1      -3.739  12.696   3.784  1.00  0.00    -0.354 N 
ATOM     57  N   UNL     1      -4.732  10.978   1.608  1.00  0.00    -0.248 NA
ATOM     58  C   UNL     1      -6.501  10.007   0.428  1.00  0.00     0.031 C 
ATOM     59  C   UNL     1      -5.226  13.720   5.075  1.00  0.00     0.029 A 
ATOM     60  C   UNL     1      -5.101  12.850   4.002  1.00  0.00     0.049 A 
ATOM     61  H   UNL     1      -3.342  12.127   3.085  1.00  0.00     0.167 HD
ATOM     62  C   UNL     1      -5.936  11.398   2.167  1.00  0.00     0.074 A 
ATOM     63  C   UNL     1      -6.990  10.790   1.378  1.00  0.00     0.031 C 
ATOM     64  C   UNL     1      -6.149  12.217   3.229  1.00  0.00     0.034 A 
BRANCH  51  65
ATOM     65  C   UNL     1      -0.929  14.245   5.935  1.00  0.00     0.023 A 
ATOM     66  C   UNL     1      -0.004  15.281   5.708  1.00  0.00     0.031 A 
ATOM     67  C   UNL     1      -1.190  13.885   7.269  1.00  0.00     0.131 A 
ATOM     68  C   UNL     1       0.705  15.838   6.783  1.00  0.00     0.055 A 
ATOM     69  C   UNL     1      -0.557  14.518   8.342  1.00  0.00     0.041 A 
ATOM     70  F   UNL     1      -2.046  12.892   7.556  1.00  0.00    -0.206 F 
ATOM     71  C   UNL     1       0.415  15.483   8.102  1.00  0.00     0.022 A 
BRANCH  68  72
ATOM     72  S   UNL     1       2.149  16.876   6.419  1.00  0.00     0.124 S 
ATOM     73  O   UNL     1       2.944  15.988   5.573  1.00  0.00    -0.237 OA
ATOM     74  O   UNL     1       1.549  18.026   5.754  1.00  0.00    -0.237 OA
ATOM     75  O   UNL     1       2.721  17.142   7.737  1.00  0.00    -0.744 OA
ENDBRANCH  68  72
ENDBRANCH  51  65
BRANCH  52  76
ATOM     76  C   UNL     1      -4.706   8.557  -1.401  1.00  0.00     0.023 A 
ATOM     77  C   UNL     1      -5.483   9.034  -2.467  1.00  0.00     0.031 A 
ATOM     78  C   UNL     1      -4.446   7.175  -1.339  1.00  0.00     0.131 A 
ATOM     79  C   UNL     1      -5.993   8.134  -3.417  1.00  0.00     0.055 A 
ATOM     80  C   UNL     1      -4.911   6.292  -2.314  1.00  0.00     0.041 A 
ATOM     81  F   UNL     1      -3.705   6.670  -0.340  1.00  0.00    -0.206 F 
ATOM     82  C   UNL     1      -5.697   6.770  -3.357  1.00  0.00     0.022 A 
BRANCH  79  83
ATOM     83  S   UNL     1      -7.095   8.765  -4.713  1.00  0.00     0.124 S 
ATOM     84  O   UNL     1      -8.198   9.306  -3.928  1.00  0.00    -0.237 OA
ATOM     85  O   UNL     1      -6.246   9.744  -5.385  1.00  0.00    -0.237 OA
ATOM     86  O   UNL     1      -7.412   7.575  -5.500  1.00  0.00    -0.744 OA
ENDBRANCH  79  83
ENDBRANCH  52  76
BRANCH  64  87
ATOM     87  C   UNL     1      -7.585  12.530   3.581  1.00  0.00     0.023 A 
ATOM     88  C   UNL     1      -8.472  11.538   4.036  1.00  0.00     0.031 A 
ATOM     89  C   UNL     1      -8.076  13.842   3.449  1.00  0.00     0.131 A 
ATOM     90  C   UNL     1      -9.815  11.861   4.287  1.00  0.00     0.055 A 
ATOM     91  C   UNL     1      -9.395  14.171   3.766  1.00  0.00     0.041 A 
ATOM     92  F   UNL     1      -7.279  14.830   3.012  1.00  0.00    -0.206 F 
ATOM     93  C   UNL     1     -10.276  13.175   4.175  1.00  0.00     0.022 A 
BRANCH  90  94
ATOM     94  S   UNL     1     -10.979  10.521   4.660  1.00  0.00     0.124 S 
ATOM     95  O   UNL     1     -10.845   9.668   3.483  1.00  0.00    -0.237 OA
ATOM     96  O   UNL     1     -10.444   9.979   5.904  1.00  0.00    -0.237 OA
ATOM     97  O   UNL     1     -12.264  11.207   4.785  1.00  0.00    -0.744 OA
ENDBRANCH  90  94
ENDBRANCH  64  87
ENDBRANCH  38  39
ENDBRANCH  30  33
ENDBRANCH  28  29
ENDBRANCH  27  28
ENDBRANCH   1  27
TORSDOF 18
