REMARK SMILES COc1ccc(N2C(=O)/C(=C/c3c(C(=O)NCCCCCCNC(=O)c4ccc(-c5c6nc(c(-c7cc(S(=O)(=O)[O-])ccc7F)c7ccc([nH]7)c(-c7cc(S(=O)(=O)[O-])ccc7F)c7nc(c(-c8cc(S(=O)(=O)[O-])ccc8F)c8ccc5[nH]8)C=C7)C=C6)cc4)[nH]c4cc(OC)ccc34)SC2=S)cc1
REMARK SMILES IDX 19 1 18 2 17 3 16 4 14 5 15 6 13 8 12 9 97 10 89 11 90 12
REMARK SMILES IDX 96 13 91 15 95 16 92 17 11 18 7 19 8 20 99 21 9 22 10 23
REMARK SMILES IDX 98 24 100 25 6 26 3 27 4 28 102 29 5 30 101 31 2 32 1 33
REMARK SMILES IDX 93 34 94 35 20 36 21 37 22 38 23 39 24 40 25 42 26 43 27 44
REMARK SMILES IDX 88 45 28 46 87 47 29 48 30 49 31 50 81 51 32 52 86 53 80 54
REMARK SMILES IDX 82 55 33 56 85 57 79 58 78 59 34 61 66 62 46 63 65 64 47 65
REMARK SMILES IDX 50 66 64 67 83 68 48 69 49 70 63 72 84 73 51 74 35 75 36 76
REMARK SMILES IDX 44 77 37 78 43 79 45 80 42 81 38 82 39 83 40 84 41 85 67 86
REMARK SMILES IDX 68 87 76 88 69 89 75 90 77 91 74 92 70 93 71 94 72 95 73 96
REMARK SMILES IDX 52 97 53 98 61 99 54 100 60 101 62 102 59 103 55 104 56 105
REMARK SMILES IDX 57 106 58 107
REMARK H PARENT 16 7 89 14 23 41 82 60 50 71
REMARK Flexibility Score: inf
ROOT
ATOM      1  C   UNL     1      -0.120   8.128   1.536  1.00  0.00     0.002 C 
ENDROOT
BRANCH   1   2
ATOM      2  C   UNL     1      -0.071   9.276   2.544  1.00  0.00     0.021 C 
BRANCH   2   3
ATOM      3  C   UNL     1       1.239   9.435   3.307  1.00  0.00     0.116 C 
BRANCH   3   4
ATOM      4  N   UNL     1       2.420   9.460   2.458  1.00  0.00    -0.351 N 
ATOM      5  C   UNL     1       3.692   9.812   2.831  1.00  0.00     0.268 C 
ATOM      6  O   UNL     1       4.526  10.061   1.962  1.00  0.00    -0.268 OA
ATOM      7  H   UNL     1       2.294   9.197   1.518  1.00  0.00     0.163 HD
BRANCH   5   8
ATOM      8  C   UNL     1       3.943  10.014   4.233  1.00  0.00     0.112 A 
ATOM      9  C   UNL     1       3.738   9.235   5.375  1.00  0.00     0.014 A 
ATOM     10  C   UNL     1       3.682  10.191   6.472  1.00  0.00     0.008 A 
ATOM     11  N   UNL     1       4.460  11.209   4.651  1.00  0.00    -0.350 N 
ATOM     12  C   UNL     1       4.090  11.423   5.948  1.00  0.00     0.050 A 
ATOM     13  C   UNL     1       3.279  10.203   7.832  1.00  0.00     0.015 A 
ATOM     14  H   UNL     1       5.009  11.817   4.105  1.00  0.00     0.167 HD
ATOM     15  C   UNL     1       4.067  12.631   6.648  1.00  0.00     0.073 A 
ATOM     16  C   UNL     1       3.233  11.429   8.556  1.00  0.00     0.047 A 
ATOM     17  C   UNL     1       3.610  12.631   7.960  1.00  0.00     0.120 A 
BRANCH   9  18
ATOM     18  C   UNL     1       3.371   7.823   5.314  1.00  0.00     0.032 C 
ATOM     19  N   UNL     1       3.855   4.990   3.008  1.00  0.00    -0.261 N 
ATOM     20  C   UNL     1       3.226   5.562   4.124  1.00  0.00     0.270 C 
ATOM     21  C   UNL     1       4.896   5.723   2.458  1.00  0.00     0.152 C 
ATOM     22  O   UNL     1       2.256   5.131   4.733  1.00  0.00    -0.268 OA
ATOM     23  C   UNL     1       3.879   6.887   4.473  1.00  0.00     0.081 C 
ATOM     24  S   UNL     1       5.311   7.053   3.524  1.00  0.00    -0.054 SA
ATOM     25  S   UNL     1       5.673   5.535   0.987  1.00  0.00    -0.051 S 
BRANCH  19  26
ATOM     26  C   UNL     1       3.412   3.767   2.401  1.00  0.00     0.051 A 
ATOM     27  C   UNL     1       2.769   1.552   0.771  1.00  0.00     0.119 A 
ATOM     28  C   UNL     1       1.883   2.613   0.878  1.00  0.00     0.048 A 
ATOM     29  C   UNL     1       3.965   1.572   1.480  1.00  0.00     0.048 A 
ATOM     30  C   UNL     1       2.198   3.696   1.711  1.00  0.00     0.030 A 
ATOM     31  C   UNL     1       4.285   2.676   2.287  1.00  0.00     0.030 A 
BRANCH  27  32
ATOM     32  O   UNL     1       2.538   0.558  -0.138  1.00  0.00    -0.497 OA
ATOM     33  C   UNL     1       1.702  -0.465   0.402  1.00  0.00     0.278 C 
ENDBRANCH  27  32
ENDBRANCH  19  26
ENDBRANCH   9  18
BRANCH  17  34
ATOM     34  O   UNL     1       3.529  13.887   8.494  1.00  0.00    -0.497 OA
ATOM     35  C   UNL     1       3.588  14.012   9.904  1.00  0.00     0.278 C 
ENDBRANCH  17  34
ENDBRANCH   5   8
ENDBRANCH   3   4
ENDBRANCH   2   3
ENDBRANCH   1   2
BRANCH   1  36
ATOM     36  C   UNL     1       0.331   6.763   2.046  1.00  0.00     0.002 C 
BRANCH  36  37
ATOM     37  C   UNL     1      -0.759   5.817   2.543  1.00  0.00     0.021 C 
BRANCH  37  38
ATOM     38  C   UNL     1      -1.853   5.469   1.542  1.00  0.00     0.116 C 
BRANCH  38  39
ATOM     39  N   UNL     1      -1.442   4.608   0.439  1.00  0.00    -0.352 N 
ATOM     40  C   UNL     1      -1.893   3.358   0.057  1.00  0.00     0.251 C 
ATOM     41  H   UNL     1      -0.725   4.977  -0.126  1.00  0.00     0.163 HD
ATOM     42  O   UNL     1      -1.385   2.811  -0.920  1.00  0.00    -0.269 OA
BRANCH  40  43
ATOM     43  C   UNL     1      -2.930   2.642   0.842  1.00  0.00     0.039 A 
ATOM     44  C   UNL     1      -2.815   1.262   1.046  1.00  0.00     0.014 A 
ATOM     45  C   UNL     1      -4.013   3.321   1.391  1.00  0.00     0.014 A 
ATOM     46  C   UNL     1      -3.731   0.594   1.873  1.00  0.00     0.010 A 
ATOM     47  C   UNL     1      -4.822   2.694   2.329  1.00  0.00     0.010 A 
ATOM     48  C   UNL     1      -4.719   1.314   2.559  1.00  0.00    -0.014 A 
BRANCH  48  49
ATOM     49  C   UNL     1      -5.745   0.678   3.434  1.00  0.00     0.031 A 
ATOM     50  C   UNL     1      -7.204   0.921   3.119  1.00  0.00     0.074 A 
ATOM     51  C   UNL     1      -5.402  -0.003   4.545  1.00  0.00     0.049 A 
ATOM     52  N   UNL     1      -8.263   0.741   3.864  1.00  0.00    -0.248 NA
ATOM     53  C   UNL     1      -7.492   1.525   1.807  1.00  0.00     0.031 C 
ATOM     54  C   UNL     1      -4.035  -0.294   4.981  1.00  0.00     0.029 A 
ATOM     55  N   UNL     1      -6.185  -0.559   5.527  1.00  0.00    -0.354 N 
ATOM     56  C   UNL     1      -9.327   1.269   3.136  1.00  0.00     0.074 A 
ATOM     57  C   UNL     1      -8.769   1.845   1.933  1.00  0.00     0.031 C 
ATOM     58  C   UNL     1      -4.078  -0.994   6.128  1.00  0.00     0.029 A 
ATOM     59  C   UNL     1      -5.469  -1.152   6.542  1.00  0.00     0.049 A 
ATOM     60  H   UNL     1      -7.169  -0.536   5.507  1.00  0.00     0.167 HD
ATOM     61  C   UNL     1     -10.652   1.247   3.427  1.00  0.00     0.034 A 
ATOM     62  C   UNL     1      -5.889  -1.737   7.683  1.00  0.00     0.034 A 
ATOM     63  C   UNL     1     -11.195   0.596   4.592  1.00  0.00     0.049 A 
ATOM     64  C   UNL     1      -7.372  -1.782   7.972  1.00  0.00     0.074 A 
ATOM     65  C   UNL     1     -12.519   0.454   4.965  1.00  0.00     0.029 A 
ATOM     66  N   UNL     1     -10.437  -0.047   5.562  1.00  0.00    -0.354 N 
ATOM     67  N   UNL     1      -8.367  -1.279   7.276  1.00  0.00    -0.248 NA
ATOM     68  C   UNL     1      -7.788  -2.482   9.194  1.00  0.00     0.031 C 
ATOM     69  C   UNL     1     -12.560  -0.237   6.180  1.00  0.00     0.029 A 
ATOM     70  C   UNL     1     -11.266  -0.585   6.532  1.00  0.00     0.049 A 
ATOM     71  H   UNL     1      -9.455  -0.111   5.561  1.00  0.00     0.167 HD
ATOM     72  C   UNL     1      -9.527  -1.641   7.958  1.00  0.00     0.074 A 
ATOM     73  C   UNL     1      -9.107  -2.413   9.109  1.00  0.00     0.031 C 
ATOM     74  C   UNL     1     -10.823  -1.365   7.663  1.00  0.00     0.034 A 
BRANCH  61  75
ATOM     75  C   UNL     1     -11.588   1.946   2.468  1.00  0.00     0.023 A 
ATOM     76  C   UNL     1     -11.695   1.553   1.122  1.00  0.00     0.031 A 
ATOM     77  C   UNL     1     -12.349   3.050   2.889  1.00  0.00     0.131 A 
ATOM     78  C   UNL     1     -12.462   2.314   0.227  1.00  0.00     0.055 A 
ATOM     79  C   UNL     1     -13.188   3.745   2.014  1.00  0.00     0.041 A 
ATOM     80  F   UNL     1     -12.277   3.488   4.156  1.00  0.00    -0.206 F 
ATOM     81  C   UNL     1     -13.233   3.390   0.669  1.00  0.00     0.022 A 
BRANCH  78  82
ATOM     82  S   UNL     1     -12.306   1.972  -1.547  1.00  0.00     0.124 S 
ATOM     83  O   UNL     1     -10.890   2.254  -1.775  1.00  0.00    -0.237 OA
ATOM     84  O   UNL     1     -12.700   0.571  -1.636  1.00  0.00    -0.237 OA
ATOM     85  O   UNL     1     -13.231   2.922  -2.161  1.00  0.00    -0.744 OA
ENDBRANCH  78  82
ENDBRANCH  61  75
BRANCH  62  86
ATOM     86  C   UNL     1      -4.915  -2.333   8.645  1.00  0.00     0.023 A 
ATOM     87  C   UNL     1      -4.926  -3.712   8.912  1.00  0.00     0.031 A 
ATOM     88  C   UNL     1      -4.006  -1.534   9.359  1.00  0.00     0.131 A 
ATOM     89  C   UNL     1      -4.093  -4.242   9.909  1.00  0.00     0.055 A 
ATOM     90  C   UNL     1      -3.136  -2.075  10.310  1.00  0.00     0.041 A 
ATOM     91  F   UNL     1      -3.949  -0.210   9.143  1.00  0.00    -0.206 F 
ATOM     92  C   UNL     1      -3.188  -3.435  10.601  1.00  0.00     0.022 A 
BRANCH  89  93
ATOM     93  S   UNL     1      -4.284  -5.989  10.361  1.00  0.00     0.124 S 
ATOM     94  O   UNL     1      -5.696  -6.049  10.721  1.00  0.00    -0.237 OA
ATOM     95  O   UNL     1      -3.908  -6.664   9.123  1.00  0.00    -0.237 OA
ATOM     96  O   UNL     1      -3.349  -6.157  11.471  1.00  0.00    -0.744 OA
ENDBRANCH  89  93
ENDBRANCH  62  86
BRANCH  74  97
ATOM     97  C   UNL     1     -11.875  -1.967   8.560  1.00  0.00     0.023 A 
ATOM     98  C   UNL     1     -12.028  -1.565   9.897  1.00  0.00     0.031 A 
ATOM     99  C   UNL     1     -12.731  -2.967   8.065  1.00  0.00     0.131 A 
ATOM    100  C   UNL     1     -12.976  -2.202  10.712  1.00  0.00     0.055 A 
ATOM    101  C   UNL     1     -13.712  -3.554   8.863  1.00  0.00     0.041 A 
ATOM    102  F   UNL     1     -12.627  -3.388   6.794  1.00  0.00    -0.206 F 
ATOM    103  C   UNL     1     -13.830  -3.182  10.199  1.00  0.00     0.022 A 
BRANCH 100 104
ATOM    104  S   UNL     1     -13.015  -1.797  12.479  1.00  0.00     0.124 S 
ATOM    105  O   UNL     1     -11.653  -2.117  12.895  1.00  0.00    -0.237 OA
ATOM    106  O   UNL     1     -13.361  -0.379  12.466  1.00  0.00    -0.237 OA
ATOM    107  O   UNL     1     -14.050  -2.681  13.011  1.00  0.00    -0.744 OA
ENDBRANCH 100 104
ENDBRANCH  74  97
ENDBRANCH  48  49
ENDBRANCH  40  43
ENDBRANCH  38  39
ENDBRANCH  37  38
ENDBRANCH  36  37
ENDBRANCH   1  36
TORSDOF 20
