REMARK SMILES O=C(NCCCCCCNC(=O)c1cc(Cl)c2c(c1)[C@H]1C=CC[C@H]1[C@H](c1ccc(S(=O)(=O)N3CCOCC3)cc1)N2)c1ccc(-c2c3nc(c(-c4cc(S(=O)(=O)[O-])ccc4F)c4ccc([nH]4)c(-c4cc(S(=O)(=O)[O-])ccc4F)c4nc(c(-c5cc(S(=O)(=O)[O-])ccc5F)c5ccc2[nH]5)C=C4)C=C3)cc1
REMARK SMILES IDX 6 1 5 2 4 3 3 4 1 5 2 6 42 8 43 9 104 10 44 11 103 12 45 13
REMARK SMILES IDX 46 14 47 15 97 16 48 17 102 18 96 19 98 20 49 21 101 22
REMARK SMILES IDX 95 23 94 24 50 26 82 27 62 28 81 29 63 30 66 31 80 32 99 33
REMARK SMILES IDX 64 34 65 35 79 37 100 38 67 39 51 40 52 41 60 42 53 43 59 44
REMARK SMILES IDX 61 45 58 46 54 47 55 48 56 49 57 50 83 51 84 52 92 53 85 54
REMARK SMILES IDX 91 55 93 56 90 57 86 58 87 59 88 60 89 61 68 62 69 63 77 64
REMARK SMILES IDX 70 65 76 66 78 67 75 68 71 69 72 70 73 71 74 72 7 73 8 74
REMARK SMILES IDX 9 75 10 76 11 77 12 79 13 80 14 81 19 82 15 83 18 84 16 85
REMARK SMILES IDX 17 86 20 87 41 88 21 89 24 90 25 91 22 93 23 94 26 95 27 96
REMARK SMILES IDX 40 97 28 98 39 99 29 100 30 101 31 102 32 103 33 104 34 105
REMARK SMILES IDX 38 106 35 107 37 108 36 109
REMARK H PARENT 3 7 98 25 66 36 10 78 41 92
REMARK Flexibility Score: inf
ROOT
ATOM      1  C   UNL     1       4.124  -1.901   3.257  1.00  0.00     0.002 C 
ENDROOT
BRANCH   1   2
ATOM      2  C   UNL     1       4.615  -0.700   2.447  1.00  0.00     0.021 C 
BRANCH   2   3
ATOM      3  C   UNL     1       4.309  -0.774   0.955  1.00  0.00     0.116 C 
BRANCH   3   4
ATOM      4  N   UNL     1       2.879  -0.822   0.694  1.00  0.00    -0.352 N 
ATOM      5  O   UNL     1       0.911  -0.066  -0.114  1.00  0.00    -0.269 OA
ATOM      6  C   UNL     1       2.136  -0.028  -0.145  1.00  0.00     0.251 C 
ATOM      7  H   UNL     1       2.378  -1.514   1.183  1.00  0.00     0.163 HD
BRANCH   6   8
ATOM      8  C   UNL     1       2.842   0.888  -1.061  1.00  0.00     0.039 A 
ATOM      9  C   UNL     1       3.866   0.406  -1.883  1.00  0.00     0.014 A 
ATOM     10  C   UNL     1       2.510   2.244  -1.056  1.00  0.00     0.014 A 
ATOM     11  C   UNL     1       4.646   1.302  -2.606  1.00  0.00     0.010 A 
ATOM     12  C   UNL     1       3.260   3.135  -1.824  1.00  0.00     0.010 A 
ATOM     13  C   UNL     1       4.359   2.675  -2.568  1.00  0.00    -0.014 A 
BRANCH  13  14
ATOM     14  C   UNL     1       5.219   3.630  -3.306  1.00  0.00     0.031 A 
ATOM     15  C   UNL     1       6.112   4.580  -2.562  1.00  0.00     0.074 A 
ATOM     16  C   UNL     1       5.194   3.635  -4.651  1.00  0.00     0.049 A 
ATOM     17  N   UNL     1       6.926   5.485  -3.038  1.00  0.00    -0.248 NA
ATOM     18  C   UNL     1       6.089   4.507  -1.092  1.00  0.00     0.031 C 
ATOM     19  C   UNL     1       4.370   2.749  -5.473  1.00  0.00     0.029 A 
ATOM     20  N   UNL     1       5.871   4.407  -5.560  1.00  0.00    -0.354 N 
ATOM     21  C   UNL     1       7.498   6.102  -1.933  1.00  0.00     0.074 A 
ATOM     22  C   UNL     1       6.922   5.484  -0.759  1.00  0.00     0.031 C 
ATOM     23  C   UNL     1       4.597   3.020  -6.766  1.00  0.00     0.029 A 
ATOM     24  C   UNL     1       5.542   4.131  -6.865  1.00  0.00     0.049 A 
ATOM     25  H   UNL     1       6.530   5.092  -5.303  1.00  0.00     0.167 HD
ATOM     26  C   UNL     1       8.425   7.088  -1.907  1.00  0.00     0.034 A 
ATOM     27  C   UNL     1       5.936   4.717  -8.014  1.00  0.00     0.034 A 
ATOM     28  C   UNL     1       8.995   7.684  -3.087  1.00  0.00     0.049 A 
ATOM     29  C   UNL     1       6.942   5.834  -7.961  1.00  0.00     0.074 A 
ATOM     30  C   UNL     1       9.983   8.650  -3.159  1.00  0.00     0.029 A 
ATOM     31  N   UNL     1       8.629   7.387  -4.391  1.00  0.00    -0.354 N 
ATOM     32  N   UNL     1       7.530   6.357  -6.912  1.00  0.00    -0.248 NA
ATOM     33  C   UNL     1       7.347   6.438  -9.238  1.00  0.00     0.031 C 
ATOM     34  C   UNL     1      10.162   8.989  -4.499  1.00  0.00     0.029 A 
ATOM     35  C   UNL     1       9.345   8.178  -5.272  1.00  0.00     0.049 A 
ATOM     36  H   UNL     1       7.959   6.714  -4.651  1.00  0.00     0.167 HD
ATOM     37  C   UNL     1       8.394   7.332  -7.401  1.00  0.00     0.074 A 
ATOM     38  C   UNL     1       8.257   7.322  -8.842  1.00  0.00     0.031 C 
ATOM     39  C   UNL     1       9.225   8.151  -6.711  1.00  0.00     0.034 A 
BRANCH  26  40
ATOM     40  C   UNL     1       8.894   7.605  -0.572  1.00  0.00     0.023 A 
ATOM     41  C   UNL     1       8.644   8.944  -0.218  1.00  0.00     0.031 A 
ATOM     42  C   UNL     1       9.694   6.827   0.283  1.00  0.00     0.131 A 
ATOM     43  C   UNL     1       9.217   9.475   0.944  1.00  0.00     0.055 A 
ATOM     44  C   UNL     1      10.232   7.351   1.459  1.00  0.00     0.041 A 
ATOM     45  F   UNL     1       9.959   5.544  -0.012  1.00  0.00    -0.206 F 
ATOM     46  C   UNL     1      10.004   8.684   1.787  1.00  0.00     0.022 A 
BRANCH  43  47
ATOM     47  S   UNL     1       9.004  11.223   1.377  1.00  0.00     0.124 S 
ATOM     48  O   UNL     1       8.431  11.131   2.718  1.00  0.00    -0.237 OA
ATOM     49  O   UNL     1      10.375  11.720   1.317  1.00  0.00    -0.237 OA
ATOM     50  O   UNL     1       8.100  11.731   0.351  1.00  0.00    -0.744 OA
ENDBRANCH  43  47
ENDBRANCH  26  40
BRANCH  27  51
ATOM     51  C   UNL     1       5.390   4.196  -9.297  1.00  0.00     0.023 A 
ATOM     52  C   UNL     1       4.016   4.292  -9.583  1.00  0.00     0.031 A 
ATOM     53  C   UNL     1       6.204   3.466 -10.177  1.00  0.00     0.131 A 
ATOM     54  C   UNL     1       3.485   3.599 -10.677  1.00  0.00     0.055 A 
ATOM     55  C   UNL     1       5.680   2.831 -11.304  1.00  0.00     0.041 A 
ATOM     56  F   UNL     1       7.518   3.340  -9.935  1.00  0.00    -0.206 F 
ATOM     57  C   UNL     1       4.310   2.881 -11.548  1.00  0.00     0.022 A 
BRANCH  54  58
ATOM     58  S   UNL     1       1.692   3.514 -10.938  1.00  0.00     0.124 S 
ATOM     59  O   UNL     1       1.565   3.907 -12.338  1.00  0.00    -0.237 OA
ATOM     60  O   UNL     1       1.421   2.107 -10.651  1.00  0.00    -0.237 OA
ATOM     61  O   UNL     1       1.157   4.464  -9.969  1.00  0.00    -0.744 OA
ENDBRANCH  54  58
ENDBRANCH  27  51
BRANCH  39  62
ATOM     62  C   UNL     1      10.099   9.117  -7.471  1.00  0.00     0.023 A 
ATOM     63  C   UNL     1      11.500   8.984  -7.402  1.00  0.00     0.031 A 
ATOM     64  C   UNL     1       9.567  10.267  -8.076  1.00  0.00     0.131 A 
ATOM     65  C   UNL     1      12.321  10.015  -7.870  1.00  0.00     0.055 A 
ATOM     66  C   UNL     1      10.392  11.271  -8.585  1.00  0.00     0.041 A 
ATOM     67  F   UNL     1       8.238  10.441  -8.158  1.00  0.00    -0.206 F 
ATOM     68  C   UNL     1      11.775  11.156  -8.467  1.00  0.00     0.022 A 
BRANCH  65  69
ATOM     69  S   UNL     1      14.120   9.950  -7.642  1.00  0.00     0.124 S 
ATOM     70  O   UNL     1      14.608  10.172  -9.001  1.00  0.00    -0.237 OA
ATOM     71  O   UNL     1      14.349  11.049  -6.709  1.00  0.00    -0.237 OA
ATOM     72  O   UNL     1      14.358   8.612  -7.111  1.00  0.00    -0.744 OA
ENDBRANCH  65  69
ENDBRANCH  39  62
ENDBRANCH  13  14
ENDBRANCH   6   8
ENDBRANCH   3   4
ENDBRANCH   2   3
ENDBRANCH   1   2
BRANCH   1  73
ATOM     73  C   UNL     1       4.638  -3.260   2.775  1.00  0.00     0.002 C 
BRANCH  73  74
ATOM     74  C   UNL     1       6.162  -3.385   2.706  1.00  0.00     0.021 C 
BRANCH  74  75
ATOM     75  C   UNL     1       6.881  -3.049   4.008  1.00  0.00     0.116 C 
BRANCH  75  76
ATOM     76  N   UNL     1       6.480  -3.933   5.094  1.00  0.00    -0.352 N 
ATOM     77  C   UNL     1       7.276  -4.688   5.913  1.00  0.00     0.251 C 
ATOM     78  H   UNL     1       5.512  -3.995   5.260  1.00  0.00     0.163 HD
ATOM     79  O   UNL     1       6.803  -5.528   6.671  1.00  0.00    -0.269 OA
BRANCH  77  80
ATOM     80  C   UNL     1       8.732  -4.492   5.845  1.00  0.00     0.041 A 
ATOM     81  C   UNL     1       9.278  -3.222   6.024  1.00  0.00     0.036 A 
ATOM     82  C   UNL     1       9.543  -5.588   5.562  1.00  0.00     0.020 A 
ATOM     83  C   UNL     1      10.637  -3.039   5.809  1.00  0.00     0.065 A 
ATOM     84  C   UNL     1      10.921  -5.407   5.378  1.00  0.00    -0.015 A 
ATOM     85  Cl  UNL     1      11.277  -1.438   5.954  1.00  0.00    -0.082 Cl
ATOM     86  C   UNL     1      11.470  -4.117   5.445  1.00  0.00     0.057 A 
ATOM     87  C   UNL     1      11.790  -6.607   5.146  1.00  0.00     0.049 C 
ATOM     88  N   UNL     1      12.826  -3.918   5.239  1.00  0.00    -0.376 N 
ATOM     89  C   UNL     1      11.652  -7.249   3.789  1.00  0.00    -0.023 C 
ATOM     90  C   UNL     1      13.309  -6.340   5.223  1.00  0.00     0.031 C 
ATOM     91  C   UNL     1      13.638  -4.948   4.619  1.00  0.00     0.114 C 
ATOM     92  H   UNL     1      13.243  -3.070   5.517  1.00  0.00     0.161 HD
ATOM     93  C   UNL     1      12.817  -7.778   3.397  1.00  0.00    -0.030 C 
ATOM     94  C   UNL     1      13.874  -7.539   4.429  1.00  0.00     0.034 C 
BRANCH  91  95
ATOM     95  C   UNL     1      15.106  -4.570   4.772  1.00  0.00    -0.025 A 
ATOM     96  C   UNL     1      15.613  -3.747   5.799  1.00  0.00     0.007 A 
ATOM     97  C   UNL     1      16.005  -5.071   3.833  1.00  0.00     0.007 A 
ATOM     98  C   UNL     1      16.987  -3.478   5.904  1.00  0.00     0.022 A 
ATOM     99  C   UNL     1      17.362  -4.835   3.964  1.00  0.00     0.022 A 
ATOM    100  C   UNL     1      17.868  -4.055   4.991  1.00  0.00     0.082 A 
BRANCH 100 101
ATOM    101  S   UNL     1      19.623  -3.824   5.166  1.00  0.00     0.243 S 
ATOM    102  O   UNL     1      19.933  -2.549   4.549  1.00  0.00    -0.207 OA
ATOM    103  O   UNL     1      19.934  -4.093   6.551  1.00  0.00    -0.207 OA
BRANCH 101 104
ATOM    104  N   UNL     1      20.343  -5.035   4.245  1.00  0.00    -0.193 NA
ATOM    105  C   UNL     1      20.627  -4.887   2.800  1.00  0.00     0.131 C 
ATOM    106  C   UNL     1      20.549  -6.394   4.774  1.00  0.00     0.131 C 
ATOM    107  C   UNL     1      20.044  -6.043   1.961  1.00  0.00     0.177 C 
ATOM    108  C   UNL     1      19.809  -7.413   3.908  1.00  0.00     0.177 C 
ATOM    109  O   UNL     1      20.238  -7.340   2.541  1.00  0.00    -0.379 OA
ENDBRANCH 101 104
ENDBRANCH 100 101
ENDBRANCH  91  95
ENDBRANCH  77  80
ENDBRANCH  75  76
ENDBRANCH  74  75
ENDBRANCH  73  74
ENDBRANCH   1  73
TORSDOF 19
