REMARK SMILES CCCc1nn2c(=O)cc(CSc3ccccc3C(=O)NCCCCCCNC(=O)c3ccc(-c4c5nc(c(-c6cc(S(=O)(=O)[O-])ccc6F)c6ccc([nH]6)c(-c6cc(S(=O)(=O)[O-])ccc6F)c6nc(c(-c7cc(S(=O)(=O)[O-])ccc7F)c7ccc4[nH]7)C=C6)C=C5)cc3)nc2s1
REMARK SMILES IDX 23 1 22 2 21 3 19 4 20 5 18 7 13 8 14 9 15 10 17 11 16 12
REMARK SMILES IDX 12 13 11 14 10 15 4 16 5 17 96 18 6 19 95 20 7 21 94 22 8 23
REMARK SMILES IDX 9 24 3 25 2 26 1 27 24 28 25 29 26 30 27 31 28 32 29 33
REMARK SMILES IDX 30 35 31 36 32 37 93 38 33 39 92 40 34 41 35 42 36 43 86 44
REMARK SMILES IDX 37 45 91 46 85 47 87 48 38 49 90 50 84 51 83 52 39 54 71 55
REMARK SMILES IDX 51 56 70 57 52 58 55 59 69 60 88 61 53 62 54 63 68 65 89 66
REMARK SMILES IDX 56 67 40 68 41 69 49 70 42 71 48 72 50 73 47 74 43 75 44 76
REMARK SMILES IDX 45 77 46 78 72 79 73 80 81 81 74 82 80 83 82 84 79 85 75 86
REMARK SMILES IDX 76 87 77 88 78 89 57 90 58 91 66 92 59 93 65 94 67 95 64 96
REMARK SMILES IDX 60 97 61 98 62 99 63 100
REMARK H PARENT 21 6 28 34 87 53 55 64
REMARK Flexibility Score: inf
ROOT
ATOM      1  C   UNL     1      -0.814 -11.087   0.116  1.00  0.00     0.021 C 
ENDROOT
BRANCH   1   2
ATOM      2  C   UNL     1      -1.587 -11.100  -1.211  1.00  0.00     0.116 C 
BRANCH   2   3
ATOM      3  N   UNL     1      -3.012 -11.158  -0.961  1.00  0.00    -0.352 N 
ATOM      4  C   UNL     1      -4.055 -10.297  -0.796  1.00  0.00     0.252 C 
ATOM      5  O   UNL     1      -5.109 -10.891  -0.516  1.00  0.00    -0.269 OA
ATOM      6  H   UNL     1      -3.316 -12.091  -0.888  1.00  0.00     0.163 HD
BRANCH   4   7
ATOM      7  C   UNL     1      -4.129  -8.796  -0.927  1.00  0.00     0.053 A 
ATOM      8  C   UNL     1      -3.143  -7.791  -0.893  1.00  0.00     0.020 A 
ATOM      9  C   UNL     1      -3.535  -6.433  -1.030  1.00  0.00     0.016 A 
ATOM     10  C   UNL     1      -4.866  -6.041  -1.135  1.00  0.00     0.001 A 
ATOM     11  C   UNL     1      -5.478  -8.353  -1.064  1.00  0.00     0.015 A 
ATOM     12  C   UNL     1      -5.846  -7.009  -1.153  1.00  0.00     0.001 A 
BRANCH   8  13
ATOM     13  S   UNL     1      -1.380  -7.997  -0.792  1.00  0.00    -0.119 SA
BRANCH  13  14
ATOM     14  C   UNL     1      -0.983  -7.409   0.906  1.00  0.00     0.131 C 
BRANCH  14  15
ATOM     15  C   UNL     1      -0.713  -5.925   0.848  1.00  0.00     0.060 A 
ATOM     16  C   UNL     1       0.537  -2.106  -1.276  1.00  0.00     0.117 A 
ATOM     17  N   UNL     1      -0.445  -2.104  -0.428  1.00  0.00    -0.156 NA
ATOM     18  S   UNL     1       1.401  -3.608  -1.490  1.00  0.00    -0.079 S 
ATOM     19  N   UNL     1      -0.541  -3.345   0.140  1.00  0.00    -0.167 N 
ATOM     20  C   UNL     1       0.319  -4.298  -0.330  1.00  0.00     0.215 A 
ATOM     21  C   UNL     1      -1.459  -3.625   1.130  1.00  0.00     0.275 A 
ATOM     22  N   UNL     1       0.312  -5.542   0.005  1.00  0.00    -0.223 NA
ATOM     23  O   UNL     1      -2.231  -2.842   1.665  1.00  0.00    -0.267 OA
ATOM     24  C   UNL     1      -1.523  -5.062   1.482  1.00  0.00     0.098 A 
BRANCH  16  25
ATOM     25  C   UNL     1       0.938  -0.922  -2.103  1.00  0.00     0.069 C 
BRANCH  25  26
ATOM     26  C   UNL     1       0.539   0.406  -1.463  1.00  0.00     0.004 C 
ATOM     27  C   UNL     1       1.198   0.631  -0.108  1.00  0.00     0.004 C 
ENDBRANCH  25  26
ENDBRANCH  16  25
ENDBRANCH  14  15
ENDBRANCH  13  14
ENDBRANCH   8  13
ENDBRANCH   4   7
ENDBRANCH   2   3
ENDBRANCH   1   2
BRANCH   1  28
ATOM     28  C   UNL     1      -0.018 -12.367   0.367  1.00  0.00     0.002 C 
BRANCH  28  29
ATOM     29  C   UNL     1       1.169 -12.547  -0.585  1.00  0.00     0.002 C 
BRANCH  29  30
ATOM     30  C   UNL     1       2.241 -11.453  -0.510  1.00  0.00     0.021 C 
BRANCH  30  31
ATOM     31  C   UNL     1       2.873 -11.267   0.868  1.00  0.00     0.116 C 
BRANCH  31  32
ATOM     32  N   UNL     1       3.506 -12.491   1.332  1.00  0.00    -0.352 N 
ATOM     33  C   UNL     1       4.833 -12.752   1.567  1.00  0.00     0.251 C 
ATOM     34  H   UNL     1       2.894 -13.243   1.502  1.00  0.00     0.163 HD
ATOM     35  O   UNL     1       5.214 -13.915   1.664  1.00  0.00    -0.269 OA
BRANCH  33  36
ATOM     36  C   UNL     1       5.794 -11.637   1.702  1.00  0.00     0.039 A 
ATOM     37  C   UNL     1       7.053 -11.746   1.107  1.00  0.00     0.014 A 
ATOM     38  C   UNL     1       5.468 -10.503   2.452  1.00  0.00     0.014 A 
ATOM     39  C   UNL     1       7.968 -10.696   1.223  1.00  0.00     0.010 A 
ATOM     40  C   UNL     1       6.354  -9.431   2.510  1.00  0.00     0.010 A 
ATOM     41  C   UNL     1       7.616  -9.520   1.905  1.00  0.00    -0.014 A 
BRANCH  41  42
ATOM     42  C   UNL     1       8.561  -8.379   2.015  1.00  0.00     0.031 A 
ATOM     43  C   UNL     1       9.087  -7.965   3.363  1.00  0.00     0.074 A 
ATOM     44  C   UNL     1       8.892  -7.678   0.913  1.00  0.00     0.049 A 
ATOM     45  N   UNL     1       9.850  -6.951   3.681  1.00  0.00    -0.248 NA
ATOM     46  C   UNL     1       8.669  -8.786   4.510  1.00  0.00     0.031 C 
ATOM     47  C   UNL     1       8.414  -7.962  -0.442  1.00  0.00     0.029 A 
ATOM     48  N   UNL     1       9.697  -6.579   0.757  1.00  0.00    -0.354 N 
ATOM     49  C   UNL     1       9.990  -7.001   5.064  1.00  0.00     0.074 A 
ATOM     50  C   UNL     1       9.181  -8.109   5.526  1.00  0.00     0.031 C 
ATOM     51  C   UNL     1       8.953  -7.075  -1.293  1.00  0.00     0.029 A 
ATOM     52  C   UNL     1       9.777  -6.132  -0.542  1.00  0.00     0.049 A 
ATOM     53  H   UNL     1      10.173  -6.149   1.504  1.00  0.00     0.167 HD
ATOM     54  C   UNL     1      10.742  -6.209   5.870  1.00  0.00     0.034 A 
ATOM     55  C   UNL     1      10.430  -5.076  -1.066  1.00  0.00     0.034 A 
ATOM     56  C   UNL     1      11.552  -5.117   5.387  1.00  0.00     0.049 A 
ATOM     57  C   UNL     1      11.242  -4.197  -0.150  1.00  0.00     0.074 A 
ATOM     58  C   UNL     1      12.399  -4.288   6.101  1.00  0.00     0.029 A 
ATOM     59  N   UNL     1      11.609  -4.694   4.064  1.00  0.00    -0.354 N 
ATOM     60  N   UNL     1      11.406  -4.286   1.151  1.00  0.00    -0.248 NA
ATOM     61  C   UNL     1      11.964  -3.082  -0.773  1.00  0.00     0.031 C 
ATOM     62  C   UNL     1      12.913  -3.324   5.226  1.00  0.00     0.029 A 
ATOM     63  C   UNL     1      12.450  -3.597   3.949  1.00  0.00     0.049 A 
ATOM     64  H   UNL     1      11.124  -5.113   3.317  1.00  0.00     0.167 HD
ATOM     65  C   UNL     1      12.276  -3.256   1.494  1.00  0.00     0.074 A 
ATOM     66  C   UNL     1      12.610  -2.568   0.263  1.00  0.00     0.031 C 
ATOM     67  C   UNL     1      12.761  -2.912   2.715  1.00  0.00     0.034 A 
BRANCH  54  68
ATOM     68  C   UNL     1      10.691  -6.484   7.356  1.00  0.00     0.023 A 
ATOM     69  C   UNL     1      11.112  -7.712   7.896  1.00  0.00     0.031 A 
ATOM     70  C   UNL     1      10.177  -5.521   8.242  1.00  0.00     0.131 A 
ATOM     71  C   UNL     1      10.930  -7.978   9.262  1.00  0.00     0.055 A 
ATOM     72  C   UNL     1      10.082  -5.758   9.616  1.00  0.00     0.041 A 
ATOM     73  F   UNL     1       9.740  -4.336   7.787  1.00  0.00    -0.206 F 
ATOM     74  C   UNL     1      10.442  -7.000  10.131  1.00  0.00     0.022 A 
BRANCH  71  75
ATOM     75  S   UNL     1      11.189  -9.673   9.855  1.00  0.00     0.124 S 
ATOM     76  O   UNL     1      10.248 -10.422   9.026  1.00  0.00    -0.237 OA
ATOM     77  O   UNL     1      12.603  -9.892   9.576  1.00  0.00    -0.237 OA
ATOM     78  O   UNL     1      10.836  -9.598  11.272  1.00  0.00    -0.744 OA
ENDBRANCH  71  75
ENDBRANCH  54  68
BRANCH  55  79
ATOM     79  C   UNL     1      10.344  -4.786  -2.525  1.00  0.00     0.023 A 
ATOM     80  C   UNL     1      11.478  -4.878  -3.347  1.00  0.00     0.031 A 
ATOM     81  C   UNL     1       9.132  -4.384  -3.115  1.00  0.00     0.131 A 
ATOM     82  C   UNL     1      11.388  -4.532  -4.704  1.00  0.00     0.055 A 
ATOM     83  C   UNL     1       9.036  -4.091  -4.476  1.00  0.00     0.041 A 
ATOM     84  F   UNL     1       8.016  -4.285  -2.374  1.00  0.00    -0.206 F 
ATOM     85  C   UNL     1      10.172  -4.152  -5.277  1.00  0.00     0.022 A 
BRANCH  82  86
ATOM     86  S   UNL     1      12.905  -4.514  -5.697  1.00  0.00     0.124 S 
ATOM     87  O   UNL     1      13.724  -3.549  -4.971  1.00  0.00    -0.237 OA
ATOM     88  O   UNL     1      13.334  -5.906  -5.621  1.00  0.00    -0.237 OA
ATOM     89  O   UNL     1      12.444  -4.077  -7.014  1.00  0.00    -0.744 OA
ENDBRANCH  82  86
ENDBRANCH  55  79
BRANCH  67  90
ATOM     90  C   UNL     1      13.739  -1.763   2.764  1.00  0.00     0.023 A 
ATOM     91  C   UNL     1      13.350  -0.446   2.463  1.00  0.00     0.031 A 
ATOM     92  C   UNL     1      15.084  -1.995   3.103  1.00  0.00     0.131 A 
ATOM     93  C   UNL     1      14.307   0.580   2.453  1.00  0.00     0.055 A 
ATOM     94  C   UNL     1      16.018  -0.960   3.152  1.00  0.00     0.041 A 
ATOM     95  F   UNL     1      15.510  -3.234   3.397  1.00  0.00    -0.206 F 
ATOM     96  C   UNL     1      15.635   0.334   2.812  1.00  0.00     0.022 A 
BRANCH  93  97
ATOM     97  S   UNL     1      13.813   2.226   1.873  1.00  0.00     0.124 S 
ATOM     98  O   UNL     1      13.345   1.943   0.520  1.00  0.00    -0.237 OA
ATOM     99  O   UNL     1      12.785   2.602   2.838  1.00  0.00    -0.237 OA
ATOM    100  O   UNL     1      15.049   3.002   1.951  1.00  0.00    -0.744 OA
ENDBRANCH  93  97
ENDBRANCH  67  90
ENDBRANCH  41  42
ENDBRANCH  33  36
ENDBRANCH  31  32
ENDBRANCH  30  31
ENDBRANCH  29  30
ENDBRANCH  28  29
ENDBRANCH   1  28
TORSDOF 21
