REMARK SMILES COc1cc(/C=C/C(=O)NCCCCCCNC(=O)c2ccc(-c3c4nc(c(-c5cc(S(=O)(=O)[O-])ccc5F)c5ccc([nH]5)c(-c5cc(S(=O)(=O)[O-])ccc5F)c5nc(c(-c6cc(S(=O)(=O)[O-])ccc6F)c6ccc3[nH]6)C=C5)C=C4)cc2)cc(OC)c1O
REMARK SMILES IDX 14 1 13 2 12 3 11 4 10 5 8 6 9 7 7 9 6 10 5 11 3 12 4 13
REMARK SMILES IDX 87 14 84 15 83 16 2 17 1 18 88 19 85 21 86 22 15 23 16 24
REMARK SMILES IDX 17 25 18 26 19 28 20 29 21 30 82 31 22 32 81 33 23 34 24 35
REMARK SMILES IDX 25 36 75 37 26 38 80 39 74 40 76 41 27 42 79 43 73 44 72 45
REMARK SMILES IDX 28 47 60 48 40 49 59 50 41 51 44 52 58 53 77 54 42 55 43 56
REMARK SMILES IDX 57 58 78 59 45 60 29 61 30 62 38 63 31 64 37 65 39 66 36 67
REMARK SMILES IDX 32 68 33 69 34 70 35 71 61 72 62 73 70 74 63 75 69 76 71 77
REMARK SMILES IDX 68 78 64 79 65 80 66 81 67 82 46 83 47 84 55 85 48 86 54 87
REMARK SMILES IDX 56 88 53 89 49 90 50 91 51 92 52 93
REMARK H PARENT 10 8 88 20 17 27 76 46 44 57
REMARK Flexibility Score: inf
ROOT
ATOM      1  C   UNL     1      -7.179   8.422   1.909  1.00  0.00     0.002 C 
ENDROOT
BRANCH   1   2
ATOM      2  C   UNL     1      -5.955   8.117   2.782  1.00  0.00     0.002 C 
BRANCH   2   3
ATOM      3  C   UNL     1      -5.283   6.766   2.498  1.00  0.00     0.021 C 
BRANCH   3   4
ATOM      4  C   UNL     1      -4.754   6.642   1.069  1.00  0.00     0.116 C 
BRANCH   4   5
ATOM      5  N   UNL     1      -3.508   7.374   0.934  1.00  0.00    -0.353 N 
ATOM      6  C   UNL     1      -2.238   6.952   0.712  1.00  0.00     0.243 C 
ATOM      7  O   UNL     1      -1.339   7.783   0.597  1.00  0.00    -0.270 OA
ATOM      8  H   UNL     1      -3.601   8.350   1.020  1.00  0.00     0.163 HD
BRANCH   6   9
ATOM      9  C   UNL     1      -1.921   5.521   0.499  1.00  0.00     0.072 C 
ATOM     10  C   UNL     1      -2.393   4.490   1.215  1.00  0.00     0.014 C 
BRANCH  10  11
ATOM     11  C   UNL     1      -2.036   3.087   0.956  1.00  0.00    -0.018 A 
ATOM     12  C   UNL     1      -0.422   1.351   0.365  1.00  0.00     0.165 A 
ATOM     13  C   UNL     1      -0.751   2.699   0.569  1.00  0.00     0.058 A 
ATOM     14  C   UNL     1      -1.405   0.367   0.557  1.00  0.00     0.200 A 
ATOM     15  C   UNL     1      -2.701   0.733   0.952  1.00  0.00     0.165 A 
ATOM     16  C   UNL     1      -2.999   2.091   1.146  1.00  0.00     0.058 A 
BRANCH  12  17
ATOM     17  O   UNL     1       0.876   1.193  -0.044  1.00  0.00    -0.493 OA
ATOM     18  C   UNL     1       1.473  -0.091   0.028  1.00  0.00     0.278 C 
ENDBRANCH  12  17
BRANCH  14  19
ATOM     19  O   UNL     1      -1.118  -0.946   0.311  1.00  0.00    -0.502 OA
ATOM     20  H   UNL     1      -0.255  -1.196   0.048  1.00  0.00     0.293 HD
ENDBRANCH  14  19
BRANCH  15  21
ATOM     21  O   UNL     1      -3.793  -0.069   1.152  1.00  0.00    -0.493 OA
ATOM     22  C   UNL     1      -3.634  -1.478   1.121  1.00  0.00     0.278 C 
ENDBRANCH  15  21
ENDBRANCH  10  11
ENDBRANCH   6   9
ENDBRANCH   4   5
ENDBRANCH   3   4
ENDBRANCH   2   3
ENDBRANCH   1   2
BRANCH   1  23
ATOM     23  C   UNL     1      -8.262   7.340   1.920  1.00  0.00     0.021 C 
BRANCH  23  24
ATOM     24  C   UNL     1      -8.862   7.074   3.297  1.00  0.00     0.116 C 
BRANCH  24  25
ATOM     25  N   UNL     1      -9.559   8.245   3.807  1.00  0.00    -0.352 N 
ATOM     26  C   UNL     1     -10.873   8.376   4.182  1.00  0.00     0.251 C 
ATOM     27  H   UNL     1      -9.010   9.057   3.896  1.00  0.00     0.163 HD
ATOM     28  O   UNL     1     -11.356   9.492   4.332  1.00  0.00    -0.269 OA
BRANCH  26  29
ATOM     29  C   UNL     1     -11.698   7.166   4.388  1.00  0.00     0.039 A 
ATOM     30  C   UNL     1     -13.004   7.141   3.895  1.00  0.00     0.014 A 
ATOM     31  C   UNL     1     -11.185   6.063   5.078  1.00  0.00     0.014 A 
ATOM     32  C   UNL     1     -13.778   5.990   4.050  1.00  0.00     0.010 A 
ATOM     33  C   UNL     1     -11.930   4.891   5.163  1.00  0.00     0.010 A 
ATOM     34  C   UNL     1     -13.238   4.845   4.658  1.00  0.00    -0.014 A 
BRANCH  34  35
ATOM     35  C   UNL     1     -14.031   3.595   4.789  1.00  0.00     0.031 A 
ATOM     36  C   UNL     1     -14.379   3.064   6.153  1.00  0.00     0.074 A 
ATOM     37  C   UNL     1     -14.389   2.913   3.683  1.00  0.00     0.049 A 
ATOM     38  N   UNL     1     -14.998   1.959   6.479  1.00  0.00    -0.248 NA
ATOM     39  C   UNL     1     -13.943   3.870   7.304  1.00  0.00     0.031 C 
ATOM     40  C   UNL     1     -14.078   3.312   2.309  1.00  0.00     0.029 A 
ATOM     41  N   UNL     1     -15.086   1.740   3.538  1.00  0.00    -0.354 N 
ATOM     42  C   UNL     1     -15.019   1.932   7.870  1.00  0.00     0.074 A 
ATOM     43  C   UNL     1     -14.288   3.097   8.321  1.00  0.00     0.031 C 
ATOM     44  C   UNL     1     -14.604   2.414   1.461  1.00  0.00     0.029 A 
ATOM     45  C   UNL     1     -15.245   1.351   2.228  1.00  0.00     0.049 A 
ATOM     46  H   UNL     1     -15.440   1.226   4.299  1.00  0.00     0.167 HD
ATOM     47  C   UNL     1     -15.615   1.033   8.692  1.00  0.00     0.034 A 
ATOM     48  C   UNL     1     -15.828   0.253   1.704  1.00  0.00     0.034 A 
ATOM     49  C   UNL     1     -16.343  -0.121   8.221  1.00  0.00     0.049 A 
ATOM     50  C   UNL     1     -16.451  -0.753   2.639  1.00  0.00     0.074 A 
ATOM     51  C   UNL     1     -17.025  -1.071   8.961  1.00  0.00     0.029 A 
ATOM     52  N   UNL     1     -16.477  -0.488   6.888  1.00  0.00    -0.354 N 
ATOM     53  N   UNL     1     -16.504  -0.741   3.951  1.00  0.00    -0.248 NA
ATOM     54  C   UNL     1     -17.102  -1.915   2.021  1.00  0.00     0.031 C 
ATOM     55  C   UNL     1     -17.502  -2.051   8.085  1.00  0.00     0.029 A 
ATOM     56  C   UNL     1     -17.198  -1.669   6.787  1.00  0.00     0.049 A 
ATOM     57  H   UNL     1     -16.112   0.016   6.125  1.00  0.00     0.167 HD
ATOM     58  C   UNL     1     -17.223  -1.877   4.313  1.00  0.00     0.074 A 
ATOM     59  C   UNL     1     -17.595  -2.540   3.080  1.00  0.00     0.031 C 
ATOM     60  C   UNL     1     -17.552  -2.328   5.551  1.00  0.00     0.034 A 
BRANCH  47  61
ATOM     61  C   UNL     1     -15.474   1.253  10.181  1.00  0.00     0.023 A 
ATOM     62  C   UNL     1     -15.975   2.408  10.808  1.00  0.00     0.031 A 
ATOM     63  C   UNL     1     -14.803   0.312  10.982  1.00  0.00     0.131 A 
ATOM     64  C   UNL     1     -15.724   2.633  12.170  1.00  0.00     0.055 A 
ATOM     65  C   UNL     1     -14.636   0.499  12.357  1.00  0.00     0.041 A 
ATOM     66  F   UNL     1     -14.283  -0.800  10.441  1.00  0.00    -0.206 F 
ATOM     67  C   UNL     1     -15.082   1.673  12.955  1.00  0.00     0.022 A 
BRANCH  64  68
ATOM     68  S   UNL     1     -16.107   4.266  12.862  1.00  0.00     0.124 S 
ATOM     69  O   UNL     1     -15.304   5.141  12.011  1.00  0.00    -0.237 OA
ATOM     70  O   UNL     1     -17.551   4.353  12.686  1.00  0.00    -0.237 OA
ATOM     71  O   UNL     1     -15.650   4.167  14.247  1.00  0.00    -0.744 OA
ENDBRANCH  64  68
ENDBRANCH  47  61
BRANCH  48  72
ATOM     72  C   UNL     1     -15.842   0.038   0.229  1.00  0.00     0.023 A 
ATOM     73  C   UNL     1     -17.049   0.003  -0.488  1.00  0.00     0.031 A 
ATOM     74  C   UNL     1     -14.647  -0.173  -0.483  1.00  0.00     0.131 A 
ATOM     75  C   UNL     1     -17.038  -0.283  -1.862  1.00  0.00     0.055 A 
ATOM     76  C   UNL     1     -14.638  -0.400  -1.861  1.00  0.00     0.041 A 
ATOM     77  F   UNL     1     -13.464  -0.147   0.151  1.00  0.00    -0.206 F 
ATOM     78  C   UNL     1     -15.841  -0.470  -2.556  1.00  0.00     0.022 A 
BRANCH  75  79
ATOM     79  S   UNL     1     -18.624  -0.498  -2.716  1.00  0.00     0.124 S 
ATOM     80  O   UNL     1     -19.227  -1.585  -1.954  1.00  0.00    -0.237 OA
ATOM     81  O   UNL     1     -19.236   0.817  -2.554  1.00  0.00    -0.237 OA
ATOM     82  O   UNL     1     -18.231  -0.835  -4.083  1.00  0.00    -0.744 OA
ENDBRANCH  75  79
ENDBRANCH  48  72
BRANCH  60  83
ATOM     83  C   UNL     1     -18.397  -3.577   5.626  1.00  0.00     0.023 A 
ATOM     84  C   UNL     1     -17.917  -4.827   5.197  1.00  0.00     0.031 A 
ATOM     85  C   UNL     1     -19.709  -3.512   6.128  1.00  0.00     0.131 A 
ATOM     86  C   UNL     1     -18.761  -5.947   5.224  1.00  0.00     0.055 A 
ATOM     87  C   UNL     1     -20.521  -4.643   6.216  1.00  0.00     0.041 A 
ATOM     88  F   UNL     1     -20.223  -2.344   6.548  1.00  0.00    -0.206 F 
ATOM     89  C   UNL     1     -20.053  -5.867   5.749  1.00  0.00     0.022 A 
BRANCH  86  90
ATOM     90  S   UNL     1     -18.183  -7.492   4.469  1.00  0.00     0.124 S 
ATOM     91  O   UNL     1     -17.904  -7.074   3.099  1.00  0.00    -0.237 OA
ATOM     92  O   UNL     1     -17.019  -7.822   5.285  1.00  0.00    -0.237 OA
ATOM     93  O   UNL     1     -19.322  -8.396   4.622  1.00  0.00    -0.744 OA
ENDBRANCH  86  90
ENDBRANCH  60  83
ENDBRANCH  34  35
ENDBRANCH  26  29
ENDBRANCH  24  25
ENDBRANCH  23  24
ENDBRANCH   1  23
TORSDOF 20
