REMARK SMILES CC[C@H]1CC(=O)N(CCn2cc(C(=O)NCCCCCCNC(=O)c3ccc(-c4c5nc(c(-c6cc(S(=O)(=O)[O-])ccc6F)c6ccc([nH]6)c(-c6cc(S(=O)(=O)[O-])ccc6F)c6nc(c(-c7cc(S(=O)(=O)[O-])ccc7F)c7ccc4[nH]7)C=C6)C=C5)cc3)nn2)C1
REMARK SMILES IDX 18 1 17 2 16 3 15 4 13 5 14 6 12 8 10 9 11 10 89 11 88 12
REMARK SMILES IDX 9 13 8 14 7 15 3 16 4 17 90 18 5 19 6 20 2 21 1 22 19 23
REMARK SMILES IDX 20 24 21 25 22 26 23 27 24 29 25 30 26 31 87 32 27 33 86 34
REMARK SMILES IDX 28 35 29 36 30 37 80 38 31 39 85 40 79 41 81 42 32 43 84 44
REMARK SMILES IDX 78 45 77 46 33 48 65 49 45 50 64 51 46 52 49 53 63 54 82 55
REMARK SMILES IDX 47 56 48 57 62 59 83 60 50 61 34 62 35 63 43 64 36 65 42 66
REMARK SMILES IDX 44 67 41 68 37 69 38 70 39 71 40 72 66 73 67 74 75 75 68 76
REMARK SMILES IDX 74 77 76 78 73 79 69 80 70 81 71 82 72 83 51 84 52 85 60 86
REMARK SMILES IDX 53 87 59 88 61 89 58 90 54 91 55 92 56 93 57 94
REMARK H PARENT 15 7 22 28 81 47 49 58
REMARK Flexibility Score: inf
ROOT
ATOM      1  C   UNL     1       8.599   3.398   4.220  1.00  0.00     0.002 C 
ENDROOT
BRANCH   1   2
ATOM      2  C   UNL     1       7.430   3.576   3.244  1.00  0.00     0.021 C 
BRANCH   2   3
ATOM      3  C   UNL     1       7.650   2.902   1.891  1.00  0.00     0.116 C 
BRANCH   3   4
ATOM      4  N   UNL     1       7.431   1.473   1.977  1.00  0.00    -0.351 N 
ATOM      5  C   UNL     1       6.607   0.628   1.275  1.00  0.00     0.273 C 
ATOM      6  O   UNL     1       6.750  -0.579   1.482  1.00  0.00    -0.267 OA
ATOM      7  H   UNL     1       7.974   1.025   2.665  1.00  0.00     0.163 HD
BRANCH   5   8
ATOM      8  C   UNL     1       5.628   1.131   0.317  1.00  0.00     0.170 A 
ATOM      9  N   UNL     1       4.157   2.224  -0.848  1.00  0.00    -0.250 N 
ATOM     10  C   UNL     1       4.980   2.347   0.231  1.00  0.00     0.145 A 
ATOM     11  N   UNL     1       4.266   1.014  -1.412  1.00  0.00    -0.067 NA
ATOM     12  N   UNL     1       5.140   0.323  -0.692  1.00  0.00    -0.125 NA
BRANCH   9  13
ATOM     13  C   UNL     1       3.224   3.200  -1.365  1.00  0.00     0.167 C 
BRANCH  13  14
ATOM     14  C   UNL     1       1.770   2.746  -1.267  1.00  0.00     0.143 C 
BRANCH  14  15
ATOM     15  N   UNL     1       1.223   2.725   0.085  1.00  0.00    -0.341 N 
ATOM     16  C   UNL     1       0.528   1.767   2.094  1.00  0.00     0.017 C 
ATOM     17  C   UNL     1      -0.152   3.132   1.936  1.00  0.00     0.105 C 
ATOM     18  C   UNL     1       1.708   1.859   1.135  1.00  0.00     0.123 C 
ATOM     19  C   UNL     1       0.137   3.482   0.496  1.00  0.00     0.222 C 
ATOM     20  O   UNL     1      -0.453   4.317  -0.173  1.00  0.00    -0.275 OA
BRANCH  16  21
ATOM     21  C   UNL     1       0.921   1.340   3.512  1.00  0.00     0.002 C 
ATOM     22  C   UNL     1       1.402   2.449   4.436  1.00  0.00     0.004 C 
ENDBRANCH  16  21
ENDBRANCH  14  15
ENDBRANCH  13  14
ENDBRANCH   9  13
ENDBRANCH   5   8
ENDBRANCH   3   4
ENDBRANCH   2   3
ENDBRANCH   1   2
BRANCH   1  23
ATOM     23  C   UNL     1       9.973   3.848   3.697  1.00  0.00     0.002 C 
BRANCH  23  24
ATOM     24  C   UNL     1      10.035   5.256   3.087  1.00  0.00     0.021 C 
BRANCH  24  25
ATOM     25  C   UNL     1       9.781   6.367   4.095  1.00  0.00     0.116 C 
BRANCH  25  26
ATOM     26  N   UNL     1      10.843   6.446   5.093  1.00  0.00    -0.352 N 
ATOM     27  C   UNL     1      10.938   7.290   6.176  1.00  0.00     0.251 C 
ATOM     28  H   UNL     1      11.588   5.813   4.976  1.00  0.00     0.163 HD
ATOM     29  O   UNL     1      12.032   7.502   6.697  1.00  0.00    -0.269 OA
BRANCH  27  30
ATOM     30  C   UNL     1       9.721   7.942   6.690  1.00  0.00     0.039 A 
ATOM     31  C   UNL     1       9.744   9.276   7.105  1.00  0.00     0.014 A 
ATOM     32  C   UNL     1       8.540   7.203   6.740  1.00  0.00     0.014 A 
ATOM     33  C   UNL     1       8.551   9.883   7.490  1.00  0.00     0.010 A 
ATOM     34  C   UNL     1       7.347   7.835   6.999  1.00  0.00     0.010 A 
ATOM     35  C   UNL     1       7.348   9.164   7.413  1.00  0.00    -0.014 A 
BRANCH  35  36
ATOM     36  C   UNL     1       6.066   9.832   7.632  1.00  0.00     0.031 A 
ATOM     37  C   UNL     1       5.831  11.026   6.775  1.00  0.00     0.074 A 
ATOM     38  C   UNL     1       5.064   9.298   8.366  1.00  0.00     0.049 A 
ATOM     39  N   UNL     1       5.729  12.257   7.149  1.00  0.00    -0.248 NA
ATOM     40  C   UNL     1       5.851  10.855   5.313  1.00  0.00     0.031 C 
ATOM     41  C   UNL     1       5.032   7.992   9.032  1.00  0.00     0.029 A 
ATOM     42  N   UNL     1       3.801   9.766   8.566  1.00  0.00    -0.354 N 
ATOM     43  C   UNL     1       5.430  12.989   6.003  1.00  0.00     0.074 A 
ATOM     44  C   UNL     1       5.722  12.117   4.897  1.00  0.00     0.031 C 
ATOM     45  C   UNL     1       3.756   7.673   9.341  1.00  0.00     0.029 A 
ATOM     46  C   UNL     1       2.906   8.814   9.050  1.00  0.00     0.049 A 
ATOM     47  H   UNL     1       3.541  10.698   8.383  1.00  0.00     0.167 HD
ATOM     48  C   UNL     1       4.746  14.166   6.078  1.00  0.00     0.034 A 
ATOM     49  C   UNL     1       1.557   8.937   9.177  1.00  0.00     0.034 A 
ATOM     50  C   UNL     1       4.731  14.666   7.437  1.00  0.00     0.049 A 
ATOM     51  C   UNL     1       1.270  10.390   9.251  1.00  0.00     0.074 A 
ATOM     52  C   UNL     1       5.708  15.000   8.356  1.00  0.00     0.029 A 
ATOM     53  N   UNL     1       3.576  14.511   8.173  1.00  0.00    -0.354 N 
ATOM     54  N   UNL     1       1.681  11.149  10.231  1.00  0.00    -0.248 NA
ATOM     55  C   UNL     1       0.959  11.095   8.017  1.00  0.00     0.031 C 
ATOM     56  C   UNL     1       5.218  14.508   9.602  1.00  0.00     0.029 A 
ATOM     57  C   UNL     1       3.937  13.992   9.392  1.00  0.00     0.049 A 
ATOM     58  H   UNL     1       2.663  14.731   7.879  1.00  0.00     0.167 HD
ATOM     59  C   UNL     1       2.112  12.317   9.622  1.00  0.00     0.074 A 
ATOM     60  C   UNL     1       1.540  12.271   8.277  1.00  0.00     0.031 C 
ATOM     61  C   UNL     1       3.121  13.067  10.159  1.00  0.00     0.034 A 
BRANCH  48  62
ATOM     62  C   UNL     1       3.784  14.690   5.030  1.00  0.00     0.023 A 
ATOM     63  C   UNL     1       3.146  15.918   5.304  1.00  0.00     0.031 A 
ATOM     64  C   UNL     1       3.242  13.949   3.957  1.00  0.00     0.131 A 
ATOM     65  C   UNL     1       1.972  16.293   4.629  1.00  0.00     0.055 A 
ATOM     66  C   UNL     1       2.115  14.363   3.238  1.00  0.00     0.041 A 
ATOM     67  F   UNL     1       3.703  12.747   3.597  1.00  0.00    -0.206 F 
ATOM     68  C   UNL     1       1.450  15.522   3.596  1.00  0.00     0.022 A 
BRANCH  65  69
ATOM     69  S   UNL     1       1.034  17.706   5.265  1.00  0.00     0.124 S 
ATOM     70  O   UNL     1       0.860  17.332   6.664  1.00  0.00    -0.237 OA
ATOM     71  O   UNL     1       1.946  18.813   5.001  1.00  0.00    -0.237 OA
ATOM     72  O   UNL     1      -0.184  17.694   4.458  1.00  0.00    -0.744 OA
ENDBRANCH  65  69
ENDBRANCH  48  62
BRANCH  49  73
ATOM     73  C   UNL     1       0.522   7.892   8.937  1.00  0.00     0.023 A 
ATOM     74  C   UNL     1      -0.809   8.014   9.394  1.00  0.00     0.031 A 
ATOM     75  C   UNL     1       0.780   6.846   8.021  1.00  0.00     0.131 A 
ATOM     76  C   UNL     1      -1.807   7.120   8.933  1.00  0.00     0.055 A 
ATOM     77  C   UNL     1      -0.208   5.966   7.573  1.00  0.00     0.041 A 
ATOM     78  F   UNL     1       1.990   6.695   7.457  1.00  0.00    -0.206 F 
ATOM     79  C   UNL     1      -1.510   6.107   8.019  1.00  0.00     0.022 A 
BRANCH  76  80
ATOM     80  S   UNL     1      -3.547   7.329   9.439  1.00  0.00     0.124 S 
ATOM     81  O   UNL     1      -3.517   6.898  10.832  1.00  0.00    -0.237 OA
ATOM     82  O   UNL     1      -3.776   8.749   9.202  1.00  0.00    -0.237 OA
ATOM     83  O   UNL     1      -4.272   6.435   8.535  1.00  0.00    -0.744 OA
ENDBRANCH  76  80
ENDBRANCH  49  73
BRANCH  61  84
ATOM     84  C   UNL     1       3.567  12.774  11.580  1.00  0.00     0.023 A 
ATOM     85  C   UNL     1       4.031  11.521  12.045  1.00  0.00     0.031 A 
ATOM     86  C   UNL     1       3.634  13.861  12.470  1.00  0.00     0.131 A 
ATOM     87  C   UNL     1       4.523  11.393  13.360  1.00  0.00     0.055 A 
ATOM     88  C   UNL     1       4.143  13.736  13.762  1.00  0.00     0.041 A 
ATOM     89  F   UNL     1       3.234  15.084  12.083  1.00  0.00    -0.206 F 
ATOM     90  C   UNL     1       4.583  12.499  14.215  1.00  0.00     0.022 A 
BRANCH  87  91
ATOM     91  S   UNL     1       5.075   9.777  13.996  1.00  0.00     0.124 S 
ATOM     92  O   UNL     1       4.003   8.869  13.607  1.00  0.00    -0.237 OA
ATOM     93  O   UNL     1       6.353   9.587  13.314  1.00  0.00    -0.237 OA
ATOM     94  O   UNL     1       5.188  10.000  15.440  1.00  0.00    -0.744 OA
ENDBRANCH  87  91
ENDBRANCH  61  84
ENDBRANCH  35  36
ENDBRANCH  27  30
ENDBRANCH  25  26
ENDBRANCH  24  25
ENDBRANCH  23  24
ENDBRANCH   1  23
TORSDOF 20
