REMARK SMILES COc1ccc2c(c1C)OC(=O)[C@@H](CC(=O)N[C@@H](CC1=c3ccccc3=NC1)C(=O)NCCCCCCNC(=O)c1ccc(-c3c4nc(c(-c5cc(S(=O)(=O)[O-])ccc5F)c5ccc([nH]5)c(-c5cc(S(=O)(=O)[O-])ccc5F)c5nc(c(-c6cc(S(=O)(=O)[O-])ccc6F)c6ccc3[nH]6)C=C5)C=C4)cc1)[C@H]2C
REMARK SMILES IDX 34 1 33 2 32 3 31 4 29 5 30 6 18 8 17 9 15 10 16 11 14 13
REMARK SMILES IDX 13 14 3 15 4 16 8 17 5 18 7 19 9 20 6 21 10 22 104 23 11 24
REMARK SMILES IDX 105 25 12 26 2 27 1 28 19 29 20 30 21 31 28 32 22 33 26 34
REMARK SMILES IDX 27 35 23 36 25 37 24 38 35 39 36 40 37 41 38 42 39 43 40 45
REMARK SMILES IDX 41 46 42 47 103 48 43 49 102 50 44 51 45 52 46 53 96 54
REMARK SMILES IDX 47 55 101 56 95 57 97 58 48 59 100 60 94 61 93 62 49 64
REMARK SMILES IDX 81 65 61 66 80 67 62 68 65 69 79 70 98 71 63 72 64 73 78 75
REMARK SMILES IDX 99 76 66 77 50 78 51 79 59 80 52 81 58 82 60 83 57 84 53 85
REMARK SMILES IDX 54 86 55 87 56 88 82 89 83 90 91 91 84 92 90 93 92 94 89 95
REMARK SMILES IDX 85 96 86 97 87 98 88 99 67 100 68 101 76 102 69 103 75 104
REMARK SMILES IDX 77 105 74 106 70 107 71 108 72 109 73 110
REMARK H PARENT 31 7 17 12 38 44 97 63 65 74
REMARK Flexibility Score: inf
ROOT
ATOM      1  C   UNL     1       8.244   4.386  -0.047  1.00  0.00     0.002 C 
ENDROOT
BRANCH   1   2
ATOM      2  C   UNL     1       7.559   4.973  -1.279  1.00  0.00     0.021 C 
BRANCH   2   3
ATOM      3  C   UNL     1       6.060   5.066  -1.149  1.00  0.00     0.116 C 
BRANCH   3   4
ATOM      4  N   UNL     1       5.574   6.079  -0.254  1.00  0.00    -0.354 N 
ATOM      5  C   UNL     1       4.283   6.515  -0.162  1.00  0.00     0.242 C 
ATOM      6  O   UNL     1       3.983   7.270   0.765  1.00  0.00    -0.273 OA
ATOM      7  H   UNL     1       6.231   6.497   0.349  1.00  0.00     0.163 HD
BRANCH   5   8
ATOM      8  C   UNL     1       3.213   6.035  -1.181  1.00  0.00     0.175 C 
BRANCH   8   9
ATOM      9  N   UNL     1       3.390   6.659  -2.537  1.00  0.00    -0.344 N 
ATOM     10  C   UNL     1       2.688   7.286  -3.536  1.00  0.00     0.221 C 
ATOM     11  O   UNL     1       3.425   7.698  -4.448  1.00  0.00    -0.275 OA
ATOM     12  H   UNL     1       4.337   6.595  -2.800  1.00  0.00     0.164 HD
BRANCH  10  13
ATOM     13  C   UNL     1       1.140   7.562  -3.700  1.00  0.00     0.116 C 
BRANCH  13  14
ATOM     14  C   UNL     1       0.191   6.345  -3.846  1.00  0.00     0.116 C 
ATOM     15  C   UNL     1      -1.006   1.776  -2.322  1.00  0.00     0.125 A 
ATOM     16  C   UNL     1       0.257   1.852  -2.900  1.00  0.00     0.047 A 
ATOM     17  C   UNL     1      -1.924   2.853  -2.474  1.00  0.00     0.034 A 
ATOM     18  C   UNL     1       0.729   3.087  -3.245  1.00  0.00     0.012 A 
ATOM     19  C   UNL     1      -1.407   4.071  -2.911  1.00  0.00     0.140 A 
ATOM     20  C   UNL     1      -3.371   2.668  -2.165  1.00  0.00     0.052 C 
ATOM     21  C   UNL     1      -0.053   4.182  -2.954  1.00  0.00    -0.001 A 
ATOM     22  O   UNL     1      -2.075   5.279  -3.274  1.00  0.00    -0.426 OA
ATOM     23  C   UNL     1       0.492   5.514  -2.660  1.00  0.00     0.035 C 
ATOM     24  C   UNL     1      -1.365   6.453  -3.808  1.00  0.00     0.315 C 
ATOM     25  C   UNL     1      -0.010   6.176  -1.336  1.00  0.00     0.014 C 
ATOM     26  O   UNL     1      -1.978   7.449  -4.179  1.00  0.00    -0.251 OA
BRANCH  15  27
ATOM     27  O   UNL     1      -1.347   0.659  -1.595  1.00  0.00    -0.496 OA
ATOM     28  C   UNL     1      -0.280   0.237  -0.720  1.00  0.00     0.278 C 
ENDBRANCH  15  27
ENDBRANCH  13  14
ENDBRANCH  10  13
ENDBRANCH   8   9
BRANCH   8  29
ATOM     29  C   UNL     1       3.018   4.461  -1.002  1.00  0.00     0.068 C 
BRANCH  29  30
ATOM     30  C   UNL     1       3.633   3.331  -1.815  1.00  0.00    -0.037 C 
ATOM     31  C   UNL     1       4.168   3.214  -3.035  1.00  0.00     0.001 A 
ATOM     32  C   UNL     1       3.701   1.983  -1.118  1.00  0.00     0.174 C 
ATOM     33  C   UNL     1       4.322   4.045  -4.186  1.00  0.00     0.010 A 
ATOM     34  C   UNL     1       4.699   1.831  -3.047  1.00  0.00     0.065 A 
ATOM     35  N   UNL     1       4.465   1.093  -2.009  1.00  0.00    -0.280 NA
ATOM     36  C   UNL     1       5.061   3.617  -5.221  1.00  0.00     0.001 A 
ATOM     37  C   UNL     1       5.523   1.437  -4.211  1.00  0.00     0.028 A 
ATOM     38  C   UNL     1       5.706   2.320  -5.205  1.00  0.00     0.002 A 
ENDBRANCH  29  30
ENDBRANCH   8  29
ENDBRANCH   5   8
ENDBRANCH   3   4
ENDBRANCH   2   3
ENDBRANCH   1   2
BRANCH   1  39
ATOM     39  C   UNL     1       7.714   3.034   0.454  1.00  0.00     0.002 C 
BRANCH  39  40
ATOM     40  C   UNL     1       7.600   1.922  -0.590  1.00  0.00     0.021 C 
BRANCH  40  41
ATOM     41  C   UNL     1       8.824   1.714  -1.465  1.00  0.00     0.116 C 
BRANCH  41  42
ATOM     42  N   UNL     1      10.037   1.591  -0.679  1.00  0.00    -0.352 N 
ATOM     43  C   UNL     1      10.999   0.619  -0.745  1.00  0.00     0.251 C 
ATOM     44  H   UNL     1      10.188   2.299  -0.012  1.00  0.00     0.163 HD
ATOM     45  O   UNL     1      11.879   0.551   0.097  1.00  0.00    -0.269 OA
BRANCH  43  46
ATOM     46  C   UNL     1      10.930  -0.347  -1.854  1.00  0.00     0.039 A 
ATOM     47  C   UNL     1      10.941  -1.709  -1.558  1.00  0.00     0.014 A 
ATOM     48  C   UNL     1      10.823   0.109  -3.173  1.00  0.00     0.014 A 
ATOM     49  C   UNL     1      10.834  -2.628  -2.598  1.00  0.00     0.010 A 
ATOM     50  C   UNL     1      10.651  -0.807  -4.200  1.00  0.00     0.010 A 
ATOM     51  C   UNL     1      10.687  -2.181  -3.921  1.00  0.00    -0.014 A 
BRANCH  51  52
ATOM     52  C   UNL     1      10.660  -3.144  -5.041  1.00  0.00     0.031 A 
ATOM     53  C   UNL     1      11.829  -3.202  -5.980  1.00  0.00     0.074 A 
ATOM     54  C   UNL     1       9.587  -3.935  -5.223  1.00  0.00     0.049 A 
ATOM     55  N   UNL     1      12.001  -3.958  -7.030  1.00  0.00    -0.248 NA
ATOM     56  C   UNL     1      12.945  -2.276  -5.717  1.00  0.00     0.031 C 
ATOM     57  C   UNL     1       8.386  -3.929  -4.388  1.00  0.00     0.029 A 
ATOM     58  N   UNL     1       9.331  -4.890  -6.173  1.00  0.00    -0.354 N 
ATOM     59  C   UNL     1      13.238  -3.603  -7.549  1.00  0.00     0.074 A 
ATOM     60  C   UNL     1      13.748  -2.519  -6.742  1.00  0.00     0.031 C 
ATOM     61  C   UNL     1       7.525  -4.846  -4.856  1.00  0.00     0.029 A 
ATOM     62  C   UNL     1       8.100  -5.484  -6.040  1.00  0.00     0.049 A 
ATOM     63  H   UNL     1       9.970  -5.127  -6.884  1.00  0.00     0.167 HD
ATOM     64  C   UNL     1      13.902  -4.157  -8.587  1.00  0.00     0.034 A 
ATOM     65  C   UNL     1       7.502  -6.434  -6.788  1.00  0.00     0.034 A 
ATOM     66  C   UNL     1      13.393  -5.253  -9.364  1.00  0.00     0.049 A 
ATOM     67  C   UNL     1       8.260  -7.031  -7.947  1.00  0.00     0.074 A 
ATOM     68  C   UNL     1      14.013  -5.919 -10.404  1.00  0.00     0.029 A 
ATOM     69  N   UNL     1      12.152  -5.846  -9.186  1.00  0.00    -0.354 N 
ATOM     70  N   UNL     1       9.467  -6.744  -8.374  1.00  0.00    -0.248 NA
ATOM     71  C   UNL     1       7.589  -8.088  -8.716  1.00  0.00     0.031 C 
ATOM     72  C   UNL     1      13.127  -6.878 -10.893  1.00  0.00     0.029 A 
ATOM     73  C   UNL     1      11.980  -6.857 -10.114  1.00  0.00     0.049 A 
ATOM     74  H   UNL     1      11.493  -5.587  -8.502  1.00  0.00     0.167 HD
ATOM     75  C   UNL     1       9.711  -7.604  -9.441  1.00  0.00     0.074 A 
ATOM     76  C   UNL     1       8.532  -8.431  -9.585  1.00  0.00     0.031 C 
ATOM     77  C   UNL     1      10.811  -7.695 -10.229  1.00  0.00     0.034 A 
BRANCH  64  78
ATOM     78  C   UNL     1      15.266  -3.629  -8.934  1.00  0.00     0.023 A 
ATOM     79  C   UNL     1      15.485  -3.024 -10.184  1.00  0.00     0.031 A 
ATOM     80  C   UNL     1      16.371  -3.852  -8.093  1.00  0.00     0.131 A 
ATOM     81  C   UNL     1      16.789  -2.707 -10.579  1.00  0.00     0.055 A 
ATOM     82  C   UNL     1      17.663  -3.497  -8.476  1.00  0.00     0.041 A 
ATOM     83  F   UNL     1      16.206  -4.419  -6.887  1.00  0.00    -0.206 F 
ATOM     84  C   UNL     1      17.878  -2.934  -9.731  1.00  0.00     0.022 A 
BRANCH  81  85
ATOM     85  S   UNL     1      17.124  -2.033 -12.228  1.00  0.00     0.124 S 
ATOM     86  O   UNL     1      17.908  -0.840 -11.915  1.00  0.00    -0.237 OA
ATOM     87  O   UNL     1      17.866  -3.122 -12.855  1.00  0.00    -0.237 OA
ATOM     88  O   UNL     1      15.797  -1.772 -12.775  1.00  0.00    -0.744 OA
ENDBRANCH  81  85
ENDBRANCH  64  78
BRANCH  65  89
ATOM     89  C   UNL     1       6.139  -6.901  -6.413  1.00  0.00     0.023 A 
ATOM     90  C   UNL     1       5.041  -6.024  -6.460  1.00  0.00     0.031 A 
ATOM     91  C   UNL     1       5.932  -8.196  -5.912  1.00  0.00     0.131 A 
ATOM     92  C   UNL     1       3.799  -6.435  -5.961  1.00  0.00     0.055 A 
ATOM     93  C   UNL     1       4.677  -8.623  -5.473  1.00  0.00     0.041 A 
ATOM     94  F   UNL     1       6.953  -9.063  -5.838  1.00  0.00    -0.206 F 
ATOM     95  C   UNL     1       3.606  -7.735  -5.483  1.00  0.00     0.022 A 
BRANCH  92  96
ATOM     96  S   UNL     1       2.421  -5.264  -5.824  1.00  0.00     0.124 S 
ATOM     97  O   UNL     1       1.362  -5.950  -6.558  1.00  0.00    -0.237 OA
ATOM     98  O   UNL     1       2.240  -5.189  -4.377  1.00  0.00    -0.237 OA
ATOM     99  O   UNL     1       2.936  -4.051  -6.451  1.00  0.00    -0.744 OA
ENDBRANCH  92  96
ENDBRANCH  65  89
BRANCH  77 100
ATOM    100  C   UNL     1      10.840  -8.733 -11.322  1.00  0.00     0.023 A 
ATOM    101  C   UNL     1      11.799  -9.764 -11.277  1.00  0.00     0.031 A 
ATOM    102  C   UNL     1      10.059  -8.596 -12.480  1.00  0.00     0.131 A 
ATOM    103  C   UNL     1      11.988 -10.585 -12.394  1.00  0.00     0.055 A 
ATOM    104  C   UNL     1      10.219  -9.448 -13.573  1.00  0.00     0.041 A 
ATOM    105  F   UNL     1       9.141  -7.620 -12.571  1.00  0.00    -0.206 F 
ATOM    106  C   UNL     1      11.198 -10.437 -13.539  1.00  0.00     0.022 A 
BRANCH 103 107
ATOM    107  S   UNL     1      13.319 -11.816 -12.433  1.00  0.00     0.124 S 
ATOM    108  O   UNL     1      12.589 -13.043 -12.742  1.00  0.00    -0.237 OA
ATOM    109  O   UNL     1      14.172 -11.311 -13.505  1.00  0.00    -0.237 OA
ATOM    110  O   UNL     1      13.892 -11.758 -11.092  1.00  0.00    -0.744 OA
ENDBRANCH 103 107
ENDBRANCH  77 100
ENDBRANCH  51  52
ENDBRANCH  43  46
ENDBRANCH  41  42
ENDBRANCH  40  41
ENDBRANCH  39  40
ENDBRANCH   1  39
TORSDOF 22
