REMARK SMILES O=C(/C=C/C(=O)NCc1ccc(-c2cccs2)s1)NCCCCCCNC(=O)c1ccc(-c2c3nc(c(-c4cc(S(=O)(=O)[O-])ccc4F)c4ccc([nH]4)c(-c4cc(S(=O)(=O)[O-])ccc4F)c4nc(c(-c5cc(S(=O)(=O)[O-])ccc5F)c5ccc2[nH]5)C=C4)C=C3)cc1
REMARK SMILES IDX 22 1 21 2 20 3 19 4 1 5 2 6 3 8 4 9 5 10 6 11 7 12 8 14 9 15
REMARK SMILES IDX 10 16 18 17 11 18 12 19 13 20 14 21 17 22 15 23 16 24 23 25
REMARK SMILES IDX 24 26 25 27 26 28 27 29 28 31 29 32 30 33 91 34 31 35 90 36
REMARK SMILES IDX 32 37 33 38 34 39 84 40 35 41 89 42 83 43 85 44 36 45 88 46
REMARK SMILES IDX 82 47 81 48 37 50 69 51 49 52 68 53 50 54 53 55 67 56 86 57
REMARK SMILES IDX 51 58 52 59 66 61 87 62 54 63 38 64 39 65 47 66 40 67 46 68
REMARK SMILES IDX 48 69 45 70 41 71 42 72 43 73 44 74 70 75 71 76 79 77 72 78
REMARK SMILES IDX 78 79 80 80 77 81 73 82 74 83 75 84 76 85 55 86 56 87 64 88
REMARK SMILES IDX 57 89 63 90 65 91 62 92 58 93 59 94 60 95 61 96
REMARK H PARENT 19 7 7 13 26 30 85 49 53 60
REMARK Flexibility Score: inf
ROOT
ATOM      1  C   UNL     1       4.166  -1.272   3.545  1.00  0.00     0.002 C 
ENDROOT
BRANCH   1   2
ATOM      2  C   UNL     1       2.662  -1.314   3.248  1.00  0.00     0.021 C 
BRANCH   2   3
ATOM      3  C   UNL     1       2.107  -0.057   2.580  1.00  0.00     0.116 C 
BRANCH   3   4
ATOM      4  N   UNL     1       2.735   0.199   1.298  1.00  0.00    -0.353 N 
ATOM      5  O   UNL     1       0.859  -0.156   0.009  1.00  0.00    -0.270 OA
ATOM      6  C   UNL     1       2.049   0.108   0.118  1.00  0.00     0.244 C 
ATOM      7  H   UNL     1       3.688   0.446   1.277  1.00  0.00     0.163 HD
BRANCH   6   8
ATOM      8  C   UNL     1       2.835   0.423  -1.095  1.00  0.00     0.077 C 
ATOM      9  C   UNL     1       4.063  -0.068  -1.298  1.00  0.00     0.077 C 
BRANCH   9  10
ATOM     10  C   UNL     1       4.904   0.153  -2.493  1.00  0.00     0.244 C 
ATOM     11  O   UNL     1       6.122   0.246  -2.338  1.00  0.00    -0.270 OA
ATOM     12  N   UNL     1       4.399   0.178  -3.749  1.00  0.00    -0.348 N 
ATOM     13  H   UNL     1       5.075   0.343  -4.446  1.00  0.00     0.164 HD
BRANCH  12  14
ATOM     14  C   UNL     1       3.057   0.011  -4.264  1.00  0.00     0.163 C 
BRANCH  14  15
ATOM     15  C   UNL     1       2.540   1.291  -4.864  1.00  0.00     0.024 A 
ATOM     16  C   UNL     1       1.589   1.412  -5.861  1.00  0.00     0.018 A 
ATOM     17  S   UNL     1       3.072   2.841  -4.346  1.00  0.00    -0.138 S 
ATOM     18  C   UNL     1       1.331   2.769  -6.214  1.00  0.00     0.022 A 
ATOM     19  C   UNL     1       2.100   3.659  -5.490  1.00  0.00     0.045 A 
BRANCH  19  20
ATOM     20  C   UNL     1       2.103   5.092  -5.625  1.00  0.00     0.044 A 
ATOM     21  C   UNL     1       0.997   5.922  -5.658  1.00  0.00     0.021 A 
ATOM     22  S   UNL     1       3.553   5.984  -5.842  1.00  0.00    -0.143 S 
ATOM     23  C   UNL     1       1.344   7.289  -5.870  1.00  0.00     0.012 A 
ATOM     24  C   UNL     1       2.704   7.460  -5.996  1.00  0.00     0.065 A 
ENDBRANCH  19  20
ENDBRANCH  14  15
ENDBRANCH  12  14
ENDBRANCH   9  10
ENDBRANCH   6   8
ENDBRANCH   3   4
ENDBRANCH   2   3
ENDBRANCH   1   2
BRANCH   1  25
ATOM     25  C   UNL     1       4.637  -0.083   4.388  1.00  0.00     0.002 C 
BRANCH  25  26
ATOM     26  C   UNL     1       3.942   0.074   5.742  1.00  0.00     0.021 C 
BRANCH  26  27
ATOM     27  C   UNL     1       4.069  -1.129   6.671  1.00  0.00     0.116 C 
BRANCH  27  28
ATOM     28  N   UNL     1       5.449  -1.390   7.048  1.00  0.00    -0.352 N 
ATOM     29  C   UNL     1       5.996  -1.536   8.301  1.00  0.00     0.251 C 
ATOM     30  H   UNL     1       6.081  -1.475   6.299  1.00  0.00     0.163 HD
ATOM     31  O   UNL     1       7.214  -1.557   8.434  1.00  0.00    -0.269 OA
BRANCH  29  32
ATOM     32  C   UNL     1       5.111  -1.637   9.483  1.00  0.00     0.039 A 
ATOM     33  C   UNL     1       5.426  -0.903  10.630  1.00  0.00     0.014 A 
ATOM     34  C   UNL     1       3.972  -2.447   9.461  1.00  0.00     0.014 A 
ATOM     35  C   UNL     1       4.564  -0.933  11.729  1.00  0.00     0.010 A 
ATOM     36  C   UNL     1       3.075  -2.413  10.526  1.00  0.00     0.010 A 
ATOM     37  C   UNL     1       3.361  -1.657  11.673  1.00  0.00    -0.014 A 
BRANCH  37  38
ATOM     38  C   UNL     1       2.394  -1.635  12.803  1.00  0.00     0.031 A 
ATOM     39  C   UNL     1       2.068  -2.904  13.544  1.00  0.00     0.074 A 
ATOM     40  C   UNL     1       1.770  -0.484  13.126  1.00  0.00     0.049 A 
ATOM     41  N   UNL     1       1.207  -3.102  14.509  1.00  0.00    -0.248 NA
ATOM     42  C   UNL     1       2.786  -4.116  13.123  1.00  0.00     0.031 C 
ATOM     43  C   UNL     1       1.977   0.803  12.460  1.00  0.00     0.029 A 
ATOM     44  N   UNL     1       0.833  -0.209  14.090  1.00  0.00    -0.354 N 
ATOM     45  C   UNL     1       1.272  -4.459  14.805  1.00  0.00     0.074 A 
ATOM     46  C   UNL     1       2.208  -5.045  13.869  1.00  0.00     0.031 C 
ATOM     47  C   UNL     1       1.215   1.734  13.055  1.00  0.00     0.029 A 
ATOM     48  C   UNL     1       0.424   1.105  14.107  1.00  0.00     0.049 A 
ATOM     49  H   UNL     1       0.485  -0.889  14.712  1.00  0.00     0.167 HD
ATOM     50  C   UNL     1       0.631  -5.148  15.782  1.00  0.00     0.034 A 
ATOM     51  C   UNL     1      -0.494   1.729  14.872  1.00  0.00     0.034 A 
ATOM     52  C   UNL     1      -0.297  -4.546  16.709  1.00  0.00     0.049 A 
ATOM     53  C   UNL     1      -1.231   0.932  15.920  1.00  0.00     0.074 A 
ATOM     54  C   UNL     1      -0.965  -5.139  17.766  1.00  0.00     0.029 A 
ATOM     55  N   UNL     1      -0.700  -3.216  16.684  1.00  0.00    -0.354 N 
ATOM     56  N   UNL     1      -1.119  -0.342  16.221  1.00  0.00    -0.248 NA
ATOM     57  C   UNL     1      -2.210   1.659  16.738  1.00  0.00     0.031 C 
ATOM     58  C   UNL     1      -1.829  -4.193  18.327  1.00  0.00     0.029 A 
ATOM     59  C   UNL     1      -1.635  -2.982  17.682  1.00  0.00     0.049 A 
ATOM     60  H   UNL     1      -0.369  -2.539  16.051  1.00  0.00     0.167 HD
ATOM     61  C   UNL     1      -1.989  -0.557  17.288  1.00  0.00     0.074 A 
ATOM     62  C   UNL     1      -2.603   0.720  17.585  1.00  0.00     0.031 C 
ATOM     63  C   UNL     1      -2.251  -1.705  17.964  1.00  0.00     0.034 A 
BRANCH  50  64
ATOM     64  C   UNL     1       0.892  -6.634  15.872  1.00  0.00     0.023 A 
ATOM     65  C   UNL     1       2.177  -7.146  16.130  1.00  0.00     0.031 A 
ATOM     66  C   UNL     1      -0.151  -7.556  15.672  1.00  0.00     0.131 A 
ATOM     67  C   UNL     1       2.401  -8.530  16.098  1.00  0.00     0.055 A 
ATOM     68  C   UNL     1       0.061  -8.935  15.732  1.00  0.00     0.041 A 
ATOM     69  F   UNL     1      -1.396  -7.132  15.400  1.00  0.00    -0.206 F 
ATOM     70  C   UNL     1       1.346  -9.430  15.929  1.00  0.00     0.022 A 
BRANCH  67  71
ATOM     71  S   UNL     1       4.112  -9.130  16.121  1.00  0.00     0.124 S 
ATOM     72  O   UNL     1       4.675  -8.459  14.952  1.00  0.00    -0.237 OA
ATOM     73  O   UNL     1       4.592  -8.667  17.417  1.00  0.00    -0.237 OA
ATOM     74  O   UNL     1       3.969 -10.579  15.988  1.00  0.00    -0.744 OA
ENDBRANCH  67  71
ENDBRANCH  50  64
BRANCH  51  75
ATOM     75  C   UNL     1      -0.784   3.180  14.677  1.00  0.00     0.023 A 
ATOM     76  C   UNL     1      -0.542   4.111  15.700  1.00  0.00     0.031 A 
ATOM     77  C   UNL     1      -1.356   3.652  13.481  1.00  0.00     0.131 A 
ATOM     78  C   UNL     1      -0.918   5.452  15.530  1.00  0.00     0.055 A 
ATOM     79  C   UNL     1      -1.671   4.999  13.294  1.00  0.00     0.041 A 
ATOM     80  F   UNL     1      -1.609   2.807  12.469  1.00  0.00    -0.206 F 
ATOM     81  C   UNL     1      -1.466   5.906  14.329  1.00  0.00     0.022 A 
BRANCH  78  82
ATOM     82  S   UNL     1      -0.773   6.580  16.944  1.00  0.00     0.124 S 
ATOM     83  O   UNL     1      -1.601   5.912  17.942  1.00  0.00    -0.237 OA
ATOM     84  O   UNL     1       0.665   6.571  17.192  1.00  0.00    -0.237 OA
ATOM     85  O   UNL     1      -1.307   7.839  16.430  1.00  0.00    -0.744 OA
ENDBRANCH  78  82
ENDBRANCH  51  75
BRANCH  63  86
ATOM     86  C   UNL     1      -3.209  -1.616  19.128  1.00  0.00     0.023 A 
ATOM     87  C   UNL     1      -4.567  -1.295  18.952  1.00  0.00     0.031 A 
ATOM     88  C   UNL     1      -2.751  -1.847  20.438  1.00  0.00     0.131 A 
ATOM     89  C   UNL     1      -5.403  -1.155  20.070  1.00  0.00     0.055 A 
ATOM     90  C   UNL     1      -3.604  -1.775  21.540  1.00  0.00     0.041 A 
ATOM     91  F   UNL     1      -1.464  -2.152  20.668  1.00  0.00    -0.206 F 
ATOM     92  C   UNL     1      -4.936  -1.413  21.361  1.00  0.00     0.022 A 
BRANCH  89  93
ATOM     93  S   UNL     1      -7.089  -0.530  19.825  1.00  0.00     0.124 S 
ATOM     94  O   UNL     1      -6.844   0.757  19.183  1.00  0.00    -0.237 OA
ATOM     95  O   UNL     1      -7.684  -1.560  18.980  1.00  0.00    -0.237 OA
ATOM     96  O   UNL     1      -7.628  -0.455  21.181  1.00  0.00    -0.744 OA
ENDBRANCH  89  93
ENDBRANCH  63  86
ENDBRANCH  37  38
ENDBRANCH  29  32
ENDBRANCH  27  28
ENDBRANCH  26  27
ENDBRANCH  25  26
ENDBRANCH   1  25
TORSDOF 20
