REMARK SMILES Cc1c(CC(=O)NCCCCCCNC(=O)c2ccc(-c3c4nc(c(-c5cc(S(=O)(=O)[O-])ccc5F)c5ccc([nH]5)c(-c5cc(S(=O)(=O)[O-])ccc5F)c5nc(c(-c6cc(S(=O)(=O)[O-])ccc6F)c6ccc3[nH]6)C=C5)C=C4)cc2)c(=O)oc2cc(OCc3c(F)cccc3Cl)ccc12
REMARK SMILES IDX 10 1 9 2 8 3 7 4 5 5 6 6 4 8 3 9 1 10 2 11 98 12 80 13 83 14
REMARK SMILES IDX 97 15 81 16 82 17 84 18 96 19 85 20 86 21 87 22 88 23 89 24
REMARK SMILES IDX 94 25 90 26 91 27 93 28 95 29 92 30 11 31 12 32 13 33 14 34
REMARK SMILES IDX 15 35 16 37 17 38 18 39 79 40 19 41 78 42 20 43 21 44 22 45
REMARK SMILES IDX 72 46 23 47 77 48 71 49 73 50 24 51 76 52 70 53 69 54 25 56
REMARK SMILES IDX 57 57 37 58 56 59 38 60 41 61 55 62 74 63 39 64 40 65 54 67
REMARK SMILES IDX 75 68 42 69 26 70 27 71 35 72 28 73 34 74 36 75 33 76 29 77
REMARK SMILES IDX 30 78 31 79 32 80 58 81 59 82 67 83 60 84 66 85 68 86 65 87
REMARK SMILES IDX 61 88 62 89 63 90 64 91 43 92 44 93 52 94 45 95 51 96 53 97
REMARK SMILES IDX 50 98 46 99 47 100 48 101 49 102
REMARK H PARENT 7 7 14 36 73 55 41 66
REMARK Flexibility Score: inf
ROOT
ATOM      1  C   UNL     1      -1.748  -0.905  -4.850  1.00  0.00     0.002 C 
ENDROOT
BRANCH   1   2
ATOM      2  C   UNL     1      -1.873  -0.290  -3.448  1.00  0.00     0.021 C 
BRANCH   2   3
ATOM      3  C   UNL     1      -3.168  -0.650  -2.719  1.00  0.00     0.116 C 
BRANCH   3   4
ATOM      4  N   UNL     1      -3.209  -2.063  -2.397  1.00  0.00    -0.356 N 
ATOM      5  C   UNL     1      -3.111  -2.686  -1.191  1.00  0.00     0.224 C 
ATOM      6  O   UNL     1      -3.118  -3.920  -1.177  1.00  0.00    -0.275 OA
ATOM      7  H   UNL     1      -3.325  -2.663  -3.168  1.00  0.00     0.163 HD
BRANCH   5   8
ATOM      8  C   UNL     1      -3.050  -1.884   0.106  1.00  0.00     0.143 C 
BRANCH   8   9
ATOM      9  C   UNL     1      -1.779  -1.086   0.303  1.00  0.00     0.051 A 
ATOM     10  C   UNL     1      -0.229  -3.074   0.222  1.00  0.00     0.046 C 
ATOM     11  C   UNL     1      -0.529  -1.600   0.327  1.00  0.00    -0.029 A 
ATOM     12  C   UNL     1       0.623  -0.680   0.410  1.00  0.00     0.021 A 
ATOM     13  C   UNL     1      -2.013   0.373   0.512  1.00  0.00     0.340 A 
ATOM     14  C   UNL     1       0.393   0.691   0.489  1.00  0.00     0.142 A 
ATOM     15  C   UNL     1       1.956  -1.099   0.339  1.00  0.00     0.016 A 
ATOM     16  O   UNL     1      -3.144   0.838   0.609  1.00  0.00    -0.246 OA
ATOM     17  O   UNL     1      -0.909   1.201   0.578  1.00  0.00    -0.422 OA
ATOM     18  C   UNL     1       1.419   1.640   0.434  1.00  0.00     0.094 A 
ATOM     19  C   UNL     1       2.994  -0.164   0.269  1.00  0.00     0.047 A 
ATOM     20  C   UNL     1       2.724   1.206   0.255  1.00  0.00     0.123 A 
BRANCH  20  21
ATOM     21  O   UNL     1       3.804   1.979  -0.059  1.00  0.00    -0.489 OA
BRANCH  21  22
ATOM     22  C   UNL     1       3.619   3.359  -0.382  1.00  0.00     0.270 C 
BRANCH  22  23
ATOM     23  C   UNL     1       2.805   3.760  -1.599  1.00  0.00     0.044 A 
ATOM     24  C   UNL     1       2.414   5.110  -1.641  1.00  0.00     0.131 A 
ATOM     25  C   UNL     1       2.428   2.959  -2.687  1.00  0.00     0.050 A 
ATOM     26  F   UNL     1       2.823   5.940  -0.669  1.00  0.00    -0.207 F 
ATOM     27  C   UNL     1       1.619   5.633  -2.657  1.00  0.00     0.040 A 
ATOM     28  C   UNL     1       1.585   3.469  -3.690  1.00  0.00     0.021 A 
ATOM     29  Cl  UNL     1       2.986   1.345  -2.938  1.00  0.00    -0.084 Cl
ATOM     30  C   UNL     1       1.174   4.800  -3.673  1.00  0.00     0.005 A 
ENDBRANCH  22  23
ENDBRANCH  21  22
ENDBRANCH  20  21
ENDBRANCH   8   9
ENDBRANCH   5   8
ENDBRANCH   3   4
ENDBRANCH   2   3
ENDBRANCH   1   2
BRANCH   1  31
ATOM     31  C   UNL     1      -2.890  -0.568  -5.817  1.00  0.00     0.002 C 
BRANCH  31  32
ATOM     32  C   UNL     1      -3.159   0.926  -6.011  1.00  0.00     0.021 C 
BRANCH  32  33
ATOM     33  C   UNL     1      -1.979   1.720  -6.562  1.00  0.00     0.116 C 
BRANCH  33  34
ATOM     34  N   UNL     1      -1.616   1.298  -7.905  1.00  0.00    -0.352 N 
ATOM     35  C   UNL     1      -1.487   2.046  -9.050  1.00  0.00     0.251 C 
ATOM     36  H   UNL     1      -1.435   0.335  -8.009  1.00  0.00     0.163 HD
ATOM     37  O   UNL     1      -1.379   1.483 -10.134  1.00  0.00    -0.269 OA
BRANCH  35  38
ATOM     38  C   UNL     1      -1.500   3.524  -8.973  1.00  0.00     0.039 A 
ATOM     39  C   UNL     1      -2.245   4.243  -9.911  1.00  0.00     0.014 A 
ATOM     40  C   UNL     1      -0.773   4.200  -7.989  1.00  0.00     0.014 A 
ATOM     41  C   UNL     1      -2.309   5.636  -9.825  1.00  0.00     0.010 A 
ATOM     42  C   UNL     1      -0.896   5.582  -7.861  1.00  0.00     0.010 A 
ATOM     43  C   UNL     1      -1.663   6.316  -8.779  1.00  0.00    -0.014 A 
BRANCH  43  44
ATOM     44  C   UNL     1      -1.780   7.791  -8.635  1.00  0.00     0.031 A 
ATOM     45  C   UNL     1      -0.560   8.663  -8.762  1.00  0.00     0.074 A 
ATOM     46  C   UNL     1      -2.975   8.340  -8.336  1.00  0.00     0.049 A 
ATOM     47  N   UNL     1      -0.447   9.957  -8.605  1.00  0.00    -0.248 NA
ATOM     48  C   UNL     1       0.706   7.984  -9.075  1.00  0.00     0.031 C 
ATOM     49  C   UNL     1      -4.222   7.595  -8.148  1.00  0.00     0.029 A 
ATOM     50  N   UNL     1      -3.338   9.647  -8.131  1.00  0.00    -0.354 N 
ATOM     51  C   UNL     1       0.900  10.247  -8.792  1.00  0.00     0.074 A 
ATOM     52  C   UNL     1       1.573   8.983  -9.005  1.00  0.00     0.031 C 
ATOM     53  C   UNL     1      -5.215   8.458  -7.883  1.00  0.00     0.029 A 
ATOM     54  C   UNL     1      -4.672   9.812  -7.836  1.00  0.00     0.049 A 
ATOM     55  H   UNL     1      -2.704  10.398  -8.191  1.00  0.00     0.167 HD
ATOM     56  C   UNL     1       1.515  11.457  -8.809  1.00  0.00     0.034 A 
ATOM     57  C   UNL     1      -5.377  10.925  -7.549  1.00  0.00     0.034 A 
ATOM     58  C   UNL     1       0.826  12.709  -8.609  1.00  0.00     0.049 A 
ATOM     59  C   UNL     1      -4.667  12.256  -7.548  1.00  0.00     0.074 A 
ATOM     60  C   UNL     1       1.340  13.993  -8.663  1.00  0.00     0.029 A 
ATOM     61  N   UNL     1      -0.524  12.837  -8.309  1.00  0.00    -0.354 N 
ATOM     62  N   UNL     1      -3.400  12.517  -7.778  1.00  0.00    -0.248 NA
ATOM     63  C   UNL     1      -5.483  13.442  -7.259  1.00  0.00     0.031 C 
ATOM     64  C   UNL     1       0.320  14.890  -8.326  1.00  0.00     0.029 A 
ATOM     65  C   UNL     1      -0.851  14.174  -8.141  1.00  0.00     0.049 A 
ATOM     66  H   UNL     1      -1.157  12.087  -8.228  1.00  0.00     0.167 HD
ATOM     67  C   UNL     1      -3.277  13.901  -7.692  1.00  0.00     0.074 A 
ATOM     68  C   UNL     1      -4.600  14.418  -7.405  1.00  0.00     0.031 C 
ATOM     69  C   UNL     1      -2.173  14.676  -7.842  1.00  0.00     0.034 A 
BRANCH  56  70
ATOM     70  C   UNL     1       3.010  11.474  -9.029  1.00  0.00     0.023 A 
ATOM     71  C   UNL     1       3.588  10.995 -10.218  1.00  0.00     0.031 A 
ATOM     72  C   UNL     1       3.873  11.954  -8.028  1.00  0.00     0.131 A 
ATOM     73  C   UNL     1       4.984  10.931 -10.344  1.00  0.00     0.055 A 
ATOM     74  C   UNL     1       5.260  11.968  -8.194  1.00  0.00     0.041 A 
ATOM     75  F   UNL     1       3.384  12.405  -6.862  1.00  0.00    -0.206 F 
ATOM     76  C   UNL     1       5.824  11.439  -9.351  1.00  0.00     0.022 A 
BRANCH  73  77
ATOM     77  S   UNL     1       5.684  10.035 -11.757  1.00  0.00     0.124 S 
ATOM     78  O   UNL     1       5.103   8.706 -11.579  1.00  0.00    -0.237 OA
ATOM     79  O   UNL     1       5.189  10.802 -12.894  1.00  0.00    -0.237 OA
ATOM     80  O   UNL     1       7.125  10.111 -11.531  1.00  0.00    -0.744 OA
ENDBRANCH  73  77
ENDBRANCH  56  70
BRANCH  57  81
ATOM     81  C   UNL     1      -6.831  10.838  -7.229  1.00  0.00     0.023 A 
ATOM     82  C   UNL     1      -7.792  11.442  -8.055  1.00  0.00     0.031 A 
ATOM     83  C   UNL     1      -7.279  10.186  -6.066  1.00  0.00     0.131 A 
ATOM     84  C   UNL     1      -9.145  11.424  -7.684  1.00  0.00     0.055 A 
ATOM     85  C   UNL     1      -8.632  10.123  -5.729  1.00  0.00     0.041 A 
ATOM     86  F   UNL     1      -6.403   9.588  -5.242  1.00  0.00    -0.206 F 
ATOM     87  C   UNL     1      -9.573  10.757  -6.534  1.00  0.00     0.022 A 
BRANCH  84  88
ATOM     88  S   UNL     1     -10.331  12.365  -8.683  1.00  0.00     0.124 S 
ATOM     89  O   UNL     1      -9.775  13.711  -8.613  1.00  0.00    -0.237 OA
ATOM     90  O   UNL     1     -10.235  11.696  -9.976  1.00  0.00    -0.237 OA
ATOM     91  O   UNL     1     -11.597  12.174  -7.977  1.00  0.00    -0.744 OA
ENDBRANCH  84  88
ENDBRANCH  57  81
BRANCH  69  92
ATOM     92  C   UNL     1      -2.363  16.170  -7.739  1.00  0.00     0.023 A 
ATOM     93  C   UNL     1      -2.731  16.788  -6.531  1.00  0.00     0.031 A 
ATOM     94  C   UNL     1      -2.181  16.985  -8.870  1.00  0.00     0.131 A 
ATOM     95  C   UNL     1      -2.960  18.172  -6.496  1.00  0.00     0.055 A 
ATOM     96  C   UNL     1      -2.349  18.369  -8.815  1.00  0.00     0.041 A 
ATOM     97  F   UNL     1      -1.831  16.448 -10.050  1.00  0.00    -0.206 F 
ATOM     98  C   UNL     1      -2.754  18.969  -7.626  1.00  0.00     0.022 A 
BRANCH  95  99
ATOM     99  S   UNL     1      -3.620  18.908  -4.975  1.00  0.00     0.124 S 
ATOM    100  O   UNL     1      -4.870  18.176  -4.802  1.00  0.00    -0.237 OA
ATOM    101  O   UNL     1      -2.570  18.614  -4.005  1.00  0.00    -0.237 OA
ATOM    102  O   UNL     1      -3.770  20.322  -5.315  1.00  0.00    -0.744 OA
ENDBRANCH  95  99
ENDBRANCH  69  92
ENDBRANCH  43  44
ENDBRANCH  35  38
ENDBRANCH  33  34
ENDBRANCH  32  33
ENDBRANCH  31  32
ENDBRANCH   1  31
TORSDOF 20
