REMARK SMILES CC1C[NH+]([C@H]2COC[C@@H]2C(=O)NCCCCCCNC(=O)c2ccc(-c3c4nc(c(-c5cc(S(=O)(=O)[O-])ccc5F)c5ccc([nH]5)c(-c5cc(S(=O)(=O)[O-])ccc5F)c5nc(c(-c6cc(S(=O)(=O)[O-])ccc6F)c6ccc3[nH]6)C=C5)C=C4)cc2)C1
REMARK SMILES IDX 16 1 15 2 14 3 13 4 12 5 10 6 11 7 9 9 5 10 6 11 7 12 8 13
REMARK SMILES IDX 4 14 1 15 2 16 3 17 85 18 17 20 18 21 19 22 20 23 21 25
REMARK SMILES IDX 22 26 23 27 84 28 24 29 83 30 25 31 26 32 27 33 77 34 28 35
REMARK SMILES IDX 82 36 76 37 78 38 29 39 81 40 75 41 74 42 30 44 62 45 42 46
REMARK SMILES IDX 61 47 43 48 46 49 60 50 79 51 44 52 45 53 59 55 80 56 47 57
REMARK SMILES IDX 31 58 32 59 40 60 33 61 39 62 41 63 38 64 34 65 35 66 36 67
REMARK SMILES IDX 37 68 63 69 64 70 72 71 65 72 71 73 73 74 70 75 66 76 67 77
REMARK SMILES IDX 68 78 69 79 48 80 49 81 57 82 50 83 56 84 58 85 55 86 51 87
REMARK SMILES IDX 52 88 53 89 54 90
REMARK H PARENT 12 8 4 19 19 24 78 43 46 54
REMARK Flexibility Score: inf
ROOT
ATOM      1  C   UNL     1       2.688   1.248  -2.444  1.00  0.00     0.002 C 
ENDROOT
BRANCH   1   2
ATOM      2  C   UNL     1       1.412   0.962  -1.649  1.00  0.00     0.002 C 
BRANCH   2   3
ATOM      3  C   UNL     1       1.238   1.810  -0.383  1.00  0.00     0.021 C 
BRANCH   3   4
ATOM      4  C   UNL     1       1.072   3.309  -0.658  1.00  0.00     0.116 C 
BRANCH   4   5
ATOM      5  N   UNL     1      -0.244   3.564  -1.211  1.00  0.00    -0.356 N 
ATOM      6  C   UNL     1      -1.405   3.953  -0.616  1.00  0.00     0.231 C 
ATOM      7  O   UNL     1      -2.408   3.936  -1.334  1.00  0.00    -0.274 OA
ATOM      8  H   UNL     1      -0.309   3.434  -2.184  1.00  0.00     0.163 HD
BRANCH   6   9
ATOM      9  C   UNL     1      -1.427   4.522   0.803  1.00  0.00     0.164 C 
ATOM     10  C   UNL     1      -0.878   3.632   1.913  1.00  0.00     0.225 C 
ATOM     11  C   UNL     1      -2.104   2.790   2.267  1.00  0.00     0.226 C 
ATOM     12  O   UNL     1      -3.253   3.624   2.090  1.00  0.00    -0.374 OA
ATOM     13  C   UNL     1      -2.867   4.744   1.267  1.00  0.00     0.180 C 
BRANCH  10  14
ATOM     14  N   UNL     1      -0.236   4.486   2.939  1.00  0.00    -0.329 N 
ATOM     15  C   UNL     1      -0.291   4.022   6.342  1.00  0.00     0.020 C 
ATOM     16  C   UNL     1       0.058   4.655   5.011  1.00  0.00     0.096 C 
ATOM     17  C   UNL     1       0.551   3.691   3.907  1.00  0.00     0.271 C 
ATOM     18  C   UNL     1      -1.113   4.943   4.042  1.00  0.00     0.271 C 
ATOM     19  H   UNL     1       0.190   5.184   2.328  1.00  0.00     0.348 HD
ENDBRANCH  10  14
ENDBRANCH   6   9
ENDBRANCH   4   5
ENDBRANCH   3   4
ENDBRANCH   2   3
ENDBRANCH   1   2
BRANCH   1  20
ATOM     20  C   UNL     1       3.989   1.131  -1.644  1.00  0.00     0.021 C 
BRANCH  20  21
ATOM     21  C   UNL     1       4.233  -0.240  -1.019  1.00  0.00     0.116 C 
BRANCH  21  22
ATOM     22  N   UNL     1       4.392  -1.269  -2.031  1.00  0.00    -0.352 N 
ATOM     23  C   UNL     1       5.409  -2.174  -2.204  1.00  0.00     0.251 C 
ATOM     24  H   UNL     1       3.663  -1.325  -2.691  1.00  0.00     0.163 HD
ATOM     25  O   UNL     1       5.485  -2.796  -3.259  1.00  0.00    -0.269 OA
BRANCH  23  26
ATOM     26  C   UNL     1       6.410  -2.393  -1.135  1.00  0.00     0.039 A 
ATOM     27  C   UNL     1       7.746  -2.587  -1.497  1.00  0.00     0.014 A 
ATOM     28  C   UNL     1       6.035  -2.469   0.210  1.00  0.00     0.014 A 
ATOM     29  C   UNL     1       8.706  -2.832  -0.513  1.00  0.00     0.010 A 
ATOM     30  C   UNL     1       7.004  -2.647   1.197  1.00  0.00     0.010 A 
ATOM     31  C   UNL     1       8.346  -2.853   0.845  1.00  0.00    -0.014 A 
BRANCH  31  32
ATOM     32  C   UNL     1       9.360  -3.138   1.893  1.00  0.00     0.031 A 
ATOM     33  C   UNL     1       9.269  -4.404   2.705  1.00  0.00     0.074 A 
ATOM     34  C   UNL     1      10.344  -2.250   2.131  1.00  0.00     0.049 A 
ATOM     35  N   UNL     1      10.046  -4.829   3.668  1.00  0.00    -0.248 NA
ATOM     36  C   UNL     1       8.135  -5.293   2.413  1.00  0.00     0.031 C 
ATOM     37  C   UNL     1      10.508  -0.968   1.442  1.00  0.00     0.029 A 
ATOM     38  N   UNL     1      11.393  -2.289   3.014  1.00  0.00    -0.354 N 
ATOM     39  C   UNL     1       9.491  -6.029   4.104  1.00  0.00     0.074 A 
ATOM     40  C   UNL     1       8.274  -6.224   3.344  1.00  0.00     0.031 C 
ATOM     41  C   UNL     1      11.610  -0.357   1.908  1.00  0.00     0.029 A 
ATOM     42  C   UNL     1      12.212  -1.186   2.948  1.00  0.00     0.049 A 
ATOM     43  H   UNL     1      11.545  -3.036   3.636  1.00  0.00     0.167 HD
ATOM     44  C   UNL     1       9.964  -6.899   5.032  1.00  0.00     0.034 A 
ATOM     45  C   UNL     1      13.324  -0.880   3.644  1.00  0.00     0.034 A 
ATOM     46  C   UNL     1      11.188  -6.695   5.769  1.00  0.00     0.049 A 
ATOM     47  C   UNL     1      13.839  -1.867   4.661  1.00  0.00     0.074 A 
ATOM     48  C   UNL     1      11.787  -7.528   6.698  1.00  0.00     0.029 A 
ATOM     49  N   UNL     1      12.002  -5.573   5.664  1.00  0.00    -0.354 N 
ATOM     50  N   UNL     1      13.331  -3.022   5.024  1.00  0.00    -0.248 NA
ATOM     51  C   UNL     1      15.090  -1.516   5.344  1.00  0.00     0.031 C 
ATOM     52  C   UNL     1      12.928  -6.887   7.195  1.00  0.00     0.029 A 
ATOM     53  C   UNL     1      13.083  -5.684   6.525  1.00  0.00     0.049 A 
ATOM     54  H   UNL     1      11.835  -4.810   5.064  1.00  0.00     0.167 HD
ATOM     55  C   UNL     1      14.219  -3.549   5.958  1.00  0.00     0.074 A 
ATOM     56  C   UNL     1      15.302  -2.595   6.083  1.00  0.00     0.031 C 
ATOM     57  C   UNL     1      14.148  -4.715   6.650  1.00  0.00     0.034 A 
BRANCH  44  58
ATOM     58  C   UNL     1       9.137  -8.133   5.309  1.00  0.00     0.023 A 
ATOM     59  C   UNL     1       8.884  -9.092   4.311  1.00  0.00     0.031 A 
ATOM     60  C   UNL     1       8.559  -8.337   6.574  1.00  0.00     0.131 A 
ATOM     61  C   UNL     1       8.010 -10.159   4.568  1.00  0.00     0.055 A 
ATOM     62  C   UNL     1       7.759  -9.449   6.849  1.00  0.00     0.041 A 
ATOM     63  F   UNL     1       8.746  -7.448   7.563  1.00  0.00    -0.206 F 
ATOM     64  C   UNL     1       7.465 -10.359   5.838  1.00  0.00     0.022 A 
BRANCH  61  65
ATOM     65  S   UNL     1       7.473 -11.193   3.177  1.00  0.00     0.124 S 
ATOM     66  O   UNL     1       6.842 -10.206   2.304  1.00  0.00    -0.237 OA
ATOM     67  O   UNL     1       8.730 -11.758   2.700  1.00  0.00    -0.237 OA
ATOM     68  O   UNL     1       6.554 -12.148   3.793  1.00  0.00    -0.744 OA
ENDBRANCH  61  65
ENDBRANCH  44  58
BRANCH  45  69
ATOM     69  C   UNL     1      14.036   0.407   3.403  1.00  0.00     0.023 A 
ATOM     70  C   UNL     1      15.332   0.427   2.863  1.00  0.00     0.031 A 
ATOM     71  C   UNL     1      13.445   1.636   3.747  1.00  0.00     0.131 A 
ATOM     72  C   UNL     1      16.015   1.646   2.728  1.00  0.00     0.055 A 
ATOM     73  C   UNL     1      14.109   2.850   3.564  1.00  0.00     0.041 A 
ATOM     74  F   UNL     1      12.204   1.672   4.257  1.00  0.00    -0.206 F 
ATOM     75  C   UNL     1      15.408   2.858   3.064  1.00  0.00     0.022 A 
BRANCH  72  76
ATOM     76  S   UNL     1      17.743   1.617   2.179  1.00  0.00     0.124 S 
ATOM     77  O   UNL     1      18.363   0.768   3.190  1.00  0.00    -0.237 OA
ATOM     78  O   UNL     1      17.626   1.042   0.843  1.00  0.00    -0.237 OA
ATOM     79  O   UNL     1      18.136   3.024   2.217  1.00  0.00    -0.744 OA
ENDBRANCH  72  76
ENDBRANCH  45  69
BRANCH  57  80
ATOM     80  C   UNL     1      15.301  -5.029   7.572  1.00  0.00     0.023 A 
ATOM     81  C   UNL     1      15.571  -4.249   8.710  1.00  0.00     0.031 A 
ATOM     82  C   UNL     1      16.166  -6.101   7.285  1.00  0.00     0.131 A 
ATOM     83  C   UNL     1      16.716  -4.505   9.478  1.00  0.00     0.055 A 
ATOM     84  C   UNL     1      17.267  -6.392   8.091  1.00  0.00     0.041 A 
ATOM     85  F   UNL     1      15.957  -6.879   6.211  1.00  0.00    -0.206 F 
ATOM     86  C   UNL     1      17.558  -5.581   9.185  1.00  0.00     0.022 A 
BRANCH  83  87
ATOM     87  S   UNL     1      17.155  -3.341  10.799  1.00  0.00     0.124 S 
ATOM     88  O   UNL     1      17.227  -2.075  10.076  1.00  0.00    -0.237 OA
ATOM     89  O   UNL     1      16.037  -3.485  11.724  1.00  0.00    -0.237 OA
ATOM     90  O   UNL     1      18.436  -3.848  11.290  1.00  0.00    -0.744 OA
ENDBRANCH  83  87
ENDBRANCH  57  80
ENDBRANCH  31  32
ENDBRANCH  23  26
ENDBRANCH  21  22
ENDBRANCH  20  21
ENDBRANCH   1  20
TORSDOF 17
