REMARK SMILES Cc1ccccc1NC(=O)C[NH+]1CCC(CC(=O)NCCCCCCNC(=O)c2ccc(-c3c4nc(c(-c5cc(S(=O)(=O)[O-])ccc5F)c5ccc([nH]5)c(-c5cc(S(=O)(=O)[O-])ccc5F)c5nc(c(-c6cc(S(=O)(=O)[O-])ccc6F)c6ccc3[nH]6)C=C5)C=C4)cc2)CC1
REMARK SMILES IDX 22 1 21 2 20 3 19 4 17 5 18 6 16 8 15 9 12 10 13 11 93 12
REMARK SMILES IDX 14 14 92 15 11 16 9 17 8 18 10 20 7 21 1 22 2 23 3 24 4 25
REMARK SMILES IDX 6 26 5 27 23 28 24 29 25 30 26 31 27 32 28 34 29 35 30 36
REMARK SMILES IDX 91 37 31 38 90 39 32 40 33 41 34 42 84 43 35 44 89 45 83 46
REMARK SMILES IDX 85 47 36 48 88 49 82 50 81 51 37 53 69 54 49 55 68 56 50 57
REMARK SMILES IDX 53 58 67 59 86 60 51 61 52 62 66 64 87 65 54 66 38 67 39 68
REMARK SMILES IDX 47 69 40 70 46 71 48 72 45 73 41 74 42 75 43 76 44 77 70 78
REMARK SMILES IDX 71 79 79 80 72 81 78 82 80 83 77 84 73 85 74 86 75 87 76 88
REMARK SMILES IDX 55 89 56 90 64 91 57 92 63 93 65 94 62 95 58 96 59 97 60 98
REMARK SMILES IDX 61 99
REMARK H PARENT 19 7 12 13 8 19 26 33 85 52 53 63
REMARK Flexibility Score: inf
ROOT
ATOM      1  C   UNL     1      -0.891   5.921  -7.275  1.00  0.00     0.002 C 
ENDROOT
BRANCH   1   2
ATOM      2  C   UNL     1      -1.249   4.940  -6.156  1.00  0.00     0.021 C 
BRANCH   2   3
ATOM      3  C   UNL     1      -2.012   3.689  -6.604  1.00  0.00     0.116 C 
BRANCH   3   4
ATOM      4  N   UNL     1      -1.115   2.576  -6.874  1.00  0.00    -0.356 N 
ATOM      5  C   UNL     1      -0.979   1.383  -6.225  1.00  0.00     0.220 C 
ATOM      6  O   UNL     1      -0.124   0.584  -6.611  1.00  0.00    -0.275 OA
ATOM      7  H   UNL     1      -0.515   2.702  -7.644  1.00  0.00     0.163 HD
BRANCH   5   8
ATOM      8  C   UNL     1      -1.880   1.046  -5.053  1.00  0.00     0.104 C 
BRANCH   8   9
ATOM      9  C   UNL     1      -1.291   1.409  -3.681  1.00  0.00     0.009 C 
ATOM     10  N   UNL     1      -1.518   2.875  -1.141  1.00  0.00    -0.327 N 
ATOM     11  C   UNL     1      -0.513   3.287  -2.123  1.00  0.00     0.262 C 
ATOM     12  C   UNL     1      -1.772   1.440  -1.207  1.00  0.00     0.262 C 
ATOM     13  H   UNL     1      -2.397   3.327  -1.394  1.00  0.00     0.348 HD
ATOM     14  C   UNL     1      -0.948   2.894  -3.533  1.00  0.00     0.066 C 
ATOM     15  C   UNL     1      -2.283   1.014  -2.580  1.00  0.00     0.066 C 
BRANCH  10  16
ATOM     16  C   UNL     1      -1.220   3.374   0.225  1.00  0.00     0.363 C 
BRANCH  16  17
ATOM     17  C   UNL     1       0.254   3.336   0.657  1.00  0.00     0.279 C 
ATOM     18  N   UNL     1       0.904   2.196   1.040  1.00  0.00    -0.321 N 
ATOM     19  H   UNL     1       1.852   2.323   1.274  1.00  0.00     0.170 HD
ATOM     20  O   UNL     1       0.935   4.367   0.583  1.00  0.00    -0.268 OA
BRANCH  18  21
ATOM     21  C   UNL     1       0.445   0.878   1.153  1.00  0.00     0.044 A 
ATOM     22  C   UNL     1       2.599   0.011   0.043  1.00  0.00     0.046 C 
ATOM     23  C   UNL     1       1.218  -0.171   0.617  1.00  0.00    -0.027 A 
ATOM     24  C   UNL     1       0.663  -1.463   0.569  1.00  0.00     0.005 A 
ATOM     25  C   UNL     1      -0.615  -1.715   1.066  1.00  0.00     0.000 A 
ATOM     26  C   UNL     1      -0.794   0.593   1.736  1.00  0.00     0.026 A 
ATOM     27  C   UNL     1      -1.332  -0.693   1.676  1.00  0.00     0.002 A 
ENDBRANCH  18  21
ENDBRANCH  16  17
ENDBRANCH  10  16
ENDBRANCH   8   9
ENDBRANCH   5   8
ENDBRANCH   3   4
ENDBRANCH   2   3
ENDBRANCH   1   2
BRANCH   1  28
ATOM     28  C   UNL     1      -2.069   6.512  -8.061  1.00  0.00     0.002 C 
BRANCH  28  29
ATOM     29  C   UNL     1      -3.231   7.043  -7.221  1.00  0.00     0.021 C 
BRANCH  29  30
ATOM     30  C   UNL     1      -2.890   8.280  -6.400  1.00  0.00     0.116 C 
BRANCH  30  31
ATOM     31  N   UNL     1      -3.220   9.533  -7.074  1.00  0.00    -0.352 N 
ATOM     32  C   UNL     1      -3.121  10.837  -6.631  1.00  0.00     0.251 C 
ATOM     33  H   UNL     1      -3.568   9.431  -7.989  1.00  0.00     0.163 HD
ATOM     34  O   UNL     1      -3.588  11.749  -7.268  1.00  0.00    -0.269 OA
BRANCH  32  35
ATOM     35  C   UNL     1      -2.308  11.123  -5.415  1.00  0.00     0.039 A 
ATOM     36  C   UNL     1      -1.344  12.136  -5.521  1.00  0.00     0.014 A 
ATOM     37  C   UNL     1      -2.342  10.298  -4.296  1.00  0.00     0.014 A 
ATOM     38  C   UNL     1      -0.283  12.169  -4.622  1.00  0.00     0.010 A 
ATOM     39  C   UNL     1      -1.246  10.270  -3.460  1.00  0.00     0.010 A 
ATOM     40  C   UNL     1      -0.189  11.163  -3.664  1.00  0.00    -0.014 A 
BRANCH  40  41
ATOM     41  C   UNL     1       1.022  10.884  -2.905  1.00  0.00     0.031 A 
ATOM     42  C   UNL     1       1.109  11.233  -1.478  1.00  0.00     0.074 A 
ATOM     43  C   UNL     1       2.016  10.187  -3.495  1.00  0.00     0.049 A 
ATOM     44  N   UNL     1       2.210  11.333  -0.815  1.00  0.00    -0.248 NA
ATOM     45  C   UNL     1      -0.068  11.560  -0.686  1.00  0.00     0.031 C 
ATOM     46  C   UNL     1       3.146   9.527  -2.849  1.00  0.00     0.029 A 
ATOM     47  N   UNL     1       2.325  10.165  -4.853  1.00  0.00    -0.354 N 
ATOM     48  C   UNL     1       1.888  11.408   0.521  1.00  0.00     0.074 A 
ATOM     49  C   UNL     1       0.464  11.647   0.536  1.00  0.00     0.031 C 
ATOM     50  C   UNL     1       4.137   9.397  -3.744  1.00  0.00     0.029 A 
ATOM     51  C   UNL     1       3.728  10.108  -4.941  1.00  0.00     0.049 A 
ATOM     52  H   UNL     1       1.688  10.185  -5.604  1.00  0.00     0.167 HD
ATOM     53  C   UNL     1       2.844  11.107   1.447  1.00  0.00     0.034 A 
ATOM     54  C   UNL     1       4.428  11.126  -5.519  1.00  0.00     0.034 A 
ATOM     55  C   UNL     1       4.158  10.920   0.816  1.00  0.00     0.049 A 
ATOM     56  C   UNL     1       5.411  11.799  -4.588  1.00  0.00     0.074 A 
ATOM     57  C   UNL     1       4.928   9.806   0.521  1.00  0.00     0.029 A 
ATOM     58  N   UNL     1       4.741  11.982   0.128  1.00  0.00    -0.354 N 
ATOM     59  N   UNL     1       5.405  11.689  -3.287  1.00  0.00    -0.248 NA
ATOM     60  C   UNL     1       6.480  12.663  -5.066  1.00  0.00     0.031 C 
ATOM     61  C   UNL     1       5.960  10.205  -0.375  1.00  0.00     0.029 A 
ATOM     62  C   UNL     1       5.835  11.564  -0.607  1.00  0.00     0.049 A 
ATOM     63  H   UNL     1       4.415  12.911   0.160  1.00  0.00     0.167 HD
ATOM     64  C   UNL     1       6.421  12.444  -2.746  1.00  0.00     0.074 A 
ATOM     65  C   UNL     1       7.070  13.022  -3.913  1.00  0.00     0.031 C 
ATOM     66  C   UNL     1       6.616  12.524  -1.389  1.00  0.00     0.034 A 
BRANCH  53  67
ATOM     67  C   UNL     1       2.538  10.683   2.877  1.00  0.00     0.023 A 
ATOM     68  C   UNL     1       3.448   9.845   3.560  1.00  0.00     0.031 A 
ATOM     69  C   UNL     1       1.369  10.996   3.599  1.00  0.00     0.131 A 
ATOM     70  C   UNL     1       3.139   9.281   4.815  1.00  0.00     0.055 A 
ATOM     71  C   UNL     1       1.032  10.391   4.818  1.00  0.00     0.041 A 
ATOM     72  F   UNL     1       0.524  11.953   3.202  1.00  0.00    -0.206 F 
ATOM     73  C   UNL     1       1.913   9.516   5.428  1.00  0.00     0.022 A 
BRANCH  70  74
ATOM     74  S   UNL     1       4.367   8.241   5.654  1.00  0.00     0.124 S 
ATOM     75  O   UNL     1       4.559   7.152   4.702  1.00  0.00    -0.237 OA
ATOM     76  O   UNL     1       5.487   9.159   5.822  1.00  0.00    -0.237 OA
ATOM     77  O   UNL     1       3.696   7.859   6.897  1.00  0.00    -0.744 OA
ENDBRANCH  70  74
ENDBRANCH  53  67
BRANCH  54  78
ATOM     78  C   UNL     1       3.688  11.780  -6.638  1.00  0.00     0.023 A 
ATOM     79  C   UNL     1       3.318  10.962  -7.729  1.00  0.00     0.031 A 
ATOM     80  C   UNL     1       3.010  12.995  -6.471  1.00  0.00     0.131 A 
ATOM     81  C   UNL     1       2.197  11.283  -8.507  1.00  0.00     0.055 A 
ATOM     82  C   UNL     1       1.929  13.343  -7.293  1.00  0.00     0.041 A 
ATOM     83  F   UNL     1       3.292  13.799  -5.435  1.00  0.00    -0.206 F 
ATOM     84  C   UNL     1       1.489  12.465  -8.286  1.00  0.00     0.022 A 
BRANCH  81  85
ATOM     85  S   UNL     1       1.520  10.013  -9.621  1.00  0.00     0.124 S 
ATOM     86  O   UNL     1       2.284  10.242 -10.842  1.00  0.00    -0.237 OA
ATOM     87  O   UNL     1       1.812   8.769  -8.911  1.00  0.00    -0.237 OA
ATOM     88  O   UNL     1       0.099  10.344  -9.695  1.00  0.00    -0.744 OA
ENDBRANCH  81  85
ENDBRANCH  54  78
BRANCH  66  89
ATOM     89  C   UNL     1       7.584  13.445  -0.644  1.00  0.00     0.023 A 
ATOM     90  C   UNL     1       8.474  14.332  -1.265  1.00  0.00     0.031 A 
ATOM     91  C   UNL     1       7.623  13.473   0.777  1.00  0.00     0.131 A 
ATOM     92  C   UNL     1       9.346  15.157  -0.525  1.00  0.00     0.055 A 
ATOM     93  C   UNL     1       8.465  14.316   1.514  1.00  0.00     0.041 A 
ATOM     94  F   UNL     1       6.834  12.694   1.530  1.00  0.00    -0.206 F 
ATOM     95  C   UNL     1       9.341  15.165   0.864  1.00  0.00     0.022 A 
BRANCH  92  96
ATOM     96  S   UNL     1      10.513  16.203  -1.438  1.00  0.00     0.124 S 
ATOM     97  O   UNL     1      11.300  15.215  -2.169  1.00  0.00    -0.237 OA
ATOM     98  O   UNL     1       9.621  17.027  -2.249  1.00  0.00    -0.237 OA
ATOM     99  O   UNL     1      11.234  16.918  -0.386  1.00  0.00    -0.744 OA
ENDBRANCH  92  96
ENDBRANCH  66  89
ENDBRANCH  40  41
ENDBRANCH  32  35
ENDBRANCH  30  31
ENDBRANCH  29  30
ENDBRANCH  28  29
ENDBRANCH   1  28
TORSDOF 20
