REMARK SMILES CC[C@H]1CCCC[C@@H]1C1(C(=O)NCCCCCCNC(=O)c2ccc(-c3c4nc(c(-c5cc(S(=O)(=O)[O-])ccc5F)c5ccc([nH]5)c(-c5cc(S(=O)(=O)[O-])ccc5F)c5nc(c(-c6cc(S(=O)(=O)[O-])ccc6F)c6ccc3[nH]6)C=C5)C=C4)cc2)CC1
REMARK SMILES IDX 16 1 15 2 14 3 13 4 12 5 10 6 11 7 9 9 85 10 86 11 8 12 3 13
REMARK SMILES IDX 4 14 5 15 7 16 6 17 2 18 1 19 17 20 18 21 19 22 20 23 21 25
REMARK SMILES IDX 22 26 23 27 84 28 24 29 83 30 25 31 26 32 27 33 77 34 28 35
REMARK SMILES IDX 82 36 76 37 78 38 29 39 81 40 75 41 74 42 30 44 62 45 42 46
REMARK SMILES IDX 61 47 43 48 46 49 60 50 79 51 44 52 45 53 59 55 80 56 47 57
REMARK SMILES IDX 31 58 32 59 40 60 33 61 39 62 41 63 38 64 34 65 35 66 36 67
REMARK SMILES IDX 37 68 63 69 64 70 72 71 65 72 71 73 73 74 70 75 66 76 67 77
REMARK SMILES IDX 68 78 69 79 48 80 49 81 57 82 50 83 56 84 58 85 55 86 51 87
REMARK SMILES IDX 52 88 53 89 54 90
REMARK H PARENT 12 8 19 24 78 43 46 54
REMARK Flexibility Score: inf
ROOT
ATOM      1  C   UNL     1       0.806   9.949   1.803  1.00  0.00     0.002 C 
ENDROOT
BRANCH   1   2
ATOM      2  C   UNL     1       1.729   9.270   0.784  1.00  0.00     0.002 C 
BRANCH   2   3
ATOM      3  C   UNL     1       2.438   7.996   1.271  1.00  0.00     0.021 C 
BRANCH   3   4
ATOM      4  C   UNL     1       1.521   6.988   1.964  1.00  0.00     0.116 C 
BRANCH   4   5
ATOM      5  N   UNL     1       0.442   6.562   1.104  1.00  0.00    -0.356 N 
ATOM      6  C   UNL     1       0.179   5.455   0.355  1.00  0.00     0.226 C 
ATOM      7  O   UNL     1      -0.926   5.428  -0.182  1.00  0.00    -0.274 OA
ATOM      8  H   UNL     1      -0.276   7.233   1.045  1.00  0.00     0.163 HD
BRANCH   6   9
ATOM      9  C   UNL     1       1.126   4.269   0.160  1.00  0.00     0.052 C 
ATOM     10  C   UNL     1       1.422   3.511   1.460  1.00  0.00     0.018 C 
ATOM     11  C   UNL     1       2.533   4.188   0.726  1.00  0.00     0.018 C 
BRANCH   9  12
ATOM     12  C   UNL     1       0.867   3.514  -1.191  1.00  0.00     0.008 C 
ATOM     13  C   UNL     1       1.241   2.009  -1.312  1.00  0.00    -0.007 C 
ATOM     14  C   UNL     1       2.717   1.771  -1.685  1.00  0.00     0.004 C 
ATOM     15  C   UNL     1       3.227   2.657  -2.819  1.00  0.00     0.000 C 
ATOM     16  C   UNL     1       1.405   4.341  -2.376  1.00  0.00     0.005 C 
ATOM     17  C   UNL     1       2.891   4.130  -2.626  1.00  0.00     0.000 C 
BRANCH  13  18
ATOM     18  C   UNL     1       0.301   1.336  -2.357  1.00  0.00     0.000 C 
ATOM     19  C   UNL     1       0.288  -0.186  -2.282  1.00  0.00     0.004 C 
ENDBRANCH  13  18
ENDBRANCH   9  12
ENDBRANCH   6   9
ENDBRANCH   4   5
ENDBRANCH   3   4
ENDBRANCH   2   3
ENDBRANCH   1   2
BRANCH   1  20
ATOM     20  C   UNL     1       1.443  10.260   3.158  1.00  0.00     0.021 C 
BRANCH  20  21
ATOM     21  C   UNL     1       2.648  11.184   3.090  1.00  0.00     0.116 C 
BRANCH  21  22
ATOM     22  N   UNL     1       2.282  12.518   2.646  1.00  0.00    -0.352 N 
ATOM     23  C   UNL     1       2.530  13.723   3.256  1.00  0.00     0.251 C 
ATOM     24  H   UNL     1       1.791  12.564   1.794  1.00  0.00     0.163 HD
ATOM     25  O   UNL     1       1.961  14.736   2.862  1.00  0.00    -0.269 OA
BRANCH  23  26
ATOM     26  C   UNL     1       3.466  13.781   4.401  1.00  0.00     0.039 A 
ATOM     27  C   UNL     1       3.114  14.527   5.527  1.00  0.00     0.014 A 
ATOM     28  C   UNL     1       4.683  13.095   4.363  1.00  0.00     0.014 A 
ATOM     29  C   UNL     1       3.963  14.545   6.636  1.00  0.00     0.010 A 
ATOM     30  C   UNL     1       5.488  13.048   5.497  1.00  0.00     0.010 A 
ATOM     31  C   UNL     1       5.143  13.783   6.642  1.00  0.00    -0.014 A 
BRANCH  31  32
ATOM     32  C   UNL     1       6.048  13.771   7.821  1.00  0.00     0.031 A 
ATOM     33  C   UNL     1       7.447  14.311   7.695  1.00  0.00     0.074 A 
ATOM     34  C   UNL     1       5.630  13.229   8.982  1.00  0.00     0.049 A 
ATOM     35  N   UNL     1       8.414  14.324   8.577  1.00  0.00    -0.248 NA
ATOM     36  C   UNL     1       7.818  14.882   6.391  1.00  0.00     0.031 C 
ATOM     37  C   UNL     1       4.309  12.640   9.213  1.00  0.00     0.029 A 
ATOM     38  N   UNL     1       6.274  13.077  10.184  1.00  0.00    -0.354 N 
ATOM     39  C   UNL     1       9.508  14.892   7.932  1.00  0.00     0.074 A 
ATOM     40  C   UNL     1       9.104  15.143   6.566  1.00  0.00     0.031 C 
ATOM     41  C   UNL     1       4.233  12.215  10.484  1.00  0.00     0.029 A 
ATOM     42  C   UNL     1       5.512  12.456  11.147  1.00  0.00     0.049 A 
ATOM     43  H   UNL     1       7.196  13.383  10.343  1.00  0.00     0.167 HD
ATOM     44  C   UNL     1      10.727  15.199   8.440  1.00  0.00     0.034 A 
ATOM     45  C   UNL     1       5.813  12.110  12.414  1.00  0.00     0.034 A 
ATOM     46  C   UNL     1      11.107  14.952   9.810  1.00  0.00     0.049 A 
ATOM     47  C   UNL     1       7.183  12.441  12.952  1.00  0.00     0.074 A 
ATOM     48  C   UNL     1      12.297  15.264  10.444  1.00  0.00     0.029 A 
ATOM     49  N   UNL     1      10.306  14.326  10.758  1.00  0.00    -0.354 N 
ATOM     50  N   UNL     1       8.192  13.019  12.342  1.00  0.00    -0.248 NA
ATOM     51  C   UNL     1       7.449  12.085  14.351  1.00  0.00     0.031 C 
ATOM     52  C   UNL     1      12.242  14.766  11.750  1.00  0.00     0.029 A 
ATOM     53  C   UNL     1      10.987  14.218  11.961  1.00  0.00     0.049 A 
ATOM     54  H   UNL     1       9.389  14.007  10.598  1.00  0.00     0.167 HD
ATOM     55  C   UNL     1       9.200  13.129  13.297  1.00  0.00     0.074 A 
ATOM     56  C   UNL     1       8.670  12.569  14.524  1.00  0.00     0.031 C 
ATOM     57  C   UNL     1      10.447  13.650  13.175  1.00  0.00     0.034 A 
BRANCH  44  58
ATOM     58  C   UNL     1      11.738  15.812   7.498  1.00  0.00     0.023 A 
ATOM     59  C   UNL     1      11.509  17.050   6.871  1.00  0.00     0.031 A 
ATOM     60  C   UNL     1      12.933  15.136   7.196  1.00  0.00     0.131 A 
ATOM     61  C   UNL     1      12.417  17.532   5.916  1.00  0.00     0.055 A 
ATOM     62  C   UNL     1      13.876  15.664   6.311  1.00  0.00     0.041 A 
ATOM     63  F   UNL     1      13.200  13.940   7.744  1.00  0.00    -0.206 F 
ATOM     64  C   UNL     1      13.612  16.861   5.652  1.00  0.00     0.022 A 
BRANCH  61  65
ATOM     65  S   UNL     1      11.938  18.966   4.914  1.00  0.00     0.124 S 
ATOM     66  O   UNL     1      10.710  18.486   4.282  1.00  0.00    -0.237 OA
ATOM     67  O   UNL     1      11.774  20.012   5.916  1.00  0.00    -0.237 OA
ATOM     68  O   UNL     1      13.069  19.142   4.005  1.00  0.00    -0.744 OA
ENDBRANCH  61  65
ENDBRANCH  44  58
BRANCH  45  69
ATOM     69  C   UNL     1       4.809  11.405  13.264  1.00  0.00     0.023 A 
ATOM     70  C   UNL     1       4.297  12.002  14.427  1.00  0.00     0.031 A 
ATOM     71  C   UNL     1       4.380  10.103  12.948  1.00  0.00     0.131 A 
ATOM     72  C   UNL     1       3.426  11.281  15.259  1.00  0.00     0.055 A 
ATOM     73  C   UNL     1       3.468   9.412  13.748  1.00  0.00     0.041 A 
ATOM     74  F   UNL     1       4.833   9.487  11.845  1.00  0.00    -0.206 F 
ATOM     75  C   UNL     1       2.997   9.996  14.920  1.00  0.00     0.022 A 
BRANCH  72  76
ATOM     76  S   UNL     1       2.930  12.015  16.842  1.00  0.00     0.124 S 
ATOM     77  O   UNL     1       4.221  12.236  17.483  1.00  0.00    -0.237 OA
ATOM     78  O   UNL     1       2.214  13.210  16.410  1.00  0.00    -0.237 OA
ATOM     79  O   UNL     1       2.099  10.979  17.451  1.00  0.00    -0.744 OA
ENDBRANCH  72  76
ENDBRANCH  45  69
BRANCH  57  80
ATOM     80  C   UNL     1      11.303  13.687  14.419  1.00  0.00     0.023 A 
ATOM     81  C   UNL     1      11.762  12.513  15.040  1.00  0.00     0.031 A 
ATOM     82  C   UNL     1      11.655  14.921  14.995  1.00  0.00     0.131 A 
ATOM     83  C   UNL     1      12.498  12.596  16.232  1.00  0.00     0.055 A 
ATOM     84  C   UNL     1      12.441  14.999  16.144  1.00  0.00     0.041 A 
ATOM     85  F   UNL     1      11.241  16.075  14.445  1.00  0.00    -0.206 F 
ATOM     86  C   UNL     1      12.856  13.832  16.778  1.00  0.00     0.022 A 
BRANCH  83  87
ATOM     87  S   UNL     1      12.899  11.064  17.117  1.00  0.00     0.124 S 
ATOM     88  O   UNL     1      11.577  10.492  17.347  1.00  0.00    -0.237 OA
ATOM     89  O   UNL     1      13.740  10.359  16.155  1.00  0.00    -0.237 OA
ATOM     90  O   UNL     1      13.590  11.532  18.317  1.00  0.00    -0.744 OA
ENDBRANCH  83  87
ENDBRANCH  57  80
ENDBRANCH  31  32
ENDBRANCH  23  26
ENDBRANCH  21  22
ENDBRANCH  20  21
ENDBRANCH   1  20
TORSDOF 18
