REMARK SMILES O=C(CCc1cc2n(n1)CCCN(S(=O)(=O)CCC(F)(F)F)C2)NCCCCCCNC(=O)c1ccc(-c2c3nc(c(-c4cc(S(=O)(=O)[O-])ccc4F)c4ccc([nH]4)c(-c4cc(S(=O)(=O)[O-])ccc4F)c4nc(c(-c5cc(S(=O)(=O)[O-])ccc5F)c5ccc2[nH]5)C=C4)C=C3)cc1
REMARK SMILES IDX 25 1 24 2 1 3 2 4 3 6 4 7 5 8 6 9 9 10 7 11 8 12 23 13 13 14
REMARK SMILES IDX 12 15 14 17 15 18 16 19 17 20 18 21 19 22 20 23 21 24 22 25
REMARK SMILES IDX 10 26 11 27 26 29 27 30 28 31 29 32 30 33 31 34 32 35 33 37
REMARK SMILES IDX 34 38 35 39 96 40 36 41 95 42 37 43 38 44 39 45 89 46 40 47
REMARK SMILES IDX 94 48 88 49 90 50 41 51 93 52 87 53 86 54 42 56 74 57 54 58
REMARK SMILES IDX 73 59 55 60 58 61 72 62 91 63 56 64 57 65 71 67 92 68 59 69
REMARK SMILES IDX 43 70 44 71 52 72 45 73 51 74 53 75 50 76 46 77 47 78 48 79
REMARK SMILES IDX 49 80 75 81 76 82 84 83 77 84 83 85 85 86 82 87 78 88 79 89
REMARK SMILES IDX 80 90 81 91 60 92 61 93 69 94 62 95 68 96 70 97 67 98 63 99
REMARK SMILES IDX 64 100 65 101 66 102
REMARK H PARENT 24 5 31 36 90 55 58 66
REMARK Flexibility Score: 90.00
ROOT
ATOM      1  C   UNL     1       1.739   2.250   0.478  1.00  0.00     0.116 C 
ENDROOT
BRANCH   1   2
ATOM      2  N   UNL     1       2.524   1.066   0.195  1.00  0.00    -0.356 N 
ATOM      3  O   UNL     1       0.763  -0.364  -0.156  1.00  0.00    -0.275 OA
ATOM      4  C   UNL     1       1.972  -0.160  -0.083  1.00  0.00     0.220 C 
ATOM      5  H   UNL     1       3.505   1.144   0.202  1.00  0.00     0.163 HD
BRANCH   4   6
ATOM      6  C   UNL     1       2.974  -1.290  -0.239  1.00  0.00     0.106 C 
BRANCH   6   7
ATOM      7  C   UNL     1       3.824  -1.188  -1.500  1.00  0.00     0.068 C 
BRANCH   7   8
ATOM      8  C   UNL     1       4.975  -0.241  -1.374  1.00  0.00     0.063 A 
ATOM      9  C   UNL     1       6.242  -0.450  -0.783  1.00  0.00     0.050 A 
ATOM     10  N   UNL     1       4.859   1.008  -1.832  1.00  0.00    -0.178 NA
ATOM     11  C   UNL     1       6.929   0.740  -0.941  1.00  0.00     0.054 A 
ATOM     12  N   UNL     1       6.064   1.563  -1.610  1.00  0.00    -0.268 N 
BRANCH  11  13
ATOM     13  C   UNL     1       8.317   1.133  -0.544  1.00  0.00     0.157 C 
BRANCH  13  14
ATOM     14  N   UNL     1       8.387   2.311   0.373  1.00  0.00    -0.196 NA
BRANCH  14  15
ATOM     15  C   UNL     1       7.204   3.183   0.384  1.00  0.00     0.104 CG0
ATOM     16  G   UNL     1       7.021   3.810  -0.999  1.00  0.00     0.000 G0
ENDBRANCH  14  15
BRANCH  14  17
ATOM     17  S   UNL     1       9.157   2.000   1.837  1.00  0.00     0.214 S 
ATOM     18  O   UNL     1       8.183   1.311   2.668  1.00  0.00    -0.212 OA
ATOM     19  O   UNL     1      10.426   1.386   1.536  1.00  0.00    -0.212 OA
BRANCH  17  20
ATOM     20  C   UNL     1       9.486   3.592   2.595  1.00  0.00     0.163 C 
BRANCH  20  21
ATOM     21  C   UNL     1      10.565   4.437   1.935  1.00  0.00     0.133 C 
BRANCH  21  22
ATOM     22  C   UNL     1      10.200   5.000   0.585  1.00  0.00     0.390 C 
ATOM     23  F   UNL     1       8.978   5.570   0.596  1.00  0.00    -0.171 F 
ATOM     24  F   UNL     1      11.085   5.957   0.222  1.00  0.00    -0.171 F 
ATOM     25  F   UNL     1      10.222   4.066  -0.383  1.00  0.00    -0.171 F 
ENDBRANCH  21  22
ENDBRANCH  20  21
ENDBRANCH  17  20
ENDBRANCH  14  17
ENDBRANCH  13  14
ENDBRANCH  11  13
BRANCH  12  26
ATOM     26  C   UNL     1       6.262   2.943  -1.997  1.00  0.00     0.146 C 
BRANCH  26  27
ATOM     27  C   UNL     1       7.021   3.810  -0.999  1.00  0.00     0.040 CG0
ATOM     28  G   UNL     1       7.204   3.183   0.384  1.00  0.00     0.000 G0
ENDBRANCH  26  27
ENDBRANCH  12  26
ENDBRANCH   7   8
ENDBRANCH   6   7
ENDBRANCH   4   6
ENDBRANCH   1   2
BRANCH   1  29
ATOM     29  C   UNL     1       2.146   2.913   1.795  1.00  0.00     0.021 C 
BRANCH  29  30
ATOM     30  C   UNL     1       3.606   3.362   1.878  1.00  0.00     0.002 C 
BRANCH  30  31
ATOM     31  C   UNL     1       4.091   4.279   0.752  1.00  0.00     0.002 C 
BRANCH  31  32
ATOM     32  C   UNL     1       3.419   5.638   0.571  1.00  0.00     0.021 C 
BRANCH  32  33
ATOM     33  C   UNL     1       3.766   6.627   1.676  1.00  0.00     0.116 C 
BRANCH  33  34
ATOM     34  N   UNL     1       5.184   7.018   1.683  1.00  0.00    -0.352 N 
ATOM     35  C   UNL     1       5.842   7.782   2.634  1.00  0.00     0.251 C 
ATOM     36  H   UNL     1       5.728   6.702   0.925  1.00  0.00     0.163 HD
ATOM     37  O   UNL     1       6.905   8.334   2.378  1.00  0.00    -0.269 OA
BRANCH  35  38
ATOM     38  C   UNL     1       5.230   7.891   3.969  1.00  0.00     0.039 A 
ATOM     39  C   UNL     1       5.062   9.116   4.618  1.00  0.00     0.014 A 
ATOM     40  C   UNL     1       4.723   6.713   4.511  1.00  0.00     0.014 A 
ATOM     41  C   UNL     1       4.277   9.155   5.771  1.00  0.00     0.010 A 
ATOM     42  C   UNL     1       3.817   6.784   5.535  1.00  0.00     0.010 A 
ATOM     43  C   UNL     1       3.626   7.987   6.205  1.00  0.00    -0.014 A 
BRANCH  43  44
ATOM     44  C   UNL     1       2.608   8.021   7.255  1.00  0.00     0.031 A 
ATOM     45  C   UNL     1       1.523   9.009   7.009  1.00  0.00     0.074 A 
ATOM     46  C   UNL     1       2.512   7.080   8.223  1.00  0.00     0.049 A 
ATOM     47  N   UNL     1       1.325  10.125   7.628  1.00  0.00    -0.248 NA
ATOM     48  C   UNL     1       0.670   8.842   5.819  1.00  0.00     0.031 C 
ATOM     49  C   UNL     1       3.336   5.878   8.401  1.00  0.00     0.029 A 
ATOM     50  N   UNL     1       1.576   6.934   9.201  1.00  0.00    -0.354 N 
ATOM     51  C   UNL     1       0.151  10.651   7.098  1.00  0.00     0.074 A 
ATOM     52  C   UNL     1      -0.048   9.968   5.849  1.00  0.00     0.031 C 
ATOM     53  C   UNL     1       2.724   5.022   9.250  1.00  0.00     0.029 A 
ATOM     54  C   UNL     1       1.558   5.679   9.814  1.00  0.00     0.049 A 
ATOM     55  H   UNL     1       0.959   7.657   9.456  1.00  0.00     0.167 HD
ATOM     56  C   UNL     1      -0.694  11.387   7.875  1.00  0.00     0.034 A 
ATOM     57  C   UNL     1       0.651   5.204  10.713  1.00  0.00     0.034 A 
ATOM     58  C   UNL     1      -0.031  11.798   9.097  1.00  0.00     0.049 A 
ATOM     59  C   UNL     1       0.013   6.395  11.327  1.00  0.00     0.074 A 
ATOM     60  C   UNL     1       1.123  12.505   9.382  1.00  0.00     0.029 A 
ATOM     61  N   UNL     1      -0.335  11.116  10.257  1.00  0.00    -0.354 N 
ATOM     62  N   UNL     1       0.670   7.254  12.059  1.00  0.00    -0.248 NA
ATOM     63  C   UNL     1      -1.200   6.910  10.710  1.00  0.00     0.031 C 
ATOM     64  C   UNL     1       1.718  11.805  10.474  1.00  0.00     0.029 A 
ATOM     65  C   UNL     1       0.849  10.786  10.870  1.00  0.00     0.049 A 
ATOM     66  H   UNL     1      -1.239  10.903  10.585  1.00  0.00     0.167 HD
ATOM     67  C   UNL     1       0.228   8.498  11.632  1.00  0.00     0.074 A 
ATOM     68  C   UNL     1      -0.992   8.221  10.871  1.00  0.00     0.031 C 
ATOM     69  C   UNL     1       1.043   9.595  11.679  1.00  0.00     0.034 A 
BRANCH  56  70
ATOM     70  C   UNL     1      -2.208  11.398   7.752  1.00  0.00     0.023 A 
ATOM     71  C   UNL     1      -2.913  12.174   8.693  1.00  0.00     0.031 A 
ATOM     72  C   UNL     1      -2.993  10.498   6.996  1.00  0.00     0.131 A 
ATOM     73  C   UNL     1      -4.276  11.946   8.947  1.00  0.00     0.055 A 
ATOM     74  C   UNL     1      -4.365  10.324   7.206  1.00  0.00     0.041 A 
ATOM     75  F   UNL     1      -2.481   9.675   6.077  1.00  0.00    -0.206 F 
ATOM     76  C   UNL     1      -5.008  11.021   8.212  1.00  0.00     0.022 A 
BRANCH  73  77
ATOM     77  S   UNL     1      -5.019  12.744  10.393  1.00  0.00     0.124 S 
ATOM     78  O   UNL     1      -4.119  12.309  11.456  1.00  0.00    -0.237 OA
ATOM     79  O   UNL     1      -4.949  14.153  10.024  1.00  0.00    -0.237 OA
ATOM     80  O   UNL     1      -6.364  12.175  10.438  1.00  0.00    -0.744 OA
ENDBRANCH  73  77
ENDBRANCH  56  70
BRANCH  57  81
ATOM     81  C   UNL     1       0.091   3.821  10.813  1.00  0.00     0.023 A 
ATOM     82  C   UNL     1      -0.595   3.337  11.952  1.00  0.00     0.031 A 
ATOM     83  C   UNL     1       0.009   3.024   9.648  1.00  0.00     0.131 A 
ATOM     84  C   UNL     1      -1.320   2.119  11.891  1.00  0.00     0.055 A 
ATOM     85  C   UNL     1      -0.710   1.827   9.593  1.00  0.00     0.041 A 
ATOM     86  F   UNL     1       0.556   3.427   8.491  1.00  0.00    -0.206 F 
ATOM     87  C   UNL     1      -1.387   1.374  10.712  1.00  0.00     0.022 A 
BRANCH  84  88
ATOM     88  S   UNL     1      -2.271   1.514  13.329  1.00  0.00     0.124 S 
ATOM     89  O   UNL     1      -1.217   1.158  14.272  1.00  0.00    -0.237 OA
ATOM     90  O   UNL     1      -3.089   2.670  13.676  1.00  0.00    -0.237 OA
ATOM     91  O   UNL     1      -3.020   0.377  12.792  1.00  0.00    -0.744 OA
ENDBRANCH  84  88
ENDBRANCH  57  81
BRANCH  69  92
ATOM     92  C   UNL     1       2.331   9.511  12.480  1.00  0.00     0.023 A 
ATOM     93  C   UNL     1       3.369   8.572  12.273  1.00  0.00     0.031 A 
ATOM     94  C   UNL     1       2.553  10.523  13.432  1.00  0.00     0.131 A 
ATOM     95  C   UNL     1       4.566   8.667  13.016  1.00  0.00     0.055 A 
ATOM     96  C   UNL     1       3.745  10.627  14.146  1.00  0.00     0.041 A 
ATOM     97  F   UNL     1       1.617  11.459  13.660  1.00  0.00    -0.206 F 
ATOM     98  C   UNL     1       4.754   9.695  13.946  1.00  0.00     0.022 A 
BRANCH  95  99
ATOM     99  S   UNL     1       5.900   7.439  12.810  1.00  0.00     0.124 S 
ATOM    100  O   UNL     1       5.201   6.161  12.860  1.00  0.00    -0.237 OA
ATOM    101  O   UNL     1       6.472   7.805  11.517  1.00  0.00    -0.237 OA
ATOM    102  O   UNL     1       6.778   7.696  13.954  1.00  0.00    -0.744 OA
ENDBRANCH  95  99
ENDBRANCH  69  92
ENDBRANCH  43  44
ENDBRANCH  35  38
ENDBRANCH  33  34
ENDBRANCH  32  33
ENDBRANCH  31  32
ENDBRANCH  30  31
ENDBRANCH  29  30
ENDBRANCH   1  29
TORSDOF 22
