REMARK SMILES O=C1[NH+]=C(Nc2ccc(C(=O)NCCCCCCNC(=O)c3ccc(-c4c5nc(c(-c6cc(S(=O)(=O)[O-])ccc6F)c6ccc([nH]6)c(-c6cc(S(=O)(=O)[O-])ccc6F)c6nc(c(-c7cc(S(=O)(=O)[O-])ccc7F)c7ccc4[nH]7)C=C6)C=C5)cc3)c(O)c2)S/C1=C\c1ccc[nH]1
REMARK SMILES IDX 16 1 15 2 14 3 13 4 12 5 10 6 11 7 9 9 6 10 7 11 87 12 8 13
REMARK SMILES IDX 85 14 5 15 1 16 2 17 3 18 89 19 4 20 88 22 90 23 91 25 92 26
REMARK SMILES IDX 95 27 93 28 94 29 86 31 17 33 18 34 19 35 20 36 21 38 22 39
REMARK SMILES IDX 23 40 84 41 24 42 83 43 25 44 26 45 27 46 77 47 28 48 82 49
REMARK SMILES IDX 76 50 78 51 29 52 81 53 75 54 74 55 30 57 62 58 42 59 61 60
REMARK SMILES IDX 43 61 46 62 60 63 79 64 44 65 45 66 59 68 80 69 47 70 31 71
REMARK SMILES IDX 32 72 40 73 33 74 39 75 41 76 38 77 34 78 35 79 36 80 37 81
REMARK SMILES IDX 63 82 64 83 72 84 65 85 71 86 73 87 70 88 66 89 67 90 68 91
REMARK SMILES IDX 69 92 48 93 49 94 57 95 50 96 56 97 58 98 55 99 51 100
REMARK SMILES IDX 52 101 53 102 54 103
REMARK H PARENT 12 8 3 21 5 24 95 30 86 32 19 37 78 56 46 67
REMARK Flexibility Score: inf
ROOT
ATOM      1  C   UNL     1      -0.241  11.080  -3.575  1.00  0.00     0.002 C 
ENDROOT
BRANCH   1   2
ATOM      2  C   UNL     1      -1.512  10.227  -3.543  1.00  0.00     0.002 C 
BRANCH   2   3
ATOM      3  C   UNL     1      -1.326   8.707  -3.483  1.00  0.00     0.021 C 
BRANCH   3   4
ATOM      4  C   UNL     1      -0.381   8.182  -2.405  1.00  0.00     0.116 C 
BRANCH   4   5
ATOM      5  N   UNL     1      -0.775   8.521  -1.048  1.00  0.00    -0.352 N 
ATOM      6  C   UNL     1      -0.606   7.827   0.126  1.00  0.00     0.255 C 
ATOM      7  O   UNL     1      -1.053   8.306   1.167  1.00  0.00    -0.269 OA
ATOM      8  H   UNL     1      -1.237   9.385  -0.955  1.00  0.00     0.163 HD
BRANCH   6   9
ATOM      9  C   UNL     1       0.049   6.495   0.168  1.00  0.00     0.081 A 
ATOM     10  C   UNL     1       1.022   3.839   0.242  1.00  0.00     0.129 A 
ATOM     11  C   UNL     1      -0.085   4.217   1.008  1.00  0.00     0.053 A 
ATOM     12  C   UNL     1       1.671   4.823  -0.512  1.00  0.00     0.098 A 
ATOM     13  C   UNL     1      -0.564   5.530   0.978  1.00  0.00     0.022 A 
ATOM     14  C   UNL     1       1.215   6.144  -0.515  1.00  0.00     0.132 A 
BRANCH  10  15
ATOM     15  N   UNL     1       1.445   2.509   0.142  1.00  0.00    -0.234 N 
ATOM     16  O   UNL     1      -2.281  -0.295   0.006  1.00  0.00    -0.240 OA
ATOM     17  C   UNL     1      -1.100   0.027   0.064  1.00  0.00     0.346 C 
ATOM     18  N   UNL     1      -0.639   1.320   0.130  1.00  0.00    -0.199 N 
ATOM     19  C   UNL     1       0.016  -0.960   0.077  1.00  0.00     0.111 C 
ATOM     20  C   UNL     1       0.650   1.403   0.145  1.00  0.00     0.322 C 
ATOM     21  H   UNL     1      -1.232   2.105   0.163  1.00  0.00     0.316 HD
ATOM     22  S   UNL     1       1.514  -0.118   0.123  1.00  0.00     0.006 SA
ATOM     23  C   UNL     1      -0.201  -2.282   0.040  1.00  0.00     0.050 C 
ATOM     24  H   UNL     1       2.415   2.358   0.061  1.00  0.00     0.313 HD
BRANCH  23  25
ATOM     25  C   UNL     1       0.847  -3.228   0.135  1.00  0.00     0.039 A 
ATOM     26  C   UNL     1       1.844  -3.453   1.063  1.00  0.00     0.027 A 
ATOM     27  N   UNL     1       0.989  -4.163  -0.861  1.00  0.00    -0.362 N 
ATOM     28  C   UNL     1       2.628  -4.534   0.597  1.00  0.00     0.020 A 
ATOM     29  C   UNL     1       2.083  -4.949  -0.596  1.00  0.00     0.083 A 
ATOM     30  H   UNL     1       0.398  -4.255  -1.643  1.00  0.00     0.166 HD
ENDBRANCH  23  25
ENDBRANCH  10  15
BRANCH  14  31
ATOM     31  O   UNL     1       2.005   7.030  -1.192  1.00  0.00    -0.507 OA
ATOM     32  H   UNL     1       1.762   7.934  -1.237  1.00  0.00     0.293 HD
ENDBRANCH  14  31
ENDBRANCH   6   9
ENDBRANCH   4   5
ENDBRANCH   3   4
ENDBRANCH   2   3
ENDBRANCH   1   2
BRANCH   1  33
ATOM     33  C   UNL     1       0.787  10.734  -4.654  1.00  0.00     0.021 C 
BRANCH  33  34
ATOM     34  C   UNL     1       0.255  10.653  -6.081  1.00  0.00     0.116 C 
BRANCH  34  35
ATOM     35  N   UNL     1      -0.351  11.895  -6.529  1.00  0.00    -0.352 N 
ATOM     36  C   UNL     1      -0.091  12.640  -7.654  1.00  0.00     0.251 C 
ATOM     37  H   UNL     1      -1.051  12.257  -5.939  1.00  0.00     0.163 HD
ATOM     38  O   UNL     1      -0.605  13.748  -7.781  1.00  0.00    -0.269 OA
BRANCH  36  39
ATOM     39  C   UNL     1       0.834  12.125  -8.690  1.00  0.00     0.039 A 
ATOM     40  C   UNL     1       1.807  12.982  -9.208  1.00  0.00     0.014 A 
ATOM     41  C   UNL     1       0.753  10.804  -9.141  1.00  0.00     0.014 A 
ATOM     42  C   UNL     1       2.749  12.493 -10.117  1.00  0.00     0.010 A 
ATOM     43  C   UNL     1       1.737  10.299  -9.990  1.00  0.00     0.010 A 
ATOM     44  C   UNL     1       2.752  11.136 -10.479  1.00  0.00    -0.014 A 
BRANCH  44  45
ATOM     45  C   UNL     1       3.825  10.572 -11.342  1.00  0.00     0.031 A 
ATOM     46  C   UNL     1       3.492   9.984 -12.686  1.00  0.00     0.074 A 
ATOM     47  C   UNL     1       5.094  10.536 -10.885  1.00  0.00     0.049 A 
ATOM     48  N   UNL     1       4.276   9.380 -13.542  1.00  0.00    -0.248 NA
ATOM     49  C   UNL     1       2.087  10.067 -13.114  1.00  0.00     0.031 C 
ATOM     50  C   UNL     1       5.536  11.047  -9.585  1.00  0.00     0.029 A 
ATOM     51  N   UNL     1       6.243  10.042 -11.452  1.00  0.00    -0.354 N 
ATOM     52  C   UNL     1       3.462   9.004 -14.605  1.00  0.00     0.074 A 
ATOM     53  C   UNL     1       2.113   9.397 -14.257  1.00  0.00     0.031 C 
ATOM     54  C   UNL     1       6.861  10.864  -9.467  1.00  0.00     0.029 A 
ATOM     55  C   UNL     1       7.356  10.170 -10.651  1.00  0.00     0.049 A 
ATOM     56  H   UNL     1       6.269   9.634 -12.348  1.00  0.00     0.167 HD
ATOM     57  C   UNL     1       3.812   8.404 -15.770  1.00  0.00     0.034 A 
ATOM     58  C   UNL     1       8.626   9.755 -10.836  1.00  0.00     0.034 A 
ATOM     59  C   UNL     1       5.163   8.020 -16.101  1.00  0.00     0.049 A 
ATOM     60  C   UNL     1       8.977   9.038 -12.116  1.00  0.00     0.074 A 
ATOM     61  C   UNL     1       5.634   7.456 -17.275  1.00  0.00     0.029 A 
ATOM     62  N   UNL     1       6.259   8.144 -15.256  1.00  0.00    -0.354 N 
ATOM     63  N   UNL     1       8.204   8.739 -13.134  1.00  0.00    -0.248 NA
ATOM     64  C   UNL     1      10.373   8.607 -12.274  1.00  0.00     0.031 C 
ATOM     65  C   UNL     1       6.990   7.160 -17.107  1.00  0.00     0.029 A 
ATOM     66  C   UNL     1       7.392   7.625 -15.865  1.00  0.00     0.049 A 
ATOM     67  H   UNL     1       6.235   8.543 -14.356  1.00  0.00     0.167 HD
ATOM     68  C   UNL     1       9.028   8.112 -14.065  1.00  0.00     0.074 A 
ATOM     69  C   UNL     1      10.359   8.095 -13.496  1.00  0.00     0.031 C 
ATOM     70  C   UNL     1       8.713   7.600 -15.282  1.00  0.00     0.034 A 
BRANCH  57  71
ATOM     71  C   UNL     1       2.711   8.098 -16.759  1.00  0.00     0.023 A 
ATOM     72  C   UNL     1       1.945   9.116 -17.352  1.00  0.00     0.031 A 
ATOM     73  C   UNL     1       2.421   6.768 -17.111  1.00  0.00     0.131 A 
ATOM     74  C   UNL     1       0.884   8.786 -18.209  1.00  0.00     0.055 A 
ATOM     75  C   UNL     1       1.419   6.450 -18.031  1.00  0.00     0.041 A 
ATOM     76  F   UNL     1       3.102   5.750 -16.561  1.00  0.00    -0.206 F 
ATOM     77  C   UNL     1       0.634   7.462 -18.575  1.00  0.00     0.022 A 
BRANCH  74  78
ATOM     78  S   UNL     1      -0.253  10.101 -18.726  1.00  0.00     0.124 S 
ATOM     79  O   UNL     1      -0.734  10.597 -17.438  1.00  0.00    -0.237 OA
ATOM     80  O   UNL     1       0.621  10.999 -19.471  1.00  0.00    -0.237 OA
ATOM     81  O   UNL     1      -1.252   9.396 -19.525  1.00  0.00    -0.744 OA
ENDBRANCH  74  78
ENDBRANCH  57  71
BRANCH  58  82
ATOM     82  C   UNL     1       9.658   9.975  -9.779  1.00  0.00     0.023 A 
ATOM     83  C   UNL     1      10.798  10.755 -10.030  1.00  0.00     0.031 A 
ATOM     84  C   UNL     1       9.549   9.359  -8.519  1.00  0.00     0.131 A 
ATOM     85  C   UNL     1      11.807  10.854  -9.059  1.00  0.00     0.055 A 
ATOM     86  C   UNL     1      10.524   9.515  -7.532  1.00  0.00     0.041 A 
ATOM     87  F   UNL     1       8.482   8.599  -8.224  1.00  0.00    -0.206 F 
ATOM     88  C   UNL     1      11.670  10.254  -7.806  1.00  0.00     0.022 A 
BRANCH  85  89
ATOM     89  S   UNL     1      13.357  11.688  -9.501  1.00  0.00     0.124 S 
ATOM     90  O   UNL     1      13.786  10.918 -10.662  1.00  0.00    -0.237 OA
ATOM     91  O   UNL     1      12.903  13.049  -9.763  1.00  0.00    -0.237 OA
ATOM     92  O   UNL     1      14.181  11.527  -8.305  1.00  0.00    -0.744 OA
ENDBRANCH  85  89
ENDBRANCH  58  82
BRANCH  70  93
ATOM     93  C   UNL     1       9.841   7.013 -16.097  1.00  0.00     0.023 A 
ATOM     94  C   UNL     1      10.530   5.858 -15.686  1.00  0.00     0.031 A 
ATOM     95  C   UNL     1      10.233   7.620 -17.304  1.00  0.00     0.131 A 
ATOM     96  C   UNL     1      11.607   5.378 -16.447  1.00  0.00     0.055 A 
ATOM     97  C   UNL     1      11.260   7.098 -18.092  1.00  0.00     0.041 A 
ATOM     98  F   UNL     1       9.616   8.729 -17.744  1.00  0.00    -0.206 F 
ATOM     99  C   UNL     1      11.962   5.978 -17.658  1.00  0.00     0.022 A 
BRANCH  96 100
ATOM    100  S   UNL     1      12.600   4.013 -15.785  1.00  0.00     0.124 S 
ATOM    101  O   UNL     1      13.074   4.568 -14.521  1.00  0.00    -0.237 OA
ATOM    102  O   UNL     1      11.622   2.935 -15.680  1.00  0.00    -0.237 OA
ATOM    103  O   UNL     1      13.632   3.815 -16.801  1.00  0.00    -0.744 OA
ENDBRANCH  96 100
ENDBRANCH  70  93
ENDBRANCH  44  45
ENDBRANCH  36  39
ENDBRANCH  34  35
ENDBRANCH  33  34
ENDBRANCH   1  33
TORSDOF 19
