REMARK SMILES Cc1cc(NC(=O)CC(C)(C)CC(=O)NCCCCCCNC(=O)c2ccc(-c3c4nc(c(-c5cc(S(=O)(=O)[O-])ccc5F)c5ccc([nH]5)c(-c5cc(S(=O)(=O)[O-])ccc5F)c5nc(c(-c6cc(S(=O)(=O)[O-])ccc6F)c6ccc3[nH]6)C=C5)C=C4)cc2)ncc1Br
REMARK SMILES IDX 18 1 17 2 16 3 15 4 13 5 14 6 12 8 9 9 10 10 11 11 8 12 6 13
REMARK SMILES IDX 5 14 7 16 4 17 1 18 2 19 3 20 90 21 89 22 91 23 88 24 19 25
REMARK SMILES IDX 20 26 21 27 22 28 23 29 24 31 25 32 26 33 87 34 27 35 86 36
REMARK SMILES IDX 28 37 29 38 30 39 80 40 31 41 85 42 79 43 81 44 32 45 84 46
REMARK SMILES IDX 78 47 77 48 33 50 65 51 45 52 64 53 46 54 49 55 63 56 82 57
REMARK SMILES IDX 47 58 48 59 62 61 83 62 50 63 34 64 35 65 43 66 36 67 42 68
REMARK SMILES IDX 44 69 41 70 37 71 38 72 39 73 40 74 66 75 67 76 75 77 68 78
REMARK SMILES IDX 74 79 76 80 73 81 69 82 70 83 71 84 72 85 51 86 52 87 60 88
REMARK SMILES IDX 53 89 59 90 61 91 58 92 54 93 55 94 56 95 57 96
REMARK H PARENT 15 7 5 15 22 30 81 49 49 60
REMARK Flexibility Score: inf
ROOT
ATOM      1  C   UNL     1      -3.132  -9.386   5.551  1.00  0.00     0.002 C 
ENDROOT
BRANCH   1   2
ATOM      2  C   UNL     1      -2.511  -8.066   5.096  1.00  0.00     0.021 C 
BRANCH   2   3
ATOM      3  C   UNL     1      -1.083  -7.868   5.600  1.00  0.00     0.116 C 
BRANCH   3   4
ATOM      4  N   UNL     1      -0.168  -8.575   4.733  1.00  0.00    -0.356 N 
ATOM      5  C   UNL     1       0.708  -8.082   3.819  1.00  0.00     0.220 C 
ATOM      6  O   UNL     1       1.266  -8.879   3.064  1.00  0.00    -0.275 OA
ATOM      7  H   UNL     1      -0.182  -9.556   4.816  1.00  0.00     0.163 HD
BRANCH   5   8
ATOM      8  C   UNL     1       1.049  -6.604   3.806  1.00  0.00     0.107 C 
BRANCH   8   9
ATOM      9  C   UNL     1       0.222  -5.609   2.943  1.00  0.00    -0.018 C 
ATOM     10  C   UNL     1       0.962  -4.260   3.118  1.00  0.00     0.012 C 
ATOM     11  C   UNL     1      -1.204  -5.365   3.473  1.00  0.00     0.012 C 
BRANCH   9  12
ATOM     12  C   UNL     1       0.059  -6.114   1.475  1.00  0.00     0.107 C 
BRANCH  12  13
ATOM     13  C   UNL     1       1.180  -5.806   0.503  1.00  0.00     0.226 C 
ATOM     14  N   UNL     1       1.313  -4.579  -0.074  1.00  0.00    -0.311 N 
ATOM     15  H   UNL     1       2.087  -4.479  -0.674  1.00  0.00     0.171 HD
ATOM     16  O   UNL     1       2.042  -6.651   0.244  1.00  0.00    -0.275 OA
BRANCH  14  17
ATOM     17  C   UNL     1       0.515  -3.442   0.061  1.00  0.00     0.132 A 
ATOM     18  C   UNL     1       1.172   0.279  -0.056  1.00  0.00     0.046 C 
ATOM     19  C   UNL     1       0.463  -1.026   0.160  1.00  0.00    -0.032 A 
ATOM     20  C   UNL     1       1.122  -2.216  -0.191  1.00  0.00     0.051 A 
ATOM     21  C   UNL     1      -0.830  -1.117   0.679  1.00  0.00     0.039 A 
ATOM     22  C   UNL     1      -1.389  -2.377   0.821  1.00  0.00     0.129 A 
ATOM     23  Br  UNL     1      -1.838   0.385   1.229  1.00  0.00    -0.049 Br
ATOM     24  N   UNL     1      -0.741  -3.529   0.524  1.00  0.00    -0.238 NA
ENDBRANCH  14  17
ENDBRANCH  12  13
ENDBRANCH   9  12
ENDBRANCH   8   9
ENDBRANCH   5   8
ENDBRANCH   3   4
ENDBRANCH   2   3
ENDBRANCH   1   2
BRANCH   1  25
ATOM     25  C   UNL     1      -3.313  -9.504   7.065  1.00  0.00     0.002 C 
BRANCH  25  26
ATOM     26  C   UNL     1      -4.072  -8.341   7.704  1.00  0.00     0.021 C 
BRANCH  26  27
ATOM     27  C   UNL     1      -5.436  -8.077   7.077  1.00  0.00     0.116 C 
BRANCH  27  28
ATOM     28  N   UNL     1      -6.315  -9.232   7.191  1.00  0.00    -0.352 N 
ATOM     29  C   UNL     1      -7.482  -9.364   7.902  1.00  0.00     0.251 C 
ATOM     30  H   UNL     1      -6.034 -10.030   6.687  1.00  0.00     0.163 HD
ATOM     31  O   UNL     1      -7.966 -10.476   8.095  1.00  0.00    -0.269 OA
BRANCH  29  32
ATOM     32  C   UNL     1      -8.128  -8.153   8.447  1.00  0.00     0.039 A 
ATOM     33  C   UNL     1      -8.226  -7.008   7.657  1.00  0.00     0.014 A 
ATOM     34  C   UNL     1      -8.598  -8.147   9.761  1.00  0.00     0.014 A 
ATOM     35  C   UNL     1      -8.612  -5.809   8.237  1.00  0.00     0.010 A 
ATOM     36  C   UNL     1      -9.100  -6.961  10.308  1.00  0.00     0.010 A 
ATOM     37  C   UNL     1      -9.065  -5.770   9.567  1.00  0.00    -0.014 A 
BRANCH  37  38
ATOM     38  C   UNL     1      -9.531  -4.472  10.123  1.00  0.00     0.031 A 
ATOM     39  C   UNL     1      -8.846  -3.829  11.298  1.00  0.00     0.074 A 
ATOM     40  C   UNL     1     -10.547  -3.838   9.504  1.00  0.00     0.049 A 
ATOM     41  N   UNL     1      -9.070  -2.656  11.834  1.00  0.00    -0.248 NA
ATOM     42  C   UNL     1      -7.781  -4.594  11.965  1.00  0.00     0.031 C 
ATOM     43  C   UNL     1     -11.295  -4.380   8.368  1.00  0.00     0.029 A 
ATOM     44  N   UNL     1     -11.103  -2.600   9.706  1.00  0.00    -0.354 N 
ATOM     45  C   UNL     1      -8.189  -2.547  12.904  1.00  0.00     0.074 A 
ATOM     46  C   UNL     1      -7.455  -3.791  12.970  1.00  0.00     0.031 C 
ATOM     47  C   UNL     1     -12.153  -3.454   7.925  1.00  0.00     0.029 A 
ATOM     48  C   UNL     1     -12.083  -2.283   8.794  1.00  0.00     0.049 A 
ATOM     49  H   UNL     1     -10.827  -1.996  10.433  1.00  0.00     0.167 HD
ATOM     50  C   UNL     1      -8.000  -1.496  13.739  1.00  0.00     0.034 A 
ATOM     51  C   UNL     1     -12.851  -1.182   8.668  1.00  0.00     0.034 A 
ATOM     52  C   UNL     1      -8.731  -0.256  13.644  1.00  0.00     0.049 A 
ATOM     53  C   UNL     1     -12.632  -0.038   9.621  1.00  0.00     0.074 A 
ATOM     54  C   UNL     1      -8.576   0.884  14.414  1.00  0.00     0.029 A 
ATOM     55  N   UNL     1      -9.747   0.013  12.737  1.00  0.00    -0.354 N 
ATOM     56  N   UNL     1     -11.740   0.078  10.577  1.00  0.00    -0.248 NA
ATOM     57  C   UNL     1     -13.515   1.126   9.480  1.00  0.00     0.031 C 
ATOM     58  C   UNL     1      -9.548   1.808  14.028  1.00  0.00     0.029 A 
ATOM     59  C   UNL     1     -10.255   1.285  12.957  1.00  0.00     0.049 A 
ATOM     60  H   UNL     1     -10.061  -0.608  12.041  1.00  0.00     0.167 HD
ATOM     61  C   UNL     1     -11.951   1.329  11.148  1.00  0.00     0.074 A 
ATOM     62  C   UNL     1     -13.023   1.950  10.397  1.00  0.00     0.031 C 
ATOM     63  C   UNL     1     -11.326   1.901  12.208  1.00  0.00     0.034 A 
BRANCH  50  64
ATOM     64  C   UNL     1      -6.957  -1.606  14.828  1.00  0.00     0.023 A 
ATOM     65  C   UNL     1      -7.337  -1.483  16.179  1.00  0.00     0.031 A 
ATOM     66  C   UNL     1      -5.585  -1.675  14.530  1.00  0.00     0.131 A 
ATOM     67  C   UNL     1      -6.356  -1.383  17.173  1.00  0.00     0.055 A 
ATOM     68  C   UNL     1      -4.612  -1.627  15.530  1.00  0.00     0.041 A 
ATOM     69  F   UNL     1      -5.167  -1.788  13.258  1.00  0.00    -0.206 F 
ATOM     70  C   UNL     1      -4.996  -1.464  16.857  1.00  0.00     0.022 A 
BRANCH  67  71
ATOM     71  S   UNL     1      -6.800  -1.060  18.902  1.00  0.00     0.124 S 
ATOM     72  O   UNL     1      -6.210  -2.211  19.583  1.00  0.00    -0.237 OA
ATOM     73  O   UNL     1      -6.138   0.217  19.152  1.00  0.00    -0.237 OA
ATOM     74  O   UNL     1      -8.258  -1.026  18.890  1.00  0.00    -0.744 OA
ENDBRANCH  67  71
ENDBRANCH  50  64
BRANCH  51  75
ATOM     75  C   UNL     1     -13.857  -1.122   7.566  1.00  0.00     0.023 A 
ATOM     76  C   UNL     1     -14.879  -2.086   7.473  1.00  0.00     0.031 A 
ATOM     77  C   UNL     1     -13.738  -0.186   6.527  1.00  0.00     0.131 A 
ATOM     78  C   UNL     1     -15.677  -2.148   6.325  1.00  0.00     0.055 A 
ATOM     79  C   UNL     1     -14.595  -0.197   5.425  1.00  0.00     0.041 A 
ATOM     80  F   UNL     1     -12.772   0.745   6.561  1.00  0.00    -0.206 F 
ATOM     81  C   UNL     1     -15.556  -1.196   5.309  1.00  0.00     0.022 A 
BRANCH  78  82
ATOM     82  S   UNL     1     -16.782  -3.559   6.040  1.00  0.00     0.124 S 
ATOM     83  O   UNL     1     -18.085  -2.911   5.936  1.00  0.00    -0.237 OA
ATOM     84  O   UNL     1     -16.247  -4.108   4.796  1.00  0.00    -0.237 OA
ATOM     85  O   UNL     1     -16.584  -4.395   7.220  1.00  0.00    -0.744 OA
ENDBRANCH  78  82
ENDBRANCH  51  75
BRANCH  63  86
ATOM     86  C   UNL     1     -11.782   3.271  12.657  1.00  0.00     0.023 A 
ATOM     87  C   UNL     1     -10.881   4.354  12.659  1.00  0.00     0.031 A 
ATOM     88  C   UNL     1     -13.059   3.471  13.211  1.00  0.00     0.131 A 
ATOM     89  C   UNL     1     -11.254   5.571  13.243  1.00  0.00     0.055 A 
ATOM     90  C   UNL     1     -13.446   4.704  13.738  1.00  0.00     0.041 A 
ATOM     91  F   UNL     1     -13.951   2.469  13.246  1.00  0.00    -0.206 F 
ATOM     92  C   UNL     1     -12.536   5.756  13.771  1.00  0.00     0.022 A 
BRANCH  89  93
ATOM     93  S   UNL     1     -10.061   6.926  13.429  1.00  0.00     0.124 S 
ATOM     94  O   UNL     1     -10.691   7.990  12.651  1.00  0.00    -0.237 OA
ATOM     95  O   UNL     1     -10.053   7.132  14.875  1.00  0.00    -0.237 OA
ATOM     96  O   UNL     1      -8.828   6.390  12.864  1.00  0.00    -0.744 OA
ENDBRANCH  89  93
ENDBRANCH  63  86
ENDBRANCH  37  38
ENDBRANCH  29  32
ENDBRANCH  27  28
ENDBRANCH  26  27
ENDBRANCH  25  26
ENDBRANCH   1  25
TORSDOF 20
