REMARK SMILES Cc1nc(N[C@@H](C(=O)NCCCCCCNC(=O)c2ccc(-c3c4nc(c(-c5cc(S(=O)(=O)[O-])ccc5F)c5ccc([nH]5)c(-c5cc(S(=O)(=O)[O-])ccc5F)c5nc(c(-c6cc(S(=O)(=O)[O-])ccc6F)c6ccc3[nH]6)C=C5)C=C4)cc2)C(C)C)c2c3c(sc2n1)CCCC3
REMARK SMILES IDX 13 1 12 2 11 3 10 4 9 5 7 6 8 7 6 9 5 10 4 12 1 13 2 14 3 15
REMARK SMILES IDX 90 16 89 17 85 18 88 19 86 20 87 21 94 22 91 23 93 24 92 25
REMARK SMILES IDX 82 26 83 27 84 28 14 29 15 30 16 31 17 32 18 34 19 35 20 36
REMARK SMILES IDX 81 37 21 38 80 39 22 40 23 41 24 42 74 43 25 44 79 45 73 46
REMARK SMILES IDX 75 47 26 48 78 49 72 50 71 51 27 53 59 54 39 55 58 56 40 57
REMARK SMILES IDX 43 58 57 59 76 60 41 61 42 62 56 64 77 65 44 66 28 67 29 68
REMARK SMILES IDX 37 69 30 70 36 71 38 72 35 73 31 74 32 75 33 76 34 77 60 78
REMARK SMILES IDX 61 79 69 80 62 81 68 82 70 83 67 84 63 85 64 86 65 87 66 88
REMARK SMILES IDX 45 89 46 90 54 91 47 92 53 93 55 94 52 95 48 96 49 97 50 98
REMARK SMILES IDX 51 99
REMARK H PARENT 9 8 5 11 16 33 75 52 43 63
REMARK Flexibility Score: inf
ROOT
ATOM      1  C   UNL     1       4.925   0.941   6.358  1.00  0.00     0.002 C 
ENDROOT
BRANCH   1   2
ATOM      2  C   UNL     1       4.247   2.081   5.588  1.00  0.00     0.002 C 
BRANCH   2   3
ATOM      3  C   UNL     1       2.912   1.695   4.941  1.00  0.00     0.021 C 
BRANCH   3   4
ATOM      4  C   UNL     1       1.806   1.451   5.969  1.00  0.00     0.116 C 
BRANCH   4   5
ATOM      5  N   UNL     1       1.213   2.707   6.396  1.00  0.00    -0.354 N 
ATOM      6  C   UNL     1      -0.017   3.235   6.091  1.00  0.00     0.242 C 
ATOM      7  O   UNL     1      -0.238   4.401   6.425  1.00  0.00    -0.273 OA
ATOM      8  H   UNL     1       1.774   3.259   6.987  1.00  0.00     0.163 HD
BRANCH   6   9
ATOM      9  C   UNL     1      -1.102   2.321   5.460  1.00  0.00     0.172 C 
BRANCH   9  10
ATOM     10  N   UNL     1      -0.756   1.935   4.110  1.00  0.00    -0.358 N 
ATOM     11  H   UNL     1      -0.629   2.692   3.493  1.00  0.00     0.162 HD
BRANCH  10  12
ATOM     12  C   UNL     1      -0.572   0.702   3.533  1.00  0.00     0.139 A 
ATOM     13  C   UNL     1       0.780   0.056   0.147  1.00  0.00     0.090 C 
ATOM     14  C   UNL     1       0.216  -0.207   1.510  1.00  0.00     0.129 A 
ATOM     15  N   UNL     1      -0.121   0.851   2.260  1.00  0.00    -0.216 NA
ATOM     16  N   UNL     1       0.163  -1.471   1.907  1.00  0.00    -0.222 NA
ATOM     17  C   UNL     1      -0.286  -1.621   3.160  1.00  0.00     0.129 A 
ATOM     18  C   UNL     1      -0.696  -0.628   4.053  1.00  0.00     0.057 A 
ATOM     19  S   UNL     1      -0.339  -3.201   3.786  1.00  0.00    -0.120 S 
ATOM     20  C   UNL     1      -1.110  -1.282   5.310  1.00  0.00    -0.021 A 
ATOM     21  C   UNL     1      -0.892  -2.652   5.282  1.00  0.00     0.011 A 
ATOM     22  C   UNL     1      -1.650  -0.676   6.576  1.00  0.00     0.037 C 
ATOM     23  C   UNL     1      -1.136  -3.613   6.410  1.00  0.00     0.047 C 
ATOM     24  C   UNL     1      -2.209  -1.680   7.587  1.00  0.00     0.005 C 
ATOM     25  C   UNL     1      -1.264  -2.866   7.742  1.00  0.00     0.006 C 
ENDBRANCH  10  12
ENDBRANCH   9  10
BRANCH   9  26
ATOM     26  C   UNL     1      -2.519   2.952   5.515  1.00  0.00     0.015 C 
ATOM     27  C   UNL     1      -3.539   2.254   4.604  1.00  0.00     0.010 C 
ATOM     28  C   UNL     1      -3.058   2.930   6.955  1.00  0.00     0.010 C 
ENDBRANCH   9  26
ENDBRANCH   6   9
ENDBRANCH   4   5
ENDBRANCH   3   4
ENDBRANCH   2   3
ENDBRANCH   1   2
BRANCH   1  29
ATOM     29  C   UNL     1       5.411  -0.242   5.500  1.00  0.00     0.021 C 
BRANCH  29  30
ATOM     30  C   UNL     1       6.567   0.076   4.536  1.00  0.00     0.116 C 
BRANCH  30  31
ATOM     31  N   UNL     1       7.728   0.514   5.288  1.00  0.00    -0.352 N 
ATOM     32  C   UNL     1       9.031   0.106   5.267  1.00  0.00     0.251 C 
ATOM     33  H   UNL     1       7.543   1.235   5.931  1.00  0.00     0.163 HD
ATOM     34  O   UNL     1       9.691   0.284   6.292  1.00  0.00    -0.269 OA
BRANCH  32  35
ATOM     35  C   UNL     1       9.687  -0.475   4.072  1.00  0.00     0.039 A 
ATOM     36  C   UNL     1      10.802  -1.295   4.298  1.00  0.00     0.014 A 
ATOM     37  C   UNL     1       9.371  -0.091   2.765  1.00  0.00     0.014 A 
ATOM     38  C   UNL     1      11.594  -1.725   3.235  1.00  0.00     0.010 A 
ATOM     39  C   UNL     1      10.167  -0.530   1.697  1.00  0.00     0.010 A 
ATOM     40  C   UNL     1      11.283  -1.349   1.923  1.00  0.00    -0.014 A 
BRANCH  40  41
ATOM     41  C   UNL     1      12.093  -1.946   0.838  1.00  0.00     0.031 A 
ATOM     42  C   UNL     1      11.307  -2.495  -0.312  1.00  0.00     0.074 A 
ATOM     43  C   UNL     1      13.375  -1.580   0.616  1.00  0.00     0.049 A 
ATOM     44  N   UNL     1      10.805  -1.742  -1.248  1.00  0.00    -0.248 NA
ATOM     45  C   UNL     1      10.813  -3.871  -0.339  1.00  0.00     0.031 C 
ATOM     46  C   UNL     1      13.861  -0.202   0.771  1.00  0.00     0.029 A 
ATOM     47  N   UNL     1      14.414  -2.234  -0.008  1.00  0.00    -0.354 N 
ATOM     48  C   UNL     1       9.926  -2.519  -1.982  1.00  0.00     0.074 A 
ATOM     49  C   UNL     1       9.957  -3.832  -1.374  1.00  0.00     0.031 C 
ATOM     50  C   UNL     1      15.022  -0.074   0.094  1.00  0.00     0.029 A 
ATOM     51  C   UNL     1      15.438  -1.379  -0.418  1.00  0.00     0.049 A 
ATOM     52  H   UNL     1      14.433  -3.208  -0.151  1.00  0.00     0.167 HD
ATOM     53  C   UNL     1       9.237  -2.039  -3.052  1.00  0.00     0.034 A 
ATOM     54  C   UNL     1      16.197  -1.567  -1.535  1.00  0.00     0.034 A 
ATOM     55  C   UNL     1       9.529  -0.682  -3.408  1.00  0.00     0.049 A 
ATOM     56  C   UNL     1      15.199  -1.213  -2.614  1.00  0.00     0.074 A 
ATOM     57  C   UNL     1       9.001   0.570  -3.182  1.00  0.00     0.029 A 
ATOM     58  N   UNL     1      10.657  -0.444  -4.160  1.00  0.00    -0.354 N 
ATOM     59  N   UNL     1      14.822  -0.010  -2.955  1.00  0.00    -0.248 NA
ATOM     60  C   UNL     1      14.307  -2.283  -3.065  1.00  0.00     0.031 C 
ATOM     61  C   UNL     1      10.086   1.481  -3.384  1.00  0.00     0.029 A 
ATOM     62  C   UNL     1      11.212   0.715  -3.683  1.00  0.00     0.049 A 
ATOM     63  H   UNL     1      10.999  -0.999  -4.897  1.00  0.00     0.167 HD
ATOM     64  C   UNL     1      13.513  -0.146  -3.421  1.00  0.00     0.074 A 
ATOM     65  C   UNL     1      13.265  -1.574  -3.476  1.00  0.00     0.031 C 
ATOM     66  C   UNL     1      12.642   0.896  -3.564  1.00  0.00     0.034 A 
BRANCH  53  67
ATOM     67  C   UNL     1       8.371  -2.835  -3.949  1.00  0.00     0.023 A 
ATOM     68  C   UNL     1       8.864  -3.124  -5.230  1.00  0.00     0.031 A 
ATOM     69  C   UNL     1       7.021  -3.085  -3.683  1.00  0.00     0.131 A 
ATOM     70  C   UNL     1       8.005  -3.586  -6.230  1.00  0.00     0.055 A 
ATOM     71  C   UNL     1       6.167  -3.575  -4.680  1.00  0.00     0.041 A 
ATOM     72  F   UNL     1       6.495  -2.803  -2.481  1.00  0.00    -0.206 F 
ATOM     73  C   UNL     1       6.654  -3.809  -5.968  1.00  0.00     0.022 A 
BRANCH  70  74
ATOM     74  S   UNL     1       8.685  -3.779  -7.897  1.00  0.00     0.124 S 
ATOM     75  O   UNL     1       9.208  -2.447  -8.167  1.00  0.00    -0.237 OA
ATOM     76  O   UNL     1       9.676  -4.829  -7.690  1.00  0.00    -0.237 OA
ATOM     77  O   UNL     1       7.520  -4.168  -8.693  1.00  0.00    -0.744 OA
ENDBRANCH  70  74
ENDBRANCH  53  67
BRANCH  54  78
ATOM     78  C   UNL     1      17.038  -2.809  -1.578  1.00  0.00     0.023 A 
ATOM     79  C   UNL     1      17.786  -3.141  -0.429  1.00  0.00     0.031 A 
ATOM     80  C   UNL     1      17.165  -3.676  -2.676  1.00  0.00     0.131 A 
ATOM     81  C   UNL     1      18.508  -4.343  -0.354  1.00  0.00     0.055 A 
ATOM     82  C   UNL     1      17.860  -4.890  -2.593  1.00  0.00     0.041 A 
ATOM     83  F   UNL     1      16.605  -3.389  -3.860  1.00  0.00    -0.206 F 
ATOM     84  C   UNL     1      18.518  -5.241  -1.419  1.00  0.00     0.022 A 
BRANCH  81  85
ATOM     85  S   UNL     1      19.372  -4.749   1.188  1.00  0.00     0.124 S 
ATOM     86  O   UNL     1      20.524  -3.856   1.137  1.00  0.00    -0.237 OA
ATOM     87  O   UNL     1      18.368  -4.440   2.202  1.00  0.00    -0.237 OA
ATOM     88  O   UNL     1      19.677  -6.171   1.042  1.00  0.00    -0.744 OA
ENDBRANCH  81  85
ENDBRANCH  54  78
BRANCH  66  89
ATOM     89  C   UNL     1      13.202   2.266  -3.361  1.00  0.00     0.023 A 
ATOM     90  C   UNL     1      14.109   2.796  -4.290  1.00  0.00     0.031 A 
ATOM     91  C   UNL     1      12.793   3.080  -2.290  1.00  0.00     0.131 A 
ATOM     92  C   UNL     1      14.558   4.116  -4.154  1.00  0.00     0.055 A 
ATOM     93  C   UNL     1      13.219   4.404  -2.174  1.00  0.00     0.041 A 
ATOM     94  F   UNL     1      11.951   2.619  -1.349  1.00  0.00    -0.206 F 
ATOM     95  C   UNL     1      14.099   4.930  -3.115  1.00  0.00     0.022 A 
BRANCH  92  96
ATOM     96  S   UNL     1      15.706   4.782  -5.387  1.00  0.00     0.124 S 
ATOM     97  O   UNL     1      16.945   4.074  -5.080  1.00  0.00    -0.237 OA
ATOM     98  O   UNL     1      15.064   4.431  -6.649  1.00  0.00    -0.237 OA
ATOM     99  O   UNL     1      15.727   6.215  -5.091  1.00  0.00    -0.744 OA
ENDBRANCH  92  96
ENDBRANCH  66  89
ENDBRANCH  40  41
ENDBRANCH  32  35
ENDBRANCH  30  31
ENDBRANCH  29  30
ENDBRANCH   1  29
TORSDOF 19
