REMARK SMILES C[C@@H]1[C@H](C(=O)NCCCCCCNC(=O)c2ccc(-c3c4nc(c(-c5cc(S(=O)(=O)[O-])ccc5F)c5ccc([nH]5)c(-c5cc(S(=O)(=O)[O-])ccc5F)c5nc(c(-c6cc(S(=O)(=O)[O-])ccc6F)c6ccc3[nH]6)C=C5)C=C4)cc2)CC[N@@H+]1CCOc1c(Cl)cccc1Cl
REMARK SMILES IDX 9 1 8 2 7 3 6 4 4 5 5 6 3 8 1 9 2 10 81 11 79 12 80 13 82 15
REMARK SMILES IDX 83 16 84 17 85 18 86 19 91 20 87 21 88 22 90 23 92 24 89 25
REMARK SMILES IDX 10 26 11 27 12 28 13 29 14 30 15 32 16 33 17 34 78 35 18 36
REMARK SMILES IDX 77 37 19 38 20 39 21 40 71 41 22 42 76 43 70 44 72 45 23 46
REMARK SMILES IDX 75 47 69 48 68 49 24 51 56 52 36 53 55 54 37 55 40 56 54 57
REMARK SMILES IDX 73 58 38 59 39 60 53 62 74 63 41 64 25 65 26 66 34 67 27 68
REMARK SMILES IDX 33 69 35 70 32 71 28 72 29 73 30 74 31 75 57 76 58 77 66 78
REMARK SMILES IDX 59 79 65 80 67 81 64 82 60 83 61 84 62 85 63 86 42 87 43 88
REMARK SMILES IDX 51 89 44 90 50 91 52 92 49 93 45 94 46 95 47 96 48 97
REMARK H PARENT 6 7 81 14 13 31 72 50 40 61
REMARK Flexibility Score: inf
ROOT
ATOM      1  C   UNL     1       3.689   2.943   3.219  1.00  0.00     0.002 C 
ENDROOT
BRANCH   1   2
ATOM      2  C   UNL     1       3.091   1.765   2.450  1.00  0.00     0.021 C 
BRANCH   2   3
ATOM      3  C   UNL     1       1.706   2.032   1.862  1.00  0.00     0.116 C 
BRANCH   3   4
ATOM      4  N   UNL     1       1.800   2.757   0.619  1.00  0.00    -0.356 N 
ATOM      5  C   UNL     1       1.580   2.375  -0.660  1.00  0.00     0.229 C 
ATOM      6  O   UNL     1       1.879   3.206  -1.528  1.00  0.00    -0.275 OA
ATOM      7  H   UNL     1       2.073   3.698   0.719  1.00  0.00     0.163 HD
BRANCH   5   8
ATOM      8  C   UNL     1       0.916   1.068  -1.085  1.00  0.00     0.142 C 
ATOM      9  C   UNL     1       2.749  -0.519  -0.015  1.00  0.00     0.076 C 
ATOM     10  C   UNL     1       1.511  -0.342  -0.872  1.00  0.00     0.193 C 
ATOM     11  N   UNL     1       0.358  -1.241  -0.636  1.00  0.00    -0.329 N 
ATOM     12  C   UNL     1      -0.544   0.933  -0.681  1.00  0.00     0.081 C 
ATOM     13  C   UNL     1      -0.834  -0.512  -1.046  1.00  0.00     0.263 C 
ATOM     14  H   UNL     1       0.549  -2.062  -1.210  1.00  0.00     0.348 HD
BRANCH  11  15
ATOM     15  C   UNL     1       0.228  -2.060   0.581  1.00  0.00     0.304 C 
BRANCH  15  16
ATOM     16  C   UNL     1      -0.261  -1.439   1.913  1.00  0.00     0.291 C 
BRANCH  16  17
ATOM     17  O   UNL     1      -1.661  -1.650   2.182  1.00  0.00    -0.485 OA
BRANCH  17  18
ATOM     18  C   UNL     1      -2.467  -0.548   2.026  1.00  0.00     0.156 A 
ATOM     19  C   UNL     1      -2.274   0.679   2.677  1.00  0.00     0.084 A 
ATOM     20  C   UNL     1      -3.563  -0.672   1.156  1.00  0.00     0.084 A 
ATOM     21  Cl  UNL     1      -1.165   0.877   3.990  1.00  0.00    -0.080 Cl
ATOM     22  C   UNL     1      -3.025   1.802   2.304  1.00  0.00     0.024 A 
ATOM     23  C   UNL     1      -4.308   0.451   0.781  1.00  0.00     0.024 A 
ATOM     24  Cl  UNL     1      -4.004  -2.198   0.466  1.00  0.00    -0.080 Cl
ATOM     25  C   UNL     1      -4.013   1.697   1.327  1.00  0.00     0.003 A 
ENDBRANCH  17  18
ENDBRANCH  16  17
ENDBRANCH  15  16
ENDBRANCH  11  15
ENDBRANCH   5   8
ENDBRANCH   3   4
ENDBRANCH   2   3
ENDBRANCH   1   2
BRANCH   1  26
ATOM     26  C   UNL     1       2.994   3.273   4.542  1.00  0.00     0.002 C 
BRANCH  26  27
ATOM     27  C   UNL     1       2.841   2.109   5.527  1.00  0.00     0.021 C 
BRANCH  27  28
ATOM     28  C   UNL     1       4.109   1.309   5.817  1.00  0.00     0.116 C 
BRANCH  28  29
ATOM     29  N   UNL     1       5.196   2.141   6.299  1.00  0.00    -0.352 N 
ATOM     30  C   UNL     1       5.969   2.010   7.421  1.00  0.00     0.251 C 
ATOM     31  H   UNL     1       5.410   2.918   5.733  1.00  0.00     0.163 HD
ATOM     32  O   UNL     1       6.737   2.926   7.731  1.00  0.00    -0.269 OA
BRANCH  30  33
ATOM     33  C   UNL     1       5.876   0.805   8.272  1.00  0.00     0.039 A 
ATOM     34  C   UNL     1       5.856   0.968   9.660  1.00  0.00     0.014 A 
ATOM     35  C   UNL     1       5.846  -0.479   7.719  1.00  0.00     0.014 A 
ATOM     36  C   UNL     1       5.765  -0.151  10.491  1.00  0.00     0.010 A 
ATOM     37  C   UNL     1       5.694  -1.591   8.547  1.00  0.00     0.010 A 
ATOM     38  C   UNL     1       5.662  -1.439   9.942  1.00  0.00    -0.014 A 
BRANCH  38  39
ATOM     39  C   UNL     1       5.548  -2.631  10.822  1.00  0.00     0.031 A 
ATOM     40  C   UNL     1       6.665  -3.637  10.879  1.00  0.00     0.074 A 
ATOM     41  C   UNL     1       4.427  -2.821  11.546  1.00  0.00     0.049 A 
ATOM     42  N   UNL     1       6.745  -4.749  11.564  1.00  0.00    -0.248 NA
ATOM     43  C   UNL     1       7.837  -3.368  10.033  1.00  0.00     0.031 C 
ATOM     44  C   UNL     1       3.261  -1.935  11.543  1.00  0.00     0.029 A 
ATOM     45  N   UNL     1       4.082  -3.820  12.421  1.00  0.00    -0.354 N 
ATOM     46  C   UNL     1       7.969  -5.317  11.226  1.00  0.00     0.074 A 
ATOM     47  C   UNL     1       8.567  -4.455  10.229  1.00  0.00     0.031 C 
ATOM     48  C   UNL     1       2.340  -2.418  12.393  1.00  0.00     0.029 A 
ATOM     49  C   UNL     1       2.833  -3.662  12.975  1.00  0.00     0.049 A 
ATOM     50  H   UNL     1       4.673  -4.578  12.632  1.00  0.00     0.167 HD
ATOM     51  C   UNL     1       8.550  -6.440  11.719  1.00  0.00     0.034 A 
ATOM     52  C   UNL     1       2.160  -4.435  13.850  1.00  0.00     0.034 A 
ATOM     53  C   UNL     1       7.945  -7.282  12.723  1.00  0.00     0.049 A 
ATOM     54  C   UNL     1       2.821  -5.684  14.376  1.00  0.00     0.074 A 
ATOM     55  C   UNL     1       8.466  -8.410  13.333  1.00  0.00     0.029 A 
ATOM     56  N   UNL     1       6.678  -7.092  13.262  1.00  0.00    -0.354 N 
ATOM     57  N   UNL     1       4.003  -6.178  14.086  1.00  0.00    -0.248 NA
ATOM     58  C   UNL     1       2.062  -6.470  15.357  1.00  0.00     0.031 C 
ATOM     59  C   UNL     1       7.494  -8.934  14.194  1.00  0.00     0.029 A 
ATOM     60  C   UNL     1       6.391  -8.097  14.173  1.00  0.00     0.049 A 
ATOM     61  H   UNL     1       6.073  -6.351  13.030  1.00  0.00     0.167 HD
ATOM     62  C   UNL     1       4.137  -7.321  14.870  1.00  0.00     0.074 A 
ATOM     63  C   UNL     1       2.925  -7.430  15.656  1.00  0.00     0.031 C 
ATOM     64  C   UNL     1       5.170  -8.200  14.937  1.00  0.00     0.034 A 
BRANCH  51  65
ATOM     65  C   UNL     1       9.897  -6.827  11.155  1.00  0.00     0.023 A 
ATOM     66  C   UNL     1      11.027  -6.004  11.312  1.00  0.00     0.031 A 
ATOM     67  C   UNL     1      10.049  -8.017  10.422  1.00  0.00     0.131 A 
ATOM     68  C   UNL     1      12.233  -6.340  10.680  1.00  0.00     0.055 A 
ATOM     69  C   UNL     1      11.274  -8.387   9.863  1.00  0.00     0.041 A 
ATOM     70  F   UNL     1       9.003  -8.835  10.222  1.00  0.00    -0.206 F 
ATOM     71  C   UNL     1      12.371  -7.538   9.976  1.00  0.00     0.022 A 
BRANCH  68  72
ATOM     72  S   UNL     1      13.574  -5.119  10.668  1.00  0.00     0.124 S 
ATOM     73  O   UNL     1      12.938  -3.990   9.993  1.00  0.00    -0.237 OA
ATOM     74  O   UNL     1      13.852  -4.941  12.088  1.00  0.00    -0.237 OA
ATOM     75  O   UNL     1      14.631  -5.778   9.903  1.00  0.00    -0.744 OA
ENDBRANCH  68  72
ENDBRANCH  51  65
BRANCH  52  76
ATOM     76  C   UNL     1       0.785  -4.061  14.286  1.00  0.00     0.023 A 
ATOM     77  C   UNL     1       0.520  -3.707  15.618  1.00  0.00     0.031 A 
ATOM     78  C   UNL     1      -0.292  -4.091  13.383  1.00  0.00     0.131 A 
ATOM     79  C   UNL     1      -0.798  -3.439  16.021  1.00  0.00     0.055 A 
ATOM     80  C   UNL     1      -1.593  -3.777  13.778  1.00  0.00     0.041 A 
ATOM     81  F   UNL     1      -0.090  -4.416  12.096  1.00  0.00    -0.206 F 
ATOM     82  C   UNL     1      -1.854  -3.462  15.108  1.00  0.00     0.022 A 
BRANCH  79  83
ATOM     83  S   UNL     1      -1.123  -3.136  17.779  1.00  0.00     0.124 S 
ATOM     84  O   UNL     1      -0.615  -4.358  18.392  1.00  0.00    -0.237 OA
ATOM     85  O   UNL     1      -0.349  -1.924  18.025  1.00  0.00    -0.237 OA
ATOM     86  O   UNL     1      -2.574  -2.967  17.832  1.00  0.00    -0.744 OA
ENDBRANCH  79  83
ENDBRANCH  52  76
BRANCH  64  87
ATOM     87  C   UNL     1       5.034  -9.334  15.922  1.00  0.00     0.023 A 
ATOM     88  C   UNL     1       4.085 -10.355  15.745  1.00  0.00     0.031 A 
ATOM     89  C   UNL     1       5.852  -9.379  17.065  1.00  0.00     0.131 A 
ATOM     90  C   UNL     1       3.937 -11.349  16.725  1.00  0.00     0.055 A 
ATOM     91  C   UNL     1       5.739 -10.401  18.008  1.00  0.00     0.041 A 
ATOM     92  F   UNL     1       6.773  -8.427  17.284  1.00  0.00    -0.206 F 
ATOM     93  C   UNL     1       4.768 -11.386  17.848  1.00  0.00     0.022 A 
BRANCH  90  94
ATOM     94  S   UNL     1       2.582 -12.542  16.557  1.00  0.00     0.124 S 
ATOM     95  O   UNL     1       1.412 -11.671  16.528  1.00  0.00    -0.237 OA
ATOM     96  O   UNL     1       2.909 -13.212  15.303  1.00  0.00    -0.237 OA
ATOM     97  O   UNL     1       2.707 -13.373  17.753  1.00  0.00    -0.744 OA
ENDBRANCH  90  94
ENDBRANCH  64  87
ENDBRANCH  38  39
ENDBRANCH  30  33
ENDBRANCH  28  29
ENDBRANCH  27  28
ENDBRANCH  26  27
ENDBRANCH   1  26
TORSDOF 20
