REMARK SMILES CSc1ccc(Cl)c(C(=O)N[C@@H](CO)C(=O)NCCCCCCNC(=O)c2ccc(-c3c4nc(c(-c5cc(S(=O)(=O)[O-])ccc5F)c5ccc([nH]5)c(-c5cc(S(=O)(=O)[O-])ccc5F)c5nc(c(-c6cc(S(=O)(=O)[O-])ccc6F)c6ccc3[nH]6)C=C5)C=C4)cc2)c1
REMARK SMILES IDX 20 1 19 2 18 3 17 4 15 5 16 6 12 8 11 9 9 10 10 11 8 13 3 14
REMARK SMILES IDX 4 15 90 16 5 17 6 18 7 19 2 20 1 21 13 22 14 23 21 25 22 26
REMARK SMILES IDX 23 27 24 28 25 29 26 31 27 32 28 33 89 34 29 35 88 36 30 37
REMARK SMILES IDX 31 38 32 39 82 40 33 41 87 42 81 43 83 44 34 45 86 46 80 47
REMARK SMILES IDX 79 48 35 50 67 51 47 52 66 53 48 54 51 55 65 56 84 57 49 58
REMARK SMILES IDX 50 59 64 61 85 62 52 63 36 64 37 65 45 66 38 67 44 68 46 69
REMARK SMILES IDX 43 70 39 71 40 72 41 73 42 74 68 75 69 76 77 77 70 78 76 79
REMARK SMILES IDX 78 80 75 81 71 82 72 83 73 84 74 85 53 86 54 87 62 88 55 89
REMARK SMILES IDX 61 90 63 91 60 92 56 93 57 94 58 95 59 96
REMARK H PARENT 17 7 11 12 14 24 24 30 83 49 51 60
REMARK Flexibility Score: inf
ROOT
ATOM      1  C   UNL     1       6.857  -1.341  -9.757  1.00  0.00     0.002 C 
ENDROOT
BRANCH   1   2
ATOM      2  C   UNL     1       5.591  -0.782  -9.097  1.00  0.00     0.021 C 
BRANCH   2   3
ATOM      3  C   UNL     1       4.408  -1.744  -9.077  1.00  0.00     0.116 C 
BRANCH   3   4
ATOM      4  N   UNL     1       4.743  -2.942  -8.341  1.00  0.00    -0.354 N 
ATOM      5  C   UNL     1       4.084  -3.599  -7.363  1.00  0.00     0.244 C 
ATOM      6  O   UNL     1       4.662  -4.577  -6.870  1.00  0.00    -0.273 OA
ATOM      7  H   UNL     1       5.601  -3.350  -8.598  1.00  0.00     0.163 HD
BRANCH   5   8
ATOM      8  C   UNL     1       2.671  -3.225  -6.882  1.00  0.00     0.197 C 
BRANCH   8   9
ATOM      9  N   UNL     1       2.509  -1.945  -6.206  1.00  0.00    -0.338 N 
ATOM     10  C   UNL     1       1.962  -1.559  -5.010  1.00  0.00     0.253 C 
ATOM     11  O   UNL     1       1.974  -0.332  -4.839  1.00  0.00    -0.269 OA
ATOM     12  H   UNL     1       2.873  -1.190  -6.722  1.00  0.00     0.164 HD
BRANCH  10  13
ATOM     13  C   UNL     1       1.442  -2.416  -3.876  1.00  0.00     0.059 A 
ATOM     14  C   UNL     1       0.920  -2.276  -1.441  1.00  0.00     0.008 A 
ATOM     15  C   UNL     1       0.632  -3.635  -1.434  1.00  0.00     0.016 A 
ATOM     16  C   UNL     1       1.367  -1.702  -2.640  1.00  0.00     0.030 A 
ATOM     17  C   UNL     1       0.673  -4.360  -2.618  1.00  0.00     0.022 A 
ATOM     18  C   UNL     1       0.985  -3.742  -3.842  1.00  0.00     0.053 A 
ATOM     19  Cl  UNL     1       0.482  -4.711  -5.177  1.00  0.00    -0.083 Cl
BRANCH  14  20
ATOM     20  S   UNL     1       0.615  -1.411   0.093  1.00  0.00    -0.130 SA
ATOM     21  C   UNL     1       1.221   0.264  -0.225  1.00  0.00     0.091 C 
ENDBRANCH  14  20
ENDBRANCH  10  13
ENDBRANCH   8   9
BRANCH   8  22
ATOM     22  C   UNL     1       1.595  -3.434  -7.967  1.00  0.00     0.191 C 
BRANCH  22  23
ATOM     23  O   UNL     1       1.595  -2.441  -8.992  1.00  0.00    -0.394 OA
ATOM     24  H   UNL     1       1.398  -1.574  -8.603  1.00  0.00     0.210 HD
ENDBRANCH  22  23
ENDBRANCH   8  22
ENDBRANCH   5   8
ENDBRANCH   3   4
ENDBRANCH   2   3
ENDBRANCH   1   2
BRANCH   1  25
ATOM     25  C   UNL     1       6.667  -1.888 -11.174  1.00  0.00     0.002 C 
BRANCH  25  26
ATOM     26  C   UNL     1       6.004  -0.921 -12.156  1.00  0.00     0.021 C 
BRANCH  26  27
ATOM     27  C   UNL     1       6.664   0.451 -12.239  1.00  0.00     0.116 C 
BRANCH  27  28
ATOM     28  N   UNL     1       8.056   0.362 -12.649  1.00  0.00    -0.352 N 
ATOM     29  C   UNL     1       8.685   0.982 -13.697  1.00  0.00     0.251 C 
ATOM     30  H   UNL     1       8.624  -0.223 -12.098  1.00  0.00     0.163 HD
ATOM     31  O   UNL     1       9.817   0.635 -14.027  1.00  0.00    -0.269 OA
BRANCH  29  32
ATOM     32  C   UNL     1       7.978   2.045 -14.441  1.00  0.00     0.039 A 
ATOM     33  C   UNL     1       7.965   1.998 -15.835  1.00  0.00     0.014 A 
ATOM     34  C   UNL     1       7.302   3.062 -13.759  1.00  0.00     0.014 A 
ATOM     35  C   UNL     1       7.210   2.930 -16.547  1.00  0.00     0.010 A 
ATOM     36  C   UNL     1       6.491   3.945 -14.467  1.00  0.00     0.010 A 
ATOM     37  C   UNL     1       6.430   3.881 -15.867  1.00  0.00    -0.014 A 
BRANCH  37  38
ATOM     38  C   UNL     1       5.512   4.785 -16.606  1.00  0.00     0.031 A 
ATOM     39  C   UNL     1       5.724   6.272 -16.579  1.00  0.00     0.074 A 
ATOM     40  C   UNL     1       4.446   4.261 -17.244  1.00  0.00     0.049 A 
ATOM     41  N   UNL     1       4.992   7.221 -17.105  1.00  0.00    -0.248 NA
ATOM     42  C   UNL     1       6.900   6.758 -15.843  1.00  0.00     0.031 C 
ATOM     43  C   UNL     1       4.116   2.834 -17.301  1.00  0.00     0.029 A 
ATOM     44  N   UNL     1       3.438   4.861 -17.956  1.00  0.00    -0.354 N 
ATOM     45  C   UNL     1       5.611   8.416 -16.756  1.00  0.00     0.074 A 
ATOM     46  C   UNL     1       6.747   8.071 -15.927  1.00  0.00     0.031 C 
ATOM     47  C   UNL     1       2.999   2.670 -18.025  1.00  0.00     0.029 A 
ATOM     48  C   UNL     1       2.499   3.977 -18.436  1.00  0.00     0.049 A 
ATOM     49  H   UNL     1       3.390   5.832 -18.109  1.00  0.00     0.167 HD
ATOM     50  C   UNL     1       5.270   9.680 -17.111  1.00  0.00     0.034 A 
ATOM     51  C   UNL     1       1.351   4.194 -19.109  1.00  0.00     0.034 A 
ATOM     52  C   UNL     1       4.131   9.998 -17.940  1.00  0.00     0.049 A 
ATOM     53  C   UNL     1       0.970   5.610 -19.454  1.00  0.00     0.074 A 
ATOM     54  C   UNL     1       3.736  11.235 -18.420  1.00  0.00     0.029 A 
ATOM     55  N   UNL     1       3.192   9.080 -18.394  1.00  0.00    -0.354 N 
ATOM     56  N   UNL     1       1.606   6.726 -19.179  1.00  0.00    -0.248 NA
ATOM     57  C   UNL     1      -0.278   5.797 -20.204  1.00  0.00     0.031 C 
ATOM     58  C   UNL     1       2.516  11.078 -19.085  1.00  0.00     0.029 A 
ATOM     59  C   UNL     1       2.192   9.731 -19.102  1.00  0.00     0.049 A 
ATOM     60  H   UNL     1       3.231   8.109 -18.236  1.00  0.00     0.167 HD
ATOM     61  C   UNL     1       0.843   7.746 -19.740  1.00  0.00     0.074 A 
ATOM     62  C   UNL     1      -0.286   7.109 -20.388  1.00  0.00     0.031 C 
ATOM     63  C   UNL     1       1.056   9.087 -19.721  1.00  0.00     0.034 A 
BRANCH  50  64
ATOM     64  C   UNL     1       6.117  10.810 -16.573  1.00  0.00     0.023 A 
ATOM     65  C   UNL     1       7.481  10.931 -16.889  1.00  0.00     0.031 A 
ATOM     66  C   UNL     1       5.554  11.773 -15.717  1.00  0.00     0.131 A 
ATOM     67  C   UNL     1       8.252  11.943 -16.296  1.00  0.00     0.055 A 
ATOM     68  C   UNL     1       6.307  12.829 -15.198  1.00  0.00     0.041 A 
ATOM     69  F   UNL     1       4.262  11.699 -15.360  1.00  0.00    -0.206 F 
ATOM     70  C   UNL     1       7.668  12.909 -15.474  1.00  0.00     0.022 A 
BRANCH  67  71
ATOM     71  S   UNL     1      10.054  11.889 -16.495  1.00  0.00     0.124 S 
ATOM     72  O   UNL     1      10.370  10.566 -15.963  1.00  0.00    -0.237 OA
ATOM     73  O   UNL     1      10.217  12.055 -17.934  1.00  0.00    -0.237 OA
ATOM     74  O   UNL     1      10.522  13.008 -15.679  1.00  0.00    -0.744 OA
ENDBRANCH  67  71
ENDBRANCH  50  64
BRANCH  51  75
ATOM     75  C   UNL     1       0.463   3.050 -19.469  1.00  0.00     0.023 A 
ATOM     76  C   UNL     1       0.204   2.723 -20.809  1.00  0.00     0.031 A 
ATOM     77  C   UNL     1      -0.168   2.285 -18.470  1.00  0.00     0.131 A 
ATOM     78  C   UNL     1      -0.693   1.687 -21.114  1.00  0.00     0.055 A 
ATOM     79  C   UNL     1      -1.013   1.219 -18.779  1.00  0.00     0.041 A 
ATOM     80  F   UNL     1       0.045   2.555 -17.172  1.00  0.00    -0.206 F 
ATOM     81  C   UNL     1      -1.290   0.922 -20.109  1.00  0.00     0.022 A 
BRANCH  78  82
ATOM     82  S   UNL     1      -1.138   1.407 -22.850  1.00  0.00     0.124 S 
ATOM     83  O   UNL     1      -1.680   2.706 -23.230  1.00  0.00    -0.237 OA
ATOM     84  O   UNL     1       0.148   1.050 -23.439  1.00  0.00    -0.237 OA
ATOM     85  O   UNL     1      -2.112   0.319 -22.780  1.00  0.00    -0.744 OA
ENDBRANCH  78  82
ENDBRANCH  51  75
BRANCH  63  86
ATOM     86  C   UNL     1       0.050   9.951 -20.445  1.00  0.00     0.023 A 
ATOM     87  C   UNL     1      -1.281  10.058 -20.006  1.00  0.00     0.031 A 
ATOM     88  C   UNL     1       0.427  10.671 -21.592  1.00  0.00     0.131 A 
ATOM     89  C   UNL     1      -2.200  10.823 -20.741  1.00  0.00     0.055 A 
ATOM     90  C   UNL     1      -0.474  11.484 -22.280  1.00  0.00     0.041 A 
ATOM     91  F   UNL     1       1.684  10.601 -22.061  1.00  0.00    -0.206 F 
ATOM     92  C   UNL     1      -1.800  11.553 -21.863  1.00  0.00     0.022 A 
BRANCH  89  93
ATOM     93  S   UNL     1      -3.950  10.776 -20.264  1.00  0.00     0.124 S 
ATOM     94  O   UNL     1      -4.259   9.355 -20.390  1.00  0.00    -0.237 OA
ATOM     95  O   UNL     1      -3.918  11.303 -18.904  1.00  0.00    -0.237 OA
ATOM     96  O   UNL     1      -4.596  11.641 -21.249  1.00  0.00    -0.744 OA
ENDBRANCH  89  93
ENDBRANCH  63  86
ENDBRANCH  37  38
ENDBRANCH  29  32
ENDBRANCH  27  28
ENDBRANCH  26  27
ENDBRANCH  25  26
ENDBRANCH   1  25
TORSDOF 21
