REMARK SMILES Nn1c(S[C@@H](C(=O)NCCCCCCNC(=O)c2ccc(-c3c4nc(c(-c5cc(S(=O)(=O)[O-])ccc5F)c5ccc([nH]5)c(-c5cc(S(=O)(=O)[O-])ccc5F)c5nc(c(-c6cc(S(=O)(=O)[O-])ccc6F)c6ccc3[nH]6)C=C5)C=C4)cc2)c2ccccc2)nc2ccc(Br)cc2c1=O
REMARK SMILES IDX 11 1 10 2 9 3 8 4 6 5 7 6 5 8 4 9 3 10 2 11 95 12 87 13
REMARK SMILES IDX 94 14 96 15 88 16 93 17 89 18 91 19 90 20 92 21 1 22 81 25
REMARK SMILES IDX 82 26 86 27 83 28 85 29 84 30 12 31 13 32 14 33 15 34 16 35
REMARK SMILES IDX 17 37 18 38 19 39 80 40 20 41 79 42 21 43 22 44 23 45 73 46
REMARK SMILES IDX 24 47 78 48 72 49 74 50 25 51 77 52 71 53 70 54 26 56 58 57
REMARK SMILES IDX 38 58 57 59 39 60 42 61 56 62 75 63 40 64 41 65 55 67 76 68
REMARK SMILES IDX 43 69 27 70 28 71 36 72 29 73 35 74 37 75 34 76 30 77 31 78
REMARK SMILES IDX 32 79 33 80 59 81 60 82 68 83 61 84 67 85 69 86 66 87 62 88
REMARK SMILES IDX 63 89 64 90 65 91 44 92 45 93 53 94 46 95 52 96 54 97 51 98
REMARK SMILES IDX 47 99 48 100 49 101 50 102
REMARK H PARENT 8 7 1 23 1 24 15 36 74 55 42 66
REMARK Flexibility Score: inf
ROOT
ATOM      1  C   UNL     1       5.396   1.023   2.837  1.00  0.00     0.002 C 
ENDROOT
BRANCH   1   2
ATOM      2  C   UNL     1       4.815   2.024   1.826  1.00  0.00     0.021 C 
BRANCH   2   3
ATOM      3  C   UNL     1       4.974   1.631   0.352  1.00  0.00     0.116 C 
BRANCH   3   4
ATOM      4  N   UNL     1       4.378   0.335   0.084  1.00  0.00    -0.355 N 
ATOM      5  C   UNL     1       3.191  -0.019  -0.499  1.00  0.00     0.238 C 
ATOM      6  O   UNL     1       2.926  -1.223  -0.402  1.00  0.00    -0.273 OA
ATOM      7  H   UNL     1       4.928  -0.429   0.373  1.00  0.00     0.163 HD
BRANCH   5   8
ATOM      8  C   UNL     1       2.315   1.027  -1.241  1.00  0.00     0.174 C 
BRANCH   8   9
ATOM      9  S   UNL     1       1.716   2.296  -0.091  1.00  0.00    -0.068 SA
BRANCH   9  10
ATOM     10  C   UNL     1       0.443   1.757   0.970  1.00  0.00     0.191 A 
ATOM     11  N   UNL     1      -0.053   0.461   1.085  1.00  0.00    -0.202 N 
ATOM     12  C   UNL     1      -1.077   0.138   1.984  1.00  0.00     0.280 A 
ATOM     13  N   UNL     1      -0.012   2.732   1.697  1.00  0.00    -0.222 NA
ATOM     14  C   UNL     1      -1.604   1.241   2.795  1.00  0.00     0.069 A 
ATOM     15  O   UNL     1      -1.549  -0.993   2.104  1.00  0.00    -0.267 OA
ATOM     16  C   UNL     1      -1.041   2.499   2.609  1.00  0.00     0.079 A 
ATOM     17  C   UNL     1      -2.645   1.035   3.706  1.00  0.00     0.031 A 
ATOM     18  C   UNL     1      -1.531   3.573   3.356  1.00  0.00     0.030 A 
ATOM     19  C   UNL     1      -3.125   2.117   4.438  1.00  0.00     0.018 A 
ATOM     20  C   UNL     1      -2.572   3.386   4.269  1.00  0.00     0.018 A 
ATOM     21  Br  UNL     1      -4.541   1.865   5.663  1.00  0.00    -0.051 Br
BRANCH  11  22
ATOM     22  N   UNL     1       0.374  -0.600   0.278  1.00  0.00    -0.334 N 
ATOM     23  H   UNL     1       1.091  -0.459  -0.382  1.00  0.00     0.178 HD
ATOM     24  H   UNL     1      -0.042  -1.488   0.370  1.00  0.00     0.178 HD
ENDBRANCH  11  22
ENDBRANCH   9  10
ENDBRANCH   8   9
BRANCH   8  25
ATOM     25  C   UNL     1       1.283   0.568  -2.287  1.00  0.00    -0.025 A 
ATOM     26  C   UNL     1       1.207  -0.752  -2.763  1.00  0.00     0.005 A 
ATOM     27  C   UNL     1       0.387   1.500  -2.855  1.00  0.00     0.005 A 
ATOM     28  C   UNL     1       0.217  -1.146  -3.671  1.00  0.00     0.000 A 
ATOM     29  C   UNL     1      -0.598   1.110  -3.768  1.00  0.00     0.000 A 
ATOM     30  C   UNL     1      -0.694  -0.218  -4.163  1.00  0.00     0.000 A 
ENDBRANCH   8  25
ENDBRANCH   5   8
ENDBRANCH   3   4
ENDBRANCH   2   3
ENDBRANCH   1   2
BRANCH   1  31
ATOM     31  C   UNL     1       6.873   0.665   2.652  1.00  0.00     0.002 C 
BRANCH  31  32
ATOM     32  C   UNL     1       7.833   1.853   2.587  1.00  0.00     0.021 C 
BRANCH  32  33
ATOM     33  C   UNL     1       7.803   2.779   3.797  1.00  0.00     0.116 C 
BRANCH  33  34
ATOM     34  N   UNL     1       8.318   2.151   5.004  1.00  0.00    -0.352 N 
ATOM     35  C   UNL     1       9.261   2.627   5.890  1.00  0.00     0.251 C 
ATOM     36  H   UNL     1       7.942   1.266   5.217  1.00  0.00     0.163 HD
ATOM     37  O   UNL     1       9.678   1.910   6.790  1.00  0.00    -0.269 OA
BRANCH  35  38
ATOM     38  C   UNL     1       9.796   3.996   5.708  1.00  0.00     0.039 A 
ATOM     39  C   UNL     1       8.936   5.076   5.494  1.00  0.00     0.014 A 
ATOM     40  C   UNL     1      11.180   4.186   5.691  1.00  0.00     0.014 A 
ATOM     41  C   UNL     1       9.456   6.302   5.089  1.00  0.00     0.010 A 
ATOM     42  C   UNL     1      11.702   5.440   5.357  1.00  0.00     0.010 A 
ATOM     43  C   UNL     1      10.844   6.492   4.997  1.00  0.00    -0.014 A 
BRANCH  43  44
ATOM     44  C   UNL     1      11.388   7.778   4.482  1.00  0.00     0.031 A 
ATOM     45  C   UNL     1      12.139   7.815   3.175  1.00  0.00     0.074 A 
ATOM     46  C   UNL     1      11.169   8.918   5.167  1.00  0.00     0.049 A 
ATOM     47  N   UNL     1      12.716   8.830   2.585  1.00  0.00    -0.248 NA
ATOM     48  C   UNL     1      12.256   6.549   2.431  1.00  0.00     0.031 C 
ATOM     49  C   UNL     1      10.421   9.010   6.420  1.00  0.00     0.029 A 
ATOM     50  N   UNL     1      11.534  10.216   4.902  1.00  0.00    -0.354 N 
ATOM     51  C   UNL     1      13.278   8.326   1.417  1.00  0.00     0.074 A 
ATOM     52  C   UNL     1      12.998   6.908   1.392  1.00  0.00     0.031 C 
ATOM     53  C   UNL     1      10.343  10.296   6.792  1.00  0.00     0.029 A 
ATOM     54  C   UNL     1      11.097  11.116   5.847  1.00  0.00     0.049 A 
ATOM     55  H   UNL     1      12.058  10.477   4.111  1.00  0.00     0.167 HD
ATOM     56  C   UNL     1      13.954   8.990   0.449  1.00  0.00     0.034 A 
ATOM     57  C   UNL     1      11.295  12.447   5.953  1.00  0.00     0.034 A 
ATOM     58  C   UNL     1      14.200  10.408   0.472  1.00  0.00     0.049 A 
ATOM     59  C   UNL     1      12.101  13.149   4.889  1.00  0.00     0.074 A 
ATOM     60  C   UNL     1      14.875  11.171  -0.464  1.00  0.00     0.029 A 
ATOM     61  N   UNL     1      13.773  11.278   1.464  1.00  0.00    -0.354 N 
ATOM     62  N   UNL     1      12.616  12.657   3.787  1.00  0.00    -0.248 NA
ATOM     63  C   UNL     1      12.360  14.584   5.079  1.00  0.00     0.031 C 
ATOM     64  C   UNL     1      14.899  12.491  -0.016  1.00  0.00     0.029 A 
ATOM     65  C   UNL     1      14.183  12.566   1.168  1.00  0.00     0.049 A 
ATOM     66  H   UNL     1      13.255  11.018   2.260  1.00  0.00     0.167 HD
ATOM     67  C   UNL     1      13.228  13.727   3.139  1.00  0.00     0.074 A 
ATOM     68  C   UNL     1      13.006  14.895   3.963  1.00  0.00     0.031 C 
ATOM     69  C   UNL     1      13.916  13.735   1.970  1.00  0.00     0.034 A 
BRANCH  56  70
ATOM     70  C   UNL     1      14.472   8.222  -0.741  1.00  0.00     0.023 A 
ATOM     71  C   UNL     1      15.858   8.135  -0.972  1.00  0.00     0.031 A 
ATOM     72  C   UNL     1      13.599   7.726  -1.725  1.00  0.00     0.131 A 
ATOM     73  C   UNL     1      16.330   7.608  -2.181  1.00  0.00     0.055 A 
ATOM     74  C   UNL     1      14.076   7.166  -2.911  1.00  0.00     0.041 A 
ATOM     75  F   UNL     1      12.269   7.784  -1.548  1.00  0.00    -0.206 F 
ATOM     76  C   UNL     1      15.447   7.119  -3.150  1.00  0.00     0.022 A 
BRANCH  73  77
ATOM     77  S   UNL     1      18.101   7.596  -2.571  1.00  0.00     0.124 S 
ATOM     78  O   UNL     1      18.337   6.182  -2.853  1.00  0.00    -0.237 OA
ATOM     79  O   UNL     1      18.164   8.482  -3.729  1.00  0.00    -0.237 OA
ATOM     80  O   UNL     1      18.731   8.098  -1.355  1.00  0.00    -0.744 OA
ENDBRANCH  73  77
ENDBRANCH  56  70
BRANCH  57  81
ATOM     81  C   UNL     1      10.683  13.196   7.090  1.00  0.00     0.023 A 
ATOM     82  C   UNL     1      11.005  12.889   8.425  1.00  0.00     0.031 A 
ATOM     83  C   UNL     1       9.706  14.180   6.858  1.00  0.00     0.131 A 
ATOM     84  C   UNL     1      10.314  13.513   9.472  1.00  0.00     0.055 A 
ATOM     85  C   UNL     1       9.070  14.849   7.905  1.00  0.00     0.041 A 
ATOM     86  F   UNL     1       9.355  14.501   5.604  1.00  0.00    -0.206 F 
ATOM     87  C   UNL     1       9.361  14.504   9.221  1.00  0.00     0.022 A 
BRANCH  84  88
ATOM     88  S   UNL     1      10.532  12.960  11.187  1.00  0.00     0.124 S 
ATOM     89  O   UNL     1      11.143  14.130  11.807  1.00  0.00    -0.237 OA
ATOM     90  O   UNL     1       9.156  12.676  11.590  1.00  0.00    -0.237 OA
ATOM     91  O   UNL     1      11.392  11.787  11.062  1.00  0.00    -0.744 OA
ENDBRANCH  84  88
ENDBRANCH  57  81
BRANCH  69  92
ATOM     92  C   UNL     1      14.466  15.041   1.455  1.00  0.00     0.023 A 
ATOM     93  C   UNL     1      14.000  15.559   0.231  1.00  0.00     0.031 A 
ATOM     94  C   UNL     1      15.566  15.664   2.068  1.00  0.00     0.131 A 
ATOM     95  C   UNL     1      14.666  16.634  -0.369  1.00  0.00     0.055 A 
ATOM     96  C   UNL     1      16.197  16.766   1.489  1.00  0.00     0.041 A 
ATOM     97  F   UNL     1      16.053  15.199   3.229  1.00  0.00    -0.206 F 
ATOM     98  C   UNL     1      15.758  17.245   0.257  1.00  0.00     0.022 A 
BRANCH  95  99
ATOM     99  S   UNL     1      14.202  17.216  -2.023  1.00  0.00     0.124 S 
ATOM    100  O   UNL     1      13.874  18.617  -1.770  1.00  0.00    -0.237 OA
ATOM    101  O   UNL     1      15.428  16.990  -2.783  1.00  0.00    -0.237 OA
ATOM    102  O   UNL     1      13.070  16.371  -2.390  1.00  0.00    -0.744 OA
ENDBRANCH  95  99
ENDBRANCH  69  92
ENDBRANCH  43  44
ENDBRANCH  35  38
ENDBRANCH  33  34
ENDBRANCH  32  33
ENDBRANCH  31  32
ENDBRANCH   1  31
TORSDOF 20
