REMARK SMILES O=C(NCCCCCCNC(=O)[C@H](CO)NC(=O)[C@H](Cc1c[nH]c2ccccc12)NC(=O)c1ccc(F)cc1)c1ccc(-c2c3nc(c(-c4cc(S(=O)(=O)[O-])ccc4F)c4ccc([nH]4)c(-c4cc(S(=O)(=O)[O-])ccc4F)c4nc(c(-c5cc(S(=O)(=O)[O-])ccc5F)c5ccc2[nH]5)C=C4)C=C3)cc1
REMARK SMILES IDX 7 1 6 2 5 3 4 4 3 5 1 6 2 7 40 9 41 10 102 11 42 12 101 13
REMARK SMILES IDX 43 14 44 15 45 16 95 17 46 18 100 19 94 20 96 21 47 22 99 23
REMARK SMILES IDX 93 24 92 25 48 27 80 28 60 29 79 30 61 31 64 32 78 33 97 34
REMARK SMILES IDX 62 35 63 36 77 38 98 39 65 40 49 41 50 42 58 43 51 44 57 45
REMARK SMILES IDX 59 46 56 47 52 48 53 49 54 50 55 51 81 52 82 53 90 54 83 55
REMARK SMILES IDX 89 56 91 57 88 58 84 59 85 60 86 61 87 62 66 63 67 64 75 65
REMARK SMILES IDX 68 66 74 67 76 68 73 69 69 70 70 71 71 72 72 73 8 74 9 75
REMARK SMILES IDX 10 76 11 77 12 79 13 80 16 81 17 82 18 84 19 85 30 86 31 87
REMARK SMILES IDX 32 89 33 90 34 91 39 92 35 93 38 94 36 95 37 96 20 97 21 98
REMARK SMILES IDX 22 99 29 100 23 101 24 102 28 103 25 105 27 106 26 107
REMARK SMILES IDX 14 108 15 109
REMARK H PARENT 3 8 96 26 64 37 10 78 16 83 30 88 23 104 15 110
REMARK Flexibility Score: inf
ROOT
ATOM      1  C   UNL     1       6.676   1.204  -4.939  1.00  0.00     0.002 C 
ENDROOT
BRANCH   1   2
ATOM      2  C   UNL     1       5.745   0.441  -5.889  1.00  0.00     0.002 C 
BRANCH   2   3
ATOM      3  C   UNL     1       6.437  -0.432  -6.940  1.00  0.00     0.021 C 
BRANCH   3   4
ATOM      4  C   UNL     1       7.351  -1.515  -6.376  1.00  0.00     0.116 C 
BRANCH   4   5
ATOM      5  N   UNL     1       6.608  -2.529  -5.644  1.00  0.00    -0.352 N 
ATOM      6  O   UNL     1       5.675  -4.543  -5.272  1.00  0.00    -0.269 OA
ATOM      7  C   UNL     1       6.515  -3.880  -5.874  1.00  0.00     0.251 C 
ATOM      8  H   UNL     1       6.097  -2.198  -4.870  1.00  0.00     0.163 HD
BRANCH   7   9
ATOM      9  C   UNL     1       7.417  -4.535  -6.848  1.00  0.00     0.039 A 
ATOM     10  C   UNL     1       8.778  -4.223  -6.880  1.00  0.00     0.014 A 
ATOM     11  C   UNL     1       6.902  -5.506  -7.714  1.00  0.00     0.014 A 
ATOM     12  C   UNL     1       9.595  -4.789  -7.853  1.00  0.00     0.010 A 
ATOM     13  C   UNL     1       7.743  -6.133  -8.641  1.00  0.00     0.010 A 
ATOM     14  C   UNL     1       9.092  -5.764  -8.731  1.00  0.00    -0.014 A 
BRANCH  14  15
ATOM     15  C   UNL     1      10.033  -6.429  -9.669  1.00  0.00     0.031 A 
ATOM     16  C   UNL     1       9.935  -6.229 -11.154  1.00  0.00     0.074 A 
ATOM     17  C   UNL     1      11.031  -7.170  -9.148  1.00  0.00     0.049 A 
ATOM     18  N   UNL     1      10.743  -6.651 -12.092  1.00  0.00    -0.248 NA
ATOM     19  C   UNL     1       8.781  -5.468 -11.652  1.00  0.00     0.031 C 
ATOM     20  C   UNL     1      11.211  -7.446  -7.720  1.00  0.00     0.029 A 
ATOM     21  N   UNL     1      12.102  -7.785  -9.742  1.00  0.00    -0.354 N 
ATOM     22  C   UNL     1      10.191  -6.223 -13.294  1.00  0.00     0.074 A 
ATOM     23  C   UNL     1       8.964  -5.527 -12.965  1.00  0.00     0.031 C 
ATOM     24  C   UNL     1      12.367  -8.099  -7.541  1.00  0.00     0.029 A 
ATOM     25  C   UNL     1      12.981  -8.340  -8.842  1.00  0.00     0.049 A 
ATOM     26  H   UNL     1      12.230  -7.825 -10.717  1.00  0.00     0.167 HD
ATOM     27  C   UNL     1      10.670  -6.392 -14.552  1.00  0.00     0.034 A 
ATOM     28  C   UNL     1      14.155  -8.970  -9.035  1.00  0.00     0.034 A 
ATOM     29  C   UNL     1      11.902  -7.076 -14.861  1.00  0.00     0.049 A 
ATOM     30  C   UNL     1      14.661  -9.153 -10.435  1.00  0.00     0.074 A 
ATOM     31  C   UNL     1      12.497  -7.261 -16.098  1.00  0.00     0.029 A 
ATOM     32  N   UNL     1      12.725  -7.694 -13.929  1.00  0.00    -0.354 N 
ATOM     33  N   UNL     1      14.125  -8.741 -11.559  1.00  0.00    -0.248 NA
ATOM     34  C   UNL     1      15.918  -9.894 -10.596  1.00  0.00     0.031 C 
ATOM     35  C   UNL     1      13.649  -8.037 -15.920  1.00  0.00     0.029 A 
ATOM     36  C   UNL     1      13.805  -8.286 -14.566  1.00  0.00     0.049 A 
ATOM     37  H   UNL     1      12.565  -7.710 -12.958  1.00  0.00     0.167 HD
ATOM     38  C   UNL     1      14.978  -9.175 -12.565  1.00  0.00     0.074 A 
ATOM     39  C   UNL     1      16.071  -9.871 -11.914  1.00  0.00     0.031 C 
ATOM     40  C   UNL     1      14.867  -9.006 -13.906  1.00  0.00     0.034 A 
BRANCH  27  41
ATOM     41  C   UNL     1       9.838  -5.863 -15.692  1.00  0.00     0.023 A 
ATOM     42  C   UNL     1       9.660  -4.486 -15.902  1.00  0.00     0.031 A 
ATOM     43  C   UNL     1       9.219  -6.755 -16.586  1.00  0.00     0.131 A 
ATOM     44  C   UNL     1       8.841  -4.039 -16.952  1.00  0.00     0.055 A 
ATOM     45  C   UNL     1       8.456  -6.303 -17.665  1.00  0.00     0.041 A 
ATOM     46  F   UNL     1       9.342  -8.081 -16.422  1.00  0.00    -0.206 F 
ATOM     47  C   UNL     1       8.256  -4.938 -17.848  1.00  0.00     0.022 A 
BRANCH  44  48
ATOM     48  S   UNL     1       8.474  -2.268 -17.075  1.00  0.00     0.124 S 
ATOM     49  O   UNL     1       7.773  -2.025 -15.816  1.00  0.00    -0.237 OA
ATOM     50  O   UNL     1       9.802  -1.677 -17.189  1.00  0.00    -0.237 OA
ATOM     51  O   UNL     1       7.643  -2.172 -18.273  1.00  0.00    -0.744 OA
ENDBRANCH  44  48
ENDBRANCH  27  41
BRANCH  28  52
ATOM     52  C   UNL     1      14.909  -9.473  -7.859  1.00  0.00     0.023 A 
ATOM     53  C   UNL     1      16.059  -8.813  -7.404  1.00  0.00     0.031 A 
ATOM     54  C   UNL     1      14.438 -10.578  -7.127  1.00  0.00     0.131 A 
ATOM     55  C   UNL     1      16.703  -9.263  -6.241  1.00  0.00     0.055 A 
ATOM     56  C   UNL     1      15.065 -11.004  -5.957  1.00  0.00     0.041 A 
ATOM     57  F   UNL     1      13.327 -11.223  -7.517  1.00  0.00    -0.206 F 
ATOM     58  C   UNL     1      16.205 -10.345  -5.508  1.00  0.00     0.022 A 
BRANCH  55  59
ATOM     59  S   UNL     1      18.189  -8.393  -5.671  1.00  0.00     0.124 S 
ATOM     60  O   UNL     1      19.158  -8.758  -6.699  1.00  0.00    -0.237 OA
ATOM     61  O   UNL     1      17.751  -7.001  -5.668  1.00  0.00    -0.237 OA
ATOM     62  O   UNL     1      18.432  -8.966  -4.349  1.00  0.00    -0.744 OA
ENDBRANCH  55  59
ENDBRANCH  28  52
BRANCH  40  63
ATOM     63  C   UNL     1      15.961  -9.581 -14.761  1.00  0.00     0.023 A 
ATOM     64  C   UNL     1      16.040 -10.960 -15.014  1.00  0.00     0.031 A 
ATOM     65  C   UNL     1      16.910  -8.734 -15.357  1.00  0.00     0.131 A 
ATOM     66  C   UNL     1      17.066 -11.458 -15.830  1.00  0.00     0.055 A 
ATOM     67  C   UNL     1      17.906  -9.230 -16.197  1.00  0.00     0.041 A 
ATOM     68  F   UNL     1      16.871  -7.409 -15.142  1.00  0.00    -0.206 F 
ATOM     69  C   UNL     1      17.990 -10.600 -16.435  1.00  0.00     0.022 A 
BRANCH  66  70
ATOM     70  S   UNL     1      17.193 -13.248 -16.087  1.00  0.00     0.124 S 
ATOM     71  O   UNL     1      17.619 -13.711 -14.770  1.00  0.00    -0.237 OA
ATOM     72  O   UNL     1      15.835 -13.612 -16.481  1.00  0.00    -0.237 OA
ATOM     73  O   UNL     1      18.196 -13.372 -17.143  1.00  0.00    -0.744 OA
ENDBRANCH  66  70
ENDBRANCH  40  63
ENDBRANCH  14  15
ENDBRANCH   7   9
ENDBRANCH   4   5
ENDBRANCH   3   4
ENDBRANCH   2   3
ENDBRANCH   1   2
BRANCH   1  74
ATOM     74  C   UNL     1       7.802   1.991  -5.616  1.00  0.00     0.021 C 
BRANCH  74  75
ATOM     75  C   UNL     1       7.322   3.092  -6.564  1.00  0.00     0.116 C 
BRANCH  75  76
ATOM     76  N   UNL     1       7.058   4.328  -5.853  1.00  0.00    -0.354 N 
ATOM     77  C   UNL     1       7.806   5.460  -5.707  1.00  0.00     0.244 C 
ATOM     78  H   UNL     1       6.186   4.355  -5.396  1.00  0.00     0.163 HD
ATOM     79  O   UNL     1       7.403   6.273  -4.868  1.00  0.00    -0.273 OA
BRANCH  77  80
ATOM     80  C   UNL     1       9.180   5.640  -6.410  1.00  0.00     0.197 C 
BRANCH  80  81
ATOM     81  N   UNL     1       9.139   5.313  -7.839  1.00  0.00    -0.340 N 
ATOM     82  C   UNL     1       9.995   4.633  -8.652  1.00  0.00     0.243 C 
ATOM     83  H   UNL     1       8.337   5.650  -8.300  1.00  0.00     0.164 HD
ATOM     84  O   UNL     1       9.663   4.548  -9.840  1.00  0.00    -0.273 OA
BRANCH  82  85
ATOM     85  C   UNL     1      11.221   3.844  -8.136  1.00  0.00     0.176 C 
BRANCH  85  86
ATOM     86  N   UNL     1      12.128   4.681  -7.345  1.00  0.00    -0.340 N 
ATOM     87  C   UNL     1      13.469   4.899  -7.518  1.00  0.00     0.251 C 
ATOM     88  H   UNL     1      11.716   5.151  -6.585  1.00  0.00     0.164 HD
ATOM     89  O   UNL     1      14.064   5.627  -6.728  1.00  0.00    -0.269 OA
BRANCH  87  90
ATOM     90  C   UNL     1      14.201   4.211  -8.600  1.00  0.00     0.040 A 
ATOM     91  C   UNL     1      13.886   4.424  -9.948  1.00  0.00     0.017 A 
ATOM     92  C   UNL     1      15.218   3.319  -8.238  1.00  0.00     0.017 A 
ATOM     93  C   UNL     1      14.552   3.692 -10.932  1.00  0.00     0.040 A 
ATOM     94  C   UNL     1      15.889   2.599  -9.227  1.00  0.00     0.040 A 
ATOM     95  C   UNL     1      15.543   2.785 -10.563  1.00  0.00     0.123 A 
ATOM     96  F   UNL     1      16.176   2.081 -11.509  1.00  0.00    -0.207 F 
ENDBRANCH  87  90
ENDBRANCH  85  86
BRANCH  85  97
ATOM     97  C   UNL     1      10.757   2.599  -7.378  1.00  0.00     0.072 C 
BRANCH  97  98
ATOM     98  C   UNL     1      11.838   1.643  -6.990  1.00  0.00    -0.020 A 
ATOM     99  C   UNL     1      12.517   0.785  -7.833  1.00  0.00     0.087 A 
ATOM    100  C   UNL     1      12.322   1.394  -5.665  1.00  0.00     0.003 A 
ATOM    101  N   UNL     1      13.380   0.034  -7.080  1.00  0.00    -0.361 N 
ATOM    102  C   UNL     1      13.272   0.378  -5.753  1.00  0.00     0.046 A 
ATOM    103  C   UNL     1      12.022   1.925  -4.392  1.00  0.00     0.010 A 
ATOM    104  H   UNL     1      13.990  -0.652  -7.438  1.00  0.00     0.166 HD
ATOM    105  C   UNL     1      13.932  -0.141  -4.632  1.00  0.00     0.026 A 
ATOM    106  C   UNL     1      12.673   1.419  -3.261  1.00  0.00     0.001 A 
ATOM    107  C   UNL     1      13.611   0.398  -3.383  1.00  0.00     0.002 A 
ENDBRANCH  97  98
ENDBRANCH  85  97
ENDBRANCH  82  85
ENDBRANCH  80  81
BRANCH  80 108
ATOM    108  C   UNL     1       9.633   7.107  -6.212  1.00  0.00     0.191 C 
BRANCH 108 109
ATOM    109  O   UNL     1      10.699   7.494  -7.079  1.00  0.00    -0.394 OA
ATOM    110  H   UNL     1      11.479   6.948  -6.896  1.00  0.00     0.210 HD
ENDBRANCH 108 109
ENDBRANCH  80 108
ENDBRANCH  77  80
ENDBRANCH  75  76
ENDBRANCH  74  75
ENDBRANCH   1  74
TORSDOF 24
