REMARK SMILES CCCC[C@@H](C)[NH2+]Cc1ccc(C(=O)NCCCCCCNC(=O)c2ccc(-c3c4nc(c(-c5cc(S(=O)(=O)[O-])ccc5F)c5ccc([nH]5)c(-c5cc(S(=O)(=O)[O-])ccc5F)c5nc(c(-c6cc(S(=O)(=O)[O-])ccc6F)c6ccc3[nH]6)C=C5)C=C4)cc2)cn1
REMARK SMILES IDX 17 1 16 2 15 3 13 4 14 5 12 7 9 8 10 9 89 10 11 11 88 12
REMARK SMILES IDX 8 13 7 14 5 17 6 18 4 19 3 20 2 21 1 22 18 23 19 24 20 25
REMARK SMILES IDX 21 26 22 27 23 28 24 30 25 31 26 32 87 33 27 34 86 35 28 36
REMARK SMILES IDX 29 37 30 38 80 39 31 40 85 41 79 42 81 43 32 44 84 45 78 46
REMARK SMILES IDX 77 47 33 49 65 50 45 51 64 52 46 53 49 54 63 55 82 56 47 57
REMARK SMILES IDX 48 58 62 60 83 61 50 62 34 63 35 64 43 65 36 66 42 67 44 68
REMARK SMILES IDX 41 69 37 70 38 71 39 72 40 73 66 74 67 75 75 76 68 77 74 78
REMARK SMILES IDX 76 79 73 80 69 81 70 82 71 83 72 84 51 85 52 86 60 87 53 88
REMARK SMILES IDX 59 89 61 90 58 91 54 92 55 93 56 94 57 95
REMARK H PARENT 15 6 7 15 7 16 22 29 81 48 49 59
REMARK Flexibility Score: inf
ROOT
ATOM      1  C   UNL     1      -4.561   4.647   5.515  1.00  0.00     0.021 C 
ENDROOT
BRANCH   1   2
ATOM      2  C   UNL     1      -5.323   4.954   4.226  1.00  0.00     0.116 C 
BRANCH   2   3
ATOM      3  N   UNL     1      -5.082   6.297   3.730  1.00  0.00    -0.352 N 
ATOM      4  C   UNL     1      -4.723   6.792   2.501  1.00  0.00     0.252 C 
ATOM      5  O   UNL     1      -4.541   8.008   2.414  1.00  0.00    -0.269 OA
ATOM      6  H   UNL     1      -5.201   6.995   4.414  1.00  0.00     0.163 HD
BRANCH   4   7
ATOM      7  C   UNL     1      -4.472   5.953   1.304  1.00  0.00     0.058 A 
ATOM      8  C   UNL     1      -3.532   4.489  -0.842  1.00  0.00     0.094 A 
ATOM      9  C   UNL     1      -4.533   3.946  -0.040  1.00  0.00     0.030 A 
ATOM     10  N   UNL     1      -3.108   5.772  -0.702  1.00  0.00    -0.255 NA
ATOM     11  C   UNL     1      -5.021   4.702   1.032  1.00  0.00     0.017 A 
ATOM     12  C   UNL     1      -3.583   6.465   0.362  1.00  0.00     0.125 A 
BRANCH   8  13
ATOM     13  C   UNL     1      -2.712   3.607  -1.764  1.00  0.00     0.318 C 
BRANCH  13  14
ATOM     14  N   UNL     1      -1.261   3.704  -1.503  1.00  0.00    -0.339 N 
ATOM     15  H   UNL     1      -0.770   3.294  -2.297  1.00  0.00     0.346 HD
ATOM     16  H   UNL     1      -1.064   4.695  -1.367  1.00  0.00     0.346 HD
BRANCH  14  17
ATOM     17  C   UNL     1      -0.793   3.023  -0.278  1.00  0.00     0.179 C 
ATOM     18  C   UNL     1      -1.155   3.761   1.019  1.00  0.00     0.075 C 
BRANCH  17  19
ATOM     19  C   UNL     1       0.742   2.890  -0.404  1.00  0.00     0.065 C 
BRANCH  19  20
ATOM     20  C   UNL     1       1.450   2.176   0.760  1.00  0.00     0.006 C 
BRANCH  20  21
ATOM     21  C   UNL     1       0.900   0.793   1.114  1.00  0.00    -0.003 C 
ATOM     22  C   UNL     1       1.104  -0.225   0.004  1.00  0.00     0.004 C 
ENDBRANCH  20  21
ENDBRANCH  19  20
ENDBRANCH  17  19
ENDBRANCH  14  17
ENDBRANCH  13  14
ENDBRANCH   8  13
ENDBRANCH   4   7
ENDBRANCH   2   3
ENDBRANCH   1   2
BRANCH   1  23
ATOM     23  C   UNL     1      -5.056   5.365   6.774  1.00  0.00     0.002 C 
BRANCH  23  24
ATOM     24  C   UNL     1      -6.536   5.167   7.118  1.00  0.00     0.002 C 
BRANCH  24  25
ATOM     25  C   UNL     1      -7.019   3.715   7.162  1.00  0.00     0.021 C 
BRANCH  25  26
ATOM     26  C   UNL     1      -6.279   2.818   8.150  1.00  0.00     0.116 C 
BRANCH  26  27
ATOM     27  N   UNL     1      -6.451   3.264   9.522  1.00  0.00    -0.352 N 
ATOM     28  C   UNL     1      -6.966   2.587  10.600  1.00  0.00     0.251 C 
ATOM     29  H   UNL     1      -6.154   4.185   9.705  1.00  0.00     0.163 HD
ATOM     30  O   UNL     1      -7.256   3.201  11.621  1.00  0.00    -0.269 OA
BRANCH  28  31
ATOM     31  C   UNL     1      -7.182   1.125  10.520  1.00  0.00     0.039 A 
ATOM     32  C   UNL     1      -8.361   0.583  11.039  1.00  0.00     0.014 A 
ATOM     33  C   UNL     1      -6.216   0.288   9.953  1.00  0.00     0.014 A 
ATOM     34  C   UNL     1      -8.593  -0.791  10.942  1.00  0.00     0.010 A 
ATOM     35  C   UNL     1      -6.482  -1.069   9.790  1.00  0.00     0.010 A 
ATOM     36  C   UNL     1      -7.669  -1.625  10.290  1.00  0.00    -0.014 A 
BRANCH  36  37
ATOM     37  C   UNL     1      -7.916  -3.083  10.140  1.00  0.00     0.031 A 
ATOM     38  C   UNL     1      -6.994  -4.072  10.800  1.00  0.00     0.074 A 
ATOM     39  C   UNL     1      -8.931  -3.514   9.365  1.00  0.00     0.049 A 
ATOM     40  N   UNL     1      -6.984  -5.378  10.720  1.00  0.00    -0.248 NA
ATOM     41  C   UNL     1      -5.920  -3.514  11.636  1.00  0.00     0.031 C 
ATOM     42  C   UNL     1      -9.874  -2.651   8.651  1.00  0.00     0.029 A 
ATOM     43  N   UNL     1      -9.336  -4.785   9.040  1.00  0.00    -0.354 N 
ATOM     44  C   UNL     1      -5.900  -5.797  11.485  1.00  0.00     0.074 A 
ATOM     45  C   UNL     1      -5.239  -4.601  11.962  1.00  0.00     0.031 C 
ATOM     46  C   UNL     1     -10.760  -3.416   7.994  1.00  0.00     0.029 A 
ATOM     47  C   UNL     1     -10.421  -4.821   8.194  1.00  0.00     0.049 A 
ATOM     48  H   UNL     1      -8.891  -5.595   9.380  1.00  0.00     0.167 HD
ATOM     49  C   UNL     1      -5.507  -7.061  11.781  1.00  0.00     0.034 A 
ATOM     50  C   UNL     1     -11.059  -5.866   7.631  1.00  0.00     0.034 A 
ATOM     51  C   UNL     1      -6.185  -8.242  11.301  1.00  0.00     0.049 A 
ATOM     52  C   UNL     1     -10.578  -7.263   7.940  1.00  0.00     0.074 A 
ATOM     53  C   UNL     1      -5.904  -9.569  11.576  1.00  0.00     0.029 A 
ATOM     54  N   UNL     1      -7.274  -8.239  10.438  1.00  0.00    -0.354 N 
ATOM     55  N   UNL     1      -9.578  -7.643   8.701  1.00  0.00    -0.248 NA
ATOM     56  C   UNL     1     -11.319  -8.369   7.322  1.00  0.00     0.031 C 
ATOM     57  C   UNL     1      -6.770 -10.367  10.821  1.00  0.00     0.029 A 
ATOM     58  C   UNL     1      -7.651  -9.541  10.142  1.00  0.00     0.049 A 
ATOM     59  H   UNL     1      -7.714  -7.431  10.087  1.00  0.00     0.167 HD
ATOM     60  C   UNL     1      -9.592  -9.036   8.678  1.00  0.00     0.074 A 
ATOM     61  C   UNL     1     -10.709  -9.424   7.841  1.00  0.00     0.031 C 
ATOM     62  C   UNL     1      -8.761  -9.914   9.295  1.00  0.00     0.034 A 
BRANCH  49  63
ATOM     63  C   UNL     1      -4.272  -7.224  12.638  1.00  0.00     0.023 A 
ATOM     64  C   UNL     1      -4.213  -6.725  13.951  1.00  0.00     0.031 A 
ATOM     65  C   UNL     1      -3.127  -7.859  12.126  1.00  0.00     0.131 A 
ATOM     66  C   UNL     1      -3.013  -6.794  14.675  1.00  0.00     0.055 A 
ATOM     67  C   UNL     1      -1.963  -8.005  12.885  1.00  0.00     0.041 A 
ATOM     68  F   UNL     1      -3.112  -8.337  10.872  1.00  0.00    -0.206 F 
ATOM     69  C   UNL     1      -1.896  -7.455  14.161  1.00  0.00     0.022 A 
BRANCH  66  70
ATOM     70  S   UNL     1      -2.886  -5.867  16.229  1.00  0.00     0.124 S 
ATOM     71  O   UNL     1      -3.172  -4.505  15.783  1.00  0.00    -0.237 OA
ATOM     72  O   UNL     1      -3.908  -6.496  17.056  1.00  0.00    -0.237 OA
ATOM     73  O   UNL     1      -1.507  -6.098  16.654  1.00  0.00    -0.744 OA
ENDBRANCH  66  70
ENDBRANCH  49  63
BRANCH  50  74
ATOM     74  C   UNL     1     -12.209  -5.643   6.708  1.00  0.00     0.023 A 
ATOM     75  C   UNL     1     -13.494  -6.108   7.028  1.00  0.00     0.031 A 
ATOM     76  C   UNL     1     -12.032  -4.998   5.470  1.00  0.00     0.131 A 
ATOM     77  C   UNL     1     -14.540  -5.968   6.102  1.00  0.00     0.055 A 
ATOM     78  C   UNL     1     -13.088  -4.809   4.578  1.00  0.00     0.041 A 
ATOM     79  F   UNL     1     -10.825  -4.530   5.114  1.00  0.00    -0.206 F 
ATOM     80  C   UNL     1     -14.350  -5.308   4.886  1.00  0.00     0.022 A 
BRANCH  77  81
ATOM     81  S   UNL     1     -16.137  -6.745   6.473  1.00  0.00     0.124 S 
ATOM     82  O   UNL     1     -15.754  -8.143   6.635  1.00  0.00    -0.237 OA
ATOM     83  O   UNL     1     -16.540  -6.044   7.687  1.00  0.00    -0.237 OA
ATOM     84  O   UNL     1     -16.941  -6.451   5.288  1.00  0.00    -0.744 OA
ENDBRANCH  77  81
ENDBRANCH  50  74
BRANCH  62  85
ATOM     85  C   UNL     1      -9.063 -11.384   9.123  1.00  0.00     0.023 A 
ATOM     86  C   UNL     1      -8.962 -12.021   7.874  1.00  0.00     0.031 A 
ATOM     87  C   UNL     1      -9.469 -12.156  10.227  1.00  0.00     0.131 A 
ATOM     88  C   UNL     1      -9.319 -13.372   7.747  1.00  0.00     0.055 A 
ATOM     89  C   UNL     1      -9.757 -13.516  10.108  1.00  0.00     0.041 A 
ATOM     90  F   UNL     1      -9.587 -11.600  11.443  1.00  0.00    -0.206 F 
ATOM     91  C   UNL     1      -9.697 -14.128   8.860  1.00  0.00     0.022 A 
BRANCH  88  92
ATOM     92  S   UNL     1      -9.380 -14.105   6.089  1.00  0.00     0.124 S 
ATOM     93  O   UNL     1     -10.341 -13.240   5.412  1.00  0.00    -0.237 OA
ATOM     94  O   UNL     1      -7.995 -13.989   5.645  1.00  0.00    -0.237 OA
ATOM     95  O   UNL     1      -9.840 -15.471   6.334  1.00  0.00    -0.744 OA
ENDBRANCH  88  92
ENDBRANCH  62  85
ENDBRANCH  36  37
ENDBRANCH  28  31
ENDBRANCH  26  27
ENDBRANCH  25  26
ENDBRANCH  24  25
ENDBRANCH  23  24
ENDBRANCH   1  23
TORSDOF 22
