REMARK SMILES Cc1cc2c(c(C)c1Br)C=C(C(=O)NCCCCCCNC(=O)c1ccc(-c3c4nc(c(-c5cc(S(=O)(=O)[O-])ccc5F)c5ccc([nH]5)c(-c5cc(S(=O)(=O)[O-])ccc5F)c5nc(c(-c6cc(S(=O)(=O)[O-])ccc6F)c6ccc3[nH]6)C=C5)C=C4)cc1)[C@@H](C(F)(F)F)O2
REMARK SMILES IDX 18 1 17 2 16 3 15 4 14 5 12 6 13 7 11 9 1 10 2 11 3 12 8 13
REMARK SMILES IDX 4 14 6 15 9 16 5 17 92 18 7 19 10 20 87 21 88 22 89 23 90 24
REMARK SMILES IDX 91 25 19 26 20 27 21 28 22 29 23 31 24 32 25 33 86 34 26 35
REMARK SMILES IDX 85 36 27 37 28 38 29 39 79 40 30 41 84 42 78 43 80 44 31 45
REMARK SMILES IDX 83 46 77 47 76 48 32 50 64 51 44 52 63 53 45 54 48 55 62 56
REMARK SMILES IDX 81 57 46 58 47 59 61 61 82 62 49 63 33 64 34 65 42 66 35 67
REMARK SMILES IDX 41 68 43 69 40 70 36 71 37 72 38 73 39 74 65 75 66 76 74 77
REMARK SMILES IDX 67 78 73 79 75 80 72 81 68 82 69 83 70 84 71 85 50 86 51 87
REMARK SMILES IDX 59 88 52 89 58 90 60 91 57 92 53 93 54 94 55 95 56 96
REMARK H PARENT 14 8 21 30 80 49 48 60
REMARK Flexibility Score: inf
ROOT
ATOM      1  C   UNL     1      -3.817   4.516  10.085  1.00  0.00     0.002 C 
ENDROOT
BRANCH   1   2
ATOM      2  C   UNL     1      -2.301   4.558   9.849  1.00  0.00     0.002 C 
BRANCH   2   3
ATOM      3  C   UNL     1      -1.787   3.592   8.778  1.00  0.00     0.021 C 
BRANCH   3   4
ATOM      4  C   UNL     1      -2.471   3.761   7.426  1.00  0.00     0.116 C 
BRANCH   4   5
ATOM      5  N   UNL     1      -1.872   4.833   6.651  1.00  0.00    -0.352 N 
ATOM      6  C   UNL     1      -1.275   4.969   5.445  1.00  0.00     0.251 C 
ATOM      7  O   UNL     1      -0.919   6.118   5.159  1.00  0.00    -0.270 OA
ATOM      8  H   UNL     1      -1.910   5.691   7.133  1.00  0.00     0.163 HD
BRANCH   6   9
ATOM      9  C   UNL     1      -1.027   3.858   4.476  1.00  0.00     0.067 C 
ATOM     10  C   UNL     1       1.050  -0.154  -0.212  1.00  0.00     0.046 C 
ATOM     11  C   UNL     1       0.713   1.028   0.656  1.00  0.00    -0.033 A 
ATOM     12  C   UNL     1       0.007   0.788   1.836  1.00  0.00     0.051 A 
ATOM     13  C   UNL     1       1.085   2.354   0.345  1.00  0.00     0.024 A 
ATOM     14  C   UNL     1      -0.317   1.831   2.694  1.00  0.00     0.128 A 
ATOM     15  C   UNL     1       0.760   3.429   1.213  1.00  0.00    -0.026 A 
ATOM     16  Br  UNL     1       2.062   2.659  -1.274  1.00  0.00    -0.050 Br
ATOM     17  C   UNL     1       0.063   3.145   2.415  1.00  0.00     0.021 A 
ATOM     18  O   UNL     1      -0.977   1.452   3.823  1.00  0.00    -0.475 OA
ATOM     19  C   UNL     1       1.143   4.859   0.910  1.00  0.00     0.046 C 
ATOM     20  C   UNL     1      -0.240   4.163   3.427  1.00  0.00     0.026 C 
ATOM     21  C   UNL     1      -1.618   2.487   4.603  1.00  0.00     0.314 C 
BRANCH  21  22
ATOM     22  C   UNL     1      -3.132   2.464   4.326  1.00  0.00     0.429 C 
ATOM     23  F   UNL     1      -3.686   1.323   4.804  1.00  0.00    -0.167 F 
ATOM     24  F   UNL     1      -3.788   3.486   4.922  1.00  0.00    -0.167 F 
ATOM     25  F   UNL     1      -3.415   2.533   3.005  1.00  0.00    -0.167 F 
ENDBRANCH  21  22
ENDBRANCH   6   9
ENDBRANCH   4   5
ENDBRANCH   3   4
ENDBRANCH   2   3
ENDBRANCH   1   2
BRANCH   1  26
ATOM     26  C   UNL     1      -4.405   3.119  10.302  1.00  0.00     0.021 C 
BRANCH  26  27
ATOM     27  C   UNL     1      -3.785   2.348  11.461  1.00  0.00     0.116 C 
BRANCH  27  28
ATOM     28  N   UNL     1      -3.955   3.049  12.721  1.00  0.00    -0.352 N 
ATOM     29  C   UNL     1      -4.604   2.638  13.856  1.00  0.00     0.251 C 
ATOM     30  H   UNL     1      -3.548   3.944  12.767  1.00  0.00     0.163 HD
ATOM     31  O   UNL     1      -4.865   3.450  14.741  1.00  0.00    -0.269 OA
BRANCH  29  32
ATOM     32  C   UNL     1      -4.996   1.222  13.998  1.00  0.00     0.039 A 
ATOM     33  C   UNL     1      -6.277   0.915  14.460  1.00  0.00     0.014 A 
ATOM     34  C   UNL     1      -4.095   0.200  13.677  1.00  0.00     0.014 A 
ATOM     35  C   UNL     1      -6.670  -0.420  14.557  1.00  0.00     0.010 A 
ATOM     36  C   UNL     1      -4.513  -1.126  13.706  1.00  0.00     0.010 A 
ATOM     37  C   UNL     1      -5.801  -1.449  14.158  1.00  0.00    -0.014 A 
BRANCH  37  38
ATOM     38  C   UNL     1      -6.212  -2.872  14.245  1.00  0.00     0.031 A 
ATOM     39  C   UNL     1      -5.511  -3.793  15.206  1.00  0.00     0.074 A 
ATOM     40  C   UNL     1      -7.197  -3.334  13.450  1.00  0.00     0.049 A 
ATOM     41  N   UNL     1      -5.692  -5.073  15.400  1.00  0.00    -0.248 NA
ATOM     42  C   UNL     1      -4.454  -3.202  16.043  1.00  0.00     0.031 C 
ATOM     43  C   UNL     1      -7.937  -2.534  12.471  1.00  0.00     0.029 A 
ATOM     44  N   UNL     1      -7.754  -4.583  13.345  1.00  0.00    -0.354 N 
ATOM     45  C   UNL     1      -4.779  -5.439  16.382  1.00  0.00     0.074 A 
ATOM     46  C   UNL     1      -3.999  -4.262  16.694  1.00  0.00     0.031 C 
ATOM     47  C   UNL     1      -8.877  -3.302  11.897  1.00  0.00     0.029 A 
ATOM     48  C   UNL     1      -8.778  -4.657  12.431  1.00  0.00     0.049 A 
ATOM     49  H   UNL     1      -7.448  -5.355  13.875  1.00  0.00     0.167 HD
ATOM     50  C   UNL     1      -4.626  -6.639  16.989  1.00  0.00     0.034 A 
ATOM     51  C   UNL     1      -9.549  -5.700  12.062  1.00  0.00     0.034 A 
ATOM     52  C   UNL     1      -5.422  -7.799  16.684  1.00  0.00     0.049 A 
ATOM     53  C   UNL     1      -9.319  -7.040  12.711  1.00  0.00     0.074 A 
ATOM     54  C   UNL     1      -5.370  -9.054  17.264  1.00  0.00     0.029 A 
ATOM     55  N   UNL     1      -6.416  -7.847  15.716  1.00  0.00    -0.354 N 
ATOM     56  N   UNL     1      -8.455  -7.365  13.645  1.00  0.00    -0.248 NA
ATOM     57  C   UNL     1     -10.164  -8.153  12.257  1.00  0.00     0.031 C 
ATOM     58  C   UNL     1      -6.288  -9.877  16.607  1.00  0.00     0.029 A 
ATOM     59  C   UNL     1      -6.962  -9.119  15.662  1.00  0.00     0.049 A 
ATOM     60  H   UNL     1      -6.693  -7.089  15.152  1.00  0.00     0.167 HD
ATOM     61  C   UNL     1      -8.666  -8.716  13.902  1.00  0.00     0.074 A 
ATOM     62  C   UNL     1      -9.745  -9.143  13.034  1.00  0.00     0.031 C 
ATOM     63  C   UNL     1      -8.026  -9.530  14.778  1.00  0.00     0.034 A 
BRANCH  50  64
ATOM     64  C   UNL     1      -3.556  -6.759  18.042  1.00  0.00     0.023 A 
ATOM     65  C   UNL     1      -3.657  -6.078  19.267  1.00  0.00     0.031 A 
ATOM     66  C   UNL     1      -2.436  -7.582  17.831  1.00  0.00     0.131 A 
ATOM     67  C   UNL     1      -2.634  -6.198  20.219  1.00  0.00     0.055 A 
ATOM     68  C   UNL     1      -1.453  -7.748  18.808  1.00  0.00     0.041 A 
ATOM     69  F   UNL     1      -2.281  -8.239  16.671  1.00  0.00    -0.206 F 
ATOM     70  C   UNL     1      -1.546  -7.048  20.008  1.00  0.00     0.022 A 
BRANCH  67  71
ATOM     71  S   UNL     1      -2.707  -5.165  21.707  1.00  0.00     0.124 S 
ATOM     72  O   UNL     1      -2.590  -3.824  21.139  1.00  0.00    -0.237 OA
ATOM     73  O   UNL     1      -4.008  -5.508  22.269  1.00  0.00    -0.237 OA
ATOM     74  O   UNL     1      -1.554  -5.608  22.488  1.00  0.00    -0.744 OA
ENDBRANCH  67  71
ENDBRANCH  50  64
BRANCH  51  75
ATOM     75  C   UNL     1     -10.605  -5.521  11.027  1.00  0.00     0.023 A 
ATOM     76  C   UNL     1     -11.964  -5.621  11.362  1.00  0.00     0.031 A 
ATOM     77  C   UNL     1     -10.271  -5.251   9.688  1.00  0.00     0.131 A 
ATOM     78  C   UNL     1     -12.942  -5.476  10.365  1.00  0.00     0.055 A 
ATOM     79  C   UNL     1     -11.247  -5.066   8.708  1.00  0.00     0.041 A 
ATOM     80  F   UNL     1      -8.985  -5.139   9.319  1.00  0.00    -0.206 F 
ATOM     81  C   UNL     1     -12.593  -5.185   9.043  1.00  0.00     0.022 A 
BRANCH  78  82
ATOM     82  S   UNL     1     -14.684  -5.706  10.813  1.00  0.00     0.124 S 
ATOM     83  O   UNL     1     -14.701  -7.106  11.223  1.00  0.00    -0.237 OA
ATOM     84  O   UNL     1     -14.858  -4.722  11.876  1.00  0.00    -0.237 OA
ATOM     85  O   UNL     1     -15.396  -5.410   9.571  1.00  0.00    -0.744 OA
ENDBRANCH  78  82
ENDBRANCH  51  75
BRANCH  63  86
ATOM     86  C   UNL     1      -8.481 -10.963  14.856  1.00  0.00     0.023 A 
ATOM     87  C   UNL     1      -8.218 -11.868  13.815  1.00  0.00     0.031 A 
ATOM     88  C   UNL     1      -9.134 -11.439  16.006  1.00  0.00     0.131 A 
ATOM     89  C   UNL     1      -8.629 -13.203  13.934  1.00  0.00     0.055 A 
ATOM     90  C   UNL     1      -9.497 -12.779  16.140  1.00  0.00     0.041 A 
ATOM     91  F   UNL     1      -9.404 -10.613  17.030  1.00  0.00    -0.206 F 
ATOM     92  C   UNL     1      -9.250 -13.669  15.098  1.00  0.00     0.022 A 
BRANCH  89  93
ATOM     93  S   UNL     1      -8.372 -14.322  12.531  1.00  0.00     0.124 S 
ATOM     94  O   UNL     1      -9.220 -13.720  11.507  1.00  0.00    -0.237 OA
ATOM     95  O   UNL     1      -6.934 -14.222  12.307  1.00  0.00    -0.237 OA
ATOM     96  O   UNL     1      -8.830 -15.615  13.035  1.00  0.00    -0.744 OA
ENDBRANCH  89  93
ENDBRANCH  63  86
ENDBRANCH  37  38
ENDBRANCH  29  32
ENDBRANCH  27  28
ENDBRANCH  26  27
ENDBRANCH   1  26
TORSDOF 17
