REMARK SMILES C[C@@H](C(=O)NCCCCCCNC(=O)c1ccc(-c2c3nc(c(-c4cc(S(=O)(=O)[O-])ccc4F)c4ccc([nH]4)c(-c4cc(S(=O)(=O)[O-])ccc4F)c4nc(c(-c5cc(S(=O)(=O)[O-])ccc5F)c5ccc2[nH]5)C=C4)C=C3)cc1)c1ccc(-c2cccc(OC(=O)NCCCc3ccccc3)c2)c(F)c1
REMARK SMILES IDX 6 1 5 2 3 3 4 4 2 6 1 7 78 8 79 9 103 10 80 11 101 12 81 13
REMARK SMILES IDX 102 14 82 15 83 16 100 17 84 18 86 19 85 20 87 21 88 22
REMARK SMILES IDX 89 23 90 24 91 26 92 27 93 28 94 29 95 30 99 31 96 32 98 33
REMARK SMILES IDX 97 34 7 35 8 36 9 37 10 38 11 39 12 40 13 41 14 43 15 44
REMARK SMILES IDX 16 45 77 46 17 47 76 48 18 49 19 50 20 51 70 52 21 53 75 54
REMARK SMILES IDX 69 55 71 56 22 57 74 58 68 59 67 60 23 62 55 63 35 64 54 65
REMARK SMILES IDX 36 66 39 67 53 68 72 69 37 70 38 71 52 73 73 74 40 75 24 76
REMARK SMILES IDX 25 77 33 78 26 79 32 80 34 81 31 82 27 83 28 84 29 85 30 86
REMARK SMILES IDX 56 87 57 88 65 89 58 90 64 91 66 92 63 93 59 94 60 95 61 96
REMARK SMILES IDX 62 97 41 98 42 99 50 100 43 101 49 102 51 103 48 104 44 105
REMARK SMILES IDX 45 106 46 107 47 108
REMARK H PARENT 5 5 90 25 12 42 71 61 39 72
REMARK Flexibility Score: inf
ROOT
ATOM      1  C   UNL     1       3.399  -2.019   0.141  1.00  0.00     0.116 C 
ENDROOT
BRANCH   1   2
ATOM      2  N   UNL     1       2.280  -2.619   0.837  1.00  0.00    -0.356 N 
ATOM      3  C   UNL     1       0.987  -2.190   0.915  1.00  0.00     0.227 C 
ATOM      4  O   UNL     1       0.293  -2.674   1.810  1.00  0.00    -0.274 OA
ATOM      5  H   UNL     1       2.480  -3.453   1.321  1.00  0.00     0.163 HD
BRANCH   3   6
ATOM      6  C   UNL     1       0.455  -1.187  -0.130  1.00  0.00     0.105 C 
ATOM      7  C   UNL     1       0.975   0.223   0.181  1.00  0.00     0.023 C 
BRANCH   6   8
ATOM      8  C   UNL     1      -1.070  -1.246  -0.265  1.00  0.00    -0.033 A 
ATOM      9  C   UNL     1      -1.870  -0.093  -0.247  1.00  0.00     0.005 A 
ATOM     10  C   UNL     1      -1.715  -2.486  -0.409  1.00  0.00     0.044 A 
ATOM     11  C   UNL     1      -3.262  -0.178  -0.291  1.00  0.00     0.012 A 
ATOM     12  C   UNL     1      -3.107  -2.565  -0.435  1.00  0.00     0.131 A 
ATOM     13  C   UNL     1      -3.906  -1.419  -0.354  1.00  0.00     0.018 A 
ATOM     14  F   UNL     1      -3.674  -3.780  -0.507  1.00  0.00    -0.206 F 
BRANCH  13  15
ATOM     15  C   UNL     1      -5.362  -1.484  -0.212  1.00  0.00    -0.012 A 
ATOM     16  C   UNL     1      -6.222  -0.773  -1.064  1.00  0.00     0.009 A 
ATOM     17  C   UNL     1      -5.916  -2.194   0.865  1.00  0.00     0.056 A 
ATOM     18  C   UNL     1      -7.599  -0.757  -0.838  1.00  0.00     0.004 A 
ATOM     19  C   UNL     1      -7.284  -2.158   1.100  1.00  0.00     0.133 A 
ATOM     20  C   UNL     1      -8.131  -1.446   0.251  1.00  0.00     0.047 A 
BRANCH  19  21
ATOM     21  O   UNL     1      -7.917  -2.832   2.167  1.00  0.00    -0.410 OA
BRANCH  21  22
ATOM     22  C   UNL     1      -7.276  -3.392   3.269  1.00  0.00     0.412 C 
ATOM     23  O   UNL     1      -6.081  -3.354   3.524  1.00  0.00    -0.224 OA
ATOM     24  N   UNL     1      -8.144  -4.014   4.123  1.00  0.00    -0.321 N 
ATOM     25  H   UNL     1      -7.756  -4.538   4.860  1.00  0.00     0.167 HD
BRANCH  24  26
ATOM     26  C   UNL     1      -9.582  -3.964   4.031  1.00  0.00     0.120 C 
BRANCH  26  27
ATOM     27  C   UNL     1     -10.290  -5.213   4.550  1.00  0.00     0.026 C 
BRANCH  27  28
ATOM     28  C   UNL     1      -9.745  -5.886   5.815  1.00  0.00     0.037 C 
BRANCH  28  29
ATOM     29  C   UNL     1      -9.892  -5.224   7.166  1.00  0.00    -0.048 A 
ATOM     30  C   UNL     1     -10.098  -3.857   7.367  1.00  0.00     0.004 A 
ATOM     31  C   UNL     1      -9.743  -6.038   8.305  1.00  0.00     0.004 A 
ATOM     32  C   UNL     1     -10.142  -3.316   8.656  1.00  0.00     0.000 A 
ATOM     33  C   UNL     1      -9.799  -5.503   9.593  1.00  0.00     0.000 A 
ATOM     34  C   UNL     1      -9.993  -4.137   9.769  1.00  0.00     0.000 A 
ENDBRANCH  28  29
ENDBRANCH  27  28
ENDBRANCH  26  27
ENDBRANCH  24  26
ENDBRANCH  21  22
ENDBRANCH  19  21
ENDBRANCH  13  15
ENDBRANCH   6   8
ENDBRANCH   3   6
ENDBRANCH   1   2
BRANCH   1  35
ATOM     35  C   UNL     1       4.221  -1.174   1.119  1.00  0.00     0.021 C 
BRANCH  35  36
ATOM     36  C   UNL     1       4.951  -2.002   2.184  1.00  0.00     0.002 C 
BRANCH  36  37
ATOM     37  C   UNL     1       5.916  -3.050   1.623  1.00  0.00     0.002 C 
BRANCH  37  38
ATOM     38  C   UNL     1       6.951  -2.494   0.644  1.00  0.00     0.021 C 
BRANCH  38  39
ATOM     39  C   UNL     1       7.846  -1.416   1.240  1.00  0.00     0.116 C 
BRANCH  39  40
ATOM     40  N   UNL     1       8.699  -1.948   2.292  1.00  0.00    -0.352 N 
ATOM     41  C   UNL     1      10.069  -1.899   2.384  1.00  0.00     0.251 C 
ATOM     42  H   UNL     1       8.234  -2.400   3.033  1.00  0.00     0.163 HD
ATOM     43  O   UNL     1      10.662  -2.590   3.204  1.00  0.00    -0.269 OA
BRANCH  41  44
ATOM     44  C   UNL     1      10.808  -1.018   1.457  1.00  0.00     0.039 A 
ATOM     45  C   UNL     1      11.893  -1.528   0.741  1.00  0.00     0.014 A 
ATOM     46  C   UNL     1      10.384   0.299   1.266  1.00  0.00     0.014 A 
ATOM     47  C   UNL     1      12.517  -0.729  -0.220  1.00  0.00     0.010 A 
ATOM     48  C   UNL     1      10.953   1.062   0.255  1.00  0.00     0.010 A 
ATOM     49  C   UNL     1      12.029   0.558  -0.495  1.00  0.00    -0.014 A 
BRANCH  49  50
ATOM     50  C   UNL     1      12.633   1.426  -1.538  1.00  0.00     0.031 A 
ATOM     51  C   UNL     1      13.238   2.742  -1.137  1.00  0.00     0.074 A 
ATOM     52  C   UNL     1      12.538   1.091  -2.839  1.00  0.00     0.049 A 
ATOM     53  N   UNL     1      13.641   3.735  -1.886  1.00  0.00    -0.248 NA
ATOM     54  C   UNL     1      13.357   2.986   0.308  1.00  0.00     0.031 C 
ATOM     55  C   UNL     1      11.949  -0.146  -3.353  1.00  0.00     0.029 A 
ATOM     56  N   UNL     1      12.908   1.778  -3.969  1.00  0.00    -0.354 N 
ATOM     57  C   UNL     1      14.035   4.734  -1.002  1.00  0.00     0.074 A 
ATOM     58  C   UNL     1      13.755   4.247   0.332  1.00  0.00     0.031 C 
ATOM     59  C   UNL     1      11.996  -0.130  -4.694  1.00  0.00     0.029 A 
ATOM     60  C   UNL     1      12.563   1.141  -5.138  1.00  0.00     0.049 A 
ATOM     61  H   UNL     1      13.375   2.644  -3.945  1.00  0.00     0.167 HD
ATOM     62  C   UNL     1      14.595   5.939  -1.280  1.00  0.00     0.034 A 
ATOM     63  C   UNL     1      12.656   1.547  -6.421  1.00  0.00     0.034 A 
ATOM     64  C   UNL     1      14.868   6.396  -2.621  1.00  0.00     0.049 A 
ATOM     65  C   UNL     1      13.245   2.902  -6.718  1.00  0.00     0.074 A 
ATOM     66  C   UNL     1      15.486   7.567  -3.022  1.00  0.00     0.029 A 
ATOM     67  N   UNL     1      14.523   5.712  -3.781  1.00  0.00    -0.354 N 
ATOM     68  N   UNL     1      13.654   3.825  -5.877  1.00  0.00    -0.248 NA
ATOM     69  C   UNL     1      13.394   3.271  -8.132  1.00  0.00     0.031 C 
ATOM     70  C   UNL     1      15.437   7.631  -4.419  1.00  0.00     0.029 A 
ATOM     71  C   UNL     1      14.879   6.454  -4.896  1.00  0.00     0.049 A 
ATOM     72  H   UNL     1      14.089   4.829  -3.807  1.00  0.00     0.167 HD
ATOM     73  C   UNL     1      14.142   4.867  -6.661  1.00  0.00     0.074 A 
ATOM     74  C   UNL     1      13.970   4.462  -8.041  1.00  0.00     0.031 C 
ATOM     75  C   UNL     1      14.699   6.042  -6.270  1.00  0.00     0.034 A 
BRANCH  62  76
ATOM     76  C   UNL     1      14.897   6.847  -0.109  1.00  0.00     0.023 A 
ATOM     77  C   UNL     1      15.755   6.450   0.933  1.00  0.00     0.031 A 
ATOM     78  C   UNL     1      14.264   8.097   0.006  1.00  0.00     0.131 A 
ATOM     79  C   UNL     1      15.858   7.233   2.092  1.00  0.00     0.055 A 
ATOM     80  C   UNL     1      14.458   8.922   1.116  1.00  0.00     0.041 A 
ATOM     81  F   UNL     1      13.418   8.527  -0.943  1.00  0.00    -0.206 F 
ATOM     82  C   UNL     1      15.238   8.481   2.180  1.00  0.00     0.022 A 
BRANCH  79  83
ATOM     83  S   UNL     1      16.635   6.499   3.558  1.00  0.00     0.124 S 
ATOM     84  O   UNL     1      15.846   5.280   3.730  1.00  0.00    -0.237 OA
ATOM     85  O   UNL     1      18.014   6.312   3.124  1.00  0.00    -0.237 OA
ATOM     86  O   UNL     1      16.435   7.510   4.594  1.00  0.00    -0.744 OA
ENDBRANCH  79  83
ENDBRANCH  62  76
BRANCH  63  87
ATOM     87  C   UNL     1      12.147   0.667  -7.512  1.00  0.00     0.023 A 
ATOM     88  C   UNL     1      13.018   0.075  -8.439  1.00  0.00     0.031 A 
ATOM     89  C   UNL     1      10.771   0.395  -7.631  1.00  0.00     0.131 A 
ATOM     90  C   UNL     1      12.502  -0.742  -9.458  1.00  0.00     0.055 A 
ATOM     91  C   UNL     1      10.269  -0.456  -8.616  1.00  0.00     0.041 A 
ATOM     92  F   UNL     1       9.896   0.932  -6.765  1.00  0.00    -0.206 F 
ATOM     93  C   UNL     1      11.137  -1.025  -9.542  1.00  0.00     0.022 A 
BRANCH  90  94
ATOM     94  S   UNL     1      13.640  -1.397 -10.710  1.00  0.00     0.124 S 
ATOM     95  O   UNL     1      14.164  -0.172 -11.303  1.00  0.00    -0.237 OA
ATOM     96  O   UNL     1      14.574  -2.169  -9.898  1.00  0.00    -0.237 OA
ATOM     97  O   UNL     1      12.771  -2.189 -11.578  1.00  0.00    -0.744 OA
ENDBRANCH  90  94
ENDBRANCH  63  87
BRANCH  75  98
ATOM     98  C   UNL     1      15.233   6.957  -7.346  1.00  0.00     0.023 A 
ATOM     99  C   UNL     1      14.391   7.646  -8.234  1.00  0.00     0.031 A 
ATOM    100  C   UNL     1      16.620   7.182  -7.438  1.00  0.00     0.131 A 
ATOM    101  C   UNL     1      14.946   8.511  -9.192  1.00  0.00     0.055 A 
ATOM    102  C   UNL     1      17.161   8.083  -8.354  1.00  0.00     0.041 A 
ATOM    103  F   UNL     1      17.470   6.545  -6.616  1.00  0.00    -0.206 F 
ATOM    104  C   UNL     1      16.323   8.749  -9.242  1.00  0.00     0.022 A 
BRANCH 101 105
ATOM    105  S   UNL     1      13.852   9.287 -10.413  1.00  0.00     0.124 S 
ATOM    106  O   UNL     1      13.290   8.127 -11.097  1.00  0.00    -0.237 OA
ATOM    107  O   UNL     1      12.929  10.042  -9.572  1.00  0.00    -0.237 OA
ATOM    108  O   UNL     1      14.761  10.102 -11.219  1.00  0.00    -0.744 OA
ENDBRANCH 101 105
ENDBRANCH  75  98
ENDBRANCH  49  50
ENDBRANCH  41  44
ENDBRANCH  39  40
ENDBRANCH  38  39
ENDBRANCH  37  38
ENDBRANCH  36  37
ENDBRANCH  35  36
ENDBRANCH   1  35
TORSDOF 24
