REMARK SMILES C[C@@H]1CCC[C@H](C)N1C(=O)Cn1cccc1C(=O)NCCCCCCNC(=O)c1ccc(-c2c3nc(c(-c4cc(S(=O)(=O)[O-])ccc4F)c4ccc([nH]4)c(-c4cc(S(=O)(=O)[O-])ccc4F)c4nc(c(-c5cc(S(=O)(=O)[O-])ccc5F)c5ccc2[nH]5)C=C4)C=C3)cc1
REMARK SMILES IDX 22 1 21 2 20 3 19 4 17 5 18 6 16 8 12 9 13 10 14 11 15 12
REMARK SMILES IDX 11 13 9 14 10 15 8 16 1 17 2 18 3 19 4 20 6 21 5 22 7 23
REMARK SMILES IDX 23 24 24 25 25 26 26 27 27 28 28 30 29 31 30 32 91 33 31 34
REMARK SMILES IDX 90 35 32 36 33 37 34 38 84 39 35 40 89 41 83 42 85 43 36 44
REMARK SMILES IDX 88 45 82 46 81 47 37 49 69 50 49 51 68 52 50 53 53 54 67 55
REMARK SMILES IDX 86 56 51 57 52 58 66 60 87 61 54 62 38 63 39 64 47 65 40 66
REMARK SMILES IDX 46 67 48 68 45 69 41 70 42 71 43 72 44 73 70 74 71 75 79 76
REMARK SMILES IDX 72 77 78 78 80 79 77 80 73 81 74 82 75 83 76 84 55 85 56 86
REMARK SMILES IDX 64 87 57 88 63 89 65 90 62 91 58 92 59 93 60 94 61 95
REMARK H PARENT 19 7 26 29 85 48 53 59
REMARK Flexibility Score: inf
ROOT
ATOM      1  C   UNL     1      -2.978   2.592   0.803  1.00  0.00     0.002 C 
ENDROOT
BRANCH   1   2
ATOM      2  C   UNL     1      -1.663   2.566   1.580  1.00  0.00     0.021 C 
BRANCH   2   3
ATOM      3  C   UNL     1      -1.515   1.873   2.953  1.00  0.00     0.116 C 
BRANCH   3   4
ATOM      4  N   UNL     1      -1.183   0.441   2.955  1.00  0.00    -0.351 N 
ATOM      5  C   UNL     1      -0.197  -0.446   3.322  1.00  0.00     0.267 C 
ATOM      6  O   UNL     1      -0.664  -1.595   3.392  1.00  0.00    -0.268 OA
ATOM      7  H   UNL     1      -1.929  -0.060   2.551  1.00  0.00     0.163 HD
BRANCH   5   8
ATOM      8  C   UNL     1       1.221  -0.259   3.657  1.00  0.00     0.107 A 
ATOM      9  N   UNL     1       2.221   0.642   3.325  1.00  0.00    -0.334 N 
ATOM     10  C   UNL     1       3.373   0.365   4.062  1.00  0.00     0.087 A 
ATOM     11  C   UNL     1       3.258  -0.897   4.574  1.00  0.00     0.020 A 
ATOM     12  C   UNL     1       1.933  -1.288   4.311  1.00  0.00     0.033 A 
BRANCH   9  13
ATOM     13  C   UNL     1       2.347   1.619   2.251  1.00  0.00     0.222 C 
BRANCH  13  14
ATOM     14  C   UNL     1       1.331   1.606   1.136  1.00  0.00     0.242 C 
ATOM     15  O   UNL     1       0.914   2.699   0.747  1.00  0.00    -0.273 OA
BRANCH  14  16
ATOM     16  N   UNL     1       1.088   0.401   0.458  1.00  0.00    -0.336 N 
ATOM     17  C   UNL     1       2.622   0.614  -1.433  1.00  0.00     0.031 C 
ATOM     18  C   UNL     1       2.257  -0.193  -0.183  1.00  0.00     0.082 C 
ATOM     19  C   UNL     1       2.116  -1.703  -0.384  1.00  0.00     0.025 C 
ATOM     20  C   UNL     1       0.766  -2.158  -0.922  1.00  0.00     0.004 C 
ATOM     21  C   UNL     1      -0.251  -0.046  -0.045  1.00  0.00     0.082 C 
ATOM     22  C   UNL     1      -0.344  -1.574  -0.073  1.00  0.00     0.025 C 
ATOM     23  C   UNL     1      -0.753   0.548  -1.367  1.00  0.00     0.031 C 
ENDBRANCH  14  16
ENDBRANCH  13  14
ENDBRANCH   9  13
ENDBRANCH   5   8
ENDBRANCH   3   4
ENDBRANCH   2   3
ENDBRANCH   1   2
BRANCH   1  24
ATOM     24  C   UNL     1      -3.938   3.668   1.285  1.00  0.00     0.002 C 
BRANCH  24  25
ATOM     25  C   UNL     1      -3.387   5.107   1.201  1.00  0.00     0.021 C 
BRANCH  25  26
ATOM     26  C   UNL     1      -2.917   5.545  -0.192  1.00  0.00     0.116 C 
BRANCH  26  27
ATOM     27  N   UNL     1      -4.006   5.388  -1.143  1.00  0.00    -0.352 N 
ATOM     28  C   UNL     1      -4.313   6.190  -2.196  1.00  0.00     0.251 C 
ATOM     29  H   UNL     1      -4.590   4.606  -1.009  1.00  0.00     0.163 HD
ATOM     30  O   UNL     1      -5.494   6.341  -2.535  1.00  0.00    -0.269 OA
BRANCH  28  31
ATOM     31  C   UNL     1      -3.235   6.778  -2.993  1.00  0.00     0.039 A 
ATOM     32  C   UNL     1      -3.447   8.012  -3.615  1.00  0.00     0.014 A 
ATOM     33  C   UNL     1      -2.085   6.014  -3.246  1.00  0.00     0.014 A 
ATOM     34  C   UNL     1      -2.497   8.487  -4.499  1.00  0.00     0.010 A 
ATOM     35  C   UNL     1      -1.132   6.487  -4.122  1.00  0.00     0.010 A 
ATOM     36  C   UNL     1      -1.351   7.717  -4.744  1.00  0.00    -0.014 A 
BRANCH  36  37
ATOM     37  C   UNL     1      -0.268   8.305  -5.540  1.00  0.00     0.031 A 
ATOM     38  C   UNL     1       0.530   9.304  -4.631  1.00  0.00     0.074 A 
ATOM     39  C   UNL     1      -0.242   7.875  -6.847  1.00  0.00     0.049 A 
ATOM     40  N   UNL     1       1.166  10.397  -4.918  1.00  0.00    -0.248 NA
ATOM     41  C   UNL     1       0.538   9.102  -3.143  1.00  0.00     0.031 C 
ATOM     42  C   UNL     1      -1.124   6.824  -7.442  1.00  0.00     0.029 A 
ATOM     43  N   UNL     1       0.508   8.197  -7.952  1.00  0.00    -0.354 N 
ATOM     44  C   UNL     1       1.855  10.833  -3.752  1.00  0.00     0.074 A 
ATOM     45  C   UNL     1       1.309  10.085  -2.667  1.00  0.00     0.031 C 
ATOM     46  C   UNL     1      -0.940   6.709  -8.781  1.00  0.00     0.029 A 
ATOM     47  C   UNL     1       0.074   7.651  -9.204  1.00  0.00     0.049 A 
ATOM     48  H   UNL     1       1.303   8.773  -7.887  1.00  0.00     0.167 HD
ATOM     49  C   UNL     1       2.938  11.673  -3.799  1.00  0.00     0.034 A 
ATOM     50  C   UNL     1       0.474   8.011 -10.471  1.00  0.00     0.034 A 
ATOM     51  C   UNL     1       3.168  12.034  -5.156  1.00  0.00     0.049 A 
ATOM     52  C   UNL     1       1.544   8.983 -10.195  1.00  0.00     0.074 A 
ATOM     53  C   UNL     1       2.495  12.874  -5.999  1.00  0.00     0.029 A 
ATOM     54  N   UNL     1       3.972  11.193  -5.891  1.00  0.00    -0.354 N 
ATOM     55  N   UNL     1       2.708   8.682  -9.710  1.00  0.00    -0.248 NA
ATOM     56  C   UNL     1       1.228  10.412 -10.301  1.00  0.00     0.031 C 
ATOM     57  C   UNL     1       2.449  12.112  -7.182  1.00  0.00     0.029 A 
ATOM     58  C   UNL     1       3.373  11.058  -7.117  1.00  0.00     0.049 A 
ATOM     59  H   UNL     1       4.811  10.771  -5.595  1.00  0.00     0.167 HD
ATOM     60  C   UNL     1       3.121   9.864  -9.153  1.00  0.00     0.074 A 
ATOM     61  C   UNL     1       2.354  10.911  -9.801  1.00  0.00     0.031 C 
ATOM     62  C   UNL     1       3.661   9.882  -7.905  1.00  0.00     0.034 A 
BRANCH  49  63
ATOM     63  C   UNL     1       4.019  12.092  -2.830  1.00  0.00     0.023 A 
ATOM     64  C   UNL     1       4.857  13.154  -3.268  1.00  0.00     0.031 A 
ATOM     65  C   UNL     1       4.490  11.337  -1.753  1.00  0.00     0.131 A 
ATOM     66  C   UNL     1       6.163  13.310  -2.789  1.00  0.00     0.055 A 
ATOM     67  C   UNL     1       5.773  11.550  -1.213  1.00  0.00     0.041 A 
ATOM     68  F   UNL     1       3.777  10.323  -1.245  1.00  0.00    -0.206 F 
ATOM     69  C   UNL     1       6.633  12.505  -1.761  1.00  0.00     0.022 A 
BRANCH  66  70
ATOM     70  S   UNL     1       7.272  14.433  -3.693  1.00  0.00     0.124 S 
ATOM     71  O   UNL     1       7.200  13.909  -5.053  1.00  0.00    -0.237 OA
ATOM     72  O   UNL     1       6.638  15.730  -3.475  1.00  0.00    -0.237 OA
ATOM     73  O   UNL     1       8.558  14.251  -3.024  1.00  0.00    -0.744 OA
ENDBRANCH  66  70
ENDBRANCH  49  63
BRANCH  50  74
ATOM     74  C   UNL     1       0.082   7.864 -11.944  1.00  0.00     0.023 A 
ATOM     75  C   UNL     1      -0.894   7.017 -12.502  1.00  0.00     0.031 A 
ATOM     76  C   UNL     1       0.686   8.756 -12.892  1.00  0.00     0.131 A 
ATOM     77  C   UNL     1      -1.288   7.175 -13.871  1.00  0.00     0.055 A 
ATOM     78  C   UNL     1       0.225   8.980 -14.189  1.00  0.00     0.041 A 
ATOM     79  F   UNL     1       1.773   9.483 -12.594  1.00  0.00    -0.206 F 
ATOM     80  C   UNL     1      -0.790   8.200 -14.681  1.00  0.00     0.022 A 
BRANCH  77  81
ATOM     81  S   UNL     1      -2.484   6.050 -14.665  1.00  0.00     0.124 S 
ATOM     82  O   UNL     1      -1.632   4.935 -15.064  1.00  0.00    -0.237 OA
ATOM     83  O   UNL     1      -3.436   5.781 -13.593  1.00  0.00    -0.237 OA
ATOM     84  O   UNL     1      -3.017   6.845 -15.772  1.00  0.00    -0.744 OA
ENDBRANCH  77  81
ENDBRANCH  50  74
BRANCH  62  85
ATOM     85  C   UNL     1       4.180   8.529  -7.391  1.00  0.00     0.023 A 
ATOM     86  C   UNL     1       5.100   7.790  -8.161  1.00  0.00     0.031 A 
ATOM     87  C   UNL     1       3.722   7.885  -6.223  1.00  0.00     0.131 A 
ATOM     88  C   UNL     1       5.490   6.486  -7.789  1.00  0.00     0.055 A 
ATOM     89  C   UNL     1       4.109   6.589  -5.846  1.00  0.00     0.041 A 
ATOM     90  F   UNL     1       2.870   8.484  -5.394  1.00  0.00    -0.206 F 
ATOM     91  C   UNL     1       4.999   5.879  -6.634  1.00  0.00     0.022 A 
BRANCH  88  92
ATOM     92  S   UNL     1       6.672   5.585  -8.829  1.00  0.00     0.124 S 
ATOM     93  O   UNL     1       5.896   5.312 -10.033  1.00  0.00    -0.237 OA
ATOM     94  O   UNL     1       7.761   6.546  -8.971  1.00  0.00    -0.237 OA
ATOM     95  O   UNL     1       7.001   4.405  -8.028  1.00  0.00    -0.744 OA
ENDBRANCH  88  92
ENDBRANCH  62  85
ENDBRANCH  36  37
ENDBRANCH  28  31
ENDBRANCH  26  27
ENDBRANCH  25  26
ENDBRANCH  24  25
ENDBRANCH   1  24
TORSDOF 19
