REMARK SMILES C=CC[N@@H+]1C[C@@H](C(=O)NCCCCCCNC(=O)c2ccc(-c3c4nc(c(-c5cc(S(=O)(=O)[O-])ccc5F)c5ccc([nH]5)c(-c5cc(S(=O)(=O)[O-])ccc5F)c5nc(c(-c6cc(S(=O)(=O)[O-])ccc6F)c6ccc3[nH]6)C=C5)C=C4)cc2)C2(CC[NH+](C)CC2)C1
REMARK SMILES IDX 13 1 12 2 11 3 10 4 9 5 7 6 8 7 6 9 4 10 5 11 89 12 82 14
REMARK SMILES IDX 83 15 88 16 84 17 87 18 85 19 86 20 3 22 2 23 1 24 14 25
REMARK SMILES IDX 15 26 16 27 17 28 18 30 19 31 20 32 81 33 21 34 80 35 22 36
REMARK SMILES IDX 23 37 24 38 74 39 25 40 79 41 73 42 75 43 26 44 78 45 72 46
REMARK SMILES IDX 71 47 27 49 59 50 39 51 58 52 40 53 43 54 57 55 76 56 41 57
REMARK SMILES IDX 42 58 56 60 77 61 44 62 28 63 29 64 37 65 30 66 36 67 38 68
REMARK SMILES IDX 35 69 31 70 32 71 33 72 34 73 60 74 61 75 69 76 62 77 68 78
REMARK SMILES IDX 70 79 67 80 63 81 64 82 65 83 66 84 45 85 46 86 54 87 47 88
REMARK SMILES IDX 53 89 55 90 52 91 48 92 49 93 50 94 51 95
REMARK H PARENT 9 8 4 13 85 21 16 29 75 48 43 59
REMARK Flexibility Score: inf
ROOT
ATOM      1  C   UNL     1       1.424  -5.688  -2.835  1.00  0.00     0.002 C 
ENDROOT
BRANCH   1   2
ATOM      2  C   UNL     1       0.335  -6.362  -2.001  1.00  0.00     0.002 C 
BRANCH   2   3
ATOM      3  C   UNL     1      -0.243  -5.506  -0.878  1.00  0.00     0.021 C 
BRANCH   3   4
ATOM      4  C   UNL     1      -0.900  -4.201  -1.328  1.00  0.00     0.116 C 
BRANCH   4   5
ATOM      5  N   UNL     1      -2.205  -4.396  -1.927  1.00  0.00    -0.356 N 
ATOM      6  C   UNL     1      -3.437  -3.914  -1.630  1.00  0.00     0.229 C 
ATOM      7  O   UNL     1      -4.337  -4.230  -2.422  1.00  0.00    -0.275 OA
ATOM      8  H   UNL     1      -2.196  -5.000  -2.705  1.00  0.00     0.163 HD
BRANCH   6   9
ATOM      9  C   UNL     1      -3.806  -3.032  -0.423  1.00  0.00     0.145 C 
ATOM     10  N   UNL     1      -2.028  -1.790   0.454  1.00  0.00    -0.331 N 
ATOM     11  C   UNL     1      -3.150  -1.658  -0.455  1.00  0.00     0.276 C 
ATOM     12  C   UNL     1      -2.364  -2.724   1.526  1.00  0.00     0.270 C 
ATOM     13  H   UNL     1      -1.258  -2.212  -0.066  1.00  0.00     0.348 HD
ATOM     14  C   UNL     1      -3.589  -3.539   1.029  1.00  0.00     0.047 C 
ATOM     15  C   UNL     1      -3.392  -5.059   1.157  1.00  0.00     0.075 C 
ATOM     16  C   UNL     1      -4.801  -3.159   1.935  1.00  0.00     0.075 C 
ATOM     17  C   UNL     1      -4.675  -5.856   0.904  1.00  0.00     0.262 C 
ATOM     18  C   UNL     1      -6.037  -4.042   1.721  1.00  0.00     0.262 C 
ATOM     19  N   UNL     1      -5.772  -5.480   1.800  1.00  0.00    -0.337 N 
ATOM     20  C   UNL     1      -5.546  -5.945   3.167  1.00  0.00     0.332 C 
ATOM     21  H   UNL     1      -6.616  -5.957   1.484  1.00  0.00     0.347 HD
BRANCH  10  22
ATOM     22  C   UNL     1      -1.376  -0.552   0.843  1.00  0.00     0.290 C 
BRANCH  22  23
ATOM     23  C   UNL     1       0.114  -0.732   0.800  1.00  0.00     0.025 C 
ATOM     24  C   UNL     1       0.942  -0.008   0.034  1.00  0.00     0.010 C 
ENDBRANCH  22  23
ENDBRANCH  10  22
ENDBRANCH   6   9
ENDBRANCH   4   5
ENDBRANCH   3   4
ENDBRANCH   2   3
ENDBRANCH   1   2
BRANCH   1  25
ATOM     25  C   UNL     1       2.555  -5.034  -2.035  1.00  0.00     0.021 C 
BRANCH  25  26
ATOM     26  C   UNL     1       3.252  -5.946  -1.030  1.00  0.00     0.116 C 
BRANCH  26  27
ATOM     27  N   UNL     1       3.854  -7.101  -1.668  1.00  0.00    -0.352 N 
ATOM     28  C   UNL     1       5.146  -7.551  -1.600  1.00  0.00     0.251 C 
ATOM     29  H   UNL     1       3.248  -7.638  -2.229  1.00  0.00     0.163 HD
ATOM     30  O   UNL     1       5.527  -8.424  -2.381  1.00  0.00    -0.269 OA
BRANCH  28  31
ATOM     31  C   UNL     1       6.080  -6.980  -0.607  1.00  0.00     0.039 A 
ATOM     32  C   UNL     1       7.383  -6.673  -1.006  1.00  0.00     0.014 A 
ATOM     33  C   UNL     1       5.685  -6.775   0.719  1.00  0.00     0.014 A 
ATOM     34  C   UNL     1       8.280  -6.130  -0.085  1.00  0.00     0.010 A 
ATOM     35  C   UNL     1       6.559  -6.169   1.619  1.00  0.00     0.010 A 
ATOM     36  C   UNL     1       7.872  -5.858   1.231  1.00  0.00    -0.014 A 
BRANCH  36  37
ATOM     37  C   UNL     1       8.822  -5.290   2.223  1.00  0.00     0.031 A 
ATOM     38  C   UNL     1       9.232  -6.104   3.420  1.00  0.00     0.074 A 
ATOM     39  C   UNL     1       9.283  -4.034   2.065  1.00  0.00     0.049 A 
ATOM     40  N   UNL     1      10.008  -5.776   4.421  1.00  0.00    -0.248 NA
ATOM     41  C   UNL     1       8.666  -7.458   3.518  1.00  0.00     0.031 C 
ATOM     42  C   UNL     1       8.921  -3.134   0.969  1.00  0.00     0.029 A 
ATOM     43  N   UNL     1      10.149  -3.295   2.830  1.00  0.00    -0.354 N 
ATOM     44  C   UNL     1      10.019  -6.878   5.270  1.00  0.00     0.074 A 
ATOM     45  C   UNL     1       9.111  -7.851   4.701  1.00  0.00     0.031 C 
ATOM     46  C   UNL     1       9.575  -1.971   1.122  1.00  0.00     0.029 A 
ATOM     47  C   UNL     1      10.372  -2.028   2.344  1.00  0.00     0.049 A 
ATOM     48  H   UNL     1      10.572  -3.639   3.650  1.00  0.00     0.167 HD
ATOM     49  C   UNL     1      10.741  -7.073   6.402  1.00  0.00     0.034 A 
ATOM     50  C   UNL     1      11.127  -1.024   2.831  1.00  0.00     0.034 A 
ATOM     51  C   UNL     1      11.645  -6.092   6.951  1.00  0.00     0.049 A 
ATOM     52  C   UNL     1      11.917  -1.256   4.094  1.00  0.00     0.074 A 
ATOM     53  C   UNL     1      12.451  -6.190   8.072  1.00  0.00     0.029 A 
ATOM     54  N   UNL     1      11.862  -4.825   6.420  1.00  0.00    -0.354 N 
ATOM     55  N   UNL     1      11.950  -2.320   4.864  1.00  0.00    -0.248 NA
ATOM     56  C   UNL     1      12.785  -0.161   4.542  1.00  0.00     0.031 C 
ATOM     57  C   UNL     1      13.106  -4.966   8.253  1.00  0.00     0.029 A 
ATOM     58  C   UNL     1      12.770  -4.127   7.201  1.00  0.00     0.049 A 
ATOM     59  H   UNL     1      11.432  -4.475   5.606  1.00  0.00     0.167 HD
ATOM     60  C   UNL     1      12.866  -2.031   5.872  1.00  0.00     0.074 A 
ATOM     61  C   UNL     1      13.373  -0.701   5.599  1.00  0.00     0.031 C 
ATOM     62  C   UNL     1      13.257  -2.795   6.924  1.00  0.00     0.034 A 
BRANCH  49  63
ATOM     63  C   UNL     1      10.554  -8.390   7.121  1.00  0.00     0.023 A 
ATOM     64  C   UNL     1      10.861  -9.616   6.503  1.00  0.00     0.031 A 
ATOM     65  C   UNL     1      10.018  -8.429   8.420  1.00  0.00     0.131 A 
ATOM     66  C   UNL     1      10.544 -10.824   7.142  1.00  0.00     0.055 A 
ATOM     67  C   UNL     1       9.790  -9.635   9.088  1.00  0.00     0.041 A 
ATOM     68  F   UNL     1       9.685  -7.295   9.057  1.00  0.00    -0.206 F 
ATOM     69  C   UNL     1      10.035 -10.843   8.441  1.00  0.00     0.022 A 
BRANCH  66  70
ATOM     70  S   UNL     1      10.650 -12.362   6.184  1.00  0.00     0.124 S 
ATOM     71  O   UNL     1       9.732 -12.085   5.083  1.00  0.00    -0.237 OA
ATOM     72  O   UNL     1      12.066 -12.421   5.838  1.00  0.00    -0.237 OA
ATOM     73  O   UNL     1      10.194 -13.383   7.125  1.00  0.00    -0.744 OA
ENDBRANCH  66  70
ENDBRANCH  49  63
BRANCH  50  74
ATOM     74  C   UNL     1      11.171   0.291   2.130  1.00  0.00     0.023 A 
ATOM     75  C   UNL     1      12.352   0.760   1.534  1.00  0.00     0.031 A 
ATOM     76  C   UNL     1      10.031   1.112   2.070  1.00  0.00     0.131 A 
ATOM     77  C   UNL     1      12.379   2.032   0.941  1.00  0.00     0.055 A 
ATOM     78  C   UNL     1      10.049   2.355   1.435  1.00  0.00     0.041 A 
ATOM     79  F   UNL     1       8.873   0.708   2.616  1.00  0.00    -0.206 F 
ATOM     80  C   UNL     1      11.233   2.827   0.877  1.00  0.00     0.022 A 
BRANCH  77  81
ATOM     81  S   UNL     1      13.960   2.668   0.319  1.00  0.00     0.124 S 
ATOM     82  O   UNL     1      14.788   2.632   1.518  1.00  0.00    -0.237 OA
ATOM     83  O   UNL     1      14.289   1.696  -0.719  1.00  0.00    -0.237 OA
ATOM     84  O   UNL     1      13.621   4.004  -0.168  1.00  0.00    -0.744 OA
ENDBRANCH  77  81
ENDBRANCH  50  74
BRANCH  62  85
ATOM     85  C   UNL     1      14.318  -2.220   7.830  1.00  0.00     0.023 A 
ATOM     86  C   UNL     1      14.078  -1.089   8.629  1.00  0.00     0.031 A 
ATOM     87  C   UNL     1      15.597  -2.805   7.879  1.00  0.00     0.131 A 
ATOM     88  C   UNL     1      15.118  -0.541   9.396  1.00  0.00     0.055 A 
ATOM     89  C   UNL     1      16.609  -2.292   8.692  1.00  0.00     0.041 A 
ATOM     90  F   UNL     1      15.883  -3.886   7.136  1.00  0.00    -0.206 F 
ATOM     91  C   UNL     1      16.377  -1.145   9.444  1.00  0.00     0.022 A 
BRANCH  88  92
ATOM     92  S   UNL     1      14.833   1.034  10.250  1.00  0.00     0.124 S 
ATOM     93  O   UNL     1      14.450   1.912   9.149  1.00  0.00    -0.237 OA
ATOM     94  O   UNL     1      13.771   0.691  11.191  1.00  0.00    -0.237 OA
ATOM     95  O   UNL     1      16.128   1.332  10.860  1.00  0.00    -0.744 OA
ENDBRANCH  88  92
ENDBRANCH  62  85
ENDBRANCH  36  37
ENDBRANCH  28  31
ENDBRANCH  26  27
ENDBRANCH  25  26
ENDBRANCH   1  25
TORSDOF 18
