REMARK SMILES Cc1cccc(OCC(=O)Nc2cc(C(=O)NCCCCCCNC(=O)c3ccc(-c4c5nc(c(-c6cc(S(=O)(=O)[O-])ccc6F)c6ccc([nH]6)c(-c6cc(S(=O)(=O)[O-])ccc6F)c6nc(c(-c7cc(S(=O)(=O)[O-])ccc7F)c7ccc4[nH]7)C=C6)C=C5)cc3)c(Cl)cc2Cl)c1
REMARK SMILES IDX 20 1 19 2 18 3 17 4 15 5 16 6 14 8 12 9 13 10 93 11 92 12
REMARK SMILES IDX 94 13 90 14 91 15 11 16 9 17 10 18 8 20 7 21 6 22 1 23 2 24
REMARK SMILES IDX 3 25 95 26 4 27 5 28 21 29 22 30 23 31 24 32 25 33 26 35
REMARK SMILES IDX 27 36 28 37 89 38 29 39 88 40 30 41 31 42 32 43 82 44 33 45
REMARK SMILES IDX 87 46 81 47 83 48 34 49 86 50 80 51 79 52 35 54 67 55 47 56
REMARK SMILES IDX 66 57 48 58 51 59 65 60 84 61 49 62 50 63 64 65 85 66 52 67
REMARK SMILES IDX 36 68 37 69 45 70 38 71 44 72 46 73 43 74 39 75 40 76 41 77
REMARK SMILES IDX 42 78 68 79 69 80 77 81 70 82 76 83 78 84 75 85 71 86 72 87
REMARK SMILES IDX 73 88 74 89 53 90 54 91 62 92 55 93 61 94 63 95 60 96 56 97
REMARK SMILES IDX 57 98 58 99 59 100
REMARK H PARENT 17 7 11 19 24 34 83 53 51 64
REMARK Flexibility Score: inf
ROOT
ATOM      1  C   UNL     1      -3.843  -2.028  -1.057  1.00  0.00     0.002 C 
ENDROOT
BRANCH   1   2
ATOM      2  C   UNL     1      -3.846  -1.238   0.268  1.00  0.00     0.021 C 
BRANCH   2   3
ATOM      3  C   UNL     1      -3.853   0.290   0.292  1.00  0.00     0.116 C 
BRANCH   3   4
ATOM      4  N   UNL     1      -5.153   0.922   0.360  1.00  0.00    -0.352 N 
ATOM      5  C   UNL     1      -5.535   2.086   0.992  1.00  0.00     0.252 C 
ATOM      6  O   UNL     1      -6.648   2.549   0.748  1.00  0.00    -0.269 OA
ATOM      7  H   UNL     1      -5.872   0.449  -0.117  1.00  0.00     0.163 HD
BRANCH   5   8
ATOM      8  C   UNL     1      -4.655   2.813   1.959  1.00  0.00     0.060 A 
ATOM      9  C   UNL     1      -2.506   3.852   2.534  1.00  0.00     0.061 A 
ATOM     10  C   UNL     1      -3.318   3.150   1.631  1.00  0.00     0.043 A 
ATOM     11  C   UNL     1      -3.082   4.280   3.751  1.00  0.00     0.066 A 
ATOM     12  C   UNL     1      -4.408   4.000   4.067  1.00  0.00     0.044 A 
ATOM     13  Cl  UNL     1      -2.169   5.208   4.899  1.00  0.00    -0.082 Cl
ATOM     14  C   UNL     1      -5.191   3.255   3.184  1.00  0.00     0.055 A 
ATOM     15  Cl  UNL     1      -6.799   2.901   3.719  1.00  0.00    -0.083 Cl
BRANCH   9  16
ATOM     16  N   UNL     1      -1.137   4.149   2.359  1.00  0.00    -0.322 N 
ATOM     17  C   UNL     1      -0.218   4.072   1.360  1.00  0.00     0.262 C 
ATOM     18  O   UNL     1       0.937   4.419   1.641  1.00  0.00    -0.271 OA
ATOM     19  H   UNL     1      -0.740   4.509   3.184  1.00  0.00     0.170 HD
BRANCH  17  20
ATOM     20  C   UNL     1      -0.566   3.697  -0.077  1.00  0.00     0.329 C 
BRANCH  20  21
ATOM     21  O   UNL     1      -0.833   2.341  -0.375  1.00  0.00    -0.484 OA
BRANCH  21  22
ATOM     22  C   UNL     1       0.119   1.425  -0.027  1.00  0.00     0.120 A 
ATOM     23  C   UNL     1       3.832   0.718   0.375  1.00  0.00     0.044 C 
ATOM     24  C   UNL     1       2.341   0.582   0.427  1.00  0.00    -0.047 A 
ATOM     25  C   UNL     1       1.793  -0.643   0.825  1.00  0.00     0.003 A 
ATOM     26  C   UNL     1       1.495   1.625   0.008  1.00  0.00     0.049 A 
ATOM     27  C   UNL     1       0.430  -0.866   0.725  1.00  0.00     0.004 A 
ATOM     28  C   UNL     1      -0.382   0.163   0.277  1.00  0.00     0.046 A 
ENDBRANCH  21  22
ENDBRANCH  20  21
ENDBRANCH  17  20
ENDBRANCH   9  16
ENDBRANCH   5   8
ENDBRANCH   3   4
ENDBRANCH   2   3
ENDBRANCH   1   2
BRANCH   1  29
ATOM     29  C   UNL     1      -3.602  -1.368  -2.422  1.00  0.00     0.002 C 
BRANCH  29  30
ATOM     30  C   UNL     1      -2.167  -1.043  -2.861  1.00  0.00     0.021 C 
BRANCH  30  31
ATOM     31  C   UNL     1      -1.162  -2.208  -2.883  1.00  0.00     0.116 C 
BRANCH  31  32
ATOM     32  N   UNL     1      -0.629  -2.495  -4.223  1.00  0.00    -0.352 N 
ATOM     33  C   UNL     1       0.517  -3.188  -4.596  1.00  0.00     0.251 C 
ATOM     34  H   UNL     1      -1.166  -2.144  -4.970  1.00  0.00     0.163 HD
ATOM     35  O   UNL     1       0.816  -3.381  -5.758  1.00  0.00    -0.269 OA
BRANCH  33  36
ATOM     36  C   UNL     1       1.347  -3.783  -3.526  1.00  0.00     0.039 A 
ATOM     37  C   UNL     1       1.448  -5.178  -3.470  1.00  0.00     0.014 A 
ATOM     38  C   UNL     1       1.810  -2.991  -2.485  1.00  0.00     0.014 A 
ATOM     39  C   UNL     1       1.761  -5.790  -2.258  1.00  0.00     0.010 A 
ATOM     40  C   UNL     1       2.065  -3.602  -1.273  1.00  0.00     0.010 A 
ATOM     41  C   UNL     1       1.944  -4.989  -1.133  1.00  0.00    -0.014 A 
BRANCH  41  42
ATOM     42  C   UNL     1       1.787  -5.477   0.236  1.00  0.00     0.031 A 
ATOM     43  C   UNL     1       2.933  -5.625   1.151  1.00  0.00     0.074 A 
ATOM     44  C   UNL     1       0.542  -5.716   0.706  1.00  0.00     0.049 A 
ATOM     45  N   UNL     1       2.948  -6.411   2.175  1.00  0.00    -0.248 NA
ATOM     46  C   UNL     1       4.185  -4.913   0.954  1.00  0.00     0.031 C 
ATOM     47  C   UNL     1       0.134  -5.928   2.093  1.00  0.00     0.029 A 
ATOM     48  N   UNL     1      -0.576  -6.072  -0.038  1.00  0.00    -0.354 N 
ATOM     49  C   UNL     1       4.060  -6.105   2.926  1.00  0.00     0.074 A 
ATOM     50  C   UNL     1       4.835  -5.223   2.081  1.00  0.00     0.031 C 
ATOM     51  C   UNL     1      -1.024  -6.607   2.106  1.00  0.00     0.029 A 
ATOM     52  C   UNL     1      -1.324  -6.973   0.734  1.00  0.00     0.049 A 
ATOM     53  H   UNL     1      -0.802  -5.750  -0.940  1.00  0.00     0.167 HD
ATOM     54  C   UNL     1       4.128  -6.520   4.226  1.00  0.00     0.034 A 
ATOM     55  C   UNL     1      -1.561  -8.243   0.293  1.00  0.00     0.034 A 
ATOM     56  C   UNL     1       2.978  -7.352   4.594  1.00  0.00     0.049 A 
ATOM     57  C   UNL     1      -1.026  -9.317   1.211  1.00  0.00     0.074 A 
ATOM     58  C   UNL     1       1.829  -7.105   5.330  1.00  0.00     0.029 A 
ATOM     59  N   UNL     1       2.784  -8.584   3.975  1.00  0.00    -0.354 N 
ATOM     60  N   UNL     1      -0.139  -9.118   2.146  1.00  0.00    -0.248 NA
ATOM     61  C   UNL     1      -1.447 -10.710   1.127  1.00  0.00     0.031 C 
ATOM     62  C   UNL     1       0.930  -8.183   5.122  1.00  0.00     0.029 A 
ATOM     63  C   UNL     1       1.536  -9.097   4.277  1.00  0.00     0.049 A 
ATOM     64  H   UNL     1       3.447  -9.030   3.400  1.00  0.00     0.167 HD
ATOM     65  C   UNL     1       0.158 -10.311   2.764  1.00  0.00     0.074 A 
ATOM     66  C   UNL     1      -0.715 -11.268   2.106  1.00  0.00     0.031 C 
ATOM     67  C   UNL     1       1.108 -10.391   3.750  1.00  0.00     0.034 A 
BRANCH  54  68
ATOM     68  C   UNL     1       5.076  -5.931   5.258  1.00  0.00     0.023 A 
ATOM     69  C   UNL     1       4.701  -5.924   6.621  1.00  0.00     0.031 A 
ATOM     70  C   UNL     1       6.316  -5.324   4.982  1.00  0.00     0.131 A 
ATOM     71  C   UNL     1       5.460  -5.245   7.595  1.00  0.00     0.055 A 
ATOM     72  C   UNL     1       7.042  -4.595   5.936  1.00  0.00     0.041 A 
ATOM     73  F   UNL     1       6.920  -5.460   3.796  1.00  0.00    -0.206 F 
ATOM     74  C   UNL     1       6.606  -4.538   7.250  1.00  0.00     0.022 A 
BRANCH  71  75
ATOM     75  S   UNL     1       4.928  -5.297   9.330  1.00  0.00     0.124 S 
ATOM     76  O   UNL     1       3.587  -4.726   9.261  1.00  0.00    -0.237 OA
ATOM     77  O   UNL     1       5.011  -6.721   9.635  1.00  0.00    -0.237 OA
ATOM     78  O   UNL     1       5.917  -4.464  10.012  1.00  0.00    -0.744 OA
ENDBRANCH  71  75
ENDBRANCH  54  68
BRANCH  55  79
ATOM     79  C   UNL     1      -1.655  -8.341  -1.193  1.00  0.00     0.023 A 
ATOM     80  C   UNL     1      -2.633  -7.544  -1.825  1.00  0.00     0.031 A 
ATOM     81  C   UNL     1      -0.604  -8.835  -1.976  1.00  0.00     0.131 A 
ATOM     82  C   UNL     1      -2.449  -7.113  -3.145  1.00  0.00     0.055 A 
ATOM     83  C   UNL     1      -0.466  -8.465  -3.320  1.00  0.00     0.041 A 
ATOM     84  F   UNL     1       0.373  -9.571  -1.425  1.00  0.00    -0.206 F 
ATOM     85  C   UNL     1      -1.363  -7.562  -3.897  1.00  0.00     0.022 A 
BRANCH  82  86
ATOM     86  S   UNL     1      -3.473  -5.740  -3.758  1.00  0.00     0.124 S 
ATOM     87  O   UNL     1      -4.584  -6.444  -4.386  1.00  0.00    -0.237 OA
ATOM     88  O   UNL     1      -3.795  -5.006  -2.536  1.00  0.00    -0.237 OA
ATOM     89  O   UNL     1      -2.581  -5.025  -4.666  1.00  0.00    -0.744 OA
ENDBRANCH  82  86
ENDBRANCH  55  79
BRANCH  67  90
ATOM     90  C   UNL     1       1.667 -11.663   4.378  1.00  0.00     0.023 A 
ATOM     91  C   UNL     1       1.363 -12.959   3.937  1.00  0.00     0.031 A 
ATOM     92  C   UNL     1       2.595 -11.603   5.450  1.00  0.00     0.131 A 
ATOM     93  C   UNL     1       1.889 -14.103   4.572  1.00  0.00     0.055 A 
ATOM     94  C   UNL     1       3.167 -12.737   6.041  1.00  0.00     0.041 A 
ATOM     95  F   UNL     1       3.009 -10.437   5.968  1.00  0.00    -0.206 F 
ATOM     96  C   UNL     1       2.804 -14.001   5.612  1.00  0.00     0.022 A 
BRANCH  93  97
ATOM     97  S   UNL     1       1.306 -15.731   4.025  1.00  0.00     0.124 S 
ATOM     98  O   UNL     1      -0.119 -15.660   4.334  1.00  0.00    -0.237 OA
ATOM     99  O   UNL     1       1.645 -15.722   2.605  1.00  0.00    -0.237 OA
ATOM    100  O   UNL     1       2.074 -16.667   4.842  1.00  0.00    -0.744 OA
ENDBRANCH  93  97
ENDBRANCH  67  90
ENDBRANCH  41  42
ENDBRANCH  33  36
ENDBRANCH  31  32
ENDBRANCH  30  31
ENDBRANCH  29  30
ENDBRANCH   1  29
TORSDOF 20
