REMARK SMILES C[N@@H+](CC(=O)NCCCCCCNC(=O)c1ccc(-c2c3nc(c(-c4cc(S(=O)(=O)[O-])ccc4F)c4ccc([nH]4)c(-c4cc(S(=O)(=O)[O-])ccc4F)c4nc(c(-c5cc(S(=O)(=O)[O-])ccc5F)c5ccc2[nH]5)C=C4)C=C3)cc1)Cc1csc(-c2ccco2)n1
REMARK SMILES IDX 9 1 8 2 7 3 6 4 4 5 5 6 3 8 2 9 1 10 79 12 80 13 81 14 89 15
REMARK SMILES IDX 82 16 83 17 84 18 85 19 88 20 86 21 87 22 10 23 11 24 12 25
REMARK SMILES IDX 13 26 14 27 15 29 16 30 17 31 78 32 18 33 77 34 19 35 20 36
REMARK SMILES IDX 21 37 71 38 22 39 76 40 70 41 72 42 23 43 75 44 69 45 68 46
REMARK SMILES IDX 24 48 56 49 36 50 55 51 37 52 40 53 54 54 73 55 38 56 39 57
REMARK SMILES IDX 53 59 74 60 41 61 25 62 26 63 34 64 27 65 33 66 35 67 32 68
REMARK SMILES IDX 28 69 29 70 30 71 31 72 57 73 58 74 66 75 59 76 65 77 67 78
REMARK SMILES IDX 64 79 60 80 61 81 62 82 63 83 42 84 43 85 51 86 44 87 50 88
REMARK SMILES IDX 52 89 49 90 45 91 46 92 47 93 48 94
REMARK H PARENT 6 7 2 11 13 28 72 47 40 58
REMARK Flexibility Score: inf
ROOT
ATOM      1  C   UNL     1       0.082   3.404  -1.733  1.00  0.00     0.002 C 
ENDROOT
BRANCH   1   2
ATOM      2  C   UNL     1       0.497   2.284  -0.780  1.00  0.00     0.021 C 
BRANCH   2   3
ATOM      3  C   UNL     1      -0.671   1.583  -0.093  1.00  0.00     0.116 C 
BRANCH   3   4
ATOM      4  N   UNL     1      -1.437   0.780  -1.023  1.00  0.00    -0.351 N 
ATOM      5  C   UNL     1      -1.504  -0.574  -1.155  1.00  0.00     0.275 C 
ATOM      6  O   UNL     1      -2.285  -1.033  -1.997  1.00  0.00    -0.269 OA
ATOM      7  H   UNL     1      -1.994   1.290  -1.656  1.00  0.00     0.163 HD
BRANCH   5   8
ATOM      8  C   UNL     1      -0.715  -1.507  -0.236  1.00  0.00     0.363 C 
BRANCH   8   9
ATOM      9  N   UNL     1       0.700  -1.693  -0.547  1.00  0.00    -0.325 N 
ATOM     10  C   UNL     1       1.681  -0.918   0.171  1.00  0.00     0.333 C 
ATOM     11  H   UNL     1       0.696  -2.572  -0.031  1.00  0.00     0.348 HD
BRANCH   9  12
ATOM     12  C   UNL     1       1.122  -2.252  -1.825  1.00  0.00     0.320 C 
BRANCH  12  13
ATOM     13  C   UNL     1       0.712  -1.470  -3.042  1.00  0.00     0.106 A 
ATOM     14  C   UNL     1      -0.133  -1.946  -4.031  1.00  0.00     0.097 A 
ATOM     15  N   UNL     1       1.192  -0.181  -3.275  1.00  0.00    -0.232 NA
ATOM     16  S   UNL     1      -0.446  -0.732  -5.190  1.00  0.00    -0.119 S 
ATOM     17  C   UNL     1       0.588   0.335  -4.330  1.00  0.00     0.159 A 
BRANCH  17  18
ATOM     18  C   UNL     1       0.738   1.701  -4.749  1.00  0.00     0.162 A 
ATOM     19  C   UNL     1       1.869   2.504  -4.729  1.00  0.00     0.053 A 
ATOM     20  O   UNL     1      -0.314   2.456  -5.219  1.00  0.00    -0.462 OA
ATOM     21  C   UNL     1       1.484   3.792  -5.185  1.00  0.00     0.043 A 
ATOM     22  C   UNL     1       0.140   3.711  -5.454  1.00  0.00     0.196 A 
ENDBRANCH  17  18
ENDBRANCH  12  13
ENDBRANCH   9  12
ENDBRANCH   8   9
ENDBRANCH   5   8
ENDBRANCH   3   4
ENDBRANCH   2   3
ENDBRANCH   1   2
BRANCH   1  23
ATOM     23  C   UNL     1      -0.488   4.657  -1.073  1.00  0.00     0.002 C 
BRANCH  23  24
ATOM     24  C   UNL     1       0.437   5.315  -0.049  1.00  0.00     0.021 C 
BRANCH  24  25
ATOM     25  C   UNL     1       1.846   5.612  -0.554  1.00  0.00     0.116 C 
BRANCH  25  26
ATOM     26  N   UNL     1       1.843   6.546  -1.670  1.00  0.00    -0.352 N 
ATOM     27  C   UNL     1       2.400   7.800  -1.749  1.00  0.00     0.251 C 
ATOM     28  H   UNL     1       1.377   6.237  -2.481  1.00  0.00     0.163 HD
ATOM     29  O   UNL     1       2.115   8.542  -2.681  1.00  0.00    -0.269 OA
BRANCH  27  30
ATOM     30  C   UNL     1       3.327   8.245  -0.686  1.00  0.00     0.039 A 
ATOM     31  C   UNL     1       3.153   9.504  -0.111  1.00  0.00     0.014 A 
ATOM     32  C   UNL     1       4.355   7.404  -0.249  1.00  0.00     0.014 A 
ATOM     33  C   UNL     1       3.977   9.896   0.948  1.00  0.00     0.010 A 
ATOM     34  C   UNL     1       5.119   7.763   0.858  1.00  0.00     0.010 A 
ATOM     35  C   UNL     1       4.944   9.017   1.463  1.00  0.00    -0.014 A 
BRANCH  35  36
ATOM     36  C   UNL     1       5.796   9.400   2.620  1.00  0.00     0.031 A 
ATOM     37  C   UNL     1       7.288   9.511   2.451  1.00  0.00     0.074 A 
ATOM     38  C   UNL     1       5.235   9.598   3.830  1.00  0.00     0.049 A 
ATOM     39  N   UNL     1       8.207   9.776   3.344  1.00  0.00    -0.248 NA
ATOM     40  C   UNL     1       7.819   9.259   1.102  1.00  0.00     0.031 C 
ATOM     41  C   UNL     1       3.806   9.477   4.128  1.00  0.00     0.029 A 
ATOM     42  N   UNL     1       5.796   9.937   5.036  1.00  0.00    -0.354 N 
ATOM     43  C   UNL     1       9.422   9.712   2.670  1.00  0.00     0.074 A 
ATOM     44  C   UNL     1       9.125   9.312   1.311  1.00  0.00     0.031 C 
ATOM     45  C   UNL     1       3.600   9.770   5.423  1.00  0.00     0.029 A 
ATOM     46  C   UNL     1       4.883  10.051   6.060  1.00  0.00     0.049 A 
ATOM     47  H   UNL     1       6.761  10.085   5.158  1.00  0.00     0.167 HD
ATOM     48  C   UNL     1      10.666   9.987   3.133  1.00  0.00     0.034 A 
ATOM     49  C   UNL     1       5.060  10.341   7.365  1.00  0.00     0.034 A 
ATOM     50  C   UNL     1      10.943  10.393   4.489  1.00  0.00     0.049 A 
ATOM     51  C   UNL     1       6.456  10.620   7.863  1.00  0.00     0.074 A 
ATOM     52  C   UNL     1      12.157  10.743   5.054  1.00  0.00     0.029 A 
ATOM     53  N   UNL     1       9.993  10.498   5.499  1.00  0.00    -0.354 N 
ATOM     54  N   UNL     1       7.590  10.605   7.199  1.00  0.00    -0.248 NA
ATOM     55  C   UNL     1       6.595  10.969   9.282  1.00  0.00     0.031 C 
ATOM     56  C   UNL     1      11.954  10.986   6.417  1.00  0.00     0.029 A 
ATOM     57  C   UNL     1      10.599  10.876   6.688  1.00  0.00     0.049 A 
ATOM     58  H   UNL     1       9.029  10.329   5.386  1.00  0.00     0.167 HD
ATOM     59  C   UNL     1       8.570  10.980   8.115  1.00  0.00     0.074 A 
ATOM     60  C   UNL     1       7.890  11.228   9.370  1.00  0.00     0.031 C 
ATOM     61  C   UNL     1       9.910  11.112   7.935  1.00  0.00     0.034 A 
BRANCH  48  62
ATOM     62  C   UNL     1      11.819   9.831   2.167  1.00  0.00     0.023 A 
ATOM     63  C   UNL     1      11.909  10.601   0.993  1.00  0.00     0.031 A 
ATOM     64  C   UNL     1      12.826   8.880   2.405  1.00  0.00     0.131 A 
ATOM     65  C   UNL     1      12.933  10.351   0.067  1.00  0.00     0.055 A 
ATOM     66  C   UNL     1      13.893   8.698   1.522  1.00  0.00     0.041 A 
ATOM     67  F   UNL     1      12.785   8.098   3.496  1.00  0.00    -0.206 F 
ATOM     68  C   UNL     1      13.942   9.425   0.336  1.00  0.00     0.022 A 
BRANCH  65  69
ATOM     69  S   UNL     1      12.838  11.144  -1.562  1.00  0.00     0.124 S 
ATOM     70  O   UNL     1      11.549  10.659  -2.051  1.00  0.00    -0.237 OA
ATOM     71  O   UNL     1      12.903  12.561  -1.228  1.00  0.00    -0.237 OA
ATOM     72  O   UNL     1      14.003  10.614  -2.269  1.00  0.00    -0.744 OA
ENDBRANCH  65  69
ENDBRANCH  48  62
BRANCH  49  73
ATOM     73  C   UNL     1       3.896  10.381   8.298  1.00  0.00     0.023 A 
ATOM     74  C   UNL     1       3.528  11.570   8.947  1.00  0.00     0.031 A 
ATOM     75  C   UNL     1       3.163   9.217   8.592  1.00  0.00     0.131 A 
ATOM     76  C   UNL     1       2.494  11.559   9.896  1.00  0.00     0.055 A 
ATOM     77  C   UNL     1       2.096   9.224   9.492  1.00  0.00     0.041 A 
ATOM     78  F   UNL     1       3.468   8.053   7.997  1.00  0.00    -0.206 F 
ATOM     79  C   UNL     1       1.766  10.398  10.162  1.00  0.00     0.022 A 
BRANCH  76  80
ATOM     80  S   UNL     1       2.175  13.069  10.852  1.00  0.00     0.124 S 
ATOM     81  O   UNL     1       3.473  13.305  11.473  1.00  0.00    -0.237 OA
ATOM     82  O   UNL     1       1.782  14.009   9.808  1.00  0.00    -0.237 OA
ATOM     83  O   UNL     1       1.107  12.672  11.767  1.00  0.00    -0.744 OA
ENDBRANCH  76  80
ENDBRANCH  49  73
BRANCH  61  84
ATOM     84  C   UNL     1      10.717  11.598   9.116  1.00  0.00     0.023 A 
ATOM     85  C   UNL     1      10.844  10.840  10.293  1.00  0.00     0.031 A 
ATOM     86  C   UNL     1      11.354  12.851   9.067  1.00  0.00     0.131 A 
ATOM     87  C   UNL     1      11.533  11.370  11.395  1.00  0.00     0.055 A 
ATOM     88  C   UNL     1      12.097  13.343  10.141  1.00  0.00     0.041 A 
ATOM     89  F   UNL     1      11.265  13.621   7.970  1.00  0.00    -0.206 F 
ATOM     90  C   UNL     1      12.176  12.608  11.319  1.00  0.00     0.022 A 
BRANCH  87  91
ATOM     91  S   UNL     1      11.483  10.468  12.968  1.00  0.00     0.124 S 
ATOM     92  O   UNL     1      10.048  10.369  13.216  1.00  0.00    -0.237 OA
ATOM     93  O   UNL     1      12.159   9.219  12.633  1.00  0.00    -0.237 OA
ATOM     94  O   UNL     1      12.213  11.340  13.887  1.00  0.00    -0.744 OA
ENDBRANCH  87  91
ENDBRANCH  61  84
ENDBRANCH  35  36
ENDBRANCH  27  30
ENDBRANCH  25  26
ENDBRANCH  24  25
ENDBRANCH  23  24
ENDBRANCH   1  23
TORSDOF 20
