REMARK SMILES O=C(NCCCCCCNC(=O)[C@@H]1CN(C(=O)[C@H]2CC=CCC2)c2ccccc2O1)c1ccc(-c2c3nc(c(-c4cc(S(=O)(=O)[O-])ccc4F)c4ccc([nH]4)c(-c4cc(S(=O)(=O)[O-])ccc4F)c4nc(c(-c5cc(S(=O)(=O)[O-])ccc5F)c5ccc2[nH]5)C=C4)C=C3)cc1
REMARK SMILES IDX 6 1 5 2 4 3 3 4 1 5 2 6 31 8 32 9 93 10 33 11 92 12 34 13
REMARK SMILES IDX 35 14 36 15 86 16 37 17 91 18 85 19 87 20 38 21 90 22 84 23
REMARK SMILES IDX 83 24 39 26 71 27 51 28 70 29 52 30 55 31 69 32 88 33 53 34
REMARK SMILES IDX 54 35 68 37 89 38 56 39 40 40 41 41 49 42 42 43 48 44 50 45
REMARK SMILES IDX 47 46 43 47 44 48 45 49 46 50 72 51 73 52 81 53 74 54 80 55
REMARK SMILES IDX 82 56 79 57 75 58 76 59 77 60 78 61 57 62 58 63 66 64 59 65
REMARK SMILES IDX 65 66 67 67 64 68 60 69 61 70 62 71 63 72 7 73 8 74 9 75
REMARK SMILES IDX 10 76 11 77 12 79 13 80 14 81 30 82 15 83 29 84 24 85 28 86
REMARK SMILES IDX 25 87 27 88 26 89 16 90 17 91 18 92 19 93 23 94 20 95 22 96
REMARK SMILES IDX 21 97
REMARK H PARENT 3 7 87 25 55 36 10 78
REMARK Flexibility Score: inf
ROOT
ATOM      1  C   UNL     1       3.604   1.014  -4.021  1.00  0.00     0.002 C 
ENDROOT
BRANCH   1   2
ATOM      2  C   UNL     1       4.276   0.225  -2.889  1.00  0.00     0.021 C 
BRANCH   2   3
ATOM      3  C   UNL     1       4.182   0.864  -1.506  1.00  0.00     0.116 C 
BRANCH   3   4
ATOM      4  N   UNL     1       2.822   0.848  -0.986  1.00  0.00    -0.352 N 
ATOM      5  O   UNL     1       1.021   0.022   0.082  1.00  0.00    -0.269 OA
ATOM      6  C   UNL     1       2.241   0.027  -0.045  1.00  0.00     0.251 C 
ATOM      7  H   UNL     1       2.225   1.531  -1.366  1.00  0.00     0.163 HD
BRANCH   6   8
ATOM      8  C   UNL     1       3.077  -0.853   0.807  1.00  0.00     0.039 A 
ATOM      9  C   UNL     1       4.267  -0.384   1.361  1.00  0.00     0.014 A 
ATOM     10  C   UNL     1       2.640  -2.149   1.103  1.00  0.00     0.014 A 
ATOM     11  C   UNL     1       5.090  -1.249   2.073  1.00  0.00     0.010 A 
ATOM     12  C   UNL     1       3.421  -2.987   1.912  1.00  0.00     0.010 A 
ATOM     13  C   UNL     1       4.668  -2.552   2.386  1.00  0.00    -0.014 A 
BRANCH  13  14
ATOM     14  C   UNL     1       5.523  -3.383   3.279  1.00  0.00     0.031 A 
ATOM     15  C   UNL     1       6.147  -4.668   2.806  1.00  0.00     0.074 A 
ATOM     16  C   UNL     1       5.790  -2.921   4.518  1.00  0.00     0.049 A 
ATOM     17  N   UNL     1       6.978  -5.460   3.438  1.00  0.00    -0.248 NA
ATOM     18  C   UNL     1       5.790  -5.130   1.458  1.00  0.00     0.031 C 
ATOM     19  C   UNL     1       5.222  -1.697   5.095  1.00  0.00     0.029 A 
ATOM     20  N   UNL     1       6.620  -3.392   5.503  1.00  0.00    -0.354 N 
ATOM     21  C   UNL     1       7.249  -6.510   2.567  1.00  0.00     0.074 A 
ATOM     22  C   UNL     1       6.452  -6.277   1.379  1.00  0.00     0.031 C 
ATOM     23  C   UNL     1       5.768  -1.482   6.299  1.00  0.00     0.029 A 
ATOM     24  C   UNL     1       6.660  -2.589   6.621  1.00  0.00     0.049 A 
ATOM     25  H   UNL     1       7.138  -4.225   5.419  1.00  0.00     0.167 HD
ATOM     26  C   UNL     1       8.095  -7.558   2.736  1.00  0.00     0.034 A 
ATOM     27  C   UNL     1       7.320  -2.733   7.786  1.00  0.00     0.034 A 
ATOM     28  C   UNL     1       8.870  -7.784   3.935  1.00  0.00     0.049 A 
ATOM     29  C   UNL     1       8.217  -3.929   7.962  1.00  0.00     0.074 A 
ATOM     30  C   UNL     1       9.757  -8.812   4.208  1.00  0.00     0.029 A 
ATOM     31  N   UNL     1       8.850  -6.976   5.066  1.00  0.00    -0.354 N 
ATOM     32  N   UNL     1       8.476  -4.898   7.114  1.00  0.00    -0.248 NA
ATOM     33  C   UNL     1       8.917  -4.045   9.245  1.00  0.00     0.031 C 
ATOM     34  C   UNL     1      10.217  -8.665   5.521  1.00  0.00     0.029 A 
ATOM     35  C   UNL     1       9.686  -7.498   6.044  1.00  0.00     0.049 A 
ATOM     36  H   UNL     1       8.319  -6.152   5.160  1.00  0.00     0.167 HD
ATOM     37  C   UNL     1       9.383  -5.731   7.761  1.00  0.00     0.074 A 
ATOM     38  C   UNL     1       9.656  -5.125   9.047  1.00  0.00     0.031 C 
ATOM     39  C   UNL     1       9.934  -6.897   7.334  1.00  0.00     0.034 A 
BRANCH  26  40
ATOM     40  C   UNL     1       8.206  -8.557   1.607  1.00  0.00     0.023 A 
ATOM     41  C   UNL     1       8.723  -8.194   0.351  1.00  0.00     0.031 A 
ATOM     42  C   UNL     1       7.800  -9.892   1.789  1.00  0.00     0.131 A 
ATOM     43  C   UNL     1       8.768  -9.136  -0.689  1.00  0.00     0.055 A 
ATOM     44  C   UNL     1       7.918 -10.844   0.773  1.00  0.00     0.041 A 
ATOM     45  F   UNL     1       7.280 -10.295   2.959  1.00  0.00    -0.206 F 
ATOM     46  C   UNL     1       8.394 -10.465  -0.479  1.00  0.00     0.022 A 
BRANCH  43  47
ATOM     47  S   UNL     1       9.208  -8.568  -2.355  1.00  0.00     0.124 S 
ATOM     48  O   UNL     1       8.178  -7.562  -2.607  1.00  0.00    -0.237 OA
ATOM     49  O   UNL     1      10.562  -8.060  -2.169  1.00  0.00    -0.237 OA
ATOM     50  O   UNL     1       9.101  -9.777  -3.170  1.00  0.00    -0.744 OA
ENDBRANCH  43  47
ENDBRANCH  26  40
BRANCH  27  51
ATOM     51  C   UNL     1       7.123  -1.750   8.892  1.00  0.00     0.023 A 
ATOM     52  C   UNL     1       8.194  -1.009   9.413  1.00  0.00     0.031 A 
ATOM     53  C   UNL     1       5.857  -1.580   9.483  1.00  0.00     0.131 A 
ATOM     54  C   UNL     1       7.992  -0.179  10.528  1.00  0.00     0.055 A 
ATOM     55  C   UNL     1       5.647  -0.700  10.544  1.00  0.00     0.041 A 
ATOM     56  F   UNL     1       4.796  -2.265   9.027  1.00  0.00    -0.206 F 
ATOM     57  C   UNL     1       6.723  -0.006  11.085  1.00  0.00     0.022 A 
BRANCH  54  58
ATOM     58  S   UNL     1       9.439   0.579  11.317  1.00  0.00     0.124 S 
ATOM     59  O   UNL     1      10.271  -0.586  11.594  1.00  0.00    -0.237 OA
ATOM     60  O   UNL     1       9.918   1.476  10.271  1.00  0.00    -0.237 OA
ATOM     61  O   UNL     1       8.877   1.239  12.493  1.00  0.00    -0.744 OA
ENDBRANCH  54  58
ENDBRANCH  27  51
BRANCH  39  62
ATOM     62  C   UNL     1      10.911  -7.566   8.273  1.00  0.00     0.023 A 
ATOM     63  C   UNL     1      10.510  -8.047   9.533  1.00  0.00     0.031 A 
ATOM     64  C   UNL     1      12.270  -7.674   7.928  1.00  0.00     0.131 A 
ATOM     65  C   UNL     1      11.469  -8.534  10.433  1.00  0.00     0.055 A 
ATOM     66  C   UNL     1      13.207  -8.231   8.800  1.00  0.00     0.041 A 
ATOM     67  F   UNL     1      12.712  -7.229   6.742  1.00  0.00    -0.206 F 
ATOM     68  C   UNL     1      12.812  -8.646  10.068  1.00  0.00     0.022 A 
BRANCH  65  69
ATOM     69  S   UNL     1      10.957  -8.891  12.137  1.00  0.00     0.124 S 
ATOM     70  O   UNL     1      10.396  -7.611  12.558  1.00  0.00    -0.237 OA
ATOM     71  O   UNL     1      10.000  -9.977  11.953  1.00  0.00    -0.237 OA
ATOM     72  O   UNL     1      12.205  -9.269  12.797  1.00  0.00    -0.744 OA
ENDBRANCH  65  69
ENDBRANCH  39  62
ENDBRANCH  13  14
ENDBRANCH   6   8
ENDBRANCH   3   4
ENDBRANCH   2   3
ENDBRANCH   1   2
BRANCH   1  73
ATOM     73  C   UNL     1       4.092   2.455  -4.215  1.00  0.00     0.002 C 
BRANCH  73  74
ATOM     74  C   UNL     1       5.589   2.579  -4.490  1.00  0.00     0.021 C 
BRANCH  74  75
ATOM     75  C   UNL     1       6.030   2.306  -5.923  1.00  0.00     0.116 C 
BRANCH  75  76
ATOM     76  N   UNL     1       6.093   3.546  -6.667  1.00  0.00    -0.353 N 
ATOM     77  C   UNL     1       7.131   4.418  -6.844  1.00  0.00     0.262 C 
ATOM     78  H   UNL     1       5.255   3.803  -7.116  1.00  0.00     0.163 HD
ATOM     79  O   UNL     1       6.874   5.436  -7.495  1.00  0.00    -0.271 OA
BRANCH  77  80
ATOM     80  C   UNL     1       8.569   4.073  -6.373  1.00  0.00     0.281 C 
ATOM     81  C   UNL     1       8.817   3.910  -4.872  1.00  0.00     0.181 C 
ATOM     82  O   UNL     1       9.538   4.984  -6.909  1.00  0.00    -0.477 OA
ATOM     83  N   UNL     1       8.752   5.162  -4.121  1.00  0.00    -0.304 N 
ATOM     84  C   UNL     1       9.586   6.171  -6.213  1.00  0.00     0.144 A 
ATOM     85  C   UNL     1       9.181   6.316  -4.870  1.00  0.00     0.086 A 
ATOM     86  C   UNL     1      10.089   7.254  -6.941  1.00  0.00     0.049 A 
ATOM     87  C   UNL     1       9.286   7.591  -4.297  1.00  0.00     0.030 A 
ATOM     88  C   UNL     1      10.173   8.512  -6.354  1.00  0.00     0.004 A 
ATOM     89  C   UNL     1       9.769   8.680  -5.033  1.00  0.00     0.002 A 
BRANCH  83  90
ATOM     90  C   UNL     1       8.219   5.261  -2.840  1.00  0.00     0.230 C 
ATOM     91  O   UNL     1       7.485   6.208  -2.524  1.00  0.00    -0.274 OA
BRANCH  90  92
ATOM     92  C   UNL     1       8.538   4.226  -1.730  1.00  0.00     0.083 C 
ATOM     93  C   UNL     1       7.715   2.939  -1.716  1.00  0.00     0.040 C 
ATOM     94  C   UNL     1      10.018   3.979  -1.425  1.00  0.00     0.018 C 
ATOM     95  C   UNL     1       8.413   1.742  -2.290  1.00  0.00    -0.030 C 
ATOM     96  C   UNL     1      10.664   2.832  -2.201  1.00  0.00     0.028 C 
ATOM     97  C   UNL     1       9.731   1.704  -2.524  1.00  0.00    -0.031 C 
ENDBRANCH  90  92
ENDBRANCH  83  90
ENDBRANCH  77  80
ENDBRANCH  75  76
ENDBRANCH  74  75
ENDBRANCH  73  74
ENDBRANCH   1  73
TORSDOF 18
