REMARK SMILES CCCC[C@H](NC(=O)CC1([NH3+])CCC1)C(=O)NCCCCCCNC(=O)c1ccc(-c2c3nc(c(-c4cc(S(=O)(=O)[O-])ccc4F)c4ccc([nH]4)c(-c4cc(S(=O)(=O)[O-])ccc4F)c4nc(c(-c5cc(S(=O)(=O)[O-])ccc5F)c5ccc2[nH]5)C=C4)C=C3)cc1
REMARK SMILES IDX 20 1 19 2 18 3 17 4 15 5 16 6 5 8 4 9 3 10 2 11 1 12 6 13
REMARK SMILES IDX 7 14 8 16 9 17 10 18 12 19 14 20 13 21 11 22 21 26 22 27
REMARK SMILES IDX 23 28 24 29 25 30 26 32 27 33 28 34 89 35 29 36 88 37 30 38
REMARK SMILES IDX 31 39 32 40 82 41 33 42 87 43 81 44 83 45 34 46 86 47 80 48
REMARK SMILES IDX 79 49 35 51 67 52 47 53 66 54 48 55 51 56 65 57 84 58 49 59
REMARK SMILES IDX 50 60 64 62 85 63 52 64 36 65 37 66 45 67 38 68 44 69 46 70
REMARK SMILES IDX 43 71 39 72 40 73 41 74 42 75 68 76 69 77 77 78 70 79 76 80
REMARK SMILES IDX 78 81 75 82 71 83 72 84 73 85 74 86 53 87 54 88 62 89 55 90
REMARK SMILES IDX 61 91 63 92 60 93 56 94 57 95 58 96 59 97
REMARK H PARENT 17 7 6 15 11 23 11 24 11 25 24 31 83 50 51 61
REMARK Flexibility Score: inf
ROOT
ATOM      1  C   UNL     1       0.298   5.980  -5.067  1.00  0.00     0.002 C 
ENDROOT
BRANCH   1   2
ATOM      2  C   UNL     1       0.802   5.578  -3.683  1.00  0.00     0.021 C 
BRANCH   2   3
ATOM      3  C   UNL     1      -0.271   5.540  -2.605  1.00  0.00     0.116 C 
BRANCH   3   4
ATOM      4  N   UNL     1      -1.399   4.690  -2.905  1.00  0.00    -0.354 N 
ATOM      5  C   UNL     1      -1.825   3.584  -2.228  1.00  0.00     0.242 C 
ATOM      6  O   UNL     1      -2.898   3.079  -2.566  1.00  0.00    -0.273 OA
ATOM      7  H   UNL     1      -1.928   4.940  -3.697  1.00  0.00     0.163 HD
BRANCH   5   8
ATOM      8  C   UNL     1      -1.037   3.045  -1.008  1.00  0.00     0.171 C 
BRANCH   8   9
ATOM      9  C   UNL     1      -1.296   4.025   0.181  1.00  0.00     0.035 C 
BRANCH   9  10
ATOM     10  C   UNL     1      -0.201   4.248   1.242  1.00  0.00     0.002 C 
BRANCH  10  11
ATOM     11  C   UNL     1       1.035   5.061   0.826  1.00  0.00    -0.003 C 
ATOM     12  C   UNL     1       0.765   6.531   0.529  1.00  0.00     0.004 C 
ENDBRANCH  10  11
ENDBRANCH   9  10
ENDBRANCH   8   9
BRANCH   8  13
ATOM     13  N   UNL     1       0.385   2.737  -1.214  1.00  0.00    -0.344 N 
ATOM     14  C   UNL     1       1.002   1.995  -2.176  1.00  0.00     0.226 C 
ATOM     15  H   UNL     1       0.992   3.131  -0.546  1.00  0.00     0.164 HD
ATOM     16  O   UNL     1       2.027   1.389  -1.861  1.00  0.00    -0.275 OA
BRANCH  14  17
ATOM     17  C   UNL     1       0.513   2.006  -3.602  1.00  0.00     0.168 C 
BRANCH  17  18
ATOM     18  C   UNL     1      -0.307   0.824  -4.056  1.00  0.00     0.103 C 
ATOM     19  C   UNL     1       0.398  -0.546  -4.212  1.00  0.00     0.069 C 
ATOM     20  C   UNL     1      -1.319   0.123  -3.111  1.00  0.00     0.069 C 
ATOM     21  C   UNL     1      -0.908  -1.223  -3.743  1.00  0.00     0.013 C 
BRANCH  18  22
ATOM     22  N   UNL     1      -1.015   1.111  -5.323  1.00  0.00    -0.352 N 
ATOM     23  H   UNL     1      -0.378   1.574  -5.971  1.00  0.00     0.344 HD
ATOM     24  H   UNL     1      -1.812   1.720  -5.136  1.00  0.00     0.344 HD
ATOM     25  H   UNL     1      -1.344   0.238  -5.734  1.00  0.00     0.344 HD
ENDBRANCH  18  22
ENDBRANCH  17  18
ENDBRANCH  14  17
ENDBRANCH   8  13
ENDBRANCH   5   8
ENDBRANCH   3   4
ENDBRANCH   2   3
ENDBRANCH   1   2
BRANCH   1  26
ATOM     26  C   UNL     1      -0.466   7.305  -5.101  1.00  0.00     0.002 C 
BRANCH  26  27
ATOM     27  C   UNL     1       0.244   8.479  -4.421  1.00  0.00     0.021 C 
BRANCH  27  28
ATOM     28  C   UNL     1       1.671   8.716  -4.894  1.00  0.00     0.116 C 
BRANCH  28  29
ATOM     29  N   UNL     1       1.719   9.050  -6.303  1.00  0.00    -0.352 N 
ATOM     30  C   UNL     1       2.327  10.124  -6.900  1.00  0.00     0.251 C 
ATOM     31  H   UNL     1       1.257   8.426  -6.908  1.00  0.00     0.163 HD
ATOM     32  O   UNL     1       2.079  10.395  -8.069  1.00  0.00    -0.269 OA
BRANCH  30  33
ATOM     33  C   UNL     1       3.260  10.956  -6.110  1.00  0.00     0.039 A 
ATOM     34  C   UNL     1       3.165  12.345  -6.197  1.00  0.00     0.014 A 
ATOM     35  C   UNL     1       4.229  10.363  -5.293  1.00  0.00     0.014 A 
ATOM     36  C   UNL     1       4.030  13.142  -5.447  1.00  0.00     0.010 A 
ATOM     37  C   UNL     1       5.037  11.159  -4.487  1.00  0.00     0.010 A 
ATOM     38  C   UNL     1       4.964  12.557  -4.576  1.00  0.00    -0.014 A 
BRANCH  38  39
ATOM     39  C   UNL     1       5.918  13.395  -3.805  1.00  0.00     0.031 A 
ATOM     40  C   UNL     1       7.394  13.295  -4.092  1.00  0.00     0.074 A 
ATOM     41  C   UNL     1       5.465  14.220  -2.841  1.00  0.00     0.049 A 
ATOM     42  N   UNL     1       8.395  13.902  -3.508  1.00  0.00    -0.248 NA
ATOM     43  C   UNL     1       7.797  12.366  -5.160  1.00  0.00     0.031 C 
ATOM     44  C   UNL     1       4.061  14.379  -2.457  1.00  0.00     0.029 A 
ATOM     45  N   UNL     1       6.135  15.081  -2.010  1.00  0.00    -0.354 N 
ATOM     46  C   UNL     1       9.543  13.423  -4.131  1.00  0.00     0.074 A 
ATOM     47  C   UNL     1       9.117  12.421  -5.084  1.00  0.00     0.031 C 
ATOM     48  C   UNL     1       3.973  15.306  -1.490  1.00  0.00     0.029 A 
ATOM     49  C   UNL     1       5.314  15.775  -1.153  1.00  0.00     0.049 A 
ATOM     50  H   UNL     1       7.114  15.192  -2.026  1.00  0.00     0.167 HD
ATOM     51  C   UNL     1      10.831  13.806  -3.949  1.00  0.00     0.034 A 
ATOM     52  C   UNL     1       5.611  16.683  -0.201  1.00  0.00     0.034 A 
ATOM     53  C   UNL     1      11.236  14.817  -3.004  1.00  0.00     0.049 A 
ATOM     54  C   UNL     1       7.055  17.072   0.004  1.00  0.00     0.074 A 
ATOM     55  C   UNL     1      12.507  15.304  -2.752  1.00  0.00     0.029 A 
ATOM     56  N   UNL     1      10.376  15.498  -2.151  1.00  0.00    -0.354 N 
ATOM     57  N   UNL     1       8.127  16.634  -0.618  1.00  0.00    -0.248 NA
ATOM     58  C   UNL     1       7.327  18.090   1.026  1.00  0.00     0.031 C 
ATOM     59  C   UNL     1      12.424  16.229  -1.707  1.00  0.00     0.029 A 
ATOM     60  C   UNL     1      11.091  16.384  -1.361  1.00  0.00     0.049 A 
ATOM     61  H   UNL     1       9.400  15.370  -2.114  1.00  0.00     0.167 HD
ATOM     62  C   UNL     1       9.193  17.359  -0.091  1.00  0.00     0.074 A 
ATOM     63  C   UNL     1       8.632  18.268   0.887  1.00  0.00     0.031 C 
ATOM     64  C   UNL     1      10.515  17.287  -0.392  1.00  0.00     0.034 A 
BRANCH  51  65
ATOM     65  C   UNL     1      11.887  13.111  -4.777  1.00  0.00     0.023 A 
ATOM     66  C   UNL     1      11.898  13.198  -6.181  1.00  0.00     0.031 A 
ATOM     67  C   UNL     1      12.879  12.329  -4.160  1.00  0.00     0.131 A 
ATOM     68  C   UNL     1      12.829  12.454  -6.923  1.00  0.00     0.055 A 
ATOM     69  C   UNL     1      13.857  11.661  -4.901  1.00  0.00     0.041 A 
ATOM     70  F   UNL     1      12.908  12.188  -2.826  1.00  0.00    -0.206 F 
ATOM     71  C   UNL     1      13.826  11.709  -6.292  1.00  0.00     0.022 A 
BRANCH  68  72
ATOM     72  S   UNL     1      12.624  12.360  -8.722  1.00  0.00     0.124 S 
ATOM     73  O   UNL     1      11.293  11.768  -8.836  1.00  0.00    -0.237 OA
ATOM     74  O   UNL     1      12.739  13.756  -9.127  1.00  0.00    -0.237 OA
ATOM     75  O   UNL     1      13.721  11.493  -9.147  1.00  0.00    -0.744 OA
ENDBRANCH  68  72
ENDBRANCH  51  65
BRANCH  52  76
ATOM     76  C   UNL     1       4.534  17.294   0.632  1.00  0.00     0.023 A 
ATOM     77  C   UNL     1       4.288  18.675   0.595  1.00  0.00     0.031 A 
ATOM     78  C   UNL     1       3.777  16.515   1.526  1.00  0.00     0.131 A 
ATOM     79  C   UNL     1       3.357  19.246   1.477  1.00  0.00     0.055 A 
ATOM     80  C   UNL     1       2.807  17.078   2.358  1.00  0.00     0.041 A 
ATOM     81  F   UNL     1       3.967  15.188   1.600  1.00  0.00    -0.206 F 
ATOM     82  C   UNL     1       2.605  18.455   2.349  1.00  0.00     0.022 A 
BRANCH  79  83
ATOM     83  S   UNL     1       3.222  21.053   1.546  1.00  0.00     0.124 S 
ATOM     84  O   UNL     1       4.594  21.441   1.853  1.00  0.00    -0.237 OA
ATOM     85  O   UNL     1       2.749  21.372   0.203  1.00  0.00    -0.237 OA
ATOM     86  O   UNL     1       2.253  21.281   2.616  1.00  0.00    -0.744 OA
ENDBRANCH  79  83
ENDBRANCH  52  76
BRANCH  64  87
ATOM     87  C   UNL     1      11.432  18.268   0.299  1.00  0.00     0.023 A 
ATOM     88  C   UNL     1      11.650  18.235   1.687  1.00  0.00     0.031 A 
ATOM     89  C   UNL     1      12.085  19.264  -0.450  1.00  0.00     0.131 A 
ATOM     90  C   UNL     1      12.447  19.218   2.292  1.00  0.00     0.055 A 
ATOM     91  C   UNL     1      12.931  20.198   0.149  1.00  0.00     0.041 A 
ATOM     92  F   UNL     1      11.912  19.345  -1.779  1.00  0.00    -0.206 F 
ATOM     93  C   UNL     1      13.103  20.188   1.530  1.00  0.00     0.022 A 
BRANCH  90  94
ATOM     94  S   UNL     1      12.529  19.278   4.103  1.00  0.00     0.124 S 
ATOM     95  O   UNL     1      11.122  19.411   4.466  1.00  0.00    -0.237 OA
ATOM     96  O   UNL     1      13.153  18.000   4.429  1.00  0.00    -0.237 OA
ATOM     97  O   UNL     1      13.353  20.456   4.370  1.00  0.00    -0.744 OA
ENDBRANCH  90  94
ENDBRANCH  64  87
ENDBRANCH  38  39
ENDBRANCH  30  33
ENDBRANCH  28  29
ENDBRANCH  27  28
ENDBRANCH  26  27
ENDBRANCH   1  26
TORSDOF 23
