REMARK SMILES C[N@H+](Cc1cc(Cl)ccc1[N+](=O)[O-])[C@H]1COC[C@@H]1C(=O)NCCCCCCNC(=O)c1ccc(-c2c3nc(c(-c4cc(S(=O)(=O)[O-])ccc4F)c4ccc([nH]4)c(-c4cc(S(=O)(=O)[O-])ccc4F)c4nc(c(-c5cc(S(=O)(=O)[O-])ccc5F)c5ccc2[nH]5)C=C4)C=C3)cc1
REMARK SMILES IDX 24 1 23 2 22 3 21 4 19 5 20 6 18 8 14 9 15 10 16 11 17 12
REMARK SMILES IDX 2 13 1 14 3 16 4 17 5 18 10 19 6 20 9 21 7 22 8 23 11 24
REMARK SMILES IDX 12 25 13 26 25 27 26 28 27 29 28 30 29 31 30 33 31 34 32 35
REMARK SMILES IDX 93 36 33 37 92 38 34 39 35 40 36 41 86 42 37 43 91 44 85 45
REMARK SMILES IDX 87 46 38 47 90 48 84 49 83 50 39 52 71 53 51 54 70 55 52 56
REMARK SMILES IDX 55 57 69 58 88 59 53 60 54 61 68 63 89 64 56 65 40 66 41 67
REMARK SMILES IDX 49 68 42 69 48 70 50 71 47 72 43 73 44 74 45 75 46 76 72 77
REMARK SMILES IDX 73 78 81 79 74 80 80 81 82 82 79 83 75 84 76 85 77 86 78 87
REMARK SMILES IDX 57 88 58 89 66 90 59 91 65 92 67 93 64 94 60 95 61 96 62 97
REMARK SMILES IDX 63 98
REMARK H PARENT 21 7 2 15 28 32 87 51 55 62
REMARK Flexibility Score: inf
ROOT
ATOM      1  C   UNL     1      -4.648   3.865   0.025  1.00  0.00     0.002 C 
ENDROOT
BRANCH   1   2
ATOM      2  C   UNL     1      -3.218   4.340   0.250  1.00  0.00     0.021 C 
BRANCH   2   3
ATOM      3  C   UNL     1      -2.146   3.300  -0.024  1.00  0.00     0.116 C 
BRANCH   3   4
ATOM      4  N   UNL     1      -1.762   3.170  -1.405  1.00  0.00    -0.356 N 
ATOM      5  C   UNL     1      -0.525   3.134  -1.963  1.00  0.00     0.231 C 
ATOM      6  O   UNL     1      -0.478   2.830  -3.162  1.00  0.00    -0.274 OA
ATOM      7  H   UNL     1      -2.509   3.097  -2.041  1.00  0.00     0.163 HD
BRANCH   5   8
ATOM      8  C   UNL     1       0.778   3.463  -1.227  1.00  0.00     0.164 C 
ATOM      9  C   UNL     1       1.325   2.422  -0.230  1.00  0.00     0.225 C 
ATOM     10  C   UNL     1       0.942   3.050   1.128  1.00  0.00     0.226 C 
ATOM     11  O   UNL     1       0.744   4.456   0.949  1.00  0.00    -0.374 OA
ATOM     12  C   UNL     1       0.743   4.764  -0.449  1.00  0.00     0.180 C 
BRANCH   9  13
ATOM     13  N   UNL     1       2.771   2.026  -0.327  1.00  0.00    -0.328 N 
ATOM     14  C   UNL     1       3.377   1.645   0.948  1.00  0.00     0.333 C 
ATOM     15  H   UNL     1       2.737   1.151  -0.848  1.00  0.00     0.348 HD
BRANCH  13  16
ATOM     16  C   UNL     1       3.605   2.850  -1.207  1.00  0.00     0.306 C 
BRANCH  16  17
ATOM     17  C   UNL     1       5.104   2.697  -1.048  1.00  0.00     0.085 A 
ATOM     18  C   UNL     1       5.705   1.569  -1.650  1.00  0.00     0.037 A 
ATOM     19  C   UNL     1       5.921   3.548  -0.270  1.00  0.00     0.278 A 
ATOM     20  C   UNL     1       7.062   1.299  -1.477  1.00  0.00     0.042 A 
ATOM     21  C   UNL     1       7.290   3.266  -0.102  1.00  0.00     0.088 A 
ATOM     22  Cl  UNL     1       7.756  -0.095  -2.206  1.00  0.00    -0.084 Cl
ATOM     23  C   UNL     1       7.855   2.141  -0.704  1.00  0.00     0.027 A 
BRANCH  19  24
ATOM     24  N   UNL     1       5.409   4.741   0.424  1.00  0.00     0.063 N 
ATOM     25  O   UNL     1       5.940   5.035   1.504  1.00  0.00    -0.258 OA
ATOM     26  O   UNL     1       4.532   5.413  -0.130  1.00  0.00    -0.258 OA
ENDBRANCH  19  24
ENDBRANCH  16  17
ENDBRANCH  13  16
ENDBRANCH   9  13
ENDBRANCH   5   8
ENDBRANCH   3   4
ENDBRANCH   2   3
ENDBRANCH   1   2
BRANCH   1  27
ATOM     27  C   UNL     1      -5.003   2.519   0.666  1.00  0.00     0.002 C 
BRANCH  27  28
ATOM     28  C   UNL     1      -4.652   2.366   2.151  1.00  0.00     0.021 C 
BRANCH  28  29
ATOM     29  C   UNL     1      -5.213   3.446   3.069  1.00  0.00     0.116 C 
BRANCH  29  30
ATOM     30  N   UNL     1      -6.649   3.591   2.919  1.00  0.00    -0.352 N 
ATOM     31  C   UNL     1      -7.642   3.497   3.859  1.00  0.00     0.251 C 
ATOM     32  H   UNL     1      -6.956   3.785   2.004  1.00  0.00     0.163 HD
ATOM     33  O   UNL     1      -8.810   3.417   3.498  1.00  0.00    -0.269 OA
BRANCH  31  34
ATOM     34  C   UNL     1      -7.297   3.476   5.297  1.00  0.00     0.039 A 
ATOM     35  C   UNL     1      -7.970   2.586   6.136  1.00  0.00     0.014 A 
ATOM     36  C   UNL     1      -6.334   4.345   5.820  1.00  0.00     0.014 A 
ATOM     37  C   UNL     1      -7.643   2.533   7.491  1.00  0.00     0.010 A 
ATOM     38  C   UNL     1      -5.955   4.237   7.155  1.00  0.00     0.010 A 
ATOM     39  C   UNL     1      -6.612   3.336   8.007  1.00  0.00    -0.014 A 
BRANCH  39  40
ATOM     40  C   UNL     1      -6.218   3.249   9.437  1.00  0.00     0.031 A 
ATOM     41  C   UNL     1      -6.390   4.440  10.341  1.00  0.00     0.074 A 
ATOM     42  C   UNL     1      -5.665   2.114   9.905  1.00  0.00     0.049 A 
ATOM     43  N   UNL     1      -6.056   4.579  11.598  1.00  0.00    -0.248 NA
ATOM     44  C   UNL     1      -6.990   5.643   9.743  1.00  0.00     0.031 C 
ATOM     45  C   UNL     1      -5.415   0.908   9.111  1.00  0.00     0.029 A 
ATOM     46  N   UNL     1      -5.206   1.786  11.156  1.00  0.00    -0.354 N 
ATOM     47  C   UNL     1      -6.395   5.884  11.940  1.00  0.00     0.074 A 
ATOM     48  C   UNL     1      -6.901   6.513  10.738  1.00  0.00     0.031 C 
ATOM     49  C   UNL     1      -4.876  -0.035   9.900  1.00  0.00     0.029 A 
ATOM     50  C   UNL     1      -4.691   0.512  11.240  1.00  0.00     0.049 A 
ATOM     51  H   UNL     1      -5.242   2.403  11.922  1.00  0.00     0.167 HD
ATOM     52  C   UNL     1      -6.311   6.493  13.149  1.00  0.00     0.034 A 
ATOM     53  C   UNL     1      -4.121  -0.137  12.275  1.00  0.00     0.034 A 
ATOM     54  C   UNL     1      -5.810   5.844  14.337  1.00  0.00     0.049 A 
ATOM     55  C   UNL     1      -4.012   0.572  13.602  1.00  0.00     0.074 A 
ATOM     56  C   UNL     1      -5.732   6.347  15.624  1.00  0.00     0.029 A 
ATOM     57  N   UNL     1      -5.291   4.556  14.383  1.00  0.00    -0.354 N 
ATOM     58  N   UNL     1      -4.386   1.790  13.922  1.00  0.00    -0.248 NA
ATOM     59  C   UNL     1      -3.416  -0.185  14.710  1.00  0.00     0.031 C 
ATOM     60  C   UNL     1      -5.093   5.397  16.428  1.00  0.00     0.029 A 
ATOM     61  C   UNL     1      -4.856   4.263  15.668  1.00  0.00     0.049 A 
ATOM     62  H   UNL     1      -5.239   3.941  13.617  1.00  0.00     0.167 HD
ATOM     63  C   UNL     1      -4.099   1.931  15.277  1.00  0.00     0.074 A 
ATOM     64  C   UNL     1      -3.538   0.669  15.715  1.00  0.00     0.031 C 
ATOM     65  C   UNL     1      -4.286   3.004  16.088  1.00  0.00     0.034 A 
BRANCH  52  66
ATOM     66  C   UNL     1      -6.742   7.939  13.235  1.00  0.00     0.023 A 
ATOM     67  C   UNL     1      -8.062   8.337  12.961  1.00  0.00     0.031 A 
ATOM     68  C   UNL     1      -5.814   8.938  13.580  1.00  0.00     0.131 A 
ATOM     69  C   UNL     1      -8.400   9.699  12.964  1.00  0.00     0.055 A 
ATOM     70  C   UNL     1      -6.177  10.284  13.666  1.00  0.00     0.041 A 
ATOM     71  F   UNL     1      -4.533   8.624  13.831  1.00  0.00    -0.206 F 
ATOM     72  C   UNL     1      -7.473  10.673  13.342  1.00  0.00     0.022 A 
BRANCH  69  73
ATOM     73  S   UNL     1     -10.025  10.191  12.326  1.00  0.00     0.124 S 
ATOM     74  O   UNL     1      -9.982   9.656  10.967  1.00  0.00    -0.237 OA
ATOM     75  O   UNL     1     -10.940   9.527  13.246  1.00  0.00    -0.237 OA
ATOM     76  O   UNL     1     -10.000  11.650  12.414  1.00  0.00    -0.744 OA
ENDBRANCH  69  73
ENDBRANCH  52  66
BRANCH  53  77
ATOM     77  C   UNL     1      -3.595  -1.522  12.101  1.00  0.00     0.023 A 
ATOM     78  C   UNL     1      -4.137  -2.600  12.818  1.00  0.00     0.031 A 
ATOM     79  C   UNL     1      -2.510  -1.780  11.244  1.00  0.00     0.131 A 
ATOM     80  C   UNL     1      -3.562  -3.876  12.702  1.00  0.00     0.055 A 
ATOM     81  C   UNL     1      -1.981  -3.062  11.087  1.00  0.00     0.041 A 
ATOM     82  F   UNL     1      -1.954  -0.786  10.532  1.00  0.00    -0.206 F 
ATOM     83  C   UNL     1      -2.499  -4.117  11.830  1.00  0.00     0.022 A 
BRANCH  80  84
ATOM     84  S   UNL     1      -4.167  -5.202  13.784  1.00  0.00     0.124 S 
ATOM     85  O   UNL     1      -3.944  -4.629  15.106  1.00  0.00    -0.237 OA
ATOM     86  O   UNL     1      -5.558  -5.325  13.362  1.00  0.00    -0.237 OA
ATOM     87  O   UNL     1      -3.311  -6.336  13.441  1.00  0.00    -0.744 OA
ENDBRANCH  80  84
ENDBRANCH  53  77
BRANCH  65  88
ATOM     88  C   UNL     1      -3.922   2.837  17.545  1.00  0.00     0.023 A 
ATOM     89  C   UNL     1      -2.595   2.627  17.960  1.00  0.00     0.031 A 
ATOM     90  C   UNL     1      -4.924   2.878  18.532  1.00  0.00     0.131 A 
ATOM     91  C   UNL     1      -2.315   2.405  19.317  1.00  0.00     0.055 A 
ATOM     92  C   UNL     1      -4.629   2.727  19.887  1.00  0.00     0.041 A 
ATOM     93  F   UNL     1      -6.209   3.071  18.194  1.00  0.00    -0.206 F 
ATOM     94  C   UNL     1      -3.320   2.474  20.285  1.00  0.00     0.022 A 
BRANCH  91  95
ATOM     95  S   UNL     1      -0.633   1.917  19.789  1.00  0.00     0.124 S 
ATOM     96  O   UNL     1      -0.434   0.708  18.996  1.00  0.00    -0.237 OA
ATOM     97  O   UNL     1       0.154   3.079  19.388  1.00  0.00    -0.237 OA
ATOM     98  O   UNL     1      -0.730   1.704  21.232  1.00  0.00    -0.744 OA
ENDBRANCH  91  95
ENDBRANCH  65  88
ENDBRANCH  39  40
ENDBRANCH  31  34
ENDBRANCH  29  30
ENDBRANCH  28  29
ENDBRANCH  27  28
ENDBRANCH   1  27
TORSDOF 20
