REMARK SMILES O=C(NCCCCCCNC(=O)[C@@H]1CC[C@H](CNC(=O)c2cccn2C2CC2)O1)c1ccc(-c2c3nc(c(-c4cc(S(=O)(=O)[O-])ccc4F)c4ccc([nH]4)c(-c4cc(S(=O)(=O)[O-])ccc4F)c4nc(c(-c5cc(S(=O)(=O)[O-])ccc5F)c5ccc2[nH]5)C=C4)C=C3)cc1
REMARK SMILES IDX 7 1 6 2 5 3 4 4 3 5 1 6 2 7 30 9 31 10 92 11 32 12 91 13
REMARK SMILES IDX 33 14 34 15 35 16 85 17 36 18 90 19 84 20 86 21 37 22 89 23
REMARK SMILES IDX 83 24 82 25 38 27 70 28 50 29 69 30 51 31 54 32 68 33 87 34
REMARK SMILES IDX 52 35 53 36 67 38 88 39 55 40 39 41 40 42 48 43 41 44 47 45
REMARK SMILES IDX 49 46 46 47 42 48 43 49 44 50 45 51 71 52 72 53 80 54 73 55
REMARK SMILES IDX 79 56 81 57 78 58 74 59 75 60 76 61 77 62 56 63 57 64 65 65
REMARK SMILES IDX 58 66 64 67 66 68 63 69 59 70 60 71 61 72 62 73 8 74 9 75
REMARK SMILES IDX 10 76 11 77 12 79 13 80 14 81 29 82 15 83 16 84 17 85 18 86
REMARK SMILES IDX 19 87 20 89 21 90 22 91 25 92 23 93 24 94 26 95 27 96 28 97
REMARK H PARENT 3 8 86 26 54 37 10 78 18 88
REMARK Flexibility Score: inf
ROOT
ATOM      1  C   UNL     1       4.856   3.215  -2.994  1.00  0.00     0.002 C 
ENDROOT
BRANCH   1   2
ATOM      2  C   UNL     1       4.204   1.847  -3.213  1.00  0.00     0.002 C 
BRANCH   2   3
ATOM      3  C   UNL     1       4.692   0.735  -2.283  1.00  0.00     0.021 C 
BRANCH   3   4
ATOM      4  C   UNL     1       4.520   1.030  -0.792  1.00  0.00     0.116 C 
BRANCH   4   5
ATOM      5  N   UNL     1       3.153   0.994  -0.307  1.00  0.00    -0.352 N 
ATOM      6  O   UNL     1       1.171   0.255   0.397  1.00  0.00    -0.269 OA
ATOM      7  C   UNL     1       2.244  -0.023  -0.141  1.00  0.00     0.251 C 
ATOM      8  H   UNL     1       2.807   1.876  -0.042  1.00  0.00     0.163 HD
BRANCH   7   9
ATOM      9  C   UNL     1       2.470  -1.406  -0.638  1.00  0.00     0.039 A 
ATOM     10  C   UNL     1       3.730  -1.996  -0.733  1.00  0.00     0.014 A 
ATOM     11  C   UNL     1       1.339  -2.155  -1.012  1.00  0.00     0.014 A 
ATOM     12  C   UNL     1       3.878  -3.258  -1.290  1.00  0.00     0.010 A 
ATOM     13  C   UNL     1       1.476  -3.446  -1.529  1.00  0.00     0.010 A 
ATOM     14  C   UNL     1       2.753  -3.994  -1.675  1.00  0.00    -0.014 A 
BRANCH  14  15
ATOM     15  C   UNL     1       2.988  -5.426  -1.977  1.00  0.00     0.031 A 
ATOM     16  C   UNL     1       3.250  -6.218  -0.676  1.00  0.00     0.074 A 
ATOM     17  C   UNL     1       3.070  -5.795  -3.292  1.00  0.00     0.049 A 
ATOM     18  N   UNL     1       4.083  -7.183  -0.429  1.00  0.00    -0.248 NA
ATOM     19  C   UNL     1       2.581  -5.763   0.577  1.00  0.00     0.031 C 
ATOM     20  C   UNL     1       2.791  -4.907  -4.445  1.00  0.00     0.029 A 
ATOM     21  N   UNL     1       3.413  -6.969  -3.935  1.00  0.00    -0.354 N 
ATOM     22  C   UNL     1       3.848  -7.615   0.902  1.00  0.00     0.074 A 
ATOM     23  C   UNL     1       3.055  -6.592   1.510  1.00  0.00     0.031 C 
ATOM     24  C   UNL     1       3.041  -5.537  -5.618  1.00  0.00     0.029 A 
ATOM     25  C   UNL     1       3.491  -6.892  -5.357  1.00  0.00     0.049 A 
ATOM     26  H   UNL     1       3.591  -7.803  -3.445  1.00  0.00     0.167 HD
ATOM     27  C   UNL     1       4.166  -8.866   1.358  1.00  0.00     0.034 A 
ATOM     28  C   UNL     1       3.920  -7.837  -6.254  1.00  0.00     0.034 A 
ATOM     29  C   UNL     1       4.800  -9.604   0.316  1.00  0.00     0.049 A 
ATOM     30  C   UNL     1       4.170  -9.037  -5.442  1.00  0.00     0.074 A 
ATOM     31  C   UNL     1       6.020  -9.528  -0.297  1.00  0.00     0.029 A 
ATOM     32  N   UNL     1       3.992 -10.453  -0.408  1.00  0.00    -0.354 N 
ATOM     33  N   UNL     1       3.248  -9.801  -4.947  1.00  0.00    -0.248 NA
ATOM     34  C   UNL     1       5.559  -9.401  -5.130  1.00  0.00     0.031 C 
ATOM     35  C   UNL     1       5.753  -9.958  -1.615  1.00  0.00     0.029 A 
ATOM     36  C   UNL     1       4.428 -10.407  -1.703  1.00  0.00     0.049 A 
ATOM     37  H   UNL     1       3.244 -10.989  -0.059  1.00  0.00     0.167 HD
ATOM     38  C   UNL     1       3.936 -10.540  -4.021  1.00  0.00     0.074 A 
ATOM     39  C   UNL     1       5.329 -10.497  -4.411  1.00  0.00     0.031 C 
ATOM     40  C   UNL     1       3.455 -10.627  -2.755  1.00  0.00     0.034 A 
BRANCH  27  41
ATOM     41  C   UNL     1       3.734  -9.672   2.571  1.00  0.00     0.023 A 
ATOM     42  C   UNL     1       4.323 -10.960   2.700  1.00  0.00     0.031 A 
ATOM     43  C   UNL     1       2.624  -9.430   3.389  1.00  0.00     0.131 A 
ATOM     44  C   UNL     1       3.720 -11.981   3.445  1.00  0.00     0.055 A 
ATOM     45  C   UNL     1       2.069 -10.431   4.204  1.00  0.00     0.041 A 
ATOM     46  F   UNL     1       1.982  -8.256   3.385  1.00  0.00    -0.206 F 
ATOM     47  C   UNL     1       2.584 -11.725   4.199  1.00  0.00     0.022 A 
BRANCH  44  48
ATOM     48  S   UNL     1       4.328 -13.679   3.217  1.00  0.00     0.124 S 
ATOM     49  O   UNL     1       4.311 -13.819   1.766  1.00  0.00    -0.237 OA
ATOM     50  O   UNL     1       5.648 -13.613   3.837  1.00  0.00    -0.237 OA
ATOM     51  O   UNL     1       3.345 -14.489   3.933  1.00  0.00    -0.744 OA
ENDBRANCH  44  48
ENDBRANCH  27  41
BRANCH  28  52
ATOM     52  C   UNL     1       4.244  -7.994  -7.738  1.00  0.00     0.023 A 
ATOM     53  C   UNL     1       4.053  -7.036  -8.748  1.00  0.00     0.031 A 
ATOM     54  C   UNL     1       4.860  -9.209  -8.190  1.00  0.00     0.131 A 
ATOM     55  C   UNL     1       4.523  -7.285 -10.072  1.00  0.00     0.055 A 
ATOM     56  C   UNL     1       5.394  -9.411  -9.461  1.00  0.00     0.041 A 
ATOM     57  F   UNL     1       4.981 -10.289  -7.406  1.00  0.00    -0.206 F 
ATOM     58  C   UNL     1       5.238  -8.437 -10.413  1.00  0.00     0.022 A 
BRANCH  55  59
ATOM     59  S   UNL     1       4.236  -6.109 -11.428  1.00  0.00     0.124 S 
ATOM     60  O   UNL     1       3.017  -6.637 -12.032  1.00  0.00    -0.237 OA
ATOM     61  O   UNL     1       4.109  -4.830 -10.737  1.00  0.00    -0.237 OA
ATOM     62  O   UNL     1       5.443  -6.248 -12.244  1.00  0.00    -0.744 OA
ENDBRANCH  55  59
ENDBRANCH  28  52
BRANCH  40  63
ATOM     63  C   UNL     1       1.938 -10.450  -2.649  1.00  0.00     0.023 A 
ATOM     64  C   UNL     1       1.065 -11.288  -3.370  1.00  0.00     0.031 A 
ATOM     65  C   UNL     1       1.330  -9.391  -1.952  1.00  0.00     0.131 A 
ATOM     66  C   UNL     1      -0.324 -11.036  -3.397  1.00  0.00     0.055 A 
ATOM     67  C   UNL     1      -0.048  -9.143  -1.966  1.00  0.00     0.041 A 
ATOM     68  F   UNL     1       2.059  -8.537  -1.240  1.00  0.00    -0.206 F 
ATOM     69  C   UNL     1      -0.885  -9.967  -2.698  1.00  0.00     0.022 A 
BRANCH  66  70
ATOM     70  S   UNL     1      -1.412 -12.133  -4.349  1.00  0.00     0.124 S 
ATOM     71  O   UNL     1      -1.070 -11.807  -5.728  1.00  0.00    -0.237 OA
ATOM     72  O   UNL     1      -1.010 -13.458  -3.887  1.00  0.00    -0.237 OA
ATOM     73  O   UNL     1      -2.756 -11.725  -3.935  1.00  0.00    -0.744 OA
ENDBRANCH  66  70
ENDBRANCH  40  63
ENDBRANCH  14  15
ENDBRANCH   7   9
ENDBRANCH   4   5
ENDBRANCH   3   4
ENDBRANCH   2   3
ENDBRANCH   1   2
BRANCH   1  74
ATOM     74  C   UNL     1       6.391   3.225  -3.023  1.00  0.00     0.021 C 
BRANCH  74  75
ATOM     75  C   UNL     1       7.005   2.804  -4.359  1.00  0.00     0.116 C 
BRANCH  75  76
ATOM     76  N   UNL     1       6.680   3.758  -5.404  1.00  0.00    -0.354 N 
ATOM     77  C   UNL     1       7.509   4.613  -6.073  1.00  0.00     0.249 C 
ATOM     78  H   UNL     1       5.731   3.794  -5.667  1.00  0.00     0.163 HD
ATOM     79  O   UNL     1       7.008   5.413  -6.865  1.00  0.00    -0.272 OA
BRANCH  77  80
ATOM     80  C   UNL     1       9.021   4.564  -5.785  1.00  0.00     0.207 C 
ATOM     81  C   UNL     1       9.809   5.624  -6.550  1.00  0.00     0.045 C 
ATOM     82  O   UNL     1       9.583   3.287  -6.147  1.00  0.00    -0.363 OA
ATOM     83  C   UNL     1      11.087   4.908  -6.909  1.00  0.00     0.037 C 
ATOM     84  C   UNL     1      10.617   3.481  -7.130  1.00  0.00     0.138 C 
BRANCH  84  85
ATOM     85  C   UNL     1      10.040   3.200  -8.529  1.00  0.00     0.148 C 
BRANCH  85  86
ATOM     86  N   UNL     1      11.017   3.371  -9.594  1.00  0.00    -0.348 N 
ATOM     87  C   UNL     1      11.505   2.471 -10.508  1.00  0.00     0.268 C 
ATOM     88  H   UNL     1      11.389   4.279  -9.670  1.00  0.00     0.163 HD
ATOM     89  O   UNL     1      12.328   2.897 -11.316  1.00  0.00    -0.268 OA
BRANCH  87  90
ATOM     90  C   UNL     1      10.983   1.129 -10.527  1.00  0.00     0.107 A 
ATOM     91  C   UNL     1       9.645   0.773 -10.695  1.00  0.00     0.033 A 
ATOM     92  N   UNL     1      11.691  -0.058 -10.520  1.00  0.00    -0.340 N 
ATOM     93  C   UNL     1       9.549  -0.633 -10.760  1.00  0.00     0.020 A 
ATOM     94  C   UNL     1      10.830  -1.118 -10.669  1.00  0.00     0.086 A 
BRANCH  92  95
ATOM     95  C   UNL     1      13.102  -0.320 -10.290  1.00  0.00     0.087 C 
ATOM     96  C   UNL     1      14.263   0.631 -10.466  1.00  0.00     0.027 C 
ATOM     97  C   UNL     1      13.820   0.272  -9.089  1.00  0.00     0.027 C 
ENDBRANCH  92  95
ENDBRANCH  87  90
ENDBRANCH  85  86
ENDBRANCH  84  85
ENDBRANCH  77  80
ENDBRANCH  75  76
ENDBRANCH  74  75
ENDBRANCH   1  74
TORSDOF 20
