REMARK SMILES C[C@H]([NH2+]CC1CCCC1)[C@H](C)C(=O)NCCCCCCNC(=O)c1ccc(-c2c3nc(c(-c4cc(S(=O)(=O)[O-])ccc4F)c4ccc([nH]4)c(-c4cc(S(=O)(=O)[O-])ccc4F)c4nc(c(-c5cc(S(=O)(=O)[O-])ccc5F)c5ccc2[nH]5)C=C4)C=C3)cc1
REMARK SMILES IDX 17 1 16 2 15 3 14 4 12 5 13 6 10 8 11 9 2 10 1 11 3 12 4 15
REMARK SMILES IDX 5 16 6 17 9 18 7 19 8 20 18 21 19 22 20 23 21 24 22 25 23 27
REMARK SMILES IDX 24 28 25 29 86 30 26 31 85 32 27 33 28 34 29 35 79 36 30 37
REMARK SMILES IDX 84 38 78 39 80 40 31 41 83 42 77 43 76 44 32 46 64 47 44 48
REMARK SMILES IDX 63 49 45 50 48 51 62 52 81 53 46 54 47 55 61 57 82 58 49 59
REMARK SMILES IDX 33 60 34 61 42 62 35 63 41 64 43 65 40 66 36 67 37 68 38 69
REMARK SMILES IDX 39 70 65 71 66 72 74 73 67 74 73 75 75 76 72 77 68 78 69 79
REMARK SMILES IDX 70 80 71 81 50 82 51 83 59 84 52 85 58 86 60 87 57 88 53 89
REMARK SMILES IDX 54 90 55 91 56 92
REMARK H PARENT 14 7 3 13 3 14 21 26 80 45 48 56
REMARK Flexibility Score: inf
ROOT
ATOM      1  C   UNL     1       0.350   5.626  -3.272  1.00  0.00     0.002 C 
ENDROOT
BRANCH   1   2
ATOM      2  C   UNL     1       1.002   4.431  -2.573  1.00  0.00     0.021 C 
BRANCH   2   3
ATOM      3  C   UNL     1       0.061   3.604  -1.712  1.00  0.00     0.116 C 
BRANCH   3   4
ATOM      4  N   UNL     1      -0.945   2.888  -2.463  1.00  0.00    -0.356 N 
ATOM      5  C   UNL     1      -1.558   1.706  -2.184  1.00  0.00     0.228 C 
ATOM      6  O   UNL     1      -2.465   1.349  -2.944  1.00  0.00    -0.275 OA
ATOM      7  H   UNL     1      -1.230   3.321  -3.300  1.00  0.00     0.163 HD
BRANCH   5   8
ATOM      8  C   UNL     1      -1.169   0.827  -0.991  1.00  0.00     0.133 C 
ATOM      9  C   UNL     1       0.280   0.327  -1.093  1.00  0.00     0.024 C 
BRANCH   8  10
ATOM     10  C   UNL     1      -1.609   1.351   0.415  1.00  0.00     0.191 C 
ATOM     11  C   UNL     1      -2.995   2.006   0.362  1.00  0.00     0.076 C 
BRANCH  10  12
ATOM     12  N   UNL     1      -0.637   2.283   0.984  1.00  0.00    -0.343 N 
ATOM     13  H   UNL     1      -0.778   3.185   0.531  1.00  0.00     0.346 HD
ATOM     14  H   UNL     1       0.269   1.845   0.817  1.00  0.00     0.346 HD
BRANCH  12  15
ATOM     15  C   UNL     1      -0.678   2.508   2.427  1.00  0.00     0.264 C 
BRANCH  15  16
ATOM     16  C   UNL     1       0.469   3.486   2.719  1.00  0.00     0.044 C 
ATOM     17  C   UNL     1       0.074   4.961   2.624  1.00  0.00     0.009 C 
ATOM     18  C   UNL     1       1.048   3.408   4.125  1.00  0.00     0.009 C 
ATOM     19  C   UNL     1       1.274   5.678   3.233  1.00  0.00     0.001 C 
ATOM     20  C   UNL     1       1.871   4.692   4.243  1.00  0.00     0.001 C 
ENDBRANCH  15  16
ENDBRANCH  12  15
ENDBRANCH  10  12
ENDBRANCH   8  10
ENDBRANCH   5   8
ENDBRANCH   3   4
ENDBRANCH   2   3
ENDBRANCH   1   2
BRANCH   1  21
ATOM     21  C   UNL     1      -0.412   6.604  -2.369  1.00  0.00     0.002 C 
BRANCH  21  22
ATOM     22  C   UNL     1       0.361   7.152  -1.168  1.00  0.00     0.021 C 
BRANCH  22  23
ATOM     23  C   UNL     1       1.719   7.768  -1.484  1.00  0.00     0.116 C 
BRANCH  23  24
ATOM     24  N   UNL     1       1.628   8.853  -2.443  1.00  0.00    -0.352 N 
ATOM     25  C   UNL     1       2.151  10.122  -2.382  1.00  0.00     0.251 C 
ATOM     26  H   UNL     1       1.117   8.649  -3.259  1.00  0.00     0.163 HD
ATOM     27  O   UNL     1       1.825  10.951  -3.222  1.00  0.00    -0.269 OA
BRANCH  25  28
ATOM     28  C   UNL     1       3.078  10.489  -1.286  1.00  0.00     0.039 A 
ATOM     29  C   UNL     1       2.916  11.726  -0.659  1.00  0.00     0.014 A 
ATOM     30  C   UNL     1       4.105   9.630  -0.883  1.00  0.00     0.014 A 
ATOM     31  C   UNL     1       3.747  12.077   0.407  1.00  0.00     0.010 A 
ATOM     32  C   UNL     1       4.880   9.947   0.230  1.00  0.00     0.010 A 
ATOM     33  C   UNL     1       4.715  11.177   0.884  1.00  0.00    -0.014 A 
BRANCH  33  34
ATOM     34  C   UNL     1       5.566  11.518   2.055  1.00  0.00     0.031 A 
ATOM     35  C   UNL     1       7.058  11.643   1.896  1.00  0.00     0.074 A 
ATOM     36  C   UNL     1       5.000  11.675   3.268  1.00  0.00     0.049 A 
ATOM     37  N   UNL     1       7.970  11.886   2.802  1.00  0.00    -0.248 NA
ATOM     38  C   UNL     1       7.597  11.440   0.542  1.00  0.00     0.031 C 
ATOM     39  C   UNL     1       3.569  11.544   3.554  1.00  0.00     0.029 A 
ATOM     40  N   UNL     1       5.553  11.976   4.487  1.00  0.00    -0.354 N 
ATOM     41  C   UNL     1       9.189  11.857   2.132  1.00  0.00     0.074 A 
ATOM     42  C   UNL     1       8.902  11.505   0.758  1.00  0.00     0.031 C 
ATOM     43  C   UNL     1       3.356  11.797   4.856  1.00  0.00     0.029 A 
ATOM     44  C   UNL     1       4.635  12.055   5.509  1.00  0.00     0.049 A 
ATOM     45  H   UNL     1       6.518  12.123   4.619  1.00  0.00     0.167 HD
ATOM     46  C   UNL     1      10.429  12.124   2.613  1.00  0.00     0.034 A 
ATOM     47  C   UNL     1       4.804  12.295   6.825  1.00  0.00     0.034 A 
ATOM     48  C   UNL     1      10.696  12.479   3.986  1.00  0.00     0.049 A 
ATOM     49  C   UNL     1       6.197  12.552   7.343  1.00  0.00     0.074 A 
ATOM     50  C   UNL     1      11.906  12.813   4.570  1.00  0.00     0.029 A 
ATOM     51  N   UNL     1       9.742  12.536   4.996  1.00  0.00    -0.354 N 
ATOM     52  N   UNL     1       7.334  12.569   6.686  1.00  0.00    -0.248 NA
ATOM     53  C   UNL     1       6.327  12.836   8.778  1.00  0.00     0.031 C 
ATOM     54  C   UNL     1      11.698  12.993   5.941  1.00  0.00     0.029 A 
ATOM     55  C   UNL     1      10.343  12.865   6.202  1.00  0.00     0.049 A 
ATOM     56  H   UNL     1       8.780  12.368   4.872  1.00  0.00     0.167 HD
ATOM     57  C   UNL     1       8.309  12.902   7.624  1.00  0.00     0.074 A 
ATOM     58  C   UNL     1       7.622  13.093   8.884  1.00  0.00     0.031 C 
ATOM     59  C   UNL     1       9.649  13.043   7.457  1.00  0.00     0.034 A 
BRANCH  46  60
ATOM     60  C   UNL     1      11.589  12.013   1.650  1.00  0.00     0.023 A 
ATOM     61  C   UNL     1      11.684  12.828   0.507  1.00  0.00     0.031 A 
ATOM     62  C   UNL     1      12.605  11.064   1.863  1.00  0.00     0.131 A 
ATOM     63  C   UNL     1      12.721  12.625  -0.416  1.00  0.00     0.055 A 
ATOM     64  C   UNL     1      13.684  10.928   0.987  1.00  0.00     0.041 A 
ATOM     65  F   UNL     1      12.560  10.241   2.923  1.00  0.00    -0.206 F 
ATOM     66  C   UNL     1      13.738  11.700  -0.170  1.00  0.00     0.022 A 
BRANCH  63  67
ATOM     67  S   UNL     1      12.636  13.477  -2.015  1.00  0.00     0.124 S 
ATOM     68  O   UNL     1      11.354  13.005  -2.532  1.00  0.00    -0.237 OA
ATOM     69  O   UNL     1      12.691  14.882  -1.627  1.00  0.00    -0.237 OA
ATOM     70  O   UNL     1      13.809  12.980  -2.731  1.00  0.00    -0.744 OA
ENDBRANCH  63  67
ENDBRANCH  46  60
BRANCH  47  71
ATOM     71  C   UNL     1       3.634  12.296   7.752  1.00  0.00     0.023 A 
ATOM     72  C   UNL     1       3.266  13.453   8.456  1.00  0.00     0.031 A 
ATOM     73  C   UNL     1       2.894  11.122   7.986  1.00  0.00     0.131 A 
ATOM     74  C   UNL     1       2.227  13.400   9.398  1.00  0.00     0.055 A 
ATOM     75  C   UNL     1       1.821  11.089   8.878  1.00  0.00     0.041 A 
ATOM     76  F   UNL     1       3.200   9.986   7.338  1.00  0.00    -0.206 F 
ATOM     77  C   UNL     1       1.492  12.230   9.602  1.00  0.00     0.022 A 
BRANCH  74  78
ATOM     78  S   UNL     1       1.914  14.859  10.430  1.00  0.00     0.124 S 
ATOM     79  O   UNL     1       3.211  15.054  11.068  1.00  0.00    -0.237 OA
ATOM     80  O   UNL     1       1.531  15.856   9.436  1.00  0.00    -0.237 OA
ATOM     81  O   UNL     1       0.840  14.422  11.319  1.00  0.00    -0.744 OA
ENDBRANCH  74  78
ENDBRANCH  47  71
BRANCH  59  82
ATOM     82  C   UNL     1      10.451  13.476   8.663  1.00  0.00     0.023 A 
ATOM     83  C   UNL     1      10.566  12.671   9.809  1.00  0.00     0.031 A 
ATOM     84  C   UNL     1      11.096  14.727   8.668  1.00  0.00     0.131 A 
ATOM     85  C   UNL     1      11.250  13.152  10.936  1.00  0.00     0.055 A 
ATOM     86  C   UNL     1      11.836  15.169   9.765  1.00  0.00     0.041 A 
ATOM     87  F   UNL     1      11.017  15.542   7.604  1.00  0.00    -0.206 F 
ATOM     88  C   UNL     1      11.902  14.387  10.915  1.00  0.00     0.022 A 
BRANCH  85  89
ATOM     89  S   UNL     1      11.178  12.192  12.474  1.00  0.00     0.124 S 
ATOM     90  O   UNL     1       9.741  12.097  12.705  1.00  0.00    -0.237 OA
ATOM     91  O   UNL     1      11.846  10.950  12.097  1.00  0.00    -0.237 OA
ATOM     92  O   UNL     1      11.907  13.022  13.431  1.00  0.00    -0.744 OA
ENDBRANCH  85  89
ENDBRANCH  59  82
ENDBRANCH  33  34
ENDBRANCH  25  28
ENDBRANCH  23  24
ENDBRANCH  22  23
ENDBRANCH  21  22
ENDBRANCH   1  21
TORSDOF 20
