REMARK SMILES CC(C)[C@H](NC(=O)OCc1ccccc1)C(=O)NCC(=O)NCCCCCCNC(=O)c1ccc(-c2c3nc(c(-c4cc(S(=O)(=O)[O-])ccc4F)c4ccc([nH]4)c(-c4cc(S(=O)(=O)[O-])ccc4F)c4nc(c(-c5cc(S(=O)(=O)[O-])ccc5F)c5ccc2[nH]5)C=C4)C=C3)cc1
REMARK SMILES IDX 24 1 23 2 22 3 20 4 21 5 19 7 18 8 16 9 17 10 4 12 2 13 1 14
REMARK SMILES IDX 3 15 5 16 6 17 7 19 8 20 9 21 10 22 11 23 15 24 12 25 14 26
REMARK SMILES IDX 13 27 25 28 26 29 27 30 28 31 29 32 30 33 31 35 32 36 33 37
REMARK SMILES IDX 94 38 34 39 93 40 35 41 36 42 37 43 87 44 38 45 92 46 86 47
REMARK SMILES IDX 88 48 39 49 91 50 85 51 84 52 40 54 72 55 52 56 71 57 53 58
REMARK SMILES IDX 56 59 70 60 89 61 54 62 55 63 69 65 90 66 57 67 41 68 42 69
REMARK SMILES IDX 50 70 43 71 49 72 51 73 48 74 44 75 45 76 46 77 47 78 73 79
REMARK SMILES IDX 74 80 82 81 75 82 81 83 83 84 80 85 76 86 77 87 78 88 79 89
REMARK SMILES IDX 58 90 59 91 67 92 60 93 66 94 68 95 65 96 61 97 62 98 63 99
REMARK SMILES IDX 64 100
REMARK H PARENT 22 6 18 11 5 18 29 34 88 53 56 64
REMARK Flexibility Score: inf
ROOT
ATOM      1  C   UNL     1       1.782   5.019  -1.852  1.00  0.00     0.021 C 
ENDROOT
BRANCH   1   2
ATOM      2  C   UNL     1       1.535   4.126  -0.641  1.00  0.00     0.116 C 
BRANCH   2   3
ATOM      3  N   UNL     1       1.621   4.859   0.608  1.00  0.00    -0.355 N 
ATOM      4  C   UNL     1       0.862   4.821   1.736  1.00  0.00     0.239 C 
ATOM      5  O   UNL     1       1.282   5.450   2.714  1.00  0.00    -0.273 OA
ATOM      6  H   UNL     1       2.365   5.503   0.645  1.00  0.00     0.163 HD
BRANCH   4   7
ATOM      7  C   UNL     1      -0.359   3.902   1.892  1.00  0.00     0.216 C 
BRANCH   7   8
ATOM      8  N   UNL     1      -1.231   3.745   0.738  1.00  0.00    -0.345 N 
ATOM      9  C   UNL     1      -1.677   2.653   0.053  1.00  0.00     0.243 C 
ATOM     10  O   UNL     1      -2.596   2.853  -0.748  1.00  0.00    -0.273 OA
ATOM     11  H   UNL     1      -1.566   4.598   0.380  1.00  0.00     0.164 HD
BRANCH   9  12
ATOM     12  C   UNL     1      -1.188   1.210   0.339  1.00  0.00     0.177 C 
BRANCH  12  13
ATOM     13  C   UNL     1      -2.035   0.478   1.421  1.00  0.00     0.015 C 
ATOM     14  C   UNL     1      -2.610   1.373   2.523  1.00  0.00     0.010 C 
ATOM     15  C   UNL     1      -3.180  -0.306   0.767  1.00  0.00     0.010 C 
ENDBRANCH  12  13
BRANCH  12  16
ATOM     16  N   UNL     1       0.244   1.146   0.624  1.00  0.00    -0.309 N 
ATOM     17  C   UNL     1       1.050   0.051   0.569  1.00  0.00     0.408 C 
ATOM     18  H   UNL     1       0.674   1.992   0.885  1.00  0.00     0.167 HD
ATOM     19  O   UNL     1       2.216   0.133   0.921  1.00  0.00    -0.225 OA
BRANCH  17  20
ATOM     20  O   UNL     1       0.435  -1.052   0.088  1.00  0.00    -0.445 OA
BRANCH  20  21
ATOM     21  C   UNL     1       1.210  -2.260   0.140  1.00  0.00     0.270 C 
BRANCH  21  22
ATOM     22  C   UNL     1       2.051  -2.547  -1.086  1.00  0.00    -0.011 A 
ATOM     23  C   UNL     1       2.417  -3.878  -1.355  1.00  0.00     0.007 A 
ATOM     24  C   UNL     1       2.559  -1.540  -1.918  1.00  0.00     0.007 A 
ATOM     25  C   UNL     1       3.255  -4.190  -2.428  1.00  0.00     0.000 A 
ATOM     26  C   UNL     1       3.400  -1.852  -2.990  1.00  0.00     0.000 A 
ATOM     27  C   UNL     1       3.748  -3.176  -3.244  1.00  0.00     0.000 A 
ENDBRANCH  21  22
ENDBRANCH  20  21
ENDBRANCH  17  20
ENDBRANCH  12  16
ENDBRANCH   9  12
ENDBRANCH   7   8
ENDBRANCH   4   7
ENDBRANCH   2   3
ENDBRANCH   1   2
BRANCH   1  28
ATOM     28  C   UNL     1       3.234   5.468  -2.038  1.00  0.00     0.002 C 
BRANCH  28  29
ATOM     29  C   UNL     1       4.271   4.345  -2.134  1.00  0.00     0.002 C 
BRANCH  29  30
ATOM     30  C   UNL     1       3.970   3.243  -3.154  1.00  0.00     0.021 C 
BRANCH  30  31
ATOM     31  C   UNL     1       3.696   3.722  -4.575  1.00  0.00     0.116 C 
BRANCH  31  32
ATOM     32  N   UNL     1       4.810   4.458  -5.146  1.00  0.00    -0.352 N 
ATOM     33  C   UNL     1       5.375   4.330  -6.393  1.00  0.00     0.251 C 
ATOM     34  H   UNL     1       5.214   5.141  -4.563  1.00  0.00     0.163 HD
ATOM     35  O   UNL     1       6.400   4.943  -6.671  1.00  0.00    -0.269 OA
BRANCH  33  36
ATOM     36  C   UNL     1       4.752   3.421  -7.378  1.00  0.00     0.039 A 
ATOM     37  C   UNL     1       5.547   2.470  -8.023  1.00  0.00     0.014 A 
ATOM     38  C   UNL     1       3.381   3.493  -7.644  1.00  0.00     0.014 A 
ATOM     39  C   UNL     1       4.957   1.545  -8.888  1.00  0.00     0.010 A 
ATOM     40  C   UNL     1       2.787   2.536  -8.461  1.00  0.00     0.010 A 
ATOM     41  C   UNL     1       3.568   1.551  -9.089  1.00  0.00    -0.014 A 
BRANCH  41  42
ATOM     42  C   UNL     1       2.896   0.565  -9.974  1.00  0.00     0.031 A 
ATOM     43  C   UNL     1       2.204   1.050 -11.219  1.00  0.00     0.074 A 
ATOM     44  C   UNL     1       2.829  -0.733  -9.620  1.00  0.00     0.049 A 
ATOM     45  N   UNL     1       1.386   0.414 -12.015  1.00  0.00    -0.248 NA
ATOM     46  C   UNL     1       2.447   2.451 -11.595  1.00  0.00     0.031 C 
ATOM     47  C   UNL     1       3.455  -1.321  -8.434  1.00  0.00     0.029 A 
ATOM     48  N   UNL     1       2.179  -1.790 -10.209  1.00  0.00    -0.354 N 
ATOM     49  C   UNL     1       0.999   1.341 -12.977  1.00  0.00     0.074 A 
ATOM     50  C   UNL     1       1.636   2.595 -12.632  1.00  0.00     0.031 C 
ATOM     51  C   UNL     1       3.155  -2.630  -8.381  1.00  0.00     0.029 A 
ATOM     52  C   UNL     1       2.274  -2.964  -9.496  1.00  0.00     0.049 A 
ATOM     53  H   UNL     1       1.692  -1.715 -11.060  1.00  0.00     0.167 HD
ATOM     54  C   UNL     1       0.201   1.159 -14.058  1.00  0.00     0.034 A 
ATOM     55  C   UNL     1       1.690  -4.163  -9.702  1.00  0.00     0.034 A 
ATOM     56  C   UNL     1      -0.416  -0.100 -14.394  1.00  0.00     0.049 A 
ATOM     57  C   UNL     1       0.778  -4.334 -10.894  1.00  0.00     0.074 A 
ATOM     58  C   UNL     1      -1.246  -0.399 -15.460  1.00  0.00     0.029 A 
ATOM     59  N   UNL     1      -0.261  -1.275 -13.670  1.00  0.00    -0.354 N 
ATOM     60  N   UNL     1       0.416  -3.445 -11.790  1.00  0.00    -0.248 NA
ATOM     61  C   UNL     1       0.203  -5.670 -11.110  1.00  0.00     0.031 C 
ATOM     62  C   UNL     1      -1.625  -1.742 -15.359  1.00  0.00     0.029 A 
ATOM     63  C   UNL     1      -0.981  -2.297 -14.266  1.00  0.00     0.049 A 
ATOM     64  H   UNL     1       0.282  -1.368 -12.854  1.00  0.00     0.167 HD
ATOM     65  C   UNL     1      -0.391  -4.127 -12.697  1.00  0.00     0.074 A 
ATOM     66  C   UNL     1      -0.462  -5.500 -12.243  1.00  0.00     0.031 C 
ATOM     67  C   UNL     1      -1.014  -3.665 -13.809  1.00  0.00     0.034 A 
BRANCH  54  68
ATOM     68  C   UNL     1      -0.059   2.357 -14.936  1.00  0.00     0.023 A 
ATOM     69  C   UNL     1       0.978   2.974 -15.656  1.00  0.00     0.031 A 
ATOM     70  C   UNL     1      -1.349   2.904 -15.037  1.00  0.00     0.131 A 
ATOM     71  C   UNL     1       0.722   4.142 -16.389  1.00  0.00     0.055 A 
ATOM     72  C   UNL     1      -1.613   4.021 -15.833  1.00  0.00     0.041 A 
ATOM     73  F   UNL     1      -2.375   2.369 -14.356  1.00  0.00    -0.206 F 
ATOM     74  C   UNL     1      -0.571   4.655 -16.503  1.00  0.00     0.022 A 
BRANCH  71  75
ATOM     75  S   UNL     1       2.128   5.050 -17.086  1.00  0.00     0.124 S 
ATOM     76  O   UNL     1       2.864   5.422 -15.880  1.00  0.00    -0.237 OA
ATOM     77  O   UNL     1       2.761   4.050 -17.938  1.00  0.00    -0.237 OA
ATOM     78  O   UNL     1       1.499   6.164 -17.793  1.00  0.00    -0.744 OA
ENDBRANCH  71  75
ENDBRANCH  54  68
BRANCH  55  79
ATOM     79  C   UNL     1       1.911  -5.292  -8.752  1.00  0.00     0.023 A 
ATOM     80  C   UNL     1       2.529  -6.480  -9.175  1.00  0.00     0.031 A 
ATOM     81  C   UNL     1       1.445  -5.229  -7.427  1.00  0.00     0.131 A 
ATOM     82  C   UNL     1       2.606  -7.578  -8.305  1.00  0.00     0.055 A 
ATOM     83  C   UNL     1       1.580  -6.303  -6.545  1.00  0.00     0.041 A 
ATOM     84  F   UNL     1       0.849  -4.117  -6.968  1.00  0.00    -0.206 F 
ATOM     85  C   UNL     1       2.146  -7.494  -6.989  1.00  0.00     0.022 A 
BRANCH  82  86
ATOM     86  S   UNL     1       3.208  -9.160  -8.958  1.00  0.00     0.124 S 
ATOM     87  O   UNL     1       2.331  -9.360 -10.107  1.00  0.00    -0.237 OA
ATOM     88  O   UNL     1       4.601  -8.851  -9.258  1.00  0.00    -0.237 OA
ATOM     89  O   UNL     1       3.001 -10.086  -7.846  1.00  0.00    -0.744 OA
ENDBRANCH  82  86
ENDBRANCH  55  79
BRANCH  67  90
ATOM     90  C   UNL     1      -1.749  -4.670 -14.658  1.00  0.00     0.023 A 
ATOM     91  C   UNL     1      -2.953  -5.260 -14.239  1.00  0.00     0.031 A 
ATOM     92  C   UNL     1      -1.236  -5.022 -15.919  1.00  0.00     0.131 A 
ATOM     93  C   UNL     1      -3.587  -6.204 -15.062  1.00  0.00     0.055 A 
ATOM     94  C   UNL     1      -1.895  -5.925 -16.753  1.00  0.00     0.041 A 
ATOM     95  F   UNL     1      -0.090  -4.482 -16.365  1.00  0.00    -0.206 F 
ATOM     96  C   UNL     1      -3.074  -6.528 -16.322  1.00  0.00     0.022 A 
BRANCH  93  97
ATOM     97  S   UNL     1      -5.072  -7.042 -14.447  1.00  0.00     0.124 S 
ATOM     98  O   UNL     1      -4.561  -7.743 -13.273  1.00  0.00    -0.237 OA
ATOM     99  O   UNL     1      -5.974  -5.927 -14.180  1.00  0.00    -0.237 OA
ATOM    100  O   UNL     1      -5.468  -7.903 -15.560  1.00  0.00    -0.744 OA
ENDBRANCH  93  97
ENDBRANCH  67  90
ENDBRANCH  41  42
ENDBRANCH  33  36
ENDBRANCH  31  32
ENDBRANCH  30  31
ENDBRANCH  29  30
ENDBRANCH  28  29
ENDBRANCH   1  28
TORSDOF 23
