REMARK SMILES O=C(NCCCCCCNC(=O)[C@@H]1CCCCC[C@H]1NC(=O)c1ccc(Cl)o1)c1ccc(-c2c3nc(c(-c4cc(S(=O)(=O)[O-])ccc4F)c4ccc([nH]4)c(-c4cc(S(=O)(=O)[O-])ccc4F)c4nc(c(-c5cc(S(=O)(=O)[O-])ccc5F)c5ccc2[nH]5)C=C4)C=C3)cc1
REMARK SMILES IDX 7 1 6 2 5 3 4 4 3 5 1 6 2 7 29 9 30 10 91 11 31 12 90 13
REMARK SMILES IDX 32 14 33 15 34 16 84 17 35 18 89 19 83 20 85 21 36 22 88 23
REMARK SMILES IDX 82 24 81 25 37 27 69 28 49 29 68 30 50 31 53 32 67 33 86 34
REMARK SMILES IDX 51 35 52 36 66 38 87 39 54 40 38 41 39 42 47 43 40 44 46 45
REMARK SMILES IDX 48 46 45 47 41 48 42 49 43 50 44 51 70 52 71 53 79 54 72 55
REMARK SMILES IDX 78 56 80 57 77 58 73 59 74 60 75 61 76 62 55 63 56 64 64 65
REMARK SMILES IDX 57 66 63 67 65 68 62 69 58 70 59 71 60 72 61 73 8 74 9 75
REMARK SMILES IDX 10 76 11 77 12 79 13 80 14 81 15 82 19 84 18 85 17 86 16 87
REMARK SMILES IDX 20 89 21 90 22 92 23 93 24 94 28 95 25 96 26 97 27 98
REMARK H PARENT 3 8 85 26 53 37 10 78 20 91
REMARK Flexibility Score: 90.00
ROOT
ATOM      1  C   UNL     1       4.855  -1.657   4.062  1.00  0.00     0.002 C 
ENDROOT
BRANCH   1   2
ATOM      2  C   UNL     1       4.272  -0.256   3.850  1.00  0.00     0.002 C 
BRANCH   2   3
ATOM      3  C   UNL     1       4.744   0.463   2.586  1.00  0.00     0.021 C 
BRANCH   3   4
ATOM      4  C   UNL     1       4.496  -0.284   1.281  1.00  0.00     0.116 C 
BRANCH   4   5
ATOM      5  N   UNL     1       3.081  -0.475   1.014  1.00  0.00    -0.352 N 
ATOM      6  O   UNL     1       1.136  -0.230  -0.094  1.00  0.00    -0.269 OA
ATOM      7  C   UNL     1       2.361  -0.153  -0.110  1.00  0.00     0.251 C 
ATOM      8  H   UNL     1       2.565  -0.894   1.741  1.00  0.00     0.163 HD
BRANCH   7   9
ATOM      9  C   UNL     1       3.062   0.300  -1.333  1.00  0.00     0.039 A 
ATOM     10  C   UNL     1       4.200  -0.366  -1.796  1.00  0.00     0.014 A 
ATOM     11  C   UNL     1       2.553   1.393  -2.039  1.00  0.00     0.014 A 
ATOM     12  C   UNL     1       4.891   0.125  -2.900  1.00  0.00     0.010 A 
ATOM     13  C   UNL     1       3.208   1.841  -3.190  1.00  0.00     0.010 A 
ATOM     14  C   UNL     1       4.393   1.222  -3.619  1.00  0.00    -0.014 A 
BRANCH  14  15
ATOM     15  C   UNL     1       5.081   1.668  -4.857  1.00  0.00     0.031 A 
ATOM     16  C   UNL     1       5.723   3.023  -4.939  1.00  0.00     0.074 A 
ATOM     17  C   UNL     1       5.101   0.842  -5.921  1.00  0.00     0.049 A 
ATOM     18  N   UNL     1       6.314   3.598  -5.955  1.00  0.00    -0.248 NA
ATOM     19  C   UNL     1       5.681   3.845  -3.722  1.00  0.00     0.031 C 
ATOM     20  C   UNL     1       4.495  -0.492  -5.958  1.00  0.00     0.029 A 
ATOM     21  N   UNL     1       5.639   0.997  -7.172  1.00  0.00    -0.354 N 
ATOM     22  C   UNL     1       6.701   4.858  -5.510  1.00  0.00     0.074 A 
ATOM     23  C   UNL     1       6.241   4.972  -4.140  1.00  0.00     0.031 C 
ATOM     24  C   UNL     1       4.703  -1.035  -7.166  1.00  0.00     0.029 A 
ATOM     25  C   UNL     1       5.399  -0.068  -8.007  1.00  0.00     0.049 A 
ATOM     26  H   UNL     1       6.148   1.794  -7.446  1.00  0.00     0.167 HD
ATOM     27  C   UNL     1       7.380   5.822  -6.183  1.00  0.00     0.034 A 
ATOM     28  C   UNL     1       5.670  -0.237  -9.316  1.00  0.00     0.034 A 
ATOM     29  C   UNL     1       7.824   5.682  -7.551  1.00  0.00     0.049 A 
ATOM     30  C   UNL     1       6.385   0.858 -10.055  1.00  0.00     0.074 A 
ATOM     31  C   UNL     1       8.567   6.568  -8.313  1.00  0.00     0.029 A 
ATOM     32  N   UNL     1       7.548   4.594  -8.373  1.00  0.00    -0.354 N 
ATOM     33  N   UNL     1       6.780   2.029  -9.611  1.00  0.00    -0.248 NA
ATOM     34  C   UNL     1       6.698   0.609 -11.467  1.00  0.00     0.031 C 
ATOM     35  C   UNL     1       8.675   6.052  -9.610  1.00  0.00     0.029 A 
ATOM     36  C   UNL     1       8.069   4.806  -9.642  1.00  0.00     0.049 A 
ATOM     37  H   UNL     1       7.053   3.790  -8.094  1.00  0.00     0.167 HD
ATOM     38  C   UNL     1       7.403   2.652 -10.687  1.00  0.00     0.074 A 
ATOM     39  C   UNL     1       7.342   1.720 -11.796  1.00  0.00     0.031 C 
ATOM     40  C   UNL     1       7.979   3.879 -10.748  1.00  0.00     0.034 A 
BRANCH  27  41
ATOM     41  C   UNL     1       7.632   7.127  -5.461  1.00  0.00     0.023 A 
ATOM     42  C   UNL     1       8.404   7.194  -4.287  1.00  0.00     0.031 A 
ATOM     43  C   UNL     1       7.056   8.321  -5.934  1.00  0.00     0.131 A 
ATOM     44  C   UNL     1       8.507   8.404  -3.581  1.00  0.00     0.055 A 
ATOM     45  C   UNL     1       7.233   9.539  -5.273  1.00  0.00     0.041 A 
ATOM     46  F   UNL     1       6.293   8.322  -7.038  1.00  0.00    -0.206 F 
ATOM     47  C   UNL     1       7.946   9.582  -4.079  1.00  0.00     0.022 A 
BRANCH  44  48
ATOM     48  S   UNL     1       9.240   8.381  -1.921  1.00  0.00     0.124 S 
ATOM     49  O   UNL     1       8.421   7.375  -1.248  1.00  0.00    -0.237 OA
ATOM     50  O   UNL     1      10.622   8.005  -2.193  1.00  0.00    -0.237 OA
ATOM     51  O   UNL     1       9.047   9.748  -1.442  1.00  0.00    -0.744 OA
ENDBRANCH  44  48
ENDBRANCH  27  41
BRANCH  28  52
ATOM     52  C   UNL     1       5.209  -1.473 -10.007  1.00  0.00     0.023 A 
ATOM     53  C   UNL     1       6.118  -2.428 -10.483  1.00  0.00     0.031 A 
ATOM     54  C   UNL     1       3.834  -1.721 -10.180  1.00  0.00     0.131 A 
ATOM     55  C   UNL     1       5.642  -3.580 -11.129  1.00  0.00     0.055 A 
ATOM     56  C   UNL     1       3.365  -2.889 -10.781  1.00  0.00     0.041 A 
ATOM     57  F   UNL     1       2.925  -0.841  -9.732  1.00  0.00    -0.206 F 
ATOM     58  C   UNL     1       4.273  -3.824 -11.267  1.00  0.00     0.022 A 
BRANCH  55  59
ATOM     59  S   UNL     1       6.844  -4.744 -11.830  1.00  0.00     0.124 S 
ATOM     60  O   UNL     1       7.551  -3.901 -12.787  1.00  0.00    -0.237 OA
ATOM     61  O   UNL     1       7.600  -5.148 -10.649  1.00  0.00    -0.237 OA
ATOM     62  O   UNL     1       6.005  -5.787 -12.416  1.00  0.00    -0.744 OA
ENDBRANCH  55  59
ENDBRANCH  28  52
BRANCH  40  63
ATOM     63  C   UNL     1       8.620   4.267 -12.057  1.00  0.00     0.023 A 
ATOM     64  C   UNL     1       7.856   4.523 -13.209  1.00  0.00     0.031 A 
ATOM     65  C   UNL     1      10.018   4.378 -12.151  1.00  0.00     0.131 A 
ATOM     66  C   UNL     1       8.498   4.836 -14.417  1.00  0.00     0.055 A 
ATOM     67  C   UNL     1      10.649   4.741 -13.341  1.00  0.00     0.041 A 
ATOM     68  F   UNL     1      10.796   4.139 -11.082  1.00  0.00    -0.206 F 
ATOM     69  C   UNL     1       9.888   4.963 -14.486  1.00  0.00     0.022 A 
BRANCH  66  70
ATOM     70  S   UNL     1       7.498   5.008 -15.921  1.00  0.00     0.124 S 
ATOM     71  O   UNL     1       6.901   3.682 -16.040  1.00  0.00    -0.237 OA
ATOM     72  O   UNL     1       6.584   6.090 -15.568  1.00  0.00    -0.237 OA
ATOM     73  O   UNL     1       8.481   5.340 -16.951  1.00  0.00    -0.744 OA
ENDBRANCH  66  70
ENDBRANCH  40  63
ENDBRANCH  14  15
ENDBRANCH   7   9
ENDBRANCH   4   5
ENDBRANCH   3   4
ENDBRANCH   2   3
ENDBRANCH   1   2
BRANCH   1  74
ATOM     74  C   UNL     1       6.385  -1.753   4.016  1.00  0.00     0.021 C 
BRANCH  74  75
ATOM     75  C   UNL     1       7.115  -0.831   4.990  1.00  0.00     0.116 C 
BRANCH  75  76
ATOM     76  N   UNL     1       6.815  -1.159   6.372  1.00  0.00    -0.356 N 
ATOM     77  C   UNL     1       7.657  -1.391   7.418  1.00  0.00     0.225 C 
ATOM     78  H   UNL     1       5.856  -1.222   6.587  1.00  0.00     0.163 HD
ATOM     79  O   UNL     1       7.155  -1.619   8.520  1.00  0.00    -0.275 OA
BRANCH  77  80
ATOM     80  C   UNL     1       9.171  -1.306   7.205  1.00  0.00     0.101 C 
BRANCH  80  81
ATOM     81  C   UNL     1       9.876  -2.171   8.264  1.00  0.00     0.015 C 
BRANCH  81  82
ATOM     82  C   UNL     1      11.388  -1.998   8.347  1.00  0.00     0.001 CG0
ATOM     83  G   UNL     1      11.795  -0.902   9.325  1.00  0.00     0.000 G0
ENDBRANCH  81  82
ENDBRANCH  80  81
BRANCH  80  84
ATOM     84  C   UNL     1       9.568   0.190   7.152  1.00  0.00     0.094 C 
BRANCH  84  85
ATOM     85  C   UNL     1      10.022   0.795   8.492  1.00  0.00     0.026 C 
BRANCH  85  86
ATOM     86  C   UNL     1      11.472   0.524   8.898  1.00  0.00     0.002 C 
BRANCH  86  87
ATOM     87  C   UNL     1      11.795  -0.902   9.325  1.00  0.00     0.000 CG0
ATOM     88  G   UNL     1      11.388  -1.998   8.347  1.00  0.00     0.000 G0
ENDBRANCH  86  87
ENDBRANCH  85  86
ENDBRANCH  84  85
BRANCH  84  89
ATOM     89  N   UNL     1      10.573   0.422   6.108  1.00  0.00    -0.346 N 
ATOM     90  C   UNL     1      10.520   1.113   4.923  1.00  0.00     0.287 C 
ATOM     91  H   UNL     1      11.446   0.005   6.291  1.00  0.00     0.164 HD
ATOM     92  O   UNL     1      11.467   0.928   4.154  1.00  0.00    -0.266 OA
BRANCH  90  93
ATOM     93  C   UNL     1       9.402   1.974   4.611  1.00  0.00     0.193 A 
ATOM     94  C   UNL     1       8.628   2.850   5.352  1.00  0.00     0.058 A 
ATOM     95  O   UNL     1       8.987   2.011   3.306  1.00  0.00    -0.440 OA
ATOM     96  C   UNL     1       7.702   3.440   4.454  1.00  0.00     0.064 A 
ATOM     97  C   UNL     1       7.969   2.908   3.212  1.00  0.00     0.194 A 
ATOM     98  Cl  UNL     1       7.155   3.265   1.744  1.00  0.00    -0.043 Cl
ENDBRANCH  90  93
ENDBRANCH  84  89
ENDBRANCH  80  84
ENDBRANCH  77  80
ENDBRANCH  75  76
ENDBRANCH  74  75
ENDBRANCH   1  74
TORSDOF 18
