REMARK SMILES CC(=C\c1ccco1)/C=C1/SC(=S)N(CC(=O)NCCCCCCNC(=O)c2ccc(-c3c4nc(c(-c5cc(S(=O)(=O)[O-])ccc5F)c5ccc([nH]5)c(-c5cc(S(=O)(=O)[O-])ccc5F)c5nc(c(-c6cc(S(=O)(=O)[O-])ccc6F)c6ccc3[nH]6)C=C5)C=C4)cc2)C1=O
REMARK SMILES IDX 21 1 20 2 19 3 18 4 16 5 17 6 15 8 14 9 9 10 10 11 11 12
REMARK SMILES IDX 91 13 12 14 92 15 13 16 2 17 1 18 3 19 4 20 5 21 8 22 6 23
REMARK SMILES IDX 7 24 22 25 23 26 24 27 25 28 26 29 27 31 28 32 29 33 90 34
REMARK SMILES IDX 30 35 89 36 31 37 32 38 33 39 83 40 34 41 88 42 82 43 84 44
REMARK SMILES IDX 35 45 87 46 81 47 80 48 36 50 68 51 48 52 67 53 49 54 52 55
REMARK SMILES IDX 66 56 85 57 50 58 51 59 65 61 86 62 53 63 37 64 38 65 46 66
REMARK SMILES IDX 39 67 45 68 47 69 44 70 40 71 41 72 42 73 43 74 69 75 70 76
REMARK SMILES IDX 78 77 71 78 77 79 79 80 76 81 72 82 73 83 74 84 75 85 54 86
REMARK SMILES IDX 55 87 63 88 56 89 62 90 64 91 61 92 57 93 58 94 59 95 60 96
REMARK H PARENT 18 7 25 30 84 49 52 60
REMARK Flexibility Score: inf
ROOT
ATOM      1  C   UNL     1       3.633  -3.075   3.676  1.00  0.00     0.002 C 
ENDROOT
BRANCH   1   2
ATOM      2  C   UNL     1       3.818  -1.558   3.807  1.00  0.00     0.021 C 
BRANCH   2   3
ATOM      3  C   UNL     1       5.217  -1.071   3.439  1.00  0.00     0.116 C 
BRANCH   3   4
ATOM      4  N   UNL     1       5.459  -1.160   2.015  1.00  0.00    -0.355 N 
ATOM      5  C   UNL     1       5.771  -0.185   1.115  1.00  0.00     0.240 C 
ATOM      6  O   UNL     1       6.166  -0.551   0.004  1.00  0.00    -0.273 OA
ATOM      7  H   UNL     1       5.387  -2.067   1.638  1.00  0.00     0.163 HD
BRANCH   5   8
ATOM      8  C   UNL     1       5.785   1.300   1.508  1.00  0.00     0.227 C 
BRANCH   8   9
ATOM      9  N   UNL     1       4.520   1.764   2.077  1.00  0.00    -0.283 N 
ATOM     10  C   UNL     1       0.913   1.896   1.657  1.00  0.00     0.024 C 
ATOM     11  C   UNL     1       2.188   2.088   2.026  1.00  0.00     0.080 C 
ATOM     12  S   UNL     1       2.648   2.744   3.551  1.00  0.00    -0.054 SA
ATOM     13  C   UNL     1       3.410   1.736   1.255  1.00  0.00     0.266 C 
ATOM     14  C   UNL     1       4.356   2.399   3.288  1.00  0.00     0.148 C 
ATOM     15  O   UNL     1       3.431   1.494   0.055  1.00  0.00    -0.268 OA
ATOM     16  S   UNL     1       5.524   2.837   4.396  1.00  0.00    -0.052 S 
BRANCH  10  17
ATOM     17  C   UNL     1       0.454   1.254   0.429  1.00  0.00    -0.046 C 
ATOM     18  C   UNL     1       0.838  -0.198   0.272  1.00  0.00     0.044 C 
ATOM     19  C   UNL     1      -0.229   1.998  -0.465  1.00  0.00     0.050 C 
BRANCH  19  20
ATOM     20  C   UNL     1      -0.723   1.520  -1.710  1.00  0.00     0.126 A 
ATOM     21  C   UNL     1      -1.334   0.319  -2.057  1.00  0.00     0.050 A 
ATOM     22  O   UNL     1      -0.679   2.295  -2.850  1.00  0.00    -0.465 OA
ATOM     23  C   UNL     1      -1.592   0.341  -3.448  1.00  0.00     0.042 A 
ATOM     24  C   UNL     1      -1.173   1.571  -3.882  1.00  0.00     0.195 A 
ENDBRANCH  19  20
ENDBRANCH  10  17
ENDBRANCH   8   9
ENDBRANCH   5   8
ENDBRANCH   3   4
ENDBRANCH   2   3
ENDBRANCH   1   2
BRANCH   1  25
ATOM     25  C   UNL     1       4.605  -3.925   4.504  1.00  0.00     0.002 C 
BRANCH  25  26
ATOM     26  C   UNL     1       4.635  -3.606   6.001  1.00  0.00     0.021 C 
BRANCH  26  27
ATOM     27  C   UNL     1       3.300  -3.791   6.715  1.00  0.00     0.116 C 
BRANCH  27  28
ATOM     28  N   UNL     1       2.848  -5.171   6.672  1.00  0.00    -0.352 N 
ATOM     29  C   UNL     1       2.460  -5.994   7.701  1.00  0.00     0.251 C 
ATOM     30  H   UNL     1       2.815  -5.576   5.775  1.00  0.00     0.163 HD
ATOM     31  O   UNL     1       2.326  -7.197   7.494  1.00  0.00    -0.269 OA
BRANCH  29  32
ATOM     32  C   UNL     1       2.228  -5.435   9.051  1.00  0.00     0.039 A 
ATOM     33  C   UNL     1       2.680  -6.148  10.163  1.00  0.00     0.014 A 
ATOM     34  C   UNL     1       1.553  -4.222   9.225  1.00  0.00     0.014 A 
ATOM     35  C   UNL     1       2.499  -5.621  11.443  1.00  0.00     0.010 A 
ATOM     36  C   UNL     1       1.449  -3.660  10.495  1.00  0.00     0.010 A 
ATOM     37  C   UNL     1       1.911  -4.357  11.620  1.00  0.00    -0.014 A 
BRANCH  37  38
ATOM     38  C   UNL     1       1.770  -3.768  12.979  1.00  0.00     0.031 A 
ATOM     39  C   UNL     1       0.405  -3.485  13.549  1.00  0.00     0.074 A 
ATOM     40  C   UNL     1       2.875  -3.462  13.687  1.00  0.00     0.049 A 
ATOM     41  N   UNL     1       0.083  -2.972  14.710  1.00  0.00    -0.248 NA
ATOM     42  C   UNL     1      -0.749  -3.792  12.691  1.00  0.00     0.031 C 
ATOM     43  C   UNL     1       4.252  -3.645  13.221  1.00  0.00     0.029 A 
ATOM     44  N   UNL     1       3.021  -2.940  14.948  1.00  0.00    -0.354 N 
ATOM     45  C   UNL     1      -1.306  -2.892  14.719  1.00  0.00     0.074 A 
ATOM     46  C   UNL     1      -1.757  -3.339  13.419  1.00  0.00     0.031 C 
ATOM     47  C   UNL     1       5.099  -3.283  14.197  1.00  0.00     0.029 A 
ATOM     48  C   UNL     1       4.333  -2.797  15.340  1.00  0.00     0.049 A 
ATOM     49  H   UNL     1       2.259  -2.691  15.519  1.00  0.00     0.167 HD
ATOM     50  C   UNL     1      -2.128  -2.508  15.727  1.00  0.00     0.034 A 
ATOM     51  C   UNL     1       4.859  -2.324  16.487  1.00  0.00     0.034 A 
ATOM     52  C   UNL     1      -1.659  -2.068  17.020  1.00  0.00     0.049 A 
ATOM     53  C   UNL     1       3.925  -1.882  17.585  1.00  0.00     0.074 A 
ATOM     54  C   UNL     1      -2.403  -1.700  18.127  1.00  0.00     0.029 A 
ATOM     55  N   UNL     1      -0.323  -1.926  17.378  1.00  0.00    -0.354 N 
ATOM     56  N   UNL     1       2.611  -1.866  17.598  1.00  0.00    -0.248 NA
ATOM     57  C   UNL     1       4.545  -1.411  18.829  1.00  0.00     0.031 C 
ATOM     58  C   UNL     1      -1.523  -1.261  19.123  1.00  0.00     0.029 A 
ATOM     59  C   UNL     1      -0.225  -1.445  18.675  1.00  0.00     0.049 A 
ATOM     60  H   UNL     1       0.442  -2.137  16.795  1.00  0.00     0.167 HD
ATOM     61  C   UNL     1       2.250  -1.419  18.867  1.00  0.00     0.074 A 
ATOM     62  C   UNL     1       3.484  -1.197  19.592  1.00  0.00     0.031 C 
ATOM     63  C   UNL     1       1.012  -1.215  19.387  1.00  0.00     0.034 A 
BRANCH  50  64
ATOM     64  C   UNL     1      -3.616  -2.525  15.458  1.00  0.00     0.023 A 
ATOM     65  C   UNL     1      -4.297  -3.713  15.134  1.00  0.00     0.031 A 
ATOM     66  C   UNL     1      -4.364  -1.334  15.502  1.00  0.00     0.131 A 
ATOM     67  C   UNL     1      -5.657  -3.672  14.790  1.00  0.00     0.055 A 
ATOM     68  C   UNL     1      -5.737  -1.315  15.247  1.00  0.00     0.041 A 
ATOM     69  F   UNL     1      -3.769  -0.164  15.781  1.00  0.00    -0.206 F 
ATOM     70  C   UNL     1      -6.389  -2.486  14.873  1.00  0.00     0.022 A 
BRANCH  67  71
ATOM     71  S   UNL     1      -6.417  -5.160  14.084  1.00  0.00     0.124 S 
ATOM     72  O   UNL     1      -5.572  -5.395  12.915  1.00  0.00    -0.237 OA
ATOM     73  O   UNL     1      -6.290  -6.125  15.169  1.00  0.00    -0.237 OA
ATOM     74  O   UNL     1      -7.782  -4.737  13.780  1.00  0.00    -0.744 OA
ENDBRANCH  67  71
ENDBRANCH  50  64
BRANCH  51  75
ATOM     75  C   UNL     1       6.339  -2.242  16.665  1.00  0.00     0.023 A 
ATOM     76  C   UNL     1       6.993  -2.983  17.663  1.00  0.00     0.031 A 
ATOM     77  C   UNL     1       7.117  -1.382  15.869  1.00  0.00     0.131 A 
ATOM     78  C   UNL     1       8.369  -2.809  17.875  1.00  0.00     0.055 A 
ATOM     79  C   UNL     1       8.496  -1.260  16.043  1.00  0.00     0.041 A 
ATOM     80  F   UNL     1       6.545  -0.653  14.898  1.00  0.00    -0.206 F 
ATOM     81  C   UNL     1       9.128  -1.965  17.062  1.00  0.00     0.022 A 
BRANCH  78  82
ATOM     82  S   UNL     1       9.139  -3.629  19.299  1.00  0.00     0.124 S 
ATOM     83  O   UNL     1       8.349  -3.102  20.407  1.00  0.00    -0.237 OA
ATOM     84  O   UNL     1       8.939  -5.039  18.981  1.00  0.00    -0.237 OA
ATOM     85  O   UNL     1      10.525  -3.171  19.247  1.00  0.00    -0.744 OA
ENDBRANCH  78  82
ENDBRANCH  51  75
BRANCH  63  86
ATOM     86  C   UNL     1       0.939  -0.778  20.832  1.00  0.00     0.023 A 
ATOM     87  C   UNL     1       1.468   0.450  21.266  1.00  0.00     0.031 A 
ATOM     88  C   UNL     1       0.359  -1.622  21.797  1.00  0.00     0.131 A 
ATOM     89  C   UNL     1       1.478   0.763  22.634  1.00  0.00     0.055 A 
ATOM     90  C   UNL     1       0.301  -1.270  23.146  1.00  0.00     0.041 A 
ATOM     91  F   UNL     1      -0.160  -2.810  21.444  1.00  0.00    -0.206 F 
ATOM     92  C   UNL     1       0.880  -0.080  23.574  1.00  0.00     0.022 A 
BRANCH  89  93
ATOM     93  S   UNL     1       2.401   2.225  23.184  1.00  0.00     0.124 S 
ATOM     94  O   UNL     1       3.733   1.961  22.650  1.00  0.00    -0.237 OA
ATOM     95  O   UNL     1       1.665   3.315  22.551  1.00  0.00    -0.237 OA
ATOM     96  O   UNL     1       2.295   2.170  24.641  1.00  0.00    -0.744 OA
ENDBRANCH  89  93
ENDBRANCH  63  86
ENDBRANCH  37  38
ENDBRANCH  29  32
ENDBRANCH  27  28
ENDBRANCH  26  27
ENDBRANCH  25  26
ENDBRANCH   1  25
TORSDOF 19
