REMARK SMILES Cc1ccc(C(=O)N[C@@H](CC(=O)NCCCCCCNC(=O)c2ccc(-c3c4nc(c(-c5cc(S(=O)(=O)[O-])ccc5F)c5ccc([nH]5)c(-c5cc(S(=O)(=O)[O-])ccc5F)c5nc(c(-c6cc(S(=O)(=O)[O-])ccc6F)c6ccc3[nH]6)C=C5)C=C4)cc2)c2cccs2)o1
REMARK SMILES IDX 16 1 15 2 14 3 13 4 11 5 12 6 10 8 9 9 8 10 6 11 7 12 5 14
REMARK SMILES IDX 1 15 2 16 3 17 91 18 4 19 86 20 87 21 90 22 88 23 89 24
REMARK SMILES IDX 17 25 18 26 19 27 20 28 21 29 22 31 23 32 24 33 85 34 25 35
REMARK SMILES IDX 84 36 26 37 27 38 28 39 78 40 29 41 83 42 77 43 79 44 30 45
REMARK SMILES IDX 82 46 76 47 75 48 31 50 63 51 43 52 62 53 44 54 47 55 61 56
REMARK SMILES IDX 80 57 45 58 46 59 60 61 81 62 48 63 32 64 33 65 41 66 34 67
REMARK SMILES IDX 40 68 42 69 39 70 35 71 36 72 37 73 38 74 64 75 65 76 73 77
REMARK SMILES IDX 66 78 72 79 74 80 71 81 67 82 68 83 69 84 70 85 49 86 50 87
REMARK SMILES IDX 58 88 51 89 57 90 59 91 56 92 52 93 53 94 54 95 55 96
REMARK H PARENT 13 7 8 13 20 30 79 49 47 60
REMARK Flexibility Score: inf
ROOT
ATOM      1  C   UNL     1      -6.382   4.521   0.439  1.00  0.00     0.002 C 
ENDROOT
BRANCH   1   2
ATOM      2  C   UNL     1      -5.273   3.468   0.371  1.00  0.00     0.021 C 
BRANCH   2   3
ATOM      3  C   UNL     1      -5.223   2.534   1.581  1.00  0.00     0.116 C 
BRANCH   3   4
ATOM      4  N   UNL     1      -6.300   1.565   1.516  1.00  0.00    -0.356 N 
ATOM      5  C   UNL     1      -6.258   0.224   1.298  1.00  0.00     0.222 C 
ATOM      6  O   UNL     1      -7.324  -0.391   1.231  1.00  0.00    -0.275 OA
ATOM      7  H   UNL     1      -7.202   1.936   1.652  1.00  0.00     0.163 HD
BRANCH   5   8
ATOM      8  C   UNL     1      -4.936  -0.508   1.210  1.00  0.00     0.130 C 
BRANCH   8   9
ATOM      9  C   UNL     1      -4.228  -0.531  -0.149  1.00  0.00     0.132 C 
BRANCH   9  10
ATOM     10  N   UNL     1      -3.473   0.674  -0.430  1.00  0.00    -0.341 N 
ATOM     11  C   UNL     1      -2.162   1.046  -0.311  1.00  0.00     0.287 C 
ATOM     12  O   UNL     1      -1.977   2.263  -0.412  1.00  0.00    -0.266 OA
ATOM     13  H   UNL     1      -4.037   1.395  -0.791  1.00  0.00     0.164 HD
BRANCH  11  14
ATOM     14  C   UNL     1      -1.078   0.101  -0.123  1.00  0.00     0.191 A 
ATOM     15  C   UNL     1       2.505   0.077   0.127  1.00  0.00     0.087 C 
ATOM     16  C   UNL     1       1.091  -0.340   0.067  1.00  0.00     0.101 A 
ATOM     17  C   UNL     1       0.457  -1.557   0.021  1.00  0.00     0.046 A 
ATOM     18  O   UNL     1       0.174   0.659   0.009  1.00  0.00    -0.456 OA
ATOM     19  C   UNL     1      -0.929  -1.276  -0.110  1.00  0.00     0.056 A 
ENDBRANCH  11  14
ENDBRANCH   9  10
BRANCH   9  20
ATOM     20  C   UNL     1      -5.108  -0.837  -1.338  1.00  0.00     0.027 A 
ATOM     21  C   UNL     1      -5.304  -2.067  -1.942  1.00  0.00     0.017 A 
ATOM     22  S   UNL     1      -5.970   0.395  -2.175  1.00  0.00    -0.147 S 
ATOM     23  C   UNL     1      -6.118  -1.983  -3.108  1.00  0.00     0.012 A 
ATOM     24  C   UNL     1      -6.538  -0.697  -3.354  1.00  0.00     0.065 A 
ENDBRANCH   9  20
ENDBRANCH   8   9
ENDBRANCH   5   8
ENDBRANCH   3   4
ENDBRANCH   2   3
ENDBRANCH   1   2
BRANCH   1  25
ATOM     25  C   UNL     1      -6.240   5.522   1.587  1.00  0.00     0.002 C 
BRANCH  25  26
ATOM     26  C   UNL     1      -4.882   6.224   1.663  1.00  0.00     0.021 C 
BRANCH  26  27
ATOM     27  C   UNL     1      -4.466   6.939   0.380  1.00  0.00     0.116 C 
BRANCH  27  28
ATOM     28  N   UNL     1      -5.414   7.981   0.018  1.00  0.00    -0.352 N 
ATOM     29  C   UNL     1      -5.209   9.332  -0.100  1.00  0.00     0.251 C 
ATOM     30  H   UNL     1      -6.331   7.674  -0.167  1.00  0.00     0.163 HD
ATOM     31  O   UNL     1      -6.172  10.094  -0.157  1.00  0.00    -0.269 OA
BRANCH  29  32
ATOM     32  C   UNL     1      -3.830   9.861  -0.143  1.00  0.00     0.039 A 
ATOM     33  C   UNL     1      -3.510  10.985   0.620  1.00  0.00     0.014 A 
ATOM     34  C   UNL     1      -2.858   9.249  -0.941  1.00  0.00     0.014 A 
ATOM     35  C   UNL     1      -2.198  11.464   0.624  1.00  0.00     0.010 A 
ATOM     36  C   UNL     1      -1.537   9.682  -0.877  1.00  0.00     0.010 A 
ATOM     37  C   UNL     1      -1.194  10.798  -0.099  1.00  0.00    -0.014 A 
BRANCH  37  38
ATOM     38  C   UNL     1       0.218  11.262  -0.059  1.00  0.00     0.031 A 
ATOM     39  C   UNL     1       0.881  11.762  -1.314  1.00  0.00     0.074 A 
ATOM     40  C   UNL     1       0.913  11.187   1.093  1.00  0.00     0.049 A 
ATOM     41  N   UNL     1       2.119  12.143  -1.500  1.00  0.00    -0.248 NA
ATOM     42  C   UNL     1       0.049  11.813  -2.526  1.00  0.00     0.031 C 
ATOM     43  C   UNL     1       0.385  10.687   2.365  1.00  0.00     0.029 A 
ATOM     44  N   UNL     1       2.212  11.521   1.384  1.00  0.00    -0.354 N 
ATOM     45  C   UNL     1       2.215  12.475  -2.848  1.00  0.00     0.074 A 
ATOM     46  C   UNL     1       0.928  12.186  -3.443  1.00  0.00     0.031 C 
ATOM     47  C   UNL     1       1.344  10.768   3.302  1.00  0.00     0.029 A 
ATOM     48  C   UNL     1       2.568  11.276   2.690  1.00  0.00     0.049 A 
ATOM     49  H   UNL     1       2.832  11.899   0.719  1.00  0.00     0.167 HD
ATOM     50  C   UNL     1       3.272  12.996  -3.520  1.00  0.00     0.034 A 
ATOM     51  C   UNL     1       3.751  11.427   3.320  1.00  0.00     0.034 A 
ATOM     52  C   UNL     1       4.548  13.280  -2.909  1.00  0.00     0.049 A 
ATOM     53  C   UNL     1       4.923  11.970   2.541  1.00  0.00     0.074 A 
ATOM     54  C   UNL     1       5.673  13.843  -3.486  1.00  0.00     0.029 A 
ATOM     55  N   UNL     1       4.873  13.015  -1.584  1.00  0.00    -0.354 N 
ATOM     56  N   UNL     1       4.984  12.322   1.276  1.00  0.00    -0.248 NA
ATOM     57  C   UNL     1       6.182  12.148   3.275  1.00  0.00     0.031 C 
ATOM     58  C   UNL     1       6.697  13.852  -2.533  1.00  0.00     0.029 A 
ATOM     59  C   UNL     1       6.189  13.375  -1.336  1.00  0.00     0.049 A 
ATOM     60  H   UNL     1       4.259  12.629  -0.919  1.00  0.00     0.167 HD
ATOM     61  C   UNL     1       6.278  12.795   1.076  1.00  0.00     0.074 A 
ATOM     62  C   UNL     1       6.956  12.699   2.352  1.00  0.00     0.031 C 
ATOM     63  C   UNL     1       6.855  13.268  -0.058  1.00  0.00     0.034 A 
BRANCH  50  64
ATOM     64  C   UNL     1       3.095  13.268  -4.995  1.00  0.00     0.023 A 
ATOM     65  C   UNL     1       2.155  14.203  -5.465  1.00  0.00     0.031 A 
ATOM     66  C   UNL     1       3.866  12.578  -5.947  1.00  0.00     0.131 A 
ATOM     67  C   UNL     1       1.962  14.371  -6.845  1.00  0.00     0.055 A 
ATOM     68  C   UNL     1       3.727  12.809  -7.317  1.00  0.00     0.041 A 
ATOM     69  F   UNL     1       4.764  11.657  -5.561  1.00  0.00    -0.206 F 
ATOM     70  C   UNL     1       2.760  13.701  -7.774  1.00  0.00     0.022 A 
BRANCH  67  71
ATOM     71  S   UNL     1       0.562  15.377  -7.408  1.00  0.00     0.124 S 
ATOM     72  O   UNL     1      -0.569  14.667  -6.814  1.00  0.00    -0.237 OA
ATOM     73  O   UNL     1       0.864  16.686  -6.841  1.00  0.00    -0.237 OA
ATOM     74  O   UNL     1       0.644  15.293  -8.865  1.00  0.00    -0.744 OA
ENDBRANCH  67  71
ENDBRANCH  50  64
BRANCH  51  75
ATOM     75  C   UNL     1       3.902  11.044   4.755  1.00  0.00     0.023 A 
ATOM     76  C   UNL     1       4.237  11.997   5.729  1.00  0.00     0.031 A 
ATOM     77  C   UNL     1       3.770   9.704   5.164  1.00  0.00     0.131 A 
ATOM     78  C   UNL     1       4.487  11.591   7.050  1.00  0.00     0.055 A 
ATOM     79  C   UNL     1       3.956   9.315   6.491  1.00  0.00     0.041 A 
ATOM     80  F   UNL     1       3.449   8.750   4.275  1.00  0.00    -0.206 F 
ATOM     81  C   UNL     1       4.333  10.259   7.441  1.00  0.00     0.022 A 
BRANCH  78  82
ATOM     82  S   UNL     1       5.123  12.815   8.229  1.00  0.00     0.124 S 
ATOM     83  O   UNL     1       6.327  13.281   7.551  1.00  0.00    -0.237 OA
ATOM     84  O   UNL     1       4.019  13.765   8.303  1.00  0.00    -0.237 OA
ATOM     85  O   UNL     1       5.352  12.031   9.441  1.00  0.00    -0.744 OA
ENDBRANCH  78  82
ENDBRANCH  51  75
BRANCH  63  86
ATOM     86  C   UNL     1       8.277  13.766   0.049  1.00  0.00     0.023 A 
ATOM     87  C   UNL     1       9.347  12.903   0.342  1.00  0.00     0.031 A 
ATOM     88  C   UNL     1       8.561  15.132  -0.135  1.00  0.00     0.131 A 
ATOM     89  C   UNL     1      10.640  13.422   0.500  1.00  0.00     0.055 A 
ATOM     90  C   UNL     1       9.860  15.632  -0.043  1.00  0.00     0.041 A 
ATOM     91  F   UNL     1       7.578  16.003  -0.413  1.00  0.00    -0.206 F 
ATOM     92  C   UNL     1      10.907  14.778   0.290  1.00  0.00     0.022 A 
BRANCH  89  93
ATOM     93  S   UNL     1      11.957  12.319   1.081  1.00  0.00     0.124 S 
ATOM     94  O   UNL     1      11.421  11.850   2.355  1.00  0.00    -0.237 OA
ATOM     95  O   UNL     1      12.026  11.325   0.014  1.00  0.00    -0.237 OA
ATOM     96  O   UNL     1      13.121  13.197   1.184  1.00  0.00    -0.744 OA
ENDBRANCH  89  93
ENDBRANCH  63  86
ENDBRANCH  37  38
ENDBRANCH  29  32
ENDBRANCH  27  28
ENDBRANCH  26  27
ENDBRANCH  25  26
ENDBRANCH   1  25
TORSDOF 20
