REMARK SMILES [NH3+][C@]1(C(=O)NCCCCCCNC(=O)c2ccc(-c3c4nc(c(-c5cc(S(=O)(=O)[O-])ccc5F)c5ccc([nH]5)c(-c5cc(S(=O)(=O)[O-])ccc5F)c5nc(c(-c6cc(S(=O)(=O)[O-])ccc6F)c6ccc3[nH]6)C=C5)C=C4)cc2)CC[C@@H](Sc2ccc(Cl)c(Cl)c2)C1
REMARK SMILES IDX 9 1 8 2 7 3 6 4 5 5 3 6 4 7 2 9 78 10 90 11 79 12 80 13 1 14
REMARK SMILES IDX 81 18 82 19 83 20 89 21 84 22 87 23 85 24 88 25 86 26 10 27
REMARK SMILES IDX 11 28 12 29 13 30 14 32 15 33 16 34 77 35 17 36 76 37 18 38
REMARK SMILES IDX 19 39 20 40 70 41 21 42 75 43 69 44 71 45 22 46 74 47 68 48
REMARK SMILES IDX 67 49 23 51 55 52 35 53 54 54 36 55 39 56 53 57 72 58 37 59
REMARK SMILES IDX 38 60 52 62 73 63 40 64 24 65 25 66 33 67 26 68 32 69 34 70
REMARK SMILES IDX 31 71 27 72 28 73 29 74 30 75 56 76 57 77 65 78 58 79 64 80
REMARK SMILES IDX 66 81 63 82 59 83 60 84 61 85 62 86 41 87 42 88 50 89 43 90
REMARK SMILES IDX 49 91 51 92 48 93 44 94 45 95 46 96 47 97
REMARK H PARENT 5 8 1 15 1 16 1 17 12 31 71 50 39 61
REMARK Flexibility Score: inf
ROOT
ATOM      1  C   UNL     1       5.187  -2.772  -0.958  1.00  0.00     0.002 C 
ENDROOT
BRANCH   1   2
ATOM      2  C   UNL     1       3.824  -3.463  -0.914  1.00  0.00     0.002 C 
BRANCH   2   3
ATOM      3  C   UNL     1       3.008  -3.287   0.366  1.00  0.00     0.021 C 
BRANCH   3   4
ATOM      4  C   UNL     1       2.766  -1.857   0.833  1.00  0.00     0.116 C 
BRANCH   4   5
ATOM      5  N   UNL     1       1.976  -1.067  -0.086  1.00  0.00    -0.351 N 
ATOM      6  C   UNL     1       1.134  -0.021   0.115  1.00  0.00     0.281 C 
ATOM      7  O   UNL     1       0.695   0.523  -0.910  1.00  0.00    -0.268 OA
ATOM      8  H   UNL     1       2.064  -1.338  -1.029  1.00  0.00     0.163 HD
BRANCH   6   9
ATOM      9  C   UNL     1       0.585   0.426   1.507  1.00  0.00     0.175 C 
ATOM     10  C   UNL     1       1.311   0.011   2.788  1.00  0.00     0.080 C 
ATOM     11  C   UNL     1       0.577   1.980   1.570  1.00  0.00     0.094 C 
ATOM     12  C   UNL     1       1.017   1.107   3.796  1.00  0.00     0.022 C 
ATOM     13  C   UNL     1       1.074   2.378   2.963  1.00  0.00     0.058 C 
BRANCH   9  14
ATOM     14  N   UNL     1      -0.827  -0.041   1.588  1.00  0.00    -0.345 N 
ATOM     15  H   UNL     1      -1.224   0.233   2.487  1.00  0.00     0.345 HD
ATOM     16  H   UNL     1      -0.855  -1.056   1.498  1.00  0.00     0.345 HD
ATOM     17  H   UNL     1      -1.369   0.382   0.835  1.00  0.00     0.345 HD
ENDBRANCH   9  14
BRANCH  13  18
ATOM     18  S   UNL     1       2.697   3.257   3.034  1.00  0.00    -0.122 SA
BRANCH  18  19
ATOM     19  C   UNL     1       3.884   2.223   2.191  1.00  0.00     0.009 A 
ATOM     20  C   UNL     1       4.907   1.613   2.928  1.00  0.00     0.017 A 
ATOM     21  C   UNL     1       3.945   2.182   0.795  1.00  0.00     0.037 A 
ATOM     22  C   UNL     1       5.982   0.992   2.279  1.00  0.00     0.023 A 
ATOM     23  C   UNL     1       5.009   1.548   0.141  1.00  0.00     0.060 A 
ATOM     24  C   UNL     1       6.046   0.978   0.884  1.00  0.00     0.059 A 
ATOM     25  Cl  UNL     1       4.993   1.534  -1.587  1.00  0.00    -0.083 Cl
ATOM     26  Cl  UNL     1       7.454   0.311   0.143  1.00  0.00    -0.083 Cl
ENDBRANCH  18  19
ENDBRANCH  13  18
ENDBRANCH   6   9
ENDBRANCH   4   5
ENDBRANCH   3   4
ENDBRANCH   2   3
ENDBRANCH   1   2
BRANCH   1  27
ATOM     27  C   UNL     1       6.112  -3.014   0.235  1.00  0.00     0.021 C 
BRANCH  27  28
ATOM     28  C   UNL     1       6.358  -4.467   0.613  1.00  0.00     0.116 C 
BRANCH  28  29
ATOM     29  N   UNL     1       6.996  -5.216  -0.452  1.00  0.00    -0.352 N 
ATOM     30  C   UNL     1       8.135  -5.983  -0.421  1.00  0.00     0.251 C 
ATOM     31  H   UNL     1       6.546  -5.168  -1.326  1.00  0.00     0.163 HD
ATOM     32  O   UNL     1       8.612  -6.389  -1.476  1.00  0.00    -0.269 OA
BRANCH  30  33
ATOM     33  C   UNL     1       8.797  -6.301   0.868  1.00  0.00     0.039 A 
ATOM     34  C   UNL     1      10.194  -6.306   0.920  1.00  0.00     0.014 A 
ATOM     35  C   UNL     1       8.060  -6.632   2.008  1.00  0.00     0.014 A 
ATOM     36  C   UNL     1      10.846  -6.610   2.119  1.00  0.00     0.010 A 
ATOM     37  C   UNL     1       8.709  -6.851   3.222  1.00  0.00     0.010 A 
ATOM     38  C   UNL     1      10.110  -6.867   3.286  1.00  0.00    -0.014 A 
BRANCH  38  39
ATOM     39  C   UNL     1      10.789  -7.220   4.562  1.00  0.00     0.031 A 
ATOM     40  C   UNL     1      10.580  -8.584   5.169  1.00  0.00     0.074 A 
ATOM     41  C   UNL     1      11.568  -6.314   5.186  1.00  0.00     0.049 A 
ATOM     42  N   UNL     1      11.031  -9.070   6.297  1.00  0.00    -0.248 NA
ATOM     43  C   UNL     1       9.722  -9.513   4.418  1.00  0.00     0.031 C 
ATOM     44  C   UNL     1      11.826  -4.952   4.713  1.00  0.00     0.029 A 
ATOM     45  N   UNL     1      12.287  -6.400   6.352  1.00  0.00    -0.354 N 
ATOM     46  C   UNL     1      10.509 -10.357   6.392  1.00  0.00     0.074 A 
ATOM     47  C   UNL     1       9.642 -10.541   5.248  1.00  0.00     0.031 C 
ATOM     48  C   UNL     1      12.672  -4.345   5.562  1.00  0.00     0.029 A 
ATOM     49  C   UNL     1      12.983  -5.254   6.661  1.00  0.00     0.049 A 
ATOM     50  H   UNL     1      12.303  -7.207   6.915  1.00  0.00     0.167 HD
ATOM     51  C   UNL     1      10.753 -11.310   7.327  1.00  0.00     0.034 A 
ATOM     52  C   UNL     1      13.780  -4.970   7.711  1.00  0.00     0.034 A 
ATOM     53  C   UNL     1      11.628 -11.115   8.457  1.00  0.00     0.049 A 
ATOM     54  C   UNL     1      14.015  -6.038   8.752  1.00  0.00     0.074 A 
ATOM     55  C   UNL     1      11.956 -12.010   9.462  1.00  0.00     0.029 A 
ATOM     56  N   UNL     1      12.323  -9.943   8.731  1.00  0.00    -0.354 N 
ATOM     57  N   UNL     1      13.530  -7.257   8.815  1.00  0.00    -0.248 NA
ATOM     58  C   UNL     1      14.924  -5.695   9.853  1.00  0.00     0.031 C 
ATOM     59  C   UNL     1      12.802 -11.363  10.369  1.00  0.00     0.029 A 
ATOM     60  C   UNL     1      13.066 -10.089   9.892  1.00  0.00     0.049 A 
ATOM     61  H   UNL     1      12.291  -9.127   8.181  1.00  0.00     0.167 HD
ATOM     62  C   UNL     1      14.117  -7.840   9.935  1.00  0.00     0.074 A 
ATOM     63  C   UNL     1      14.999  -6.844  10.507  1.00  0.00     0.031 C 
ATOM     64  C   UNL     1      13.947  -9.088  10.445  1.00  0.00     0.034 A 
BRANCH  51  65
ATOM     65  C   UNL     1      10.048 -12.636   7.162  1.00  0.00     0.023 A 
ATOM     66  C   UNL     1      10.267 -13.450   6.035  1.00  0.00     0.031 A 
ATOM     67  C   UNL     1       9.118 -13.080   8.118  1.00  0.00     0.131 A 
ATOM     68  C   UNL     1       9.507 -14.614   5.851  1.00  0.00     0.055 A 
ATOM     69  C   UNL     1       8.430 -14.287   7.973  1.00  0.00     0.041 A 
ATOM     70  F   UNL     1       8.848 -12.339   9.205  1.00  0.00    -0.206 F 
ATOM     71  C   UNL     1       8.610 -15.054   6.826  1.00  0.00     0.022 A 
BRANCH  68  72
ATOM     72  S   UNL     1       9.596 -15.461   4.249  1.00  0.00     0.124 S 
ATOM     73  O   UNL     1       9.143 -14.412   3.338  1.00  0.00    -0.237 OA
ATOM     74  O   UNL     1      11.006 -15.820   4.159  1.00  0.00    -0.237 OA
ATOM     75  O   UNL     1       8.673 -16.584   4.403  1.00  0.00    -0.744 OA
ENDBRANCH  68  72
ENDBRANCH  51  65
BRANCH  52  76
ATOM     76  C   UNL     1      14.427  -3.632   7.840  1.00  0.00     0.023 A 
ATOM     77  C   UNL     1      15.826  -3.506   7.834  1.00  0.00     0.031 A 
ATOM     78  C   UNL     1      13.663  -2.469   8.042  1.00  0.00     0.131 A 
ATOM     79  C   UNL     1      16.419  -2.261   8.095  1.00  0.00     0.055 A 
ATOM     80  C   UNL     1      14.258  -1.221   8.239  1.00  0.00     0.041 A 
ATOM     81  F   UNL     1      12.322  -2.530   8.051  1.00  0.00    -0.206 F 
ATOM     82  C   UNL     1      15.644  -1.115   8.285  1.00  0.00     0.022 A 
BRANCH  79  83
ATOM     83  S   UNL     1      18.220  -2.185   8.301  1.00  0.00     0.124 S 
ATOM     84  O   UNL     1      18.437  -3.155   9.368  1.00  0.00    -0.237 OA
ATOM     85  O   UNL     1      18.691  -2.572   6.975  1.00  0.00    -0.237 OA
ATOM     86  O   UNL     1      18.461  -0.790   8.664  1.00  0.00    -0.744 OA
ENDBRANCH  79  83
ENDBRANCH  52  76
BRANCH  64  87
ATOM     87  C   UNL     1      14.795  -9.460  11.639  1.00  0.00     0.023 A 
ATOM     88  C   UNL     1      14.657  -8.816  12.881  1.00  0.00     0.031 A 
ATOM     89  C   UNL     1      15.783 -10.454  11.517  1.00  0.00     0.131 A 
ATOM     90  C   UNL     1      15.542  -9.117  13.927  1.00  0.00     0.055 A 
ATOM     91  C   UNL     1      16.615 -10.798  12.582  1.00  0.00     0.041 A 
ATOM     92  F   UNL     1      15.960 -11.103  10.355  1.00  0.00    -0.206 F 
ATOM     93  C   UNL     1      16.510 -10.116  13.790  1.00  0.00     0.022 A 
BRANCH  90  94
ATOM     94  S   UNL     1      15.492  -8.101  15.428  1.00  0.00     0.124 S 
ATOM     95  O   UNL     1      15.669  -6.755  14.891  1.00  0.00    -0.237 OA
ATOM     96  O   UNL     1      14.169  -8.403  15.964  1.00  0.00    -0.237 OA
ATOM     97  O   UNL     1      16.612  -8.604  16.222  1.00  0.00    -0.744 OA
ENDBRANCH  90  94
ENDBRANCH  64  87
ENDBRANCH  38  39
ENDBRANCH  30  33
ENDBRANCH  28  29
ENDBRANCH  27  28
ENDBRANCH   1  27
TORSDOF 19
