REMARK SMILES CN(C(=O)N1Cc2nc[nH]c2C[C@@H]1C(=O)NCCCCCCNC(=O)c1ccc(-c2c3nc(c(-c4cc(S(=O)(=O)[O-])ccc4F)c4ccc([nH]4)c(-c4cc(S(=O)(=O)[O-])ccc4F)c4nc(c(-c5cc(S(=O)(=O)[O-])ccc5F)c5ccc2[nH]5)C=C4)C=C3)cc1)C1CC1
REMARK SMILES IDX 19 1 18 2 17 3 16 4 14 5 15 6 13 8 5 9 6 10 7 11 12 12 8 13
REMARK SMILES IDX 11 14 9 15 10 16 3 18 4 19 2 20 1 21 89 22 90 23 91 24 20 25
REMARK SMILES IDX 21 26 22 27 23 28 24 29 25 31 26 32 27 33 88 34 28 35 87 36
REMARK SMILES IDX 29 37 30 38 31 39 81 40 32 41 86 42 80 43 82 44 33 45 85 46
REMARK SMILES IDX 79 47 78 48 34 50 66 51 46 52 65 53 47 54 50 55 64 56 83 57
REMARK SMILES IDX 48 58 49 59 63 61 84 62 51 63 35 64 36 65 44 66 37 67 43 68
REMARK SMILES IDX 45 69 42 70 38 71 39 72 40 73 41 74 67 75 68 76 76 77 69 78
REMARK SMILES IDX 75 79 77 80 74 81 70 82 71 83 72 84 73 85 52 86 53 87 61 88
REMARK SMILES IDX 54 89 60 90 62 91 59 92 55 93 56 94 57 95 58 96
REMARK H PARENT 16 7 10 17 23 30 82 49 50 60
REMARK Flexibility Score: inf
ROOT
ATOM      1  C   UNL     1       1.918  -0.035   3.100  1.00  0.00     0.002 C 
ENDROOT
BRANCH   1   2
ATOM      2  C   UNL     1       1.494   1.394   2.728  1.00  0.00     0.021 C 
BRANCH   2   3
ATOM      3  C   UNL     1       1.872   1.938   1.342  1.00  0.00     0.116 C 
BRANCH   3   4
ATOM      4  N   UNL     1       1.326   1.176   0.228  1.00  0.00    -0.354 N 
ATOM      5  C   UNL     1       0.500   1.766  -0.721  1.00  0.00     0.243 C 
ATOM      6  O   UNL     1       0.902   2.083  -1.837  1.00  0.00    -0.273 OA
ATOM      7  H   UNL     1       1.548   0.221   0.145  1.00  0.00     0.163 HD
BRANCH   5   8
ATOM      8  C   UNL     1      -0.876   2.176  -0.185  1.00  0.00     0.182 C 
ATOM      9  N   UNL     1      -1.460   1.400   0.936  1.00  0.00    -0.306 N 
ATOM     10  C   UNL     1      -2.181   2.270   1.906  1.00  0.00     0.180 C 
ATOM     11  C   UNL     1      -3.028   3.235   1.124  1.00  0.00     0.081 A 
ATOM     12  C   UNL     1      -2.019   2.629  -1.142  1.00  0.00     0.091 C 
ATOM     13  N   UNL     1      -3.799   4.217   1.679  1.00  0.00    -0.240 NA
ATOM     14  C   UNL     1      -2.973   3.381  -0.253  1.00  0.00     0.042 A 
ATOM     15  C   UNL     1      -4.268   4.900   0.658  1.00  0.00     0.197 A 
ATOM     16  N   UNL     1      -3.833   4.398  -0.543  1.00  0.00    -0.348 N 
ATOM     17  H   UNL     1      -4.092   4.711  -1.440  1.00  0.00     0.167 HD
BRANCH   9  18
ATOM     18  C   UNL     1      -1.659   0.040   1.059  1.00  0.00     0.321 C 
ATOM     19  O   UNL     1      -2.348  -0.398   1.985  1.00  0.00    -0.248 OA
BRANCH  18  20
ATOM     20  N   UNL     1      -0.906  -0.857   0.302  1.00  0.00    -0.325 N 
ATOM     21  C   UNL     1      -0.774  -0.858  -1.154  1.00  0.00     0.149 C 
BRANCH  20  22
ATOM     22  C   UNL     1      -0.500  -2.072   1.009  1.00  0.00     0.086 C 
ATOM     23  C   UNL     1      -1.056  -3.431   0.711  1.00  0.00     0.027 C 
ATOM     24  C   UNL     1       0.396  -3.140   0.446  1.00  0.00     0.027 C 
ENDBRANCH  20  22
ENDBRANCH  18  20
ENDBRANCH   9  18
ENDBRANCH   5   8
ENDBRANCH   3   4
ENDBRANCH   2   3
ENDBRANCH   1   2
BRANCH   1  25
ATOM     25  C   UNL     1       3.275  -0.536   2.608  1.00  0.00     0.002 C 
BRANCH  25  26
ATOM     26  C   UNL     1       4.455  -0.114   3.485  1.00  0.00     0.021 C 
BRANCH  26  27
ATOM     27  C   UNL     1       4.569  -0.904   4.791  1.00  0.00     0.116 C 
BRANCH  27  28
ATOM     28  N   UNL     1       5.003  -2.280   4.576  1.00  0.00    -0.352 N 
ATOM     29  C   UNL     1       4.810  -3.367   5.405  1.00  0.00     0.251 C 
ATOM     30  H   UNL     1       5.491  -2.454   3.739  1.00  0.00     0.163 HD
ATOM     31  O   UNL     1       5.517  -4.354   5.314  1.00  0.00    -0.269 OA
BRANCH  29  32
ATOM     32  C   UNL     1       3.730  -3.298   6.408  1.00  0.00     0.039 A 
ATOM     33  C   UNL     1       4.026  -3.471   7.761  1.00  0.00     0.014 A 
ATOM     34  C   UNL     1       2.430  -3.012   5.985  1.00  0.00     0.014 A 
ATOM     35  C   UNL     1       3.019  -3.267   8.705  1.00  0.00     0.010 A 
ATOM     36  C   UNL     1       1.440  -2.777   6.928  1.00  0.00     0.010 A 
ATOM     37  C   UNL     1       1.730  -2.893   8.292  1.00  0.00    -0.014 A 
BRANCH  37  38
ATOM     38  C   UNL     1       0.757  -2.459   9.306  1.00  0.00     0.031 A 
ATOM     39  C   UNL     1       1.160  -1.295  10.153  1.00  0.00     0.074 A 
ATOM     40  C   UNL     1      -0.536  -2.843   9.347  1.00  0.00     0.049 A 
ATOM     41  N   UNL     1       1.253  -1.222  11.442  1.00  0.00    -0.248 NA
ATOM     42  C   UNL     1       1.569  -0.062   9.465  1.00  0.00     0.031 C 
ATOM     43  C   UNL     1      -1.247  -3.693   8.392  1.00  0.00     0.029 A 
ATOM     44  N   UNL     1      -1.526  -2.424  10.191  1.00  0.00    -0.354 N 
ATOM     45  C   UNL     1       1.540   0.110  11.749  1.00  0.00     0.074 A 
ATOM     46  C   UNL     1       1.865   0.733  10.494  1.00  0.00     0.031 C 
ATOM     47  C   UNL     1      -2.577  -3.531   8.561  1.00  0.00     0.029 A 
ATOM     48  C   UNL     1      -2.806  -2.695   9.728  1.00  0.00     0.049 A 
ATOM     49  H   UNL     1      -1.348  -1.972  11.048  1.00  0.00     0.167 HD
ATOM     50  C   UNL     1       1.314   0.630  12.992  1.00  0.00     0.034 A 
ATOM     51  C   UNL     1      -3.979  -2.229  10.223  1.00  0.00     0.034 A 
ATOM     52  C   UNL     1       1.150  -0.423  13.973  1.00  0.00     0.049 A 
ATOM     53  C   UNL     1      -3.751  -1.844  11.635  1.00  0.00     0.074 A 
ATOM     54  C   UNL     1       1.918  -1.495  14.389  1.00  0.00     0.029 A 
ATOM     55  N   UNL     1      -0.108  -0.671  14.476  1.00  0.00    -0.354 N 
ATOM     56  N   UNL     1      -3.428  -2.694  12.571  1.00  0.00    -0.248 NA
ATOM     57  C   UNL     1      -3.493  -0.449  11.955  1.00  0.00     0.031 C 
ATOM     58  C   UNL     1       0.983  -2.542  14.642  1.00  0.00     0.029 A 
ATOM     59  C   UNL     1      -0.295  -2.028  14.420  1.00  0.00     0.049 A 
ATOM     60  H   UNL     1      -0.749  -0.003  14.811  1.00  0.00     0.167 HD
ATOM     61  C   UNL     1      -2.549  -2.007  13.391  1.00  0.00     0.074 A 
ATOM     62  C   UNL     1      -2.738  -0.602  13.046  1.00  0.00     0.031 C 
ATOM     63  C   UNL     1      -1.552  -2.657  14.063  1.00  0.00     0.034 A 
BRANCH  50  64
ATOM     64  C   UNL     1       0.905   2.067  13.298  1.00  0.00     0.023 A 
ATOM     65  C   UNL     1       0.572   2.364  14.638  1.00  0.00     0.031 A 
ATOM     66  C   UNL     1       0.544   3.056  12.359  1.00  0.00     0.131 A 
ATOM     67  C   UNL     1      -0.223   3.476  14.967  1.00  0.00     0.055 A 
ATOM     68  C   UNL     1      -0.178   4.207  12.703  1.00  0.00     0.041 A 
ATOM     69  F   UNL     1       0.797   2.945  11.052  1.00  0.00    -0.206 F 
ATOM     70  C   UNL     1      -0.608   4.400  14.004  1.00  0.00     0.022 A 
BRANCH  67  71
ATOM     71  S   UNL     1      -0.936   3.553  16.632  1.00  0.00     0.124 S 
ATOM     72  O   UNL     1      -1.476   2.204  16.777  1.00  0.00    -0.237 OA
ATOM     73  O   UNL     1       0.234   3.870  17.443  1.00  0.00    -0.237 OA
ATOM     74  O   UNL     1      -1.931   4.616  16.525  1.00  0.00    -0.744 OA
ENDBRANCH  67  71
ENDBRANCH  50  64
BRANCH  51  75
ATOM     75  C   UNL     1      -5.193  -1.884   9.442  1.00  0.00     0.023 A 
ATOM     76  C   UNL     1      -6.479  -1.834  10.011  1.00  0.00     0.031 A 
ATOM     77  C   UNL     1      -5.060  -1.388   8.123  1.00  0.00     0.131 A 
ATOM     78  C   UNL     1      -7.566  -1.327   9.263  1.00  0.00     0.055 A 
ATOM     79  C   UNL     1      -6.139  -0.904   7.383  1.00  0.00     0.041 A 
ATOM     80  F   UNL     1      -3.855  -1.285   7.539  1.00  0.00    -0.206 F 
ATOM     81  C   UNL     1      -7.400  -0.867   7.954  1.00  0.00     0.022 A 
BRANCH  78  82
ATOM     82  S   UNL     1      -9.207  -1.162  10.033  1.00  0.00     0.124 S 
ATOM     83  O   UNL     1      -9.645  -2.549  10.131  1.00  0.00    -0.237 OA
ATOM     84  O   UNL     1      -8.900  -0.488  11.289  1.00  0.00    -0.237 OA
ATOM     85  O   UNL     1      -9.954  -0.349   9.072  1.00  0.00    -0.744 OA
ENDBRANCH  78  82
ENDBRANCH  51  75
BRANCH  63  86
ATOM     86  C   UNL     1      -1.622  -4.162  14.203  1.00  0.00     0.023 A 
ATOM     87  C   UNL     1      -1.699  -5.063  13.118  1.00  0.00     0.031 A 
ATOM     88  C   UNL     1      -1.465  -4.705  15.491  1.00  0.00     0.131 A 
ATOM     89  C   UNL     1      -1.631  -6.451  13.347  1.00  0.00     0.055 A 
ATOM     90  C   UNL     1      -1.379  -6.079  15.713  1.00  0.00     0.041 A 
ATOM     91  F   UNL     1      -1.349  -3.900  16.561  1.00  0.00    -0.206 F 
ATOM     92  C   UNL     1      -1.467  -6.958  14.640  1.00  0.00     0.022 A 
BRANCH  89  93
ATOM     93  S   UNL     1      -1.756  -7.624  11.961  1.00  0.00     0.124 S 
ATOM     94  O   UNL     1      -2.907  -7.143  11.206  1.00  0.00    -0.237 OA
ATOM     95  O   UNL     1      -0.457  -7.482  11.309  1.00  0.00    -0.237 OA
ATOM     96  O   UNL     1      -1.961  -8.913  12.625  1.00  0.00    -0.744 OA
ENDBRANCH  89  93
ENDBRANCH  63  86
ENDBRANCH  37  38
ENDBRANCH  29  32
ENDBRANCH  27  28
ENDBRANCH  26  27
ENDBRANCH  25  26
ENDBRANCH   1  25
TORSDOF 19
