REMARK SMILES O=C(NCCCCCCNC(=O)c1ccc(S(=O)(=O)Nc2ccccc2I)cc1)c1ccc(-c2c3nc(c(-c4cc(S(=O)(=O)[O-])ccc4F)c4ccc([nH]4)c(-c4cc(S(=O)(=O)[O-])ccc4F)c4nc(c(-c5cc(S(=O)(=O)[O-])ccc5F)c5ccc2[nH]5)C=C4)C=C3)cc1
REMARK SMILES IDX 6 1 5 2 4 3 3 4 1 5 2 6 30 8 31 9 92 10 32 11 91 12 33 13
REMARK SMILES IDX 34 14 35 15 85 16 36 17 90 18 84 19 86 20 37 21 89 22 83 23
REMARK SMILES IDX 82 24 38 26 70 27 50 28 69 29 51 30 54 31 68 32 87 33 52 34
REMARK SMILES IDX 53 35 67 37 88 38 55 39 39 40 40 41 48 42 41 43 47 44 49 45
REMARK SMILES IDX 46 46 42 47 43 48 44 49 45 50 71 51 72 52 80 53 73 54 79 55
REMARK SMILES IDX 81 56 78 57 74 58 75 59 76 60 77 61 56 62 57 63 65 64 58 65
REMARK SMILES IDX 64 66 66 67 63 68 59 69 60 70 61 71 62 72 7 73 8 74 9 75
REMARK SMILES IDX 10 76 11 77 12 79 13 80 14 81 29 82 15 83 28 84 16 85 17 86
REMARK SMILES IDX 18 87 19 88 20 89 21 91 22 92 26 93 23 94 25 95 27 96 24 97
REMARK H PARENT 3 7 86 25 54 36 10 78 20 90
REMARK Flexibility Score: inf
ROOT
ATOM      1  C   UNL     1       4.100  -3.949   0.344  1.00  0.00     0.002 C 
ENDROOT
BRANCH   1   2
ATOM      2  C   UNL     1       4.636  -2.633   0.910  1.00  0.00     0.021 C 
BRANCH   2   3
ATOM      3  C   UNL     1       4.392  -1.394   0.056  1.00  0.00     0.116 C 
BRANCH   3   4
ATOM      4  N   UNL     1       2.982  -1.128  -0.173  1.00  0.00    -0.352 N 
ATOM      5  O   UNL     1       1.062   0.051  -0.140  1.00  0.00    -0.269 OA
ATOM      6  C   UNL     1       2.283   0.044  -0.012  1.00  0.00     0.251 C 
ATOM      7  H   UNL     1       2.453  -1.896  -0.489  1.00  0.00     0.163 HD
BRANCH   6   8
ATOM      8  C   UNL     1       3.000   1.289   0.343  1.00  0.00     0.039 A 
ATOM      9  C   UNL     1       4.175   1.656  -0.318  1.00  0.00     0.014 A 
ATOM     10  C   UNL     1       2.483   2.103   1.356  1.00  0.00     0.014 A 
ATOM     11  C   UNL     1       4.901   2.759   0.122  1.00  0.00     0.010 A 
ATOM     12  C   UNL     1       3.174   3.255   1.743  1.00  0.00     0.010 A 
ATOM     13  C   UNL     1       4.406   3.575   1.151  1.00  0.00    -0.014 A 
BRANCH  13  14
ATOM     14  C   UNL     1       5.172   4.780   1.565  1.00  0.00     0.031 A 
ATOM     15  C   UNL     1       5.767   4.885   2.942  1.00  0.00     0.074 A 
ATOM     16  C   UNL     1       5.348   5.776   0.675  1.00  0.00     0.049 A 
ATOM     17  N   UNL     1       6.474   5.855   3.466  1.00  0.00    -0.248 NA
ATOM     18  C   UNL     1       5.525   3.759   3.853  1.00  0.00     0.031 C 
ATOM     19  C   UNL     1       4.813   5.786  -0.689  1.00  0.00     0.029 A 
ATOM     20  N   UNL     1       6.034   6.958   0.772  1.00  0.00    -0.354 N 
ATOM     21  C   UNL     1       6.750   5.466   4.772  1.00  0.00     0.074 A 
ATOM     22  C   UNL     1       6.096   4.188   4.970  1.00  0.00     0.031 C 
ATOM     23  C   UNL     1       5.231   6.896  -1.315  1.00  0.00     0.029 A 
ATOM     24  C   UNL     1       6.005   7.705  -0.382  1.00  0.00     0.049 A 
ATOM     25  H   UNL     1       6.502   7.245   1.589  1.00  0.00     0.167 HD
ATOM     26  C   UNL     1       7.488   6.109   5.713  1.00  0.00     0.034 A 
ATOM     27  C   UNL     1       6.530   8.915  -0.656  1.00  0.00     0.034 A 
ATOM     28  C   UNL     1       8.127   7.388   5.498  1.00  0.00     0.049 A 
ATOM     29  C   UNL     1       7.303   9.631   0.416  1.00  0.00     0.074 A 
ATOM     30  C   UNL     1       8.921   8.115   6.369  1.00  0.00     0.029 A 
ATOM     31  N   UNL     1       8.035   8.139   4.332  1.00  0.00    -0.354 N 
ATOM     32  N   UNL     1       7.571   9.242   1.641  1.00  0.00    -0.248 NA
ATOM     33  C   UNL     1       7.845  10.948   0.066  1.00  0.00     0.031 C 
ATOM     34  C   UNL     1       9.250   9.331   5.757  1.00  0.00     0.029 A 
ATOM     35  C   UNL     1       8.729   9.334   4.473  1.00  0.00     0.049 A 
ATOM     36  H   UNL     1       7.548   7.864   3.522  1.00  0.00     0.167 HD
ATOM     37  C   UNL     1       8.335  10.259   2.202  1.00  0.00     0.074 A 
ATOM     38  C   UNL     1       8.495  11.271   1.175  1.00  0.00     0.031 C 
ATOM     39  C   UNL     1       8.862  10.346   3.450  1.00  0.00     0.034 A 
BRANCH  26  40
ATOM     40  C   UNL     1       7.594   5.456   7.074  1.00  0.00     0.023 A 
ATOM     41  C   UNL     1       8.195   4.196   7.246  1.00  0.00     0.031 A 
ATOM     42  C   UNL     1       7.043   6.079   8.208  1.00  0.00     0.131 A 
ATOM     43  C   UNL     1       8.150   3.561   8.497  1.00  0.00     0.055 A 
ATOM     44  C   UNL     1       7.079   5.479   9.469  1.00  0.00     0.041 A 
ATOM     45  F   UNL     1       6.439   7.273   8.107  1.00  0.00    -0.206 F 
ATOM     46  C   UNL     1       7.617   4.204   9.616  1.00  0.00     0.022 A 
BRANCH  43  47
ATOM     47  S   UNL     1       8.644   1.817   8.599  1.00  0.00     0.124 S 
ATOM     48  O   UNL     1       7.781   1.202   7.593  1.00  0.00    -0.237 OA
ATOM     49  O   UNL     1      10.064   1.869   8.272  1.00  0.00    -0.237 OA
ATOM     50  O   UNL     1       8.333   1.452   9.979  1.00  0.00    -0.744 OA
ENDBRANCH  43  47
ENDBRANCH  26  40
BRANCH  27  51
ATOM     51  C   UNL     1       6.326   9.525  -1.999  1.00  0.00     0.023 A 
ATOM     52  C   UNL     1       7.404   9.724  -2.873  1.00  0.00     0.031 A 
ATOM     53  C   UNL     1       5.044   9.916  -2.426  1.00  0.00     0.131 A 
ATOM     54  C   UNL     1       7.187  10.325  -4.122  1.00  0.00     0.055 A 
ATOM     55  C   UNL     1       4.826  10.470  -3.687  1.00  0.00     0.041 A 
ATOM     56  F   UNL     1       3.979   9.738  -1.628  1.00  0.00    -0.206 F 
ATOM     57  C   UNL     1       5.903  10.686  -4.541  1.00  0.00     0.022 A 
BRANCH  54  58
ATOM     58  S   UNL     1       8.618  10.674  -5.178  1.00  0.00     0.124 S 
ATOM     59  O   UNL     1       9.395  11.578  -4.337  1.00  0.00    -0.237 OA
ATOM     60  O   UNL     1       9.179   9.342  -5.378  1.00  0.00    -0.237 OA
ATOM     61  O   UNL     1       8.024  11.282  -6.367  1.00  0.00    -0.744 OA
ENDBRANCH  54  58
ENDBRANCH  27  51
BRANCH  39  62
ATOM     62  C   UNL     1       9.696  11.568   3.750  1.00  0.00     0.023 A 
ATOM     63  C   UNL     1       9.131  12.854   3.813  1.00  0.00     0.031 A 
ATOM     64  C   UNL     1      11.084  11.444   3.942  1.00  0.00     0.131 A 
ATOM     65  C   UNL     1       9.958  13.972   4.002  1.00  0.00     0.055 A 
ATOM     66  C   UNL     1      11.893  12.554   4.189  1.00  0.00     0.041 A 
ATOM     67  F   UNL     1      11.677  10.241   3.889  1.00  0.00    -0.206 F 
ATOM     68  C   UNL     1      11.333  13.829   4.206  1.00  0.00     0.022 A 
BRANCH  65  69
ATOM     69  S   UNL     1       9.228  15.628   3.877  1.00  0.00     0.124 S 
ATOM     70  O   UNL     1       8.664  15.610   2.531  1.00  0.00    -0.237 OA
ATOM     71  O   UNL     1       8.264  15.627   4.973  1.00  0.00    -0.237 OA
ATOM     72  O   UNL     1      10.371  16.521   4.058  1.00  0.00    -0.744 OA
ENDBRANCH  65  69
ENDBRANCH  39  62
ENDBRANCH  13  14
ENDBRANCH   6   8
ENDBRANCH   3   4
ENDBRANCH   2   3
ENDBRANCH   1   2
BRANCH   1  73
ATOM     73  C   UNL     1       4.503  -4.285  -1.094  1.00  0.00     0.002 C 
BRANCH  73  74
ATOM     74  C   UNL     1       5.997  -4.224  -1.410  1.00  0.00     0.021 C 
BRANCH  74  75
ATOM     75  C   UNL     1       6.897  -5.063  -0.514  1.00  0.00     0.116 C 
BRANCH  75  76
ATOM     76  N   UNL     1       6.675  -6.495  -0.638  1.00  0.00    -0.352 N 
ATOM     77  C   UNL     1       7.589  -7.525  -0.681  1.00  0.00     0.251 C 
ATOM     78  H   UNL     1       5.731  -6.769  -0.701  1.00  0.00     0.163 HD
ATOM     79  O   UNL     1       7.205  -8.671  -0.903  1.00  0.00    -0.269 OA
BRANCH  77  80
ATOM     80  C   UNL     1       9.039  -7.263  -0.488  1.00  0.00     0.039 A 
ATOM     81  C   UNL     1       9.978  -7.987  -1.236  1.00  0.00     0.015 A 
ATOM     82  C   UNL     1       9.484  -6.301   0.416  1.00  0.00     0.015 A 
ATOM     83  C   UNL     1      11.348  -7.718  -1.100  1.00  0.00     0.023 A 
ATOM     84  C   UNL     1      10.826  -5.946   0.451  1.00  0.00     0.023 A 
ATOM     85  C   UNL     1      11.773  -6.688  -0.250  1.00  0.00     0.087 A 
BRANCH  85  86
ATOM     86  S   UNL     1      13.497  -6.258  -0.160  1.00  0.00     0.261 S 
ATOM     87  O   UNL     1      14.250  -7.333  -0.772  1.00  0.00    -0.201 OA
ATOM     88  O   UNL     1      13.618  -4.906  -0.668  1.00  0.00    -0.201 OA
BRANCH  86  89
ATOM     89  N   UNL     1      14.015  -6.213   1.470  1.00  0.00    -0.279 N 
ATOM     90  H   UNL     1      14.905  -6.553   1.717  1.00  0.00     0.180 HD
BRANCH  89  91
ATOM     91  C   UNL     1      13.138  -5.672   2.477  1.00  0.00     0.062 A 
ATOM     92  C   UNL     1      13.006  -4.282   2.609  1.00  0.00     0.028 A 
ATOM     93  C   UNL     1      12.336  -6.519   3.262  1.00  0.00     0.037 A 
ATOM     94  C   UNL     1      12.061  -3.748   3.491  1.00  0.00     0.002 A 
ATOM     95  C   UNL     1      11.390  -5.978   4.140  1.00  0.00     0.017 A 
ATOM     96  I   UNL     1      12.488  -8.610   3.168  1.00  0.00    -0.042 I 
ATOM     97  C   UNL     1      11.249  -4.593   4.247  1.00  0.00     0.001 A 
ENDBRANCH  89  91
ENDBRANCH  86  89
ENDBRANCH  85  86
ENDBRANCH  77  80
ENDBRANCH  75  76
ENDBRANCH  74  75
ENDBRANCH  73  74
ENDBRANCH   1  73
TORSDOF 19
