REMARK SMILES O=C(NCCCCCCNC(=O)[C@H](CO)NC(=O)[C@H](CS)NC(=O)c1ccc(F)cc1)c1ccc(-c2c3nc(c(-c4cc(S(=O)(=O)[O-])ccc4F)c4ccc([nH]4)c(-c4cc(S(=O)(=O)[O-])ccc4F)c4nc(c(-c5cc(S(=O)(=O)[O-])ccc5F)c5ccc2[nH]5)C=C4)C=C3)cc1
REMARK SMILES IDX 7 1 6 2 5 3 4 4 3 5 1 6 2 7 32 9 33 10 94 11 34 12 93 13
REMARK SMILES IDX 35 14 36 15 37 16 87 17 38 18 92 19 86 20 88 21 39 22 91 23
REMARK SMILES IDX 85 24 84 25 40 27 72 28 52 29 71 30 53 31 56 32 70 33 89 34
REMARK SMILES IDX 54 35 55 36 69 38 90 39 57 40 41 41 42 42 50 43 43 44 49 45
REMARK SMILES IDX 51 46 48 47 44 48 45 49 46 50 47 51 73 52 74 53 82 54 75 55
REMARK SMILES IDX 81 56 83 57 80 58 76 59 77 60 78 61 79 62 58 63 59 64 67 65
REMARK SMILES IDX 60 66 66 67 68 68 65 69 61 70 62 71 63 72 64 73 8 74 9 75
REMARK SMILES IDX 10 76 11 77 12 79 13 80 16 81 17 82 18 84 19 85 22 86 23 87
REMARK SMILES IDX 24 89 25 90 26 91 31 92 27 93 30 94 28 95 29 96 20 97 21 98
REMARK SMILES IDX 14 100 15 101
REMARK H PARENT 3 8 88 26 56 37 10 78 16 83 22 88 21 99 15 102
REMARK Flexibility Score: inf
ROOT
ATOM      1  C   UNL     1       5.448   1.769   6.738  1.00  0.00     0.002 C 
ENDROOT
BRANCH   1   2
ATOM      2  C   UNL     1       4.309   1.966   7.744  1.00  0.00     0.002 C 
BRANCH   2   3
ATOM      3  C   UNL     1       4.554   3.018   8.829  1.00  0.00     0.021 C 
BRANCH   3   4
ATOM      4  C   UNL     1       4.927   4.406   8.318  1.00  0.00     0.116 C 
BRANCH   4   5
ATOM      5  N   UNL     1       3.875   4.993   7.509  1.00  0.00    -0.352 N 
ATOM      6  O   UNL     1       2.205   6.414   7.007  1.00  0.00    -0.269 OA
ATOM      7  C   UNL     1       3.197   6.173   7.688  1.00  0.00     0.251 C 
ATOM      8  H   UNL     1       3.609   4.470   6.718  1.00  0.00     0.163 HD
BRANCH   7   9
ATOM      9  C   UNL     1       3.654   7.145   8.706  1.00  0.00     0.039 A 
ATOM     10  C   UNL     1       5.004   7.492   8.811  1.00  0.00     0.014 A 
ATOM     11  C   UNL     1       2.707   7.752   9.535  1.00  0.00     0.014 A 
ATOM     12  C   UNL     1       5.418   8.378   9.803  1.00  0.00     0.010 A 
ATOM     13  C   UNL     1       3.116   8.687  10.491  1.00  0.00     0.010 A 
ATOM     14  C   UNL     1       4.475   9.000  10.638  1.00  0.00    -0.014 A 
BRANCH  14  15
ATOM     15  C   UNL     1       4.917  10.036  11.606  1.00  0.00     0.031 A 
ATOM     16  C   UNL     1       4.847   9.792  13.086  1.00  0.00     0.074 A 
ATOM     17  C   UNL     1       5.407  11.198  11.130  1.00  0.00     0.049 A 
ATOM     18  N   UNL     1       5.136  10.607  14.068  1.00  0.00    -0.248 NA
ATOM     19  C   UNL     1       4.396   8.462  13.523  1.00  0.00     0.031 C 
ATOM     20  C   UNL     1       5.550  11.533   9.710  1.00  0.00     0.029 A 
ATOM     21  N   UNL     1       5.893  12.303  11.780  1.00  0.00    -0.354 N 
ATOM     22  C   UNL     1       4.902   9.896  15.238  1.00  0.00     0.074 A 
ATOM     23  C   UNL     1       4.424   8.586  14.844  1.00  0.00     0.031 C 
ATOM     24  C   UNL     1       6.130  12.737   9.599  1.00  0.00     0.029 A 
ATOM     25  C   UNL     1       6.335  13.291  10.932  1.00  0.00     0.049 A 
ATOM     26  H   UNL     1       5.922  12.382  12.761  1.00  0.00     0.167 HD
ATOM     27  C   UNL     1       5.076  10.299  16.520  1.00  0.00     0.034 A 
ATOM     28  C   UNL     1       6.831  14.515  11.195  1.00  0.00     0.034 A 
ATOM     29  C   UNL     1       5.548  11.608  16.900  1.00  0.00     0.049 A 
ATOM     30  C   UNL     1       6.943  14.960  12.627  1.00  0.00     0.074 A 
ATOM     31  C   UNL     1       5.729  12.123  18.173  1.00  0.00     0.029 A 
ATOM     32  N   UNL     1       5.920  12.607  16.012  1.00  0.00    -0.354 N 
ATOM     33  N   UNL     1       6.648  14.297  13.720  1.00  0.00    -0.248 NA
ATOM     34  C   UNL     1       7.439  16.323  12.859  1.00  0.00     0.031 C 
ATOM     35  C   UNL     1       6.170  13.445  18.054  1.00  0.00     0.029 A 
ATOM     36  C   UNL     1       6.318  13.738  16.709  1.00  0.00     0.049 A 
ATOM     37  H   UNL     1       5.904  12.525  15.031  1.00  0.00     0.167 HD
ATOM     38  C   UNL     1       6.936  15.159  14.771  1.00  0.00     0.074 A 
ATOM     39  C   UNL     1       7.439  16.384  14.183  1.00  0.00     0.031 C 
ATOM     40  C   UNL     1       6.798  14.956  16.105  1.00  0.00     0.034 A 
BRANCH  27  41
ATOM     41  C   UNL     1       4.723   9.327  17.614  1.00  0.00     0.023 A 
ATOM     42  C   UNL     1       5.527   8.208  17.887  1.00  0.00     0.031 A 
ATOM     43  C   UNL     1       3.591   9.546  18.419  1.00  0.00     0.131 A 
ATOM     44  C   UNL     1       5.171   7.332  18.924  1.00  0.00     0.055 A 
ATOM     45  C   UNL     1       3.272   8.700  19.482  1.00  0.00     0.041 A 
ATOM     46  F   UNL     1       2.782  10.592  18.188  1.00  0.00    -0.206 F 
ATOM     47  C   UNL     1       4.063   7.583  19.738  1.00  0.00     0.022 A 
BRANCH  44  48
ATOM     48  S   UNL     1       6.150   5.825  19.170  1.00  0.00     0.124 S 
ATOM     49  O   UNL     1       5.821   5.062  17.968  1.00  0.00    -0.237 OA
ATOM     50  O   UNL     1       7.514   6.337  19.245  1.00  0.00    -0.237 OA
ATOM     51  O   UNL     1       5.623   5.274  20.416  1.00  0.00    -0.744 OA
ENDBRANCH  44  48
ENDBRANCH  27  41
BRANCH  28  52
ATOM     52  C   UNL     1       7.225  15.419  10.082  1.00  0.00     0.023 A 
ATOM     53  C   UNL     1       8.569  15.766   9.878  1.00  0.00     0.031 A 
ATOM     54  C   UNL     1       6.260  15.959   9.213  1.00  0.00     0.131 A 
ATOM     55  C   UNL     1       8.910  16.652   8.845  1.00  0.00     0.055 A 
ATOM     56  C   UNL     1       6.609  16.806   8.162  1.00  0.00     0.041 A 
ATOM     57  F   UNL     1       4.962  15.650   9.365  1.00  0.00    -0.206 F 
ATOM     58  C   UNL     1       7.941  17.164   7.978  1.00  0.00     0.022 A 
BRANCH  55  59
ATOM     59  S   UNL     1      10.642  17.162   8.676  1.00  0.00     0.124 S 
ATOM     60  O   UNL     1      10.876  17.844   9.944  1.00  0.00    -0.237 OA
ATOM     61  O   UNL     1      11.320  15.882   8.500  1.00  0.00    -0.237 OA
ATOM     62  O   UNL     1      10.628  18.024   7.496  1.00  0.00    -0.744 OA
ENDBRANCH  55  59
ENDBRANCH  28  52
BRANCH  40  63
ATOM     63  C   UNL     1       7.227  16.076  17.011  1.00  0.00     0.023 A 
ATOM     64  C   UNL     1       6.471  17.255  17.125  1.00  0.00     0.031 A 
ATOM     65  C   UNL     1       8.404  15.960  17.769  1.00  0.00     0.131 A 
ATOM     66  C   UNL     1       6.924  18.293  17.952  1.00  0.00     0.055 A 
ATOM     67  C   UNL     1       8.827  16.977  18.624  1.00  0.00     0.041 A 
ATOM     68  F   UNL     1       9.158  14.852  17.692  1.00  0.00    -0.206 F 
ATOM     69  C   UNL     1       8.090  18.156  18.713  1.00  0.00     0.022 A 
BRANCH  66  70
ATOM     70  S   UNL     1       5.994  19.848  17.988  1.00  0.00     0.124 S 
ATOM     71  O   UNL     1       6.162  20.332  16.621  1.00  0.00    -0.237 OA
ATOM     72  O   UNL     1       4.650  19.405  18.346  1.00  0.00    -0.237 OA
ATOM     73  O   UNL     1       6.678  20.634  19.013  1.00  0.00    -0.744 OA
ENDBRANCH  66  70
ENDBRANCH  40  63
ENDBRANCH  14  15
ENDBRANCH   7   9
ENDBRANCH   4   5
ENDBRANCH   3   4
ENDBRANCH   2   3
ENDBRANCH   1   2
BRANCH   1  74
ATOM     74  C   UNL     1       6.837   1.564   7.346  1.00  0.00     0.021 C 
BRANCH  74  75
ATOM     75  C   UNL     1       6.942   0.398   8.325  1.00  0.00     0.116 C 
BRANCH  75  76
ATOM     76  N   UNL     1       6.908  -0.879   7.642  1.00  0.00    -0.354 N 
ATOM     77  C   UNL     1       7.757  -1.942   7.599  1.00  0.00     0.244 C 
ATOM     78  H   UNL     1       6.101  -1.005   7.092  1.00  0.00     0.163 HD
ATOM     79  O   UNL     1       7.452  -2.830   6.793  1.00  0.00    -0.273 OA
BRANCH  77  80
ATOM     80  C   UNL     1       9.126  -1.982   8.330  1.00  0.00     0.197 C 
BRANCH  80  81
ATOM     81  N   UNL     1       9.275  -1.140   9.520  1.00  0.00    -0.340 N 
ATOM     82  C   UNL     1      10.093  -0.079   9.779  1.00  0.00     0.244 C 
ATOM     83  H   UNL     1       8.680  -1.384  10.266  1.00  0.00     0.164 HD
ATOM     84  O   UNL     1       9.900   0.522  10.839  1.00  0.00    -0.273 OA
BRANCH  82  85
ATOM     85  C   UNL     1      11.153   0.431   8.783  1.00  0.00     0.181 C 
BRANCH  85  86
ATOM     86  N   UNL     1      12.122  -0.632   8.507  1.00  0.00    -0.339 N 
ATOM     87  C   UNL     1      13.424  -0.739   8.923  1.00  0.00     0.251 C 
ATOM     88  H   UNL     1      11.794  -1.372   7.946  1.00  0.00     0.164 HD
ATOM     89  O   UNL     1      14.091  -1.712   8.581  1.00  0.00    -0.269 OA
BRANCH  87  90
ATOM     90  C   UNL     1      14.057   0.345   9.702  1.00  0.00     0.040 A 
ATOM     91  C   UNL     1      13.548   0.770  10.936  1.00  0.00     0.017 A 
ATOM     92  C   UNL     1      15.207   0.942   9.167  1.00  0.00     0.017 A 
ATOM     93  C   UNL     1      14.159   1.835  11.603  1.00  0.00     0.040 A 
ATOM     94  C   UNL     1      15.819   1.997   9.844  1.00  0.00     0.040 A 
ATOM     95  C   UNL     1      15.285   2.439  11.050  1.00  0.00     0.123 A 
ATOM     96  F   UNL     1      15.868   3.459  11.691  1.00  0.00    -0.207 F 
ENDBRANCH  87  90
ENDBRANCH  85  86
BRANCH  85  97
ATOM     97  C   UNL     1      10.514   1.056   7.536  1.00  0.00     0.101 C 
BRANCH  97  98
ATOM     98  S   UNL     1      11.737   1.705   6.349  1.00  0.00    -0.177 SA
ATOM     99  H   UNL     1      12.460   2.694   6.939  1.00  0.00     0.102 HD
ENDBRANCH  97  98
ENDBRANCH  85  97
ENDBRANCH  82  85
ENDBRANCH  80  81
BRANCH  80 100
ATOM    100  C   UNL     1       9.468  -3.441   8.688  1.00  0.00     0.191 C 
BRANCH 100 101
ATOM    101  O   UNL     1       8.551  -3.981   9.641  1.00  0.00    -0.394 OA
ATOM    102  H   UNL     1       8.593  -3.463  10.460  1.00  0.00     0.210 HD
ENDBRANCH 100 101
ENDBRANCH  80 100
ENDBRANCH  77  80
ENDBRANCH  75  76
ENDBRANCH  74  75
ENDBRANCH   1  74
TORSDOF 24
