REMARK SMILES N#CCC[NH+]1CCN(c2cc(C(=O)NCCCCCCNC(=O)c3ccc(-c4c5nc(c(-c6cc(S(=O)(=O)[O-])ccc6F)c6ccc([nH]6)c(-c6cc(S(=O)(=O)[O-])ccc6F)c6nc(c(-c7cc(S(=O)(=O)[O-])ccc7F)c7ccc4[nH]7)C=C6)C=C5)cc3)c3cc(NS(=O)(=O)c4ccccc4Cl)ccc3n2)CC1
REMARK SMILES IDX 17 1 16 2 15 3 14 4 12 5 13 6 11 8 9 9 10 10 104 11 103 12
REMARK SMILES IDX 87 13 102 14 88 15 101 16 89 17 8 18 5 19 6 20 106 21 7 23
REMARK SMILES IDX 105 24 4 25 3 26 2 27 1 28 90 29 91 31 92 32 93 33 94 34
REMARK SMILES IDX 95 35 99 36 96 37 98 38 100 39 97 40 18 41 19 42 20 43 21 44
REMARK SMILES IDX 22 45 23 47 24 48 25 49 86 50 26 51 85 52 27 53 28 54 29 55
REMARK SMILES IDX 79 56 30 57 84 58 78 59 80 60 31 61 83 62 77 63 76 64 32 66
REMARK SMILES IDX 64 67 44 68 63 69 45 70 48 71 62 72 81 73 46 74 47 75 61 77
REMARK SMILES IDX 82 78 49 79 33 80 34 81 42 82 35 83 41 84 43 85 40 86 36 87
REMARK SMILES IDX 37 88 38 89 39 90 65 91 66 92 74 93 67 94 73 95 75 96 72 97
REMARK SMILES IDX 68 98 69 99 70 100 71 101 50 102 51 103 59 104 52 105 58 106
REMARK SMILES IDX 60 107 57 108 53 109 54 110 55 111 56 112
REMARK H PARENT 14 7 5 22 90 30 21 46 80 65 48 76
REMARK Flexibility Score: inf
ROOT
ATOM      1  C   UNL     1       0.804 -11.294   8.084  1.00  0.00     0.002 C 
ENDROOT
BRANCH   1   2
ATOM      2  C   UNL     1       0.886 -10.996   6.565  1.00  0.00     0.021 C 
BRANCH   2   3
ATOM      3  C   UNL     1       1.024  -9.596   5.950  1.00  0.00     0.116 C 
BRANCH   3   4
ATOM      4  N   UNL     1       2.112  -8.693   6.223  1.00  0.00    -0.352 N 
ATOM      5  C   UNL     1       2.380  -7.414   5.739  1.00  0.00     0.252 C 
ATOM      6  O   UNL     1       3.312  -6.842   6.324  1.00  0.00    -0.269 OA
ATOM      7  H   UNL     1       2.781  -9.038   6.858  1.00  0.00     0.163 HD
BRANCH   5   8
ATOM      8  C   UNL     1       1.728  -6.656   4.573  1.00  0.00     0.052 A 
ATOM      9  C   UNL     1       2.118  -4.772   3.059  1.00  0.00     0.130 A 
ATOM     10  C   UNL     1       2.566  -5.645   4.044  1.00  0.00     0.061 A 
ATOM     11  N   UNL     1       0.885  -4.892   2.554  1.00  0.00    -0.231 NA
ATOM     12  C   UNL     1       0.016  -5.708   3.111  1.00  0.00     0.074 A 
ATOM     13  C   UNL     1       0.372  -6.625   4.114  1.00  0.00     0.015 A 
ATOM     14  C   UNL     1      -1.305  -5.529   2.712  1.00  0.00     0.031 A 
ATOM     15  C   UNL     1      -0.720  -7.321   4.616  1.00  0.00     0.038 A 
ATOM     16  C   UNL     1      -2.348  -6.038   3.473  1.00  0.00     0.029 A 
ATOM     17  C   UNL     1      -2.019  -6.846   4.531  1.00  0.00     0.050 A 
BRANCH   9  18
ATOM     18  N   UNL     1       2.842  -3.676   2.633  1.00  0.00    -0.345 N 
ATOM     19  N   UNL     1       3.820  -2.638   0.046  1.00  0.00    -0.331 N 
ATOM     20  C   UNL     1       4.543  -3.722   0.781  1.00  0.00     0.284 C 
ATOM     21  C   UNL     1       2.382  -2.888   0.358  1.00  0.00     0.284 C 
ATOM     22  H   UNL     1       3.964  -2.638  -0.964  1.00  0.00     0.348 HD
ATOM     23  C   UNL     1       4.272  -3.796   2.317  1.00  0.00     0.179 C 
ATOM     24  C   UNL     1       2.075  -2.682   1.854  1.00  0.00     0.179 C 
BRANCH  19  25
ATOM     25  C   UNL     1       4.324  -1.309   0.488  1.00  0.00     0.277 C 
BRANCH  25  26
ATOM     26  C   UNL     1       3.714  -0.007  -0.074  1.00  0.00     0.181 C 
BRANCH  26  27
ATOM     27  C   UNL     1       2.194  -0.007  -0.074  1.00  0.00     0.068 C 
ATOM     28  N   UNL     1       0.933  -0.007  -0.074  1.00  0.00    -0.198 NA
ENDBRANCH  26  27
ENDBRANCH  25  26
ENDBRANCH  19  25
ENDBRANCH   9  18
BRANCH  17  29
ATOM     29  N   UNL     1      -2.897  -6.927   5.644  1.00  0.00    -0.280 N 
ATOM     30  H   UNL     1      -3.805  -6.556   5.552  1.00  0.00     0.180 HD
BRANCH  29  31
ATOM     31  S   UNL     1      -2.465  -7.619   7.102  1.00  0.00     0.263 S 
ATOM     32  O   UNL     1      -3.586  -7.449   8.018  1.00  0.00    -0.201 OA
ATOM     33  O   UNL     1      -2.021  -8.935   6.747  1.00  0.00    -0.201 OA
BRANCH  31  34
ATOM     34  C   UNL     1      -1.082  -6.747   7.836  1.00  0.00     0.106 A 
ATOM     35  C   UNL     1      -0.046  -7.527   8.375  1.00  0.00     0.024 A 
ATOM     36  C   UNL     1      -0.989  -5.373   7.981  1.00  0.00     0.061 A 
ATOM     37  C   UNL     1       1.054  -6.992   9.047  1.00  0.00     0.002 A 
ATOM     38  C   UNL     1       0.125  -4.820   8.653  1.00  0.00     0.022 A 
ATOM     39  Cl  UNL     1      -2.176  -4.281   7.391  1.00  0.00    -0.083 Cl
ATOM     40  C   UNL     1       1.139  -5.622   9.189  1.00  0.00     0.002 A 
ENDBRANCH  31  34
ENDBRANCH  29  31
ENDBRANCH  17  29
ENDBRANCH   5   8
ENDBRANCH   3   4
ENDBRANCH   2   3
ENDBRANCH   1   2
BRANCH   1  41
ATOM     41  C   UNL     1      -0.325 -10.962   9.099  1.00  0.00     0.002 C 
BRANCH  41  42
ATOM     42  C   UNL     1      -1.812 -11.172   8.828  1.00  0.00     0.021 C 
BRANCH  42  43
ATOM     43  C   UNL     1      -2.201 -12.516   8.266  1.00  0.00     0.116 C 
BRANCH  43  44
ATOM     44  N   UNL     1      -2.050 -13.544   9.283  1.00  0.00    -0.352 N 
ATOM     45  C   UNL     1      -3.030 -14.364   9.788  1.00  0.00     0.251 C 
ATOM     46  H   UNL     1      -1.145 -13.666   9.650  1.00  0.00     0.163 HD
ATOM     47  O   UNL     1      -2.876 -14.929  10.865  1.00  0.00    -0.269 OA
BRANCH  45  48
ATOM     48  C   UNL     1      -4.268 -14.540   8.999  1.00  0.00     0.039 A 
ATOM     49  C   UNL     1      -5.513 -14.520   9.630  1.00  0.00     0.014 A 
ATOM     50  C   UNL     1      -4.176 -14.690   7.612  1.00  0.00     0.014 A 
ATOM     51  C   UNL     1      -6.670 -14.624   8.856  1.00  0.00     0.010 A 
ATOM     52  C   UNL     1      -5.325 -14.678   6.840  1.00  0.00     0.010 A 
ATOM     53  C   UNL     1      -6.585 -14.689   7.455  1.00  0.00    -0.014 A 
BRANCH  53  54
ATOM     54  C   UNL     1      -7.787 -14.878   6.607  1.00  0.00     0.031 A 
ATOM     55  C   UNL     1      -7.896 -16.129   5.772  1.00  0.00     0.074 A 
ATOM     56  C   UNL     1      -8.736 -13.926   6.550  1.00  0.00     0.049 A 
ATOM     57  N   UNL     1      -8.805 -16.466   4.895  1.00  0.00    -0.248 NA
ATOM     58  C   UNL     1      -6.810 -17.114   5.914  1.00  0.00     0.031 C 
ATOM     59  C   UNL     1      -8.712 -12.659   7.286  1.00  0.00     0.029 A 
ATOM     60  N   UNL     1      -9.910 -13.874   5.842  1.00  0.00    -0.354 N 
ATOM     61  C   UNL     1      -8.390 -17.689   4.376  1.00  0.00     0.074 A 
ATOM     62  C   UNL     1      -7.102 -17.983   4.961  1.00  0.00     0.031 C 
ATOM     63  C   UNL     1      -9.839 -11.977   7.024  1.00  0.00     0.029 A 
ATOM     64  C   UNL     1     -10.642 -12.730   6.066  1.00  0.00     0.049 A 
ATOM     65  H   UNL     1     -10.201 -14.588   5.231  1.00  0.00     0.167 HD
ATOM     66  C   UNL     1      -9.044 -18.516   3.525  1.00  0.00     0.034 A 
ATOM     67  C   UNL     1     -11.825 -12.341   5.550  1.00  0.00     0.034 A 
ATOM     68  C   UNL     1     -10.340 -18.214   2.974  1.00  0.00     0.049 A 
ATOM     69  C   UNL     1     -12.519 -13.261   4.573  1.00  0.00     0.074 A 
ATOM     70  C   UNL     1     -11.119 -18.981   2.128  1.00  0.00     0.029 A 
ATOM     71  N   UNL     1     -11.050 -17.045   3.222  1.00  0.00    -0.354 N 
ATOM     72  N   UNL     1     -12.133 -14.434   4.123  1.00  0.00    -0.248 NA
ATOM     73  C   UNL     1     -13.813 -12.812   4.045  1.00  0.00     0.031 C 
ATOM     74  C   UNL     1     -12.268 -18.250   1.812  1.00  0.00     0.029 A 
ATOM     75  C   UNL     1     -12.247 -17.061   2.526  1.00  0.00     0.049 A 
ATOM     76  H   UNL     1     -10.747 -16.313   3.806  1.00  0.00     0.167 HD
ATOM     77  C   UNL     1     -13.159 -14.878   3.292  1.00  0.00     0.074 A 
ATOM     78  C   UNL     1     -14.183 -13.854   3.317  1.00  0.00     0.031 C 
ATOM     79  C   UNL     1     -13.252 -16.026   2.573  1.00  0.00     0.034 A 
BRANCH  66  80
ATOM     80  C   UNL     1      -8.358 -19.808   3.147  1.00  0.00     0.023 A 
ATOM     81  C   UNL     1      -8.028 -20.775   4.114  1.00  0.00     0.031 A 
ATOM     82  C   UNL     1      -7.990 -20.061   1.815  1.00  0.00     0.131 A 
ATOM     83  C   UNL     1      -7.277 -21.903   3.752  1.00  0.00     0.055 A 
ATOM     84  C   UNL     1      -7.324 -21.231   1.445  1.00  0.00     0.041 A 
ATOM     85  F   UNL     1      -8.255 -19.166   0.850  1.00  0.00    -0.206 F 
ATOM     86  C   UNL     1      -6.948 -22.153   2.419  1.00  0.00     0.022 A 
BRANCH  83  87
ATOM     87  S   UNL     1      -6.604 -22.953   5.069  1.00  0.00     0.124 S 
ATOM     88  O   UNL     1      -5.769 -22.005   5.803  1.00  0.00    -0.237 OA
ATOM     89  O   UNL     1      -7.807 -23.410   5.755  1.00  0.00    -0.237 OA
ATOM     90  O   UNL     1      -5.870 -23.986   4.341  1.00  0.00    -0.744 OA
ENDBRANCH  83  87
ENDBRANCH  66  80
BRANCH  67  91
ATOM     91  C   UNL     1     -12.439 -11.037   5.937  1.00  0.00     0.023 A 
ATOM     92  C   UNL     1     -13.690 -10.991   6.574  1.00  0.00     0.031 A 
ATOM     93  C   UNL     1     -11.822  -9.814   5.618  1.00  0.00     0.131 A 
ATOM     94  C   UNL     1     -14.313  -9.756   6.811  1.00  0.00     0.055 A 
ATOM     95  C   UNL     1     -12.416  -8.586   5.917  1.00  0.00     0.041 A 
ATOM     96  F   UNL     1     -10.625  -9.795   5.010  1.00  0.00    -0.206 F 
ATOM     97  C   UNL     1     -13.679  -8.553   6.500  1.00  0.00     0.022 A 
BRANCH  94  98
ATOM     98  S   UNL     1     -16.023  -9.751   7.419  1.00  0.00     0.124 S 
ATOM     99  O   UNL     1     -16.700 -10.551   6.404  1.00  0.00    -0.237 OA
ATOM    100  O   UNL     1     -15.879 -10.369   8.733  1.00  0.00    -0.237 OA
ATOM    101  O   UNL     1     -16.375  -8.333   7.433  1.00  0.00    -0.744 OA
ENDBRANCH  94  98
ENDBRANCH  67  91
BRANCH  79 102
ATOM    102  C   UNL     1     -14.531 -16.254   1.806  1.00  0.00     0.023 A 
ATOM    103  C   UNL     1     -14.895 -15.445   0.717  1.00  0.00     0.031 A 
ATOM    104  C   UNL     1     -15.395 -17.300   2.174  1.00  0.00     0.131 A 
ATOM    105  C   UNL     1     -16.120 -15.658   0.069  1.00  0.00     0.055 A 
ATOM    106  C   UNL     1     -16.580 -17.551   1.482  1.00  0.00     0.041 A 
ATOM    107  F   UNL     1     -15.096 -18.103   3.208  1.00  0.00    -0.206 F 
ATOM    108  C   UNL     1     -16.955 -16.718   0.431  1.00  0.00     0.022 A 
BRANCH 105 109
ATOM    109  S   UNL     1     -16.651 -14.473  -1.196  1.00  0.00     0.124 S 
ATOM    110  O   UNL     1     -16.672 -13.220  -0.448  1.00  0.00    -0.237 OA
ATOM    111  O   UNL     1     -15.601 -14.597  -2.201  1.00  0.00    -0.237 OA
ATOM    112  O   UNL     1     -17.962 -14.974  -1.605  1.00  0.00    -0.744 OA
ENDBRANCH 105 109
ENDBRANCH  79 102
ENDBRANCH  53  54
ENDBRANCH  45  48
ENDBRANCH  43  44
ENDBRANCH  42  43
ENDBRANCH  41  42
ENDBRANCH   1  41
TORSDOF 23
