REMARK SMILES CSc1ccc([C@H]2[NH2+][C@@H](C(=O)NCCCCCCNC(=O)c3ccc(-c4c5nc(c(-c6cc(S(=O)(=O)[O-])ccc6F)c6ccc([nH]6)c(-c6cc(S(=O)(=O)[O-])ccc6F)c6nc(c(-c7cc(S(=O)(=O)[O-])ccc7F)c7ccc4[nH]7)C=C6)C=C5)cc3)C(C)(C)S2)cc1
REMARK SMILES IDX 16 1 15 2 14 3 13 4 12 5 10 6 11 7 9 9 7 10 8 11 88 12 85 15
REMARK SMILES IDX 86 16 87 17 6 18 3 19 4 20 90 21 5 22 89 23 2 24 1 25 17 26
REMARK SMILES IDX 18 27 19 28 20 29 21 31 22 32 23 33 84 34 24 35 83 36 25 37
REMARK SMILES IDX 26 38 27 39 77 40 28 41 82 42 76 43 78 44 29 45 81 46 75 47
REMARK SMILES IDX 74 48 30 50 62 51 42 52 61 53 43 54 46 55 60 56 79 57 44 58
REMARK SMILES IDX 45 59 59 61 80 62 47 63 31 64 32 65 40 66 33 67 39 68 41 69
REMARK SMILES IDX 38 70 34 71 35 72 36 73 37 74 63 75 64 76 72 77 65 78 71 79
REMARK SMILES IDX 73 80 70 81 66 82 67 83 68 84 69 85 48 86 49 87 57 88 50 89
REMARK SMILES IDX 56 90 58 91 55 92 51 93 52 94 53 95 54 96
REMARK H PARENT 12 8 8 13 8 14 19 30 78 49 46 60
REMARK Flexibility Score: inf
ROOT
ATOM      1  C   UNL     1       5.380   7.015   5.067  1.00  0.00     0.002 C 
ENDROOT
BRANCH   1   2
ATOM      2  C   UNL     1       4.978   6.924   6.542  1.00  0.00     0.002 C 
BRANCH   2   3
ATOM      3  C   UNL     1       3.874   5.911   6.841  1.00  0.00     0.021 C 
BRANCH   3   4
ATOM      4  C   UNL     1       4.264   4.463   6.555  1.00  0.00     0.116 C 
BRANCH   4   5
ATOM      5  N   UNL     1       5.020   3.897   7.656  1.00  0.00    -0.351 N 
ATOM      6  C   UNL     1       4.766   2.874   8.519  1.00  0.00     0.279 C 
ATOM      7  O   UNL     1       5.559   2.740   9.460  1.00  0.00    -0.268 OA
ATOM      8  H   UNL     1       5.886   4.339   7.810  1.00  0.00     0.163 HD
BRANCH   6   9
ATOM      9  C   UNL     1       3.563   1.915   8.385  1.00  0.00     0.289 C 
ATOM     10  C   UNL     1       2.159   0.710   6.869  1.00  0.00     0.274 C 
ATOM     11  N   UNL     1       3.465   1.349   7.024  1.00  0.00    -0.320 N 
ATOM     12  S   UNL     1       1.006   1.322   8.127  1.00  0.00    -0.081 SA
ATOM     13  H   UNL     1       3.565   2.095   6.336  1.00  0.00     0.348 HD
ATOM     14  H   UNL     1       4.205   0.661   6.882  1.00  0.00     0.348 HD
ATOM     15  C   UNL     1       2.216   2.430   8.938  1.00  0.00     0.077 C 
ATOM     16  C   UNL     1       1.782   3.858   8.620  1.00  0.00     0.030 C 
ATOM     17  C   UNL     1       2.160   2.247  10.462  1.00  0.00     0.030 C 
BRANCH  10  18
ATOM     18  C   UNL     1       1.651   0.860   5.445  1.00  0.00     0.020 A 
ATOM     19  C   UNL     1       0.888   1.103   2.718  1.00  0.00     0.007 A 
ATOM     20  C   UNL     1       1.114  -0.152   3.287  1.00  0.00     0.015 A 
ATOM     21  C   UNL     1       1.016   2.234   3.529  1.00  0.00     0.015 A 
ATOM     22  C   UNL     1       1.499  -0.272   4.630  1.00  0.00     0.012 A 
ATOM     23  C   UNL     1       1.383   2.115   4.874  1.00  0.00     0.012 A 
BRANCH  19  24
ATOM     24  S   UNL     1       0.382   1.362   1.026  1.00  0.00    -0.130 SA
ATOM     25  C   UNL     1       1.115  -0.053   0.165  1.00  0.00     0.091 C 
ENDBRANCH  19  24
ENDBRANCH  10  18
ENDBRANCH   6   9
ENDBRANCH   4   5
ENDBRANCH   3   4
ENDBRANCH   2   3
ENDBRANCH   1   2
BRANCH   1  26
ATOM     26  C   UNL     1       4.222   7.235   4.089  1.00  0.00     0.021 C 
BRANCH  26  27
ATOM     27  C   UNL     1       3.332   8.431   4.411  1.00  0.00     0.116 C 
BRANCH  27  28
ATOM     28  N   UNL     1       4.082   9.675   4.422  1.00  0.00    -0.352 N 
ATOM     29  C   UNL     1       3.909  10.798   3.651  1.00  0.00     0.251 C 
ATOM     30  H   UNL     1       4.819   9.720   5.074  1.00  0.00     0.163 HD
ATOM     31  O   UNL     1       4.780  11.661   3.623  1.00  0.00    -0.269 OA
BRANCH  29  32
ATOM     32  C   UNL     1       2.678  10.944   2.847  1.00  0.00     0.039 A 
ATOM     33  C   UNL     1       2.779  11.366   1.520  1.00  0.00     0.014 A 
ATOM     34  C   UNL     1       1.428  10.660   3.404  1.00  0.00     0.014 A 
ATOM     35  C   UNL     1       1.628  11.450   0.734  1.00  0.00     0.010 A 
ATOM     36  C   UNL     1       0.294  10.668   2.599  1.00  0.00     0.010 A 
ATOM     37  C   UNL     1       0.380  11.071   1.258  1.00  0.00    -0.014 A 
BRANCH  37  38
ATOM     38  C   UNL     1      -0.847  11.103   0.421  1.00  0.00     0.031 A 
ATOM     39  C   UNL     1      -1.976  12.031   0.772  1.00  0.00     0.074 A 
ATOM     40  C   UNL     1      -0.965  10.258  -0.622  1.00  0.00     0.049 A 
ATOM     41  N   UNL     1      -3.144  12.172   0.199  1.00  0.00    -0.248 NA
ATOM     42  C   UNL     1      -1.772  12.892   1.945  1.00  0.00     0.031 C 
ATOM     43  C   UNL     1       0.049   9.290  -1.043  1.00  0.00     0.029 A 
ATOM     44  N   UNL     1      -1.988  10.079  -1.518  1.00  0.00    -0.354 N 
ATOM     45  C   UNL     1      -3.818  13.133   0.946  1.00  0.00     0.074 A 
ATOM     46  C   UNL     1      -2.956  13.472   2.059  1.00  0.00     0.031 C 
ATOM     47  C   UNL     1      -0.385   8.651  -2.141  1.00  0.00     0.029 A 
ATOM     48  C   UNL     1      -1.725   9.125  -2.472  1.00  0.00     0.049 A 
ATOM     49  H   UNL     1      -2.832  10.586  -1.481  1.00  0.00     0.167 HD
ATOM     50  C   UNL     1      -5.028  13.701   0.710  1.00  0.00     0.034 A 
ATOM     51  C   UNL     1      -2.480   8.680  -3.495  1.00  0.00     0.034 A 
ATOM     52  C   UNL     1      -5.876  13.340  -0.401  1.00  0.00     0.049 A 
ATOM     53  C   UNL     1      -3.851   9.272  -3.701  1.00  0.00     0.074 A 
ATOM     54  C   UNL     1      -7.101  13.874  -0.763  1.00  0.00     0.029 A 
ATOM     55  N   UNL     1      -5.595  12.338  -1.324  1.00  0.00    -0.354 N 
ATOM     56  N   UNL     1      -4.457  10.214  -3.016  1.00  0.00    -0.248 NA
ATOM     57  C   UNL     1      -4.634   8.742  -4.823  1.00  0.00     0.031 C 
ATOM     58  C   UNL     1      -7.595  13.143  -1.850  1.00  0.00     0.029 A 
ATOM     59  C   UNL     1      -6.641  12.211  -2.227  1.00  0.00     0.049 A 
ATOM     60  H   UNL     1      -4.773  11.796  -1.334  1.00  0.00     0.167 HD
ATOM     61  C   UNL     1      -5.682  10.414  -3.648  1.00  0.00     0.074 A 
ATOM     62  C   UNL     1      -5.720   9.500  -4.773  1.00  0.00     0.031 C 
ATOM     63  C   UNL     1      -6.678  11.281  -3.334  1.00  0.00     0.034 A 
BRANCH  50  64
ATOM     64  C   UNL     1      -5.502  14.742   1.701  1.00  0.00     0.023 A 
ATOM     65  C   UNL     1      -4.758  15.910   1.953  1.00  0.00     0.031 A 
ATOM     66  C   UNL     1      -6.667  14.535   2.460  1.00  0.00     0.131 A 
ATOM     67  C   UNL     1      -5.117  16.758   3.012  1.00  0.00     0.055 A 
ATOM     68  C   UNL     1      -7.078  15.440   3.442  1.00  0.00     0.041 A 
ATOM     69  F   UNL     1      -7.412  13.433   2.284  1.00  0.00    -0.206 F 
ATOM     70  C   UNL     1      -6.288  16.546   3.741  1.00  0.00     0.022 A 
BRANCH  67  71
ATOM     71  S   UNL     1      -3.921  18.010   3.554  1.00  0.00     0.124 S 
ATOM     72  O   UNL     1      -2.741  17.192   3.829  1.00  0.00    -0.237 OA
ATOM     73  O   UNL     1      -3.834  18.888   2.393  1.00  0.00    -0.237 OA
ATOM     74  O   UNL     1      -4.550  18.595   4.737  1.00  0.00    -0.744 OA
ENDBRANCH  67  71
ENDBRANCH  50  64
BRANCH  51  75
ATOM     75  C   UNL     1      -1.955   7.632  -4.415  1.00  0.00     0.023 A 
ATOM     76  C   UNL     1      -1.702   7.927  -5.764  1.00  0.00     0.031 A 
ATOM     77  C   UNL     1      -1.714   6.321  -3.968  1.00  0.00     0.131 A 
ATOM     78  C   UNL     1      -1.256   6.916  -6.629  1.00  0.00     0.055 A 
ATOM     79  C   UNL     1      -1.222   5.331  -4.821  1.00  0.00     0.041 A 
ATOM     80  F   UNL     1      -1.934   5.990  -2.686  1.00  0.00    -0.206 F 
ATOM     81  C   UNL     1      -1.000   5.624  -6.163  1.00  0.00     0.022 A 
BRANCH  78  82
ATOM     82  S   UNL     1      -1.073   7.300  -8.392  1.00  0.00     0.124 S 
ATOM     83  O   UNL     1      -2.433   7.682  -8.755  1.00  0.00    -0.237 OA
ATOM     84  O   UNL     1      -0.088   8.377  -8.367  1.00  0.00    -0.237 OA
ATOM     85  O   UNL     1      -0.602   6.042  -8.967  1.00  0.00    -0.744 OA
ENDBRANCH  78  82
ENDBRANCH  51  75
BRANCH  63  86
ATOM     86  C   UNL     1      -7.878  11.310  -4.253  1.00  0.00     0.023 A 
ATOM     87  C   UNL     1      -8.745  10.210  -4.379  1.00  0.00     0.031 A 
ATOM     88  C   UNL     1      -8.147  12.454  -5.027  1.00  0.00     0.131 A 
ATOM     89  C   UNL     1      -9.803  10.256  -5.300  1.00  0.00     0.055 A 
ATOM     90  C   UNL     1      -9.240  12.518  -5.891  1.00  0.00     0.041 A 
ATOM     91  F   UNL     1      -7.350  13.532  -4.952  1.00  0.00    -0.206 F 
ATOM     92  C   UNL     1     -10.068  11.410  -6.042  1.00  0.00     0.022 A 
BRANCH  89  93
ATOM     93  S   UNL     1     -10.771   8.749  -5.592  1.00  0.00     0.124 S 
ATOM     94  O   UNL     1      -9.744   7.807  -6.022  1.00  0.00    -0.237 OA
ATOM     95  O   UNL     1     -11.359   8.497  -4.280  1.00  0.00    -0.237 OA
ATOM     96  O   UNL     1     -11.722   9.147  -6.629  1.00  0.00    -0.744 OA
ENDBRANCH  89  93
ENDBRANCH  63  86
ENDBRANCH  37  38
ENDBRANCH  29  32
ENDBRANCH  27  28
ENDBRANCH  26  27
ENDBRANCH   1  26
TORSDOF 18
