REMARK SMILES O=C(NCCCCCCNC(=O)[C@H]1CCCCN1c1cc(-c2ccccc2)nc(-c2cccc(Cl)c2)n1)c1ccc(-c2c3nc(c(-c4cc(S(=O)(=O)[O-])ccc4F)c4ccc([nH]4)c(-c4cc(S(=O)(=O)[O-])ccc4F)c4nc(c(-c5cc(S(=O)(=O)[O-])ccc5F)c5ccc2[nH]5)C=C4)C=C3)cc1
REMARK SMILES IDX 6 1 5 2 4 3 3 4 1 5 2 6 38 8 39 9 100 10 40 11 99 12 41 13
REMARK SMILES IDX 42 14 43 15 93 16 44 17 98 18 92 19 94 20 45 21 97 22 91 23
REMARK SMILES IDX 90 24 46 26 78 27 58 28 77 29 59 30 62 31 76 32 95 33 60 34
REMARK SMILES IDX 61 35 75 37 96 38 63 39 47 40 48 41 56 42 49 43 55 44 57 45
REMARK SMILES IDX 54 46 50 47 51 48 52 49 53 50 79 51 80 52 88 53 81 54 87 55
REMARK SMILES IDX 89 56 86 57 82 58 83 59 84 60 85 61 64 62 65 63 73 64 66 65
REMARK SMILES IDX 72 66 74 67 71 68 67 69 68 70 69 71 70 72 7 73 8 74 9 75
REMARK SMILES IDX 10 76 11 77 12 79 13 80 14 81 18 82 15 83 17 84 16 85 19 86
REMARK SMILES IDX 20 87 37 88 21 89 29 90 28 91 22 92 23 93 27 94 24 95 26 96
REMARK SMILES IDX 25 97 30 98 31 99 36 100 32 101 34 102 33 103 35 104
REMARK H PARENT 3 7 94 25 62 36 10 78
REMARK Flexibility Score: inf
ROOT
ATOM      1  C   UNL     1       9.711 -10.877  -1.860  1.00  0.00     0.002 C 
ENDROOT
BRANCH   1   2
ATOM      2  C   UNL     1       9.611 -12.256  -1.209  1.00  0.00     0.021 C 
BRANCH   2   3
ATOM      3  C   UNL     1       8.479 -13.139  -1.717  1.00  0.00     0.116 C 
BRANCH   3   4
ATOM      4  N   UNL     1       8.597 -13.466  -3.128  1.00  0.00    -0.352 N 
ATOM      5  O   UNL     1       8.698 -14.812  -4.937  1.00  0.00    -0.269 OA
ATOM      6  C   UNL     1       8.449 -14.688  -3.740  1.00  0.00     0.251 C 
ATOM      7  H   UNL     1       8.813 -12.713  -3.724  1.00  0.00     0.163 HD
BRANCH   6   8
ATOM      8  C   UNL     1       8.015 -15.857  -2.944  1.00  0.00     0.039 A 
ATOM      9  C   UNL     1       6.934 -15.761  -2.063  1.00  0.00     0.014 A 
ATOM     10  C   UNL     1       8.708 -17.064  -3.075  1.00  0.00     0.014 A 
ATOM     11  C   UNL     1       6.628 -16.827  -1.224  1.00  0.00     0.010 A 
ATOM     12  C   UNL     1       8.349 -18.160  -2.285  1.00  0.00     0.010 A 
ATOM     13  C   UNL     1       7.323 -18.042  -1.334  1.00  0.00    -0.014 A 
BRANCH  13  14
ATOM     14  C   UNL     1       6.922 -19.194  -0.485  1.00  0.00     0.031 A 
ATOM     15  C   UNL     1       7.851 -19.750   0.558  1.00  0.00     0.074 A 
ATOM     16  C   UNL     1       5.695 -19.725  -0.654  1.00  0.00     0.049 A 
ATOM     17  N   UNL     1       7.666 -20.756   1.376  1.00  0.00    -0.248 NA
ATOM     18  C   UNL     1       9.162 -19.099   0.694  1.00  0.00     0.031 C 
ATOM     19  C   UNL     1       4.712 -19.267  -1.640  1.00  0.00     0.029 A 
ATOM     20  N   UNL     1       5.060 -20.751  -0.005  1.00  0.00    -0.354 N 
ATOM     21  C   UNL     1       8.839 -20.870   2.115  1.00  0.00     0.074 A 
ATOM     22  C   UNL     1       9.741 -19.849   1.622  1.00  0.00     0.031 C 
ATOM     23  C   UNL     1       3.587 -19.984  -1.504  1.00  0.00     0.029 A 
ATOM     24  C   UNL     1       3.790 -20.994  -0.472  1.00  0.00     0.049 A 
ATOM     25  H   UNL     1       5.473 -21.265   0.726  1.00  0.00     0.167 HD
ATOM     26  C   UNL     1       9.130 -21.741   3.115  1.00  0.00     0.034 A 
ATOM     27  C   UNL     1       2.895 -21.940  -0.129  1.00  0.00     0.034 A 
ATOM     28  C   UNL     1       8.215 -22.754   3.590  1.00  0.00     0.049 A 
ATOM     29  C   UNL     1       3.258 -22.920   0.952  1.00  0.00     0.074 A 
ATOM     30  C   UNL     1       8.396 -23.668   4.615  1.00  0.00     0.029 A 
ATOM     31  N   UNL     1       6.951 -22.997   3.066  1.00  0.00    -0.354 N 
ATOM     32  N   UNL     1       4.366 -23.004   1.651  1.00  0.00    -0.248 NA
ATOM     33  C   UNL     1       2.249 -23.930   1.291  1.00  0.00     0.031 C 
ATOM     34  C   UNL     1       7.272 -24.502   4.667  1.00  0.00     0.029 A 
ATOM     35  C   UNL     1       6.356 -24.064   3.724  1.00  0.00     0.049 A 
ATOM     36  H   UNL     1       6.537 -22.485   2.333  1.00  0.00     0.167 HD
ATOM     37  C   UNL     1       4.180 -24.069   2.526  1.00  0.00     0.074 A 
ATOM     38  C   UNL     1       2.846 -24.579   2.280  1.00  0.00     0.031 C 
ATOM     39  C   UNL     1       5.033 -24.577   3.451  1.00  0.00     0.034 A 
BRANCH  26  40
ATOM     40  C   UNL     1      10.509 -21.663   3.727  1.00  0.00     0.023 A 
ATOM     41  C   UNL     1      10.942 -20.531   4.439  1.00  0.00     0.031 A 
ATOM     42  C   UNL     1      11.412 -22.731   3.580  1.00  0.00     0.131 A 
ATOM     43  C   UNL     1      12.261 -20.465   4.918  1.00  0.00     0.055 A 
ATOM     44  C   UNL     1      12.698 -22.690   4.123  1.00  0.00     0.041 A 
ATOM     45  F   UNL     1      11.064 -23.831   2.894  1.00  0.00    -0.206 F 
ATOM     46  C   UNL     1      13.134 -21.546   4.785  1.00  0.00     0.022 A 
BRANCH  43  47
ATOM     47  S   UNL     1      12.860 -18.892   5.595  1.00  0.00     0.124 S 
ATOM     48  O   UNL     1      12.640 -17.982   4.473  1.00  0.00    -0.237 OA
ATOM     49  O   UNL     1      11.996 -18.697   6.753  1.00  0.00    -0.237 OA
ATOM     50  O   UNL     1      14.264 -19.162   5.901  1.00  0.00    -0.744 OA
ENDBRANCH  43  47
ENDBRANCH  26  40
BRANCH  27  51
ATOM     51  C   UNL     1       1.589 -22.024  -0.840  1.00  0.00     0.023 A 
ATOM     52  C   UNL     1       0.381 -21.788  -0.168  1.00  0.00     0.031 A 
ATOM     53  C   UNL     1       1.533 -22.359  -2.205  1.00  0.00     0.131 A 
ATOM     54  C   UNL     1      -0.836 -21.923  -0.854  1.00  0.00     0.055 A 
ATOM     55  C   UNL     1       0.324 -22.442  -2.895  1.00  0.00     0.041 A 
ATOM     56  F   UNL     1       2.662 -22.588  -2.895  1.00  0.00    -0.206 F 
ATOM     57  C   UNL     1      -0.872 -22.235  -2.216  1.00  0.00     0.022 A 
BRANCH  54  58
ATOM     58  S   UNL     1      -2.382 -21.754   0.080  1.00  0.00     0.124 S 
ATOM     59  O   UNL     1      -2.229 -22.786   1.098  1.00  0.00    -0.237 OA
ATOM     60  O   UNL     1      -2.303 -20.374   0.547  1.00  0.00    -0.237 OA
ATOM     61  O   UNL     1      -3.414 -22.012  -0.922  1.00  0.00    -0.744 OA
ENDBRANCH  54  58
ENDBRANCH  27  51
BRANCH  39  62
ATOM     62  C   UNL     1       4.521 -25.726   4.283  1.00  0.00     0.023 A 
ATOM     63  C   UNL     1       4.268 -26.989   3.719  1.00  0.00     0.031 A 
ATOM     64  C   UNL     1       4.255 -25.545   5.651  1.00  0.00     0.131 A 
ATOM     65  C   UNL     1       3.708 -28.006   4.507  1.00  0.00     0.055 A 
ATOM     66  C   UNL     1       3.752 -26.578   6.444  1.00  0.00     0.041 A 
ATOM     67  F   UNL     1       4.476 -24.358   6.239  1.00  0.00    -0.206 F 
ATOM     68  C   UNL     1       3.463 -27.812   5.870  1.00  0.00     0.022 A 
BRANCH  65  69
ATOM     69  S   UNL     1       3.217 -29.558   3.708  1.00  0.00     0.124 S 
ATOM     70  O   UNL     1       2.253 -29.095   2.714  1.00  0.00    -0.237 OA
ATOM     71  O   UNL     1       4.485 -30.054   3.183  1.00  0.00    -0.237 OA
ATOM     72  O   UNL     1       2.651 -30.344   4.802  1.00  0.00    -0.744 OA
ENDBRANCH  65  69
ENDBRANCH  39  62
ENDBRANCH  13  14
ENDBRANCH   6   8
ENDBRANCH   3   4
ENDBRANCH   2   3
ENDBRANCH   1   2
BRANCH   1  73
ATOM     73  C   UNL     1       8.423 -10.050  -1.867  1.00  0.00     0.002 C 
BRANCH  73  74
ATOM     74  C   UNL     1       7.747  -9.837  -0.505  1.00  0.00     0.021 C 
BRANCH  74  75
ATOM     75  C   UNL     1       8.631  -9.238   0.588  1.00  0.00     0.116 C 
BRANCH  75  76
ATOM     76  N   UNL     1       9.186  -7.962   0.193  1.00  0.00    -0.354 N 
ATOM     77  C   UNL     1       9.427  -6.841   0.927  1.00  0.00     0.242 C 
ATOM     78  H   UNL     1       9.427  -7.892  -0.759  1.00  0.00     0.163 HD
ATOM     79  O   UNL     1       9.870  -5.874   0.296  1.00  0.00    -0.273 OA
BRANCH  77  80
ATOM     80  C   UNL     1       9.125  -6.799   2.458  1.00  0.00     0.173 C 
ATOM     81  C   UNL     1       9.952  -7.806   3.268  1.00  0.00     0.035 C 
ATOM     82  N   UNL     1       9.407  -5.451   2.986  1.00  0.00    -0.344 N 
ATOM     83  C   UNL     1      11.434  -7.436   3.289  1.00  0.00     0.004 C 
ATOM     84  C   UNL     1      10.789  -4.993   3.053  1.00  0.00     0.119 C 
ATOM     85  C   UNL     1      11.634  -6.016   3.814  1.00  0.00     0.022 C 
BRANCH  82  86
ATOM     86  C   UNL     1       8.381  -4.705   3.510  1.00  0.00     0.133 A 
ATOM     87  C   UNL     1       8.194  -3.395   3.119  1.00  0.00     0.076 A 
ATOM     88  N   UNL     1       7.566  -5.286   4.402  1.00  0.00    -0.211 NA
ATOM     89  C   UNL     1       7.131  -2.708   3.672  1.00  0.00     0.076 A 
ATOM     90  C   UNL     1       6.575  -4.536   4.915  1.00  0.00     0.162 A 
ATOM     91  N   UNL     1       6.313  -3.261   4.586  1.00  0.00    -0.228 NA
BRANCH  89  92
ATOM     92  C   UNL     1       6.825  -1.325   3.290  1.00  0.00     0.000 A 
ATOM     93  C   UNL     1       6.815  -0.300   4.250  1.00  0.00     0.010 A 
ATOM     94  C   UNL     1       6.538  -0.987   1.956  1.00  0.00     0.010 A 
ATOM     95  C   UNL     1       6.545   1.022   3.887  1.00  0.00     0.001 A 
ATOM     96  C   UNL     1       6.256   0.333   1.594  1.00  0.00     0.001 A 
ATOM     97  C   UNL     1       6.265   1.337   2.559  1.00  0.00     0.000 A 
ENDBRANCH  89  92
BRANCH  90  98
ATOM     98  C   UNL     1       5.723  -5.161   5.929  1.00  0.00     0.021 A 
ATOM     99  C   UNL     1       6.285  -5.835   7.030  1.00  0.00     0.012 A 
ATOM    100  C   UNL     1       4.323  -5.111   5.827  1.00  0.00     0.032 A 
ATOM    101  C   UNL     1       5.477  -6.437   7.998  1.00  0.00     0.002 A 
ATOM    102  C   UNL     1       3.519  -5.729   6.785  1.00  0.00     0.041 A 
ATOM    103  C   UNL     1       4.090  -6.389   7.872  1.00  0.00     0.020 A 
ATOM    104  Cl  UNL     1       1.807  -5.684   6.620  1.00  0.00    -0.084 Cl
ENDBRANCH  90  98
ENDBRANCH  82  86
ENDBRANCH  77  80
ENDBRANCH  75  76
ENDBRANCH  74  75
ENDBRANCH  73  74
ENDBRANCH   1  73
TORSDOF 19
