REMARK SMILES COc1ccc(-c2cccc(/C=C\C(=O)NCCCCCCNC(=O)c3ccc(-c4c5nc(c(-c6cc(S(=O)(=O)[O-])ccc6F)c6ccc([nH]6)c(-c6cc(S(=O)(=O)[O-])ccc6F)c6nc(c(-c7cc(S(=O)(=O)[O-])ccc7F)c7ccc4[nH]7)C=C6)C=C5)cc3)c2)c(Cl)c1OC
REMARK SMILES IDX 19 1 18 2 17 3 16 4 14 5 15 6 13 8 12 9 11 10 7 11 8 12
REMARK SMILES IDX 89 13 9 14 10 15 6 16 3 17 4 18 92 19 5 20 90 21 91 22 2 23
REMARK SMILES IDX 1 24 93 25 94 26 20 27 21 28 22 29 23 30 24 31 25 33 26 34
REMARK SMILES IDX 27 35 88 36 28 37 87 38 29 39 30 40 31 41 81 42 32 43 86 44
REMARK SMILES IDX 80 45 82 46 33 47 85 48 79 49 78 50 34 52 66 53 46 54 65 55
REMARK SMILES IDX 47 56 50 57 64 58 83 59 48 60 49 61 63 63 84 64 51 65 35 66
REMARK SMILES IDX 36 67 44 68 37 69 43 70 45 71 42 72 38 73 39 74 40 75 41 76
REMARK SMILES IDX 67 77 68 78 76 79 69 80 75 81 77 82 74 83 70 84 71 85 72 86
REMARK SMILES IDX 73 87 52 88 53 89 61 90 54 91 60 92 62 93 59 94 55 95 56 96
REMARK SMILES IDX 57 97 58 98
REMARK H PARENT 16 7 23 32 82 51 50 62
REMARK Flexibility Score: inf
ROOT
ATOM      1  C   UNL     1       3.637  -5.585  -9.014  1.00  0.00     0.002 C 
ENDROOT
BRANCH   1   2
ATOM      2  C   UNL     1       2.325  -4.792  -9.005  1.00  0.00     0.021 C 
BRANCH   2   3
ATOM      3  C   UNL     1       2.425  -3.292  -9.252  1.00  0.00     0.116 C 
BRANCH   3   4
ATOM      4  N   UNL     1       2.702  -2.907 -10.618  1.00  0.00    -0.353 N 
ATOM      5  C   UNL     1       2.352  -1.783 -11.299  1.00  0.00     0.243 C 
ATOM      6  O   UNL     1       2.746  -1.651 -12.460  1.00  0.00    -0.270 OA
ATOM      7  H   UNL     1       3.226  -3.560 -11.136  1.00  0.00     0.163 HD
BRANCH   5   8
ATOM      8  C   UNL     1       1.424  -0.745 -10.764  1.00  0.00     0.072 C 
ATOM      9  C   UNL     1       1.308  -0.105  -9.586  1.00  0.00     0.014 C 
BRANCH   9  10
ATOM     10  C   UNL     1       2.098  -0.293  -8.368  1.00  0.00    -0.025 A 
ATOM     11  C   UNL     1       2.136  -0.852  -5.978  1.00  0.00    -0.016 A 
ATOM     12  C   UNL     1       3.531  -1.020  -6.106  1.00  0.00     0.009 A 
ATOM     13  C   UNL     1       1.435  -0.475  -7.136  1.00  0.00     0.017 A 
ATOM     14  C   UNL     1       4.207  -0.730  -7.291  1.00  0.00     0.001 A 
ATOM     15  C   UNL     1       3.493  -0.343  -8.417  1.00  0.00     0.008 A 
BRANCH  11  16
ATOM     16  C   UNL     1       1.500  -0.992  -4.637  1.00  0.00     0.004 A 
ATOM     17  C   UNL     1       0.514  -1.094  -1.969  1.00  0.00     0.162 A 
ATOM     18  C   UNL     1       1.731  -0.482  -2.246  1.00  0.00     0.051 A 
ATOM     19  C   UNL     1      -0.208  -1.715  -3.009  1.00  0.00     0.180 A 
ATOM     20  C   UNL     1       2.195  -0.413  -3.554  1.00  0.00     0.014 A 
ATOM     21  C   UNL     1       0.293  -1.679  -4.337  1.00  0.00     0.094 A 
ATOM     22  Cl  UNL     1      -0.502  -2.596  -5.586  1.00  0.00    -0.079 Cl
BRANCH  17  23
ATOM     23  O   UNL     1      -0.019  -1.156  -0.705  1.00  0.00    -0.493 OA
ATOM     24  C   UNL     1       0.427  -0.155   0.209  1.00  0.00     0.278 C 
ENDBRANCH  17  23
BRANCH  19  25
ATOM     25  O   UNL     1      -1.290  -2.461  -2.599  1.00  0.00    -0.491 OA
ATOM     26  C   UNL     1      -2.533  -2.212  -3.242  1.00  0.00     0.278 C 
ENDBRANCH  19  25
ENDBRANCH  11  16
ENDBRANCH   9  10
ENDBRANCH   5   8
ENDBRANCH   3   4
ENDBRANCH   2   3
ENDBRANCH   1   2
BRANCH   1  27
ATOM     27  C   UNL     1       4.789  -5.097  -8.125  1.00  0.00     0.002 C 
BRANCH  27  28
ATOM     28  C   UNL     1       4.470  -4.724  -6.674  1.00  0.00     0.021 C 
BRANCH  28  29
ATOM     29  C   UNL     1       3.732  -5.756  -5.828  1.00  0.00     0.116 C 
BRANCH  29  30
ATOM     30  N   UNL     1       4.489  -6.976  -5.633  1.00  0.00    -0.352 N 
ATOM     31  C   UNL     1       4.771  -7.668  -4.479  1.00  0.00     0.251 C 
ATOM     32  H   UNL     1       4.860  -7.370  -6.455  1.00  0.00     0.163 HD
ATOM     33  O   UNL     1       5.555  -8.612  -4.536  1.00  0.00    -0.269 OA
BRANCH  31  34
ATOM     34  C   UNL     1       4.173  -7.284  -3.173  1.00  0.00     0.039 A 
ATOM     35  C   UNL     1       4.976  -7.367  -2.029  1.00  0.00     0.014 A 
ATOM     36  C   UNL     1       2.832  -6.912  -3.042  1.00  0.00     0.014 A 
ATOM     37  C   UNL     1       4.452  -7.044  -0.772  1.00  0.00     0.010 A 
ATOM     38  C   UNL     1       2.324  -6.535  -1.794  1.00  0.00     0.010 A 
ATOM     39  C   UNL     1       3.125  -6.606  -0.643  1.00  0.00    -0.014 A 
BRANCH  39  40
ATOM     40  C   UNL     1       2.563  -6.253   0.691  1.00  0.00     0.031 A 
ATOM     41  C   UNL     1       1.479  -7.101   1.306  1.00  0.00     0.074 A 
ATOM     42  C   UNL     1       3.007  -5.157   1.339  1.00  0.00     0.049 A 
ATOM     43  N   UNL     1       0.835  -6.936   2.434  1.00  0.00    -0.248 NA
ATOM     44  C   UNL     1       1.054  -8.281   0.540  1.00  0.00     0.031 C 
ATOM     45  C   UNL     1       4.040  -4.246   0.843  1.00  0.00     0.029 A 
ATOM     46  N   UNL     1       2.646  -4.619   2.550  1.00  0.00    -0.354 N 
ATOM     47  C   UNL     1      -0.080  -7.982   2.509  1.00  0.00     0.074 A 
ATOM     48  C   UNL     1       0.064  -8.746   1.287  1.00  0.00     0.031 C 
ATOM     49  C   UNL     1       4.242  -3.275   1.748  1.00  0.00     0.029 A 
ATOM     50  C   UNL     1       3.325  -3.464   2.869  1.00  0.00     0.049 A 
ATOM     51  H   UNL     1       1.965  -5.021   3.136  1.00  0.00     0.167 HD
ATOM     52  C   UNL     1      -0.946  -8.286   3.508  1.00  0.00     0.034 A 
ATOM     53  C   UNL     1       3.212  -2.642   3.932  1.00  0.00     0.034 A 
ATOM     54  C   UNL     1      -1.076  -7.515   4.723  1.00  0.00     0.049 A 
ATOM     55  C   UNL     1       2.210  -2.976   5.010  1.00  0.00     0.074 A 
ATOM     56  C   UNL     1      -1.883  -7.763   5.820  1.00  0.00     0.029 A 
ATOM     57  N   UNL     1      -0.389  -6.338   4.997  1.00  0.00    -0.354 N 
ATOM     58  N   UNL     1       1.380  -3.992   5.082  1.00  0.00    -0.248 NA
ATOM     59  C   UNL     1       2.134  -2.055   6.152  1.00  0.00     0.031 C 
ATOM     60  C   UNL     1      -1.737  -6.704   6.724  1.00  0.00     0.029 A 
ATOM     61  C   UNL     1      -0.779  -5.833   6.230  1.00  0.00     0.049 A 
ATOM     62  H   UNL     1       0.277  -5.923   4.403  1.00  0.00     0.167 HD
ATOM     63  C   UNL     1       0.708  -3.848   6.293  1.00  0.00     0.074 A 
ATOM     64  C   UNL     1       1.237  -2.655   6.922  1.00  0.00     0.031 C 
ATOM     65  C   UNL     1      -0.254  -4.634   6.840  1.00  0.00     0.034 A 
BRANCH  52  66
ATOM     66  C   UNL     1      -1.845  -9.485   3.311  1.00  0.00     0.023 A 
ATOM     67  C   UNL     1      -1.327 -10.787   3.184  1.00  0.00     0.031 A 
ATOM     68  C   UNL     1      -3.240  -9.324   3.229  1.00  0.00     0.131 A 
ATOM     69  C   UNL     1      -2.188 -11.861   2.908  1.00  0.00     0.055 A 
ATOM     70  C   UNL     1      -4.098 -10.409   3.034  1.00  0.00     0.041 A 
ATOM     71  F   UNL     1      -3.795  -8.105   3.325  1.00  0.00    -0.206 F 
ATOM     72  C   UNL     1      -3.572 -11.685   2.857  1.00  0.00     0.022 A 
BRANCH  69  73
ATOM     73  S   UNL     1      -1.461 -13.466   2.478  1.00  0.00     0.124 S 
ATOM     74  O   UNL     1      -0.651 -13.121   1.313  1.00  0.00    -0.237 OA
ATOM     75  O   UNL     1      -0.725 -13.814   3.688  1.00  0.00    -0.237 OA
ATOM     76  O   UNL     1      -2.624 -14.304   2.192  1.00  0.00    -0.744 OA
ENDBRANCH  69  73
ENDBRANCH  52  66
BRANCH  53  77
ATOM     77  C   UNL     1       4.042  -1.405   4.026  1.00  0.00     0.023 A 
ATOM     78  C   UNL     1       4.987  -1.231   5.048  1.00  0.00     0.031 A 
ATOM     79  C   UNL     1       3.866  -0.351   3.112  1.00  0.00     0.131 A 
ATOM     80  C   UNL     1       5.686  -0.017   5.155  1.00  0.00     0.055 A 
ATOM     81  C   UNL     1       4.597   0.835   3.191  1.00  0.00     0.041 A 
ATOM     82  F   UNL     1       2.979  -0.465   2.114  1.00  0.00    -0.206 F 
ATOM     83  C   UNL     1       5.506   1.012   4.227  1.00  0.00     0.022 A 
BRANCH  80  84
ATOM     84  S   UNL     1       6.782   0.235   6.577  1.00  0.00     0.124 S 
ATOM     85  O   UNL     1       5.863   0.056   7.696  1.00  0.00    -0.237 OA
ATOM     86  O   UNL     1       7.773  -0.818   6.384  1.00  0.00    -0.237 OA
ATOM     87  O   UNL     1       7.277   1.597   6.387  1.00  0.00    -0.744 OA
ENDBRANCH  80  84
ENDBRANCH  53  77
BRANCH  65  88
ATOM     88  C   UNL     1      -0.758  -4.249   8.211  1.00  0.00     0.023 A 
ATOM     89  C   UNL     1      -1.496  -3.071   8.427  1.00  0.00     0.031 A 
ATOM     90  C   UNL     1      -0.478  -5.066   9.321  1.00  0.00     0.131 A 
ATOM     91  C   UNL     1      -1.879  -2.716   9.730  1.00  0.00     0.055 A 
ATOM     92  C   UNL     1      -0.914  -4.738  10.605  1.00  0.00     0.041 A 
ATOM     93  F   UNL     1       0.226  -6.200   9.175  1.00  0.00    -0.206 F 
ATOM     94  C   UNL     1      -1.608  -3.550  10.817  1.00  0.00     0.022 A 
BRANCH  91  95
ATOM     95  S   UNL     1      -2.658  -1.099   9.999  1.00  0.00     0.124 S 
ATOM     96  O   UNL     1      -1.643  -0.184   9.485  1.00  0.00    -0.237 OA
ATOM     97  O   UNL     1      -3.880  -1.205   9.209  1.00  0.00    -0.237 OA
ATOM     98  O   UNL     1      -2.859  -1.052  11.446  1.00  0.00    -0.744 OA
ENDBRANCH  91  95
ENDBRANCH  65  88
ENDBRANCH  39  40
ENDBRANCH  31  34
ENDBRANCH  29  30
ENDBRANCH  28  29
ENDBRANCH  27  28
ENDBRANCH   1  27
TORSDOF 20
