REMARK SMILES CC[C@@H](C)SCc1cc(F)cc(/C=C/C(=O)NCCCCCCNC(=O)c2ccc(-c3c4nc(c(-c5cc(S(=O)(=O)[O-])ccc5F)c5ccc([nH]5)c(-c5cc(S(=O)(=O)[O-])ccc5F)c5nc(c(-c6cc(S(=O)(=O)[O-])ccc6F)c6ccc3[nH]6)C=C5)C=C4)cc2)c1
REMARK SMILES IDX 19 1 18 2 17 3 15 4 16 5 14 7 13 8 12 9 7 10 8 11 90 12 9 13
REMARK SMILES IDX 10 14 11 15 6 16 5 17 3 18 4 19 2 20 1 21 20 22 21 23 22 24
REMARK SMILES IDX 23 25 24 26 25 27 26 29 27 30 28 31 89 32 29 33 88 34 30 35
REMARK SMILES IDX 31 36 32 37 82 38 33 39 87 40 81 41 83 42 34 43 86 44 80 45
REMARK SMILES IDX 79 46 35 48 67 49 47 50 66 51 48 52 51 53 65 54 84 55 49 56
REMARK SMILES IDX 50 57 64 59 85 60 52 61 36 62 37 63 45 64 38 65 44 66 46 67
REMARK SMILES IDX 43 68 39 69 40 70 41 71 42 72 68 73 69 74 77 75 70 76 76 77
REMARK SMILES IDX 78 78 75 79 71 80 72 81 73 82 74 83 53 84 54 85 62 86 55 87
REMARK SMILES IDX 61 88 63 89 60 90 56 91 57 92 58 93 59 94
REMARK H PARENT 17 6 24 28 83 47 51 58
REMARK Flexibility Score: inf
ROOT
ATOM      1  C   UNL     1      -3.330   7.705  -6.828  1.00  0.00     0.021 C 
ENDROOT
BRANCH   1   2
ATOM      2  C   UNL     1      -4.395   6.628  -6.626  1.00  0.00     0.116 C 
BRANCH   2   3
ATOM      3  N   UNL     1      -4.445   5.747  -7.780  1.00  0.00    -0.353 N 
ATOM      4  C   UNL     1      -4.222   4.412  -7.883  1.00  0.00     0.243 C 
ATOM      5  O   UNL     1      -4.378   3.841  -8.959  1.00  0.00    -0.270 OA
ATOM      6  H   UNL     1      -4.678   6.192  -8.627  1.00  0.00     0.163 HD
BRANCH   4   7
ATOM      7  C   UNL     1      -3.916   3.618  -6.678  1.00  0.00     0.072 C 
ATOM      8  C   UNL     1      -2.905   3.865  -5.830  1.00  0.00     0.014 C 
BRANCH   8   9
ATOM      9  C   UNL     1      -2.684   3.057  -4.620  1.00  0.00    -0.022 A 
ATOM     10  C   UNL     1      -2.043   2.946  -2.258  1.00  0.00    -0.035 A 
ATOM     11  C   UNL     1      -2.383   1.588  -2.248  1.00  0.00     0.043 A 
ATOM     12  C   UNL     1      -2.208   3.675  -3.451  1.00  0.00     0.013 A 
ATOM     13  C   UNL     1      -2.795   0.966  -3.419  1.00  0.00     0.124 A 
ATOM     14  F   UNL     1      -3.052  -0.348  -3.410  1.00  0.00    -0.207 F 
ATOM     15  C   UNL     1      -2.933   1.681  -4.601  1.00  0.00     0.047 A 
BRANCH  10  16
ATOM     16  C   UNL     1      -1.506   3.607  -1.014  1.00  0.00     0.105 C 
BRANCH  16  17
ATOM     17  S   UNL     1       0.283   3.959  -1.060  1.00  0.00    -0.154 SA
BRANCH  17  18
ATOM     18  C   UNL     1       1.084   2.295  -1.016  1.00  0.00     0.043 C 
ATOM     19  C   UNL     1       1.130   1.665  -2.407  1.00  0.00     0.019 C 
BRANCH  18  20
ATOM     20  C   UNL     1       0.544   1.382   0.096  1.00  0.00     0.011 C 
ATOM     21  C   UNL     1       1.137  -0.022   0.085  1.00  0.00     0.005 C 
ENDBRANCH  18  20
ENDBRANCH  17  18
ENDBRANCH  16  17
ENDBRANCH  10  16
ENDBRANCH   8   9
ENDBRANCH   4   7
ENDBRANCH   2   3
ENDBRANCH   1   2
BRANCH   1  22
ATOM     22  C   UNL     1      -3.739   8.794  -7.829  1.00  0.00     0.002 C 
BRANCH  22  23
ATOM     23  C   UNL     1      -4.971   9.613  -7.425  1.00  0.00     0.002 C 
BRANCH  23  24
ATOM     24  C   UNL     1      -4.892  10.270  -6.044  1.00  0.00     0.021 C 
BRANCH  24  25
ATOM     25  C   UNL     1      -3.722  11.233  -5.863  1.00  0.00     0.116 C 
BRANCH  25  26
ATOM     26  N   UNL     1      -3.823  12.374  -6.757  1.00  0.00    -0.352 N 
ATOM     27  C   UNL     1      -3.765  13.713  -6.465  1.00  0.00     0.251 C 
ATOM     28  H   UNL     1      -3.952  12.155  -7.708  1.00  0.00     0.163 HD
ATOM     29  O   UNL     1      -4.100  14.531  -7.321  1.00  0.00    -0.269 OA
BRANCH  27  30
ATOM     30  C   UNL     1      -3.317  14.170  -5.132  1.00  0.00     0.039 A 
ATOM     31  C   UNL     1      -3.993  15.229  -4.521  1.00  0.00     0.014 A 
ATOM     32  C   UNL     1      -2.209  13.591  -4.504  1.00  0.00     0.014 A 
ATOM     33  C   UNL     1      -3.581  15.683  -3.266  1.00  0.00     0.010 A 
ATOM     34  C   UNL     1      -1.839  14.003  -3.225  1.00  0.00     0.010 A 
ATOM     35  C   UNL     1      -2.512  15.063  -2.600  1.00  0.00    -0.014 A 
BRANCH  35  36
ATOM     36  C   UNL     1      -2.066  15.542  -1.267  1.00  0.00     0.031 A 
ATOM     37  C   UNL     1      -0.711  16.177  -1.111  1.00  0.00     0.074 A 
ATOM     38  C   UNL     1      -2.870  15.388  -0.197  1.00  0.00     0.049 A 
ATOM     39  N   UNL     1      -0.128  16.622  -0.028  1.00  0.00    -0.248 NA
ATOM     40  C   UNL     1       0.105  16.309  -2.329  1.00  0.00     0.031 C 
ATOM     41  C   UNL     1      -4.196  14.766  -0.221  1.00  0.00     0.029 A 
ATOM     42  N   UNL     1      -2.696  15.748   1.116  1.00  0.00    -0.354 N 
ATOM     43  C   UNL     1       1.123  17.078  -0.431  1.00  0.00     0.074 A 
ATOM     44  C   UNL     1       1.235  16.806  -1.847  1.00  0.00     0.031 C 
ATOM     45  C   UNL     1      -4.730  14.825   1.010  1.00  0.00     0.029 A 
ATOM     46  C   UNL     1      -3.773  15.450   1.918  1.00  0.00     0.049 A 
ATOM     47  H   UNL     1      -1.877  16.179   1.452  1.00  0.00     0.167 HD
ATOM     48  C   UNL     1       2.078  17.692   0.307  1.00  0.00     0.034 A 
ATOM     49  C   UNL     1      -3.967  15.654   3.236  1.00  0.00     0.034 A 
ATOM     50  C   UNL     1       1.942  17.990   1.710  1.00  0.00     0.049 A 
ATOM     51  C   UNL     1      -2.879  16.310   4.043  1.00  0.00     0.074 A 
ATOM     52  C   UNL     1       2.825  18.663   2.535  1.00  0.00     0.029 A 
ATOM     53  N   UNL     1       0.854  17.633   2.493  1.00  0.00    -0.354 N 
ATOM     54  N   UNL     1      -1.708  16.746   3.642  1.00  0.00    -0.248 NA
ATOM     55  C   UNL     1      -3.133  16.497   5.479  1.00  0.00     0.031 C 
ATOM     56  C   UNL     1       2.296  18.667   3.829  1.00  0.00     0.029 A 
ATOM     57  C   UNL     1       1.057  18.046   3.799  1.00  0.00     0.049 A 
ATOM     58  H   UNL     1       0.055  17.157   2.169  1.00  0.00     0.167 HD
ATOM     59  C   UNL     1      -1.092  17.271   4.772  1.00  0.00     0.074 A 
ATOM     60  C   UNL     1      -2.019  17.101   5.872  1.00  0.00     0.031 C 
ATOM     61  C   UNL     1       0.129  17.849   4.886  1.00  0.00     0.034 A 
BRANCH  48  62
ATOM     62  C   UNL     1       3.358  18.076  -0.386  1.00  0.00     0.023 A 
ATOM     63  C   UNL     1       3.387  19.081  -1.369  1.00  0.00     0.031 A 
ATOM     64  C   UNL     1       4.567  17.440  -0.053  1.00  0.00     0.131 A 
ATOM     65  C   UNL     1       4.590  19.385  -2.021  1.00  0.00     0.055 A 
ATOM     66  C   UNL     1       5.773  17.793  -0.659  1.00  0.00     0.041 A 
ATOM     67  F   UNL     1       4.592  16.463   0.867  1.00  0.00    -0.206 F 
ATOM     68  C   UNL     1       5.788  18.765  -1.656  1.00  0.00     0.022 A 
BRANCH  65  69
ATOM     69  S   UNL     1       4.554  20.545  -3.413  1.00  0.00     0.124 S 
ATOM     70  O   UNL     1       3.756  19.806  -4.388  1.00  0.00    -0.237 OA
ATOM     71  O   UNL     1       3.922  21.722  -2.831  1.00  0.00    -0.237 OA
ATOM     72  O   UNL     1       5.964  20.704  -3.763  1.00  0.00    -0.744 OA
ENDBRANCH  65  69
ENDBRANCH  48  62
BRANCH  49  73
ATOM     73  C   UNL     1      -5.242  15.226   3.872  1.00  0.00     0.023 A 
ATOM     74  C   UNL     1      -6.186  16.172   4.299  1.00  0.00     0.031 A 
ATOM     75  C   UNL     1      -5.542  13.864   4.042  1.00  0.00     0.131 A 
ATOM     76  C   UNL     1      -7.384  15.742   4.893  1.00  0.00     0.055 A 
ATOM     77  C   UNL     1      -6.748  13.440   4.603  1.00  0.00     0.041 A 
ATOM     78  F   UNL     1      -4.674  12.923   3.637  1.00  0.00    -0.206 F 
ATOM     79  C   UNL     1      -7.676  14.383   5.036  1.00  0.00     0.022 A 
BRANCH  76  80
ATOM     80  S   UNL     1      -8.559  16.988   5.490  1.00  0.00     0.124 S 
ATOM     81  O   UNL     1      -7.803  17.613   6.570  1.00  0.00    -0.237 OA
ATOM     82  O   UNL     1      -8.773  17.803   4.299  1.00  0.00    -0.237 OA
ATOM     83  O   UNL     1      -9.711  16.193   5.911  1.00  0.00    -0.744 OA
ENDBRANCH  76  80
ENDBRANCH  49  73
BRANCH  61  84
ATOM     84  C   UNL     1       0.537  18.355   6.242  1.00  0.00     0.023 A 
ATOM     85  C   UNL     1       0.954  17.474   7.251  1.00  0.00     0.031 A 
ATOM     86  C   UNL     1       0.582  19.737   6.495  1.00  0.00     0.131 A 
ATOM     87  C   UNL     1       1.391  17.986   8.482  1.00  0.00     0.055 A 
ATOM     88  C   UNL     1       1.052  20.241   7.707  1.00  0.00     0.041 A 
ATOM     89  F   UNL     1       0.199  20.615   5.556  1.00  0.00    -0.206 F 
ATOM     90  C   UNL     1       1.459  19.364   8.709  1.00  0.00     0.022 A 
BRANCH  87  91
ATOM     91  S   UNL     1       1.876  16.827   9.789  1.00  0.00     0.124 S 
ATOM     92  O   UNL     1       0.596  16.227  10.150  1.00  0.00    -0.237 OA
ATOM     93  O   UNL     1       2.821  15.950   9.105  1.00  0.00    -0.237 OA
ATOM     94  O   UNL     1       2.466  17.691  10.811  1.00  0.00    -0.744 OA
ENDBRANCH  87  91
ENDBRANCH  61  84
ENDBRANCH  35  36
ENDBRANCH  27  30
ENDBRANCH  25  26
ENDBRANCH  24  25
ENDBRANCH  23  24
ENDBRANCH  22  23
ENDBRANCH   1  22
TORSDOF 21
