REMARK SMILES Cc1ccc(S(=O)(=O)n2cc(C(=O)C(=O)NCC(=O)NCC(=O)NCCCCCCNC(=O)c3ccc(-c4c5nc(c(-c6cc(S(=O)(=O)[O-])ccc6F)c6ccc([nH]6)c(-c6cc(S(=O)(=O)[O-])ccc6F)c6nc(c(-c7cc(S(=O)(=O)[O-])ccc7F)c7ccc4[nH]7)C=C6)C=C5)cc3)c3ccccc32)cc1
REMARK SMILES IDX 25 1 24 2 22 3 23 4 21 6 20 7 18 8 19 9 17 11 16 12 14 13
REMARK SMILES IDX 15 14 12 16 13 17 11 18 9 19 10 20 102 21 97 22 101 23 98 24
REMARK SMILES IDX 100 25 99 26 6 27 7 28 8 29 5 30 1 31 2 32 3 33 104 34 4 35
REMARK SMILES IDX 103 36 26 37 27 38 28 39 29 40 30 41 31 42 32 43 33 45 34 46
REMARK SMILES IDX 35 47 96 48 36 49 95 50 37 51 38 52 39 53 89 54 40 55 94 56
REMARK SMILES IDX 88 57 90 58 41 59 93 60 87 61 86 62 42 64 74 65 54 66 73 67
REMARK SMILES IDX 55 68 58 69 72 70 91 71 56 72 57 73 71 75 92 76 59 77 43 78
REMARK SMILES IDX 44 79 52 80 45 81 51 82 53 83 50 84 46 85 47 86 48 87 49 88
REMARK SMILES IDX 75 89 76 90 84 91 77 92 83 93 85 94 82 95 78 96 79 97 80 98
REMARK SMILES IDX 81 99 60 100 61 101 69 102 62 103 68 104 70 105 67 106
REMARK SMILES IDX 63 107 64 108 65 109 66 110
REMARK H PARENT 24 5 20 10 16 15 31 44 90 63 58 74
REMARK Flexibility Score: inf
ROOT
ATOM      1  C   UNL     1      -9.766   3.381   3.612  1.00  0.00     0.116 C 
ENDROOT
BRANCH   1   2
ATOM      2  N   UNL     1     -10.268   2.913   2.341  1.00  0.00    -0.355 N 
ATOM      3  C   UNL     1     -10.106   3.457   1.101  1.00  0.00     0.239 C 
ATOM      4  O   UNL     1     -10.384   2.764   0.117  1.00  0.00    -0.273 OA
ATOM      5  H   UNL     1     -10.801   2.086   2.375  1.00  0.00     0.163 HD
BRANCH   3   6
ATOM      6  C   UNL     1      -9.420   4.822   0.912  1.00  0.00     0.216 C 
BRANCH   6   7
ATOM      7  N   UNL     1      -9.882   5.890   1.783  1.00  0.00    -0.346 N 
ATOM      8  C   UNL     1      -9.200   6.698   2.641  1.00  0.00     0.239 C 
ATOM      9  O   UNL     1      -9.837   7.572   3.233  1.00  0.00    -0.273 OA
ATOM     10  H   UNL     1     -10.851   6.057   1.747  1.00  0.00     0.164 HD
BRANCH   8  11
ATOM     11  C   UNL     1      -7.674   6.606   2.813  1.00  0.00     0.216 C 
BRANCH  11  12
ATOM     12  N   UNL     1      -7.144   5.332   3.306  1.00  0.00    -0.340 N 
ATOM     13  C   UNL     1      -6.293   4.405   2.740  1.00  0.00     0.292 C 
ATOM     14  O   UNL     1      -5.997   3.400   3.377  1.00  0.00    -0.265 OA
ATOM     15  H   UNL     1      -7.453   5.093   4.210  1.00  0.00     0.164 HD
BRANCH  13  16
ATOM     16  C   UNL     1      -5.704   4.633   1.333  1.00  0.00     0.252 C 
ATOM     17  O   UNL     1      -5.782   5.765   0.864  1.00  0.00    -0.283 OA
BRANCH  16  18
ATOM     18  C   UNL     1      -5.049   3.572   0.553  1.00  0.00     0.054 A 
ATOM     19  N   UNL     1      -4.161   1.645  -0.145  1.00  0.00    -0.240 N 
ATOM     20  C   UNL     1      -4.851   2.242   0.882  1.00  0.00     0.117 A 
ATOM     21  C   UNL     1      -3.899   2.541  -1.161  1.00  0.00     0.065 A 
ATOM     22  C   UNL     1      -4.449   3.759  -0.745  1.00  0.00     0.012 A 
ATOM     23  C   UNL     1      -3.211   2.420  -2.384  1.00  0.00     0.028 A 
ATOM     24  C   UNL     1      -4.313   4.881  -1.593  1.00  0.00     0.011 A 
ATOM     25  C   UNL     1      -3.071   3.559  -3.183  1.00  0.00     0.002 A 
ATOM     26  C   UNL     1      -3.619   4.774  -2.797  1.00  0.00     0.001 A 
BRANCH  19  27
ATOM     27  S   UNL     1      -3.590   0.038  -0.108  1.00  0.00     0.268 S 
ATOM     28  O   UNL     1      -3.913  -0.515  -1.406  1.00  0.00    -0.201 OA
ATOM     29  O   UNL     1      -4.093  -0.538   1.128  1.00  0.00    -0.201 OA
BRANCH  27  30
ATOM     30  C   UNL     1      -1.818   0.085   0.022  1.00  0.00     0.088 A 
ATOM     31  C   UNL     1       2.484  -0.042   0.025  1.00  0.00     0.044 C 
ATOM     32  C   UNL     1       0.984   0.007   0.043  1.00  0.00    -0.051 A 
ATOM     33  C   UNL     1       0.246  -1.180  -0.035  1.00  0.00     0.005 A 
ATOM     34  C   UNL     1       0.305   1.228   0.142  1.00  0.00     0.005 A 
ATOM     35  C   UNL     1      -1.149  -1.143  -0.052  1.00  0.00     0.022 A 
ATOM     36  C   UNL     1      -1.093   1.271   0.144  1.00  0.00     0.022 A 
ENDBRANCH  27  30
ENDBRANCH  19  27
ENDBRANCH  16  18
ENDBRANCH  13  16
ENDBRANCH  11  12
ENDBRANCH   8  11
ENDBRANCH   6   7
ENDBRANCH   3   6
ENDBRANCH   1   2
BRANCH   1  37
ATOM     37  C   UNL     1     -10.822   3.461   4.702  1.00  0.00     0.021 C 
BRANCH  37  38
ATOM     38  C   UNL     1     -11.213   2.110   5.297  1.00  0.00     0.002 C 
BRANCH  38  39
ATOM     39  C   UNL     1     -10.048   1.221   5.762  1.00  0.00     0.002 C 
BRANCH  39  40
ATOM     40  C   UNL     1      -9.030   1.879   6.689  1.00  0.00     0.021 C 
BRANCH  40  41
ATOM     41  C   UNL     1      -9.590   2.307   8.034  1.00  0.00     0.116 C 
BRANCH  41  42
ATOM     42  N   UNL     1      -9.586   1.269   9.055  1.00  0.00    -0.352 N 
ATOM     43  C   UNL     1      -9.737   1.385  10.428  1.00  0.00     0.251 C 
ATOM     44  H   UNL     1      -9.459   0.351   8.721  1.00  0.00     0.163 HD
ATOM     45  O   UNL     1      -9.464   0.457  11.185  1.00  0.00    -0.269 OA
BRANCH  43  46
ATOM     46  C   UNL     1     -10.455   2.566  10.978  1.00  0.00     0.039 A 
ATOM     47  C   UNL     1     -11.523   2.274  11.843  1.00  0.00     0.014 A 
ATOM     48  C   UNL     1     -10.379   3.800  10.351  1.00  0.00     0.014 A 
ATOM     49  C   UNL     1     -12.661   3.062  11.798  1.00  0.00     0.010 A 
ATOM     50  C   UNL     1     -11.549   4.487  10.171  1.00  0.00     0.010 A 
ATOM     51  C   UNL     1     -12.695   4.071  10.846  1.00  0.00    -0.014 A 
BRANCH  51  52
ATOM     52  C   UNL     1     -13.882   4.804  10.482  1.00  0.00     0.031 A 
ATOM     53  C   UNL     1     -14.100   6.074  11.180  1.00  0.00     0.074 A 
ATOM     54  C   UNL     1     -14.614   4.353   9.443  1.00  0.00     0.049 A 
ATOM     55  N   UNL     1     -15.250   6.581  11.427  1.00  0.00    -0.248 NA
ATOM     56  C   UNL     1     -12.998   6.846  11.755  1.00  0.00     0.031 C 
ATOM     57  C   UNL     1     -15.657   5.037   8.692  1.00  0.00     0.029 A 
ATOM     58  N   UNL     1     -14.664   3.041   8.976  1.00  0.00    -0.354 N 
ATOM     59  C   UNL     1     -15.028   7.878  11.837  1.00  0.00     0.074 A 
ATOM     60  C   UNL     1     -13.634   7.938  12.184  1.00  0.00     0.031 C 
ATOM     61  C   UNL     1     -16.410   4.118   8.057  1.00  0.00     0.029 A 
ATOM     62  C   UNL     1     -15.965   2.807   8.505  1.00  0.00     0.049 A 
ATOM     63  H   UNL     1     -13.920   2.396   8.976  1.00  0.00     0.167 HD
ATOM     64  C   UNL     1     -16.004   8.800  11.621  1.00  0.00     0.034 A 
ATOM     65  C   UNL     1     -16.754   1.891   9.147  1.00  0.00     0.034 A 
ATOM     66  C   UNL     1     -17.144   8.160  10.967  1.00  0.00     0.049 A 
ATOM     67  C   UNL     1     -17.919   2.554   9.849  1.00  0.00     0.074 A 
ATOM     68  C   UNL     1     -17.505   8.065   9.633  1.00  0.00     0.029 A 
ATOM     69  N   UNL     1     -17.860   7.187  11.645  1.00  0.00    -0.354 N 
ATOM     70  N   UNL     1     -17.926   3.801  10.238  1.00  0.00    -0.248 NA
ATOM     71  C   UNL     1     -19.183   1.877  10.110  1.00  0.00     0.031 C 
ATOM     72  C   UNL     1     -18.402   6.974   9.507  1.00  0.00     0.029 A 
ATOM     73  C   UNL     1     -18.605   6.431  10.765  1.00  0.00     0.049 A 
ATOM     74  H   UNL     1     -17.840   7.054  12.620  1.00  0.00     0.167 HD
ATOM     75  C   UNL     1     -19.152   4.109  10.771  1.00  0.00     0.074 A 
ATOM     76  C   UNL     1     -19.905   2.870  10.657  1.00  0.00     0.031 C 
ATOM     77  C   UNL     1     -19.450   5.355  11.254  1.00  0.00     0.034 A 
BRANCH  64  78
ATOM     78  C   UNL     1     -15.829  10.298  11.655  1.00  0.00     0.023 A 
ATOM     79  C   UNL     1     -16.735  11.079  10.908  1.00  0.00     0.031 A 
ATOM     80  C   UNL     1     -14.835  11.021  12.340  1.00  0.00     0.131 A 
ATOM     81  C   UNL     1     -16.598  12.470  10.793  1.00  0.00     0.055 A 
ATOM     82  C   UNL     1     -14.676  12.409  12.204  1.00  0.00     0.041 A 
ATOM     83  F   UNL     1     -14.001  10.438  13.209  1.00  0.00    -0.206 F 
ATOM     84  C   UNL     1     -15.556  13.142  11.421  1.00  0.00     0.022 A 
BRANCH  81  85
ATOM     85  S   UNL     1     -17.816  13.377   9.808  1.00  0.00     0.124 S 
ATOM     86  O   UNL     1     -17.610  12.818   8.476  1.00  0.00    -0.237 OA
ATOM     87  O   UNL     1     -19.069  13.030  10.469  1.00  0.00    -0.237 OA
ATOM     88  O   UNL     1     -17.404  14.772   9.963  1.00  0.00    -0.744 OA
ENDBRANCH  81  85
ENDBRANCH  64  78
BRANCH  65  89
ATOM     89  C   UNL     1     -15.960   0.729   9.662  1.00  0.00     0.023 A 
ATOM     90  C   UNL     1     -15.254  -0.025   8.697  1.00  0.00     0.031 A 
ATOM     91  C   UNL     1     -15.505   0.682  10.988  1.00  0.00     0.131 A 
ATOM     92  C   UNL     1     -14.012  -0.597   9.018  1.00  0.00     0.055 A 
ATOM     93  C   UNL     1     -14.304   0.037  11.318  1.00  0.00     0.041 A 
ATOM     94  F   UNL     1     -16.125   1.379  11.951  1.00  0.00    -0.206 F 
ATOM     95  C   UNL     1     -13.521  -0.549  10.322  1.00  0.00     0.022 A 
BRANCH  92  96
ATOM     96  S   UNL     1     -12.919  -1.113   7.658  1.00  0.00     0.124 S 
ATOM     97  O   UNL     1     -13.342  -2.490   7.428  1.00  0.00    -0.237 OA
ATOM     98  O   UNL     1     -13.254  -0.162   6.600  1.00  0.00    -0.237 OA
ATOM     99  O   UNL     1     -11.574  -0.945   8.209  1.00  0.00    -0.744 OA
ENDBRANCH  92  96
ENDBRANCH  65  89
BRANCH  77 100
ATOM    100  C   UNL     1     -20.618   5.699  12.156  1.00  0.00     0.023 A 
ATOM    101  C   UNL     1     -21.424   4.724  12.748  1.00  0.00     0.031 A 
ATOM    102  C   UNL     1     -20.919   7.037  12.522  1.00  0.00     0.131 A 
ATOM    103  C   UNL     1     -22.530   5.072  13.539  1.00  0.00     0.055 A 
ATOM    104  C   UNL     1     -21.948   7.376  13.405  1.00  0.00     0.041 A 
ATOM    105  F   UNL     1     -20.223   8.083  12.055  1.00  0.00    -0.206 F 
ATOM    106  C   UNL     1     -22.784   6.391  13.899  1.00  0.00     0.022 A 
BRANCH 103 107
ATOM    107  S   UNL     1     -23.684   3.753  13.982  1.00  0.00     0.124 S 
ATOM    108  O   UNL     1     -24.132   3.298  12.668  1.00  0.00    -0.237 OA
ATOM    109  O   UNL     1     -22.832   2.823  14.715  1.00  0.00    -0.237 OA
ATOM    110  O   UNL     1     -24.697   4.437  14.781  1.00  0.00    -0.744 OA
ENDBRANCH 103 107
ENDBRANCH  77 100
ENDBRANCH  51  52
ENDBRANCH  43  46
ENDBRANCH  41  42
ENDBRANCH  40  41
ENDBRANCH  39  40
ENDBRANCH  38  39
ENDBRANCH  37  38
ENDBRANCH   1  37
TORSDOF 23
