REMARK SMILES COc1ccc2c(c1)c(Cc1nc(-c3ccc(C(=O)NCCCCCCNC(=O)c4ccc(-c5c6nc(c(-c7cc(S(=O)(=O)[O-])ccc7F)c7ccc([nH]7)c(-c7cc(S(=O)(=O)[O-])ccc7F)c7nc(c(-c8cc(S(=O)(=O)[O-])ccc8F)c8ccc5[nH]8)C=C7)C=C6)cc4)cc3)cs1)c(C)n2C(=O)c1ccc(Cl)cc1
REMARK SMILES IDX 22 1 21 2 20 3 18 4 19 5 17 7 14 8 15 9 94 10 16 11 93 12
REMARK SMILES IDX 13 13 11 14 12 15 96 16 95 17 10 18 9 19 3 20 4 21 8 22 5 23
REMARK SMILES IDX 7 24 6 25 99 26 97 27 98 28 2 29 1 30 100 31 101 32 102 33
REMARK SMILES IDX 103 34 108 35 104 36 107 37 105 38 106 39 23 40 24 41 25 42
REMARK SMILES IDX 26 43 27 44 28 45 29 47 30 48 31 49 92 50 32 51 91 52 33 53
REMARK SMILES IDX 34 54 35 55 85 56 36 57 90 58 84 59 86 60 37 61 89 62 83 63
REMARK SMILES IDX 82 64 38 66 70 67 50 68 69 69 51 70 54 71 68 72 87 73 52 74
REMARK SMILES IDX 53 75 67 77 88 78 55 79 39 80 40 81 48 82 41 83 47 84 49 85
REMARK SMILES IDX 46 86 42 87 43 88 44 89 45 90 71 91 72 92 80 93 73 94 79 95
REMARK SMILES IDX 81 96 78 97 74 98 75 99 76 100 77 101 56 102 57 103 65 104
REMARK SMILES IDX 58 105 64 106 66 107 63 108 59 109 60 110 61 111 62 112
REMARK H PARENT 20 6 27 46 86 65 54 76
REMARK Flexibility Score: inf
ROOT
ATOM      1  C   UNL     1      -5.587   6.280   0.212  1.00  0.00     0.021 C 
ENDROOT
BRANCH   1   2
ATOM      2  C   UNL     1      -4.168   5.745   0.371  1.00  0.00     0.116 C 
BRANCH   2   3
ATOM      3  N   UNL     1      -3.212   6.737   0.834  1.00  0.00    -0.352 N 
ATOM      4  C   UNL     1      -2.249   6.683   1.816  1.00  0.00     0.251 C 
ATOM      5  O   UNL     1      -1.577   7.689   2.040  1.00  0.00    -0.269 OA
ATOM      6  H   UNL     1      -3.262   7.600   0.362  1.00  0.00     0.163 HD
BRANCH   4   7
ATOM      7  C   UNL     1      -2.059   5.483   2.676  1.00  0.00     0.039 A 
ATOM      8  C   UNL     1      -2.033   3.345   4.508  1.00  0.00     0.001 A 
ATOM      9  C   UNL     1      -1.668   4.630   4.921  1.00  0.00     0.011 A 
ATOM     10  C   UNL     1      -2.266   3.119   3.144  1.00  0.00     0.011 A 
ATOM     11  C   UNL     1      -1.689   5.693   4.012  1.00  0.00     0.014 A 
ATOM     12  C   UNL     1      -2.240   4.174   2.229  1.00  0.00     0.014 A 
BRANCH   8  13
ATOM     13  C   UNL     1      -2.163   2.238   5.443  1.00  0.00     0.081 A 
ATOM     14  C   UNL     1      -2.093   0.095   6.006  1.00  0.00     0.098 A 
ATOM     15  N   UNL     1      -2.031   0.941   5.002  1.00  0.00    -0.241 NA
ATOM     16  S   UNL     1      -2.493   0.800   7.519  1.00  0.00    -0.126 S 
ATOM     17  C   UNL     1      -2.483   2.353   6.781  1.00  0.00     0.095 A 
BRANCH  14  18
ATOM     18  C   UNL     1      -1.842  -1.376   5.860  1.00  0.00     0.105 C 
BRANCH  18  19
ATOM     19  C   UNL     1      -0.387  -1.680   5.596  1.00  0.00    -0.012 A 
ATOM     20  C   UNL     1       0.858  -0.512   2.168  1.00  0.00     0.119 A 
ATOM     21  C   UNL     1       2.113  -1.084   2.264  1.00  0.00     0.048 A 
ATOM     22  C   UNL     1      -0.041  -0.673   3.221  1.00  0.00     0.057 A 
ATOM     23  C   UNL     1       2.489  -1.796   3.412  1.00  0.00     0.031 A 
ATOM     24  C   UNL     1       0.324  -1.356   4.406  1.00  0.00     0.008 A 
ATOM     25  C   UNL     1       1.614  -1.878   4.519  1.00  0.00     0.057 A 
ATOM     26  N   UNL     1       1.756  -2.410   5.816  1.00  0.00    -0.280 N 
ATOM     27  C   UNL     1       0.501  -2.330   6.447  1.00  0.00     0.028 A 
ATOM     28  C   UNL     1       0.168  -2.835   7.816  1.00  0.00     0.065 C 
BRANCH  20  29
ATOM     29  O   UNL     1       0.397   0.242   1.126  1.00  0.00    -0.497 OA
ATOM     30  C   UNL     1       1.025   0.033  -0.133  1.00  0.00     0.278 C 
ENDBRANCH  20  29
BRANCH  26  31
ATOM     31  C   UNL     1       2.958  -2.940   6.383  1.00  0.00     0.262 C 
ATOM     32  O   UNL     1       2.921  -3.498   7.468  1.00  0.00    -0.268 OA
BRANCH  31  33
ATOM     33  C   UNL     1       4.286  -2.906   5.740  1.00  0.00     0.040 A 
ATOM     34  C   UNL     1       4.929  -1.694   5.465  1.00  0.00     0.015 A 
ATOM     35  C   UNL     1       4.875  -4.125   5.387  1.00  0.00     0.015 A 
ATOM     36  C   UNL     1       6.126  -1.705   4.744  1.00  0.00     0.021 A 
ATOM     37  C   UNL     1       6.076  -4.130   4.677  1.00  0.00     0.021 A 
ATOM     38  C   UNL     1       6.685  -2.921   4.341  1.00  0.00     0.041 A 
ATOM     39  Cl  UNL     1       8.127  -2.929   3.404  1.00  0.00    -0.084 Cl
ENDBRANCH  31  33
ENDBRANCH  26  31
ENDBRANCH  18  19
ENDBRANCH  14  18
ENDBRANCH   8  13
ENDBRANCH   4   7
ENDBRANCH   2   3
ENDBRANCH   1   2
BRANCH   1  40
ATOM     40  C   UNL     1      -5.802   7.309  -0.896  1.00  0.00     0.002 C 
BRANCH  40  41
ATOM     41  C   UNL     1      -5.399   6.879  -2.310  1.00  0.00     0.002 C 
BRANCH  41  42
ATOM     42  C   UNL     1      -5.981   5.551  -2.816  1.00  0.00     0.021 C 
BRANCH  42  43
ATOM     43  C   UNL     1      -7.498   5.407  -2.687  1.00  0.00     0.116 C 
BRANCH  43  44
ATOM     44  N   UNL     1      -8.245   6.471  -3.320  1.00  0.00    -0.352 N 
ATOM     45  C   UNL     1      -8.785   6.674  -4.558  1.00  0.00     0.251 C 
ATOM     46  H   UNL     1      -8.401   7.230  -2.714  1.00  0.00     0.163 HD
ATOM     47  O   UNL     1      -9.491   7.681  -4.668  1.00  0.00    -0.269 OA
BRANCH  45  48
ATOM     48  C   UNL     1      -8.534   5.834  -5.761  1.00  0.00     0.039 A 
ATOM     49  C   UNL     1      -7.778   4.664  -5.796  1.00  0.00     0.014 A 
ATOM     50  C   UNL     1      -9.055   6.332  -6.973  1.00  0.00     0.014 A 
ATOM     51  C   UNL     1      -7.452   4.076  -7.015  1.00  0.00     0.010 A 
ATOM     52  C   UNL     1      -8.746   5.739  -8.193  1.00  0.00     0.010 A 
ATOM     53  C   UNL     1      -7.891   4.645  -8.215  1.00  0.00    -0.014 A 
BRANCH  53  54
ATOM     54  C   UNL     1      -7.454   4.021  -9.459  1.00  0.00     0.031 A 
ATOM     55  C   UNL     1      -7.857   2.597  -9.634  1.00  0.00     0.074 A 
ATOM     56  C   UNL     1      -6.784   4.673 -10.430  1.00  0.00     0.049 A 
ATOM     57  N   UNL     1      -7.097   1.551  -9.682  1.00  0.00    -0.248 NA
ATOM     58  C   UNL     1      -9.294   2.293  -9.631  1.00  0.00     0.031 C 
ATOM     59  C   UNL     1      -6.562   6.113 -10.585  1.00  0.00     0.029 A 
ATOM     60  N   UNL     1      -6.229   4.158 -11.560  1.00  0.00    -0.354 N 
ATOM     61  C   UNL     1      -7.944   0.459  -9.872  1.00  0.00     0.074 A 
ATOM     62  C   UNL     1      -9.286   0.961  -9.703  1.00  0.00     0.031 C 
ATOM     63  C   UNL     1      -6.150   6.364 -11.849  1.00  0.00     0.029 A 
ATOM     64  C   UNL     1      -5.930   5.099 -12.532  1.00  0.00     0.049 A 
ATOM     65  H   UNL     1      -6.054   3.196 -11.678  1.00  0.00     0.167 HD
ATOM     66  C   UNL     1      -7.492  -0.755 -10.299  1.00  0.00     0.034 A 
ATOM     67  C   UNL     1      -5.622   4.851 -13.831  1.00  0.00     0.034 A 
ATOM     68  C   UNL     1      -6.063  -0.856 -10.189  1.00  0.00     0.049 A 
ATOM     69  C   UNL     1      -5.176   3.438 -13.934  1.00  0.00     0.074 A 
ATOM     70  C   UNL     1      -5.178  -0.837  -9.130  1.00  0.00     0.029 A 
ATOM     71  N   UNL     1      -5.307  -0.630 -11.314  1.00  0.00    -0.354 N 
ATOM     72  N   UNL     1      -4.058   2.987 -13.435  1.00  0.00    -0.248 NA
ATOM     73  C   UNL     1      -6.197   2.432 -14.190  1.00  0.00     0.031 C 
ATOM     74  C   UNL     1      -4.056  -0.103  -9.608  1.00  0.00     0.029 A 
ATOM     75  C   UNL     1      -4.293   0.218 -10.947  1.00  0.00     0.049 A 
ATOM     76  H   UNL     1      -5.463  -1.006 -12.211  1.00  0.00     0.167 HD
ATOM     77  C   UNL     1      -4.394   1.757 -12.890  1.00  0.00     0.074 A 
ATOM     78  C   UNL     1      -5.699   1.429 -13.463  1.00  0.00     0.031 C 
ATOM     79  C   UNL     1      -3.736   1.243 -11.808  1.00  0.00     0.034 A 
BRANCH  66  80
ATOM     80  C   UNL     1      -8.320  -1.761 -11.056  1.00  0.00     0.023 A 
ATOM     81  C   UNL     1      -9.538  -1.422 -11.674  1.00  0.00     0.031 A 
ATOM     82  C   UNL     1      -7.809  -3.039 -11.362  1.00  0.00     0.131 A 
ATOM     83  C   UNL     1     -10.212  -2.319 -12.512  1.00  0.00     0.055 A 
ATOM     84  C   UNL     1      -8.447  -3.910 -12.256  1.00  0.00     0.041 A 
ATOM     85  F   UNL     1      -6.646  -3.463 -10.842  1.00  0.00    -0.206 F 
ATOM     86  C   UNL     1      -9.658  -3.553 -12.835  1.00  0.00     0.022 A 
BRANCH  83  87
ATOM     87  S   UNL     1     -11.830  -1.883 -13.205  1.00  0.00     0.124 S 
ATOM     88  O   UNL     1     -11.568  -1.940 -14.639  1.00  0.00    -0.237 OA
ATOM     89  O   UNL     1     -12.675  -2.949 -12.672  1.00  0.00    -0.237 OA
ATOM     90  O   UNL     1     -12.089  -0.556 -12.656  1.00  0.00    -0.744 OA
ENDBRANCH  83  87
ENDBRANCH  66  80
BRANCH  67  91
ATOM     91  C   UNL     1      -6.209   5.569 -14.989  1.00  0.00     0.023 A 
ATOM     92  C   UNL     1      -7.467   6.188 -14.858  1.00  0.00     0.031 A 
ATOM     93  C   UNL     1      -5.710   5.399 -16.291  1.00  0.00     0.131 A 
ATOM     94  C   UNL     1      -8.202   6.567 -15.988  1.00  0.00     0.055 A 
ATOM     95  C   UNL     1      -6.438   5.796 -17.422  1.00  0.00     0.041 A 
ATOM     96  F   UNL     1      -4.537   4.779 -16.495  1.00  0.00    -0.206 F 
ATOM     97  C   UNL     1      -7.697   6.372 -17.273  1.00  0.00     0.022 A 
BRANCH  94  98
ATOM     98  S   UNL     1      -9.874   7.244 -15.798  1.00  0.00     0.124 S 
ATOM     99  O   UNL     1      -9.844   8.399 -16.692  1.00  0.00    -0.237 OA
ATOM    100  O   UNL     1     -10.698   6.126 -16.242  1.00  0.00    -0.237 OA
ATOM    101  O   UNL     1      -9.953   7.567 -14.377  1.00  0.00    -0.744 OA
ENDBRANCH  94  98
ENDBRANCH  67  91
BRANCH  79 102
ATOM    102  C   UNL     1      -2.489   1.933 -11.291  1.00  0.00     0.023 A 
ATOM    103  C   UNL     1      -1.395   1.115 -10.956  1.00  0.00     0.031 A 
ATOM    104  C   UNL     1      -2.437   3.280 -10.880  1.00  0.00     0.131 A 
ATOM    105  C   UNL     1      -0.335   1.622 -10.193  1.00  0.00     0.055 A 
ATOM    106  C   UNL     1      -1.340   3.802 -10.185  1.00  0.00     0.041 A 
ATOM    107  F   UNL     1      -3.475   4.108 -11.049  1.00  0.00    -0.206 F 
ATOM    108  C   UNL     1      -0.291   2.966  -9.819  1.00  0.00     0.022 A 
BRANCH 105 109
ATOM    109  S   UNL     1       0.919   0.503  -9.516  1.00  0.00     0.124 S 
ATOM    110  O   UNL     1       2.134   0.963 -10.181  1.00  0.00    -0.237 OA
ATOM    111  O   UNL     1       0.844   0.783  -8.083  1.00  0.00    -0.237 OA
ATOM    112  O   UNL     1       0.457  -0.826  -9.908  1.00  0.00    -0.744 OA
ENDBRANCH 105 109
ENDBRANCH  79 102
ENDBRANCH  53  54
ENDBRANCH  45  48
ENDBRANCH  43  44
ENDBRANCH  42  43
ENDBRANCH  41  42
ENDBRANCH  40  41
ENDBRANCH   1  40
TORSDOF 22
