REMARK SMILES COc1ccc(CC(=O)Nc2ccc(N3CC[NH+](C)CC3)cc2C(=O)NCCCCCCNC(=O)c2ccc(-c3c4nc(c(-c5cc(S(=O)(=O)[O-])ccc5F)c5ccc([nH]5)c(-c5cc(S(=O)(=O)[O-])ccc5F)c5nc(c(-c6cc(S(=O)(=O)[O-])ccc6F)c6ccc3[nH]6)C=C5)C=C4)cc2)cc1
REMARK SMILES IDX 29 1 28 2 27 3 26 4 24 5 25 6 23 8 11 9 12 10 13 11 22 12
REMARK SMILES IDX 14 13 10 14 8 15 9 16 7 18 6 19 3 20 4 21 100 22 5 23 99 24
REMARK SMILES IDX 2 25 1 26 15 27 16 28 21 29 17 30 20 31 18 32 19 33 30 35
REMARK SMILES IDX 31 36 32 37 33 38 34 39 35 41 36 42 37 43 98 44 38 45 97 46
REMARK SMILES IDX 39 47 40 48 41 49 91 50 42 51 96 52 90 53 92 54 43 55 95 56
REMARK SMILES IDX 89 57 88 58 44 60 76 61 56 62 75 63 57 64 60 65 74 66 93 67
REMARK SMILES IDX 58 68 59 69 73 71 94 72 61 73 45 74 46 75 54 76 47 77 53 78
REMARK SMILES IDX 55 79 52 80 48 81 49 82 50 83 51 84 77 85 78 86 86 87 79 88
REMARK SMILES IDX 85 89 87 90 84 91 80 92 81 93 82 94 83 95 62 96 63 97 71 98
REMARK SMILES IDX 64 99 70 100 72 101 69 102 65 103 66 104 67 105 68 106
REMARK H PARENT 26 7 10 17 18 34 33 40 92 59 60 70
REMARK Flexibility Score: inf
ROOT
ATOM      1  C   UNL     1      -1.584   6.846   3.335  1.00  0.00     0.002 C 
ENDROOT
BRANCH   1   2
ATOM      2  C   UNL     1      -0.519   7.535   2.465  1.00  0.00     0.021 C 
BRANCH   2   3
ATOM      3  C   UNL     1       0.836   6.834   2.438  1.00  0.00     0.116 C 
BRANCH   3   4
ATOM      4  N   UNL     1       0.832   5.619   1.655  1.00  0.00    -0.352 N 
ATOM      5  C   UNL     1       1.830   4.800   1.191  1.00  0.00     0.253 C 
ATOM      6  O   UNL     1       1.472   3.970   0.346  1.00  0.00    -0.269 OA
ATOM      7  H   UNL     1      -0.071   5.319   1.402  1.00  0.00     0.163 HD
BRANCH   5   8
ATOM      8  C   UNL     1       3.292   4.881   1.540  1.00  0.00     0.065 A 
ATOM      9  C   UNL     1       3.911   5.565   2.592  1.00  0.00     0.054 A 
ATOM     10  C   UNL     1       5.281   5.833   2.505  1.00  0.00     0.029 A 
ATOM     11  C   UNL     1       6.075   5.184   1.560  1.00  0.00     0.028 A 
ATOM     12  C   UNL     1       4.141   4.187   0.632  1.00  0.00     0.042 A 
ATOM     13  C   UNL     1       5.540   4.245   0.677  1.00  0.00     0.038 A 
BRANCH   9  14
ATOM     14  N   UNL     1       3.320   6.018   3.776  1.00  0.00    -0.325 N 
ATOM     15  C   UNL     1       2.679   5.328   4.771  1.00  0.00     0.228 C 
ATOM     16  O   UNL     1       2.191   6.004   5.686  1.00  0.00    -0.274 OA
ATOM     17  H   UNL     1       3.373   6.991   3.916  1.00  0.00     0.169 HD
BRANCH  15  18
ATOM     18  C   UNL     1       2.738   3.820   4.907  1.00  0.00     0.135 C 
BRANCH  18  19
ATOM     19  C   UNL     1       2.042   2.956   3.892  1.00  0.00    -0.038 A 
ATOM     20  C   UNL     1       0.804   1.286   1.984  1.00  0.00     0.118 A 
ATOM     21  C   UNL     1       0.046   2.174   2.752  1.00  0.00     0.047 A 
ATOM     22  C   UNL     1       2.178   1.204   2.204  1.00  0.00     0.047 A 
ATOM     23  C   UNL     1       0.656   2.999   3.706  1.00  0.00     0.008 A 
ATOM     24  C   UNL     1       2.789   2.028   3.153  1.00  0.00     0.008 A 
BRANCH  20  25
ATOM     25  O   UNL     1       0.099   0.567   1.058  1.00  0.00    -0.497 OA
ATOM     26  C   UNL     1       0.864  -0.205   0.140  1.00  0.00     0.278 C 
ENDBRANCH  20  25
ENDBRANCH  18  19
ENDBRANCH  15  18
ENDBRANCH   9  14
BRANCH  13  27
ATOM     27  N   UNL     1       6.348   3.395  -0.051  1.00  0.00    -0.360 N 
ATOM     28  C   UNL     1       6.011   2.877  -1.388  1.00  0.00     0.178 C 
ATOM     29  C   UNL     1       7.715   3.075   0.399  1.00  0.00     0.178 C 
ATOM     30  C   UNL     1       6.368   1.372  -1.506  1.00  0.00     0.283 C 
ATOM     31  C   UNL     1       8.007   1.566   0.242  1.00  0.00     0.283 C 
ATOM     32  N   UNL     1       7.770   1.074  -1.130  1.00  0.00    -0.334 N 
ATOM     33  C   UNL     1       8.041  -0.359  -1.211  1.00  0.00     0.332 C 
ATOM     34  H   UNL     1       8.400   1.543  -1.781  1.00  0.00     0.347 HD
ENDBRANCH  13  27
ENDBRANCH   5   8
ENDBRANCH   3   4
ENDBRANCH   2   3
ENDBRANCH   1   2
BRANCH   1  35
ATOM     35  C   UNL     1      -1.259   6.642   4.822  1.00  0.00     0.002 C 
BRANCH  35  36
ATOM     36  C   UNL     1      -0.729   7.850   5.595  1.00  0.00     0.021 C 
BRANCH  36  37
ATOM     37  C   UNL     1      -1.541   9.133   5.478  1.00  0.00     0.116 C 
BRANCH  37  38
ATOM     38  N   UNL     1      -2.913   9.004   5.928  1.00  0.00    -0.352 N 
ATOM     39  C   UNL     1      -3.707   9.946   6.546  1.00  0.00     0.251 C 
ATOM     40  H   UNL     1      -3.334   8.128   5.771  1.00  0.00     0.163 HD
ATOM     41  O   UNL     1      -4.827   9.644   6.924  1.00  0.00    -0.269 OA
BRANCH  39  42
ATOM     42  C   UNL     1      -3.173  11.311   6.792  1.00  0.00     0.039 A 
ATOM     43  C   UNL     1      -3.364  11.883   8.052  1.00  0.00     0.014 A 
ATOM     44  C   UNL     1      -2.485  12.019   5.803  1.00  0.00     0.014 A 
ATOM     45  C   UNL     1      -2.814  13.136   8.339  1.00  0.00     0.010 A 
ATOM     46  C   UNL     1      -1.878  13.235   6.111  1.00  0.00     0.010 A 
ATOM     47  C   UNL     1      -2.038  13.810   7.382  1.00  0.00    -0.014 A 
BRANCH  47  48
ATOM     48  C   UNL     1      -1.414  15.126   7.682  1.00  0.00     0.031 A 
ATOM     49  C   UNL     1      -1.849  16.352   6.924  1.00  0.00     0.074 A 
ATOM     50  C   UNL     1      -0.428  15.212   8.598  1.00  0.00     0.049 A 
ATOM     51  N   UNL     1      -1.377  17.571   6.977  1.00  0.00    -0.248 NA
ATOM     52  C   UNL     1      -2.944  16.174   5.959  1.00  0.00     0.031 C 
ATOM     53  C   UNL     1       0.100  14.091   9.379  1.00  0.00     0.029 A 
ATOM     54  N   UNL     1       0.311  16.287   9.026  1.00  0.00    -0.354 N 
ATOM     55  C   UNL     1      -2.109  18.303   6.047  1.00  0.00     0.074 A 
ATOM     56  C   UNL     1      -3.012  17.373   5.402  1.00  0.00     0.031 C 
ATOM     57  C   UNL     1       1.058  14.542  10.205  1.00  0.00     0.029 A 
ATOM     58  C   UNL     1       1.247  15.973   9.985  1.00  0.00     0.049 A 
ATOM     59  H   UNL     1       0.182  17.200   8.678  1.00  0.00     0.167 HD
ATOM     60  C   UNL     1      -2.054  19.631   5.775  1.00  0.00     0.034 A 
ATOM     61  C   UNL     1       2.159  16.747  10.607  1.00  0.00     0.034 A 
ATOM     62  C   UNL     1      -1.159  20.549   6.437  1.00  0.00     0.049 A 
ATOM     63  C   UNL     1       2.220  18.217  10.266  1.00  0.00     0.074 A 
ATOM     64  C   UNL     1      -1.039  21.916   6.258  1.00  0.00     0.029 A 
ATOM     65  N   UNL     1      -0.231  20.194   7.407  1.00  0.00    -0.354 N 
ATOM     66  N   UNL     1       1.498  18.897   9.404  1.00  0.00    -0.248 NA
ATOM     67  C   UNL     1       3.209  19.025  10.992  1.00  0.00     0.031 C 
ATOM     68  C   UNL     1      -0.003  22.378   7.078  1.00  0.00     0.029 A 
ATOM     69  C   UNL     1       0.476  21.312   7.821  1.00  0.00     0.049 A 
ATOM     70  H   UNL     1      -0.095  19.281   7.751  1.00  0.00     0.167 HD
ATOM     71  C   UNL     1       1.921  20.219   9.517  1.00  0.00     0.074 A 
ATOM     72  C   UNL     1       2.949  20.241  10.536  1.00  0.00     0.031 C 
ATOM     73  C   UNL     1       1.496  21.317   8.843  1.00  0.00     0.034 A 
BRANCH  60  74
ATOM     74  C   UNL     1      -2.978  20.158   4.704  1.00  0.00     0.023 A 
ATOM     75  C   UNL     1      -4.375  20.111   4.849  1.00  0.00     0.031 A 
ATOM     76  C   UNL     1      -2.458  20.696   3.513  1.00  0.00     0.131 A 
ATOM     77  C   UNL     1      -5.204  20.524   3.796  1.00  0.00     0.055 A 
ATOM     78  C   UNL     1      -3.289  21.181   2.500  1.00  0.00     0.041 A 
ATOM     79  F   UNL     1      -1.133  20.749   3.308  1.00  0.00    -0.206 F 
ATOM     80  C   UNL     1      -4.671  21.083   2.632  1.00  0.00     0.022 A 
BRANCH  77  81
ATOM     81  S   UNL     1      -6.984  20.197   3.914  1.00  0.00     0.124 S 
ATOM     82  O   UNL     1      -7.008  18.739   4.008  1.00  0.00    -0.237 OA
ATOM     83  O   UNL     1      -7.359  20.922   5.123  1.00  0.00    -0.237 OA
ATOM     84  O   UNL     1      -7.517  20.744   2.668  1.00  0.00    -0.744 OA
ENDBRANCH  77  81
ENDBRANCH  60  74
BRANCH  61  85
ATOM     85  C   UNL     1       3.099  16.166  11.609  1.00  0.00     0.023 A 
ATOM     86  C   UNL     1       3.078  16.589  12.948  1.00  0.00     0.031 A 
ATOM     87  C   UNL     1       4.079  15.232  11.231  1.00  0.00     0.131 A 
ATOM     88  C   UNL     1       4.055  16.128  13.845  1.00  0.00     0.055 A 
ATOM     89  C   UNL     1       5.012  14.730  12.141  1.00  0.00     0.041 A 
ATOM     90  F   UNL     1       4.145  14.790   9.964  1.00  0.00    -0.206 F 
ATOM     91  C   UNL     1       5.014  15.192  13.453  1.00  0.00     0.022 A 
BRANCH  88  92
ATOM     92  S   UNL     1       4.122  16.859  15.504  1.00  0.00     0.124 S 
ATOM     93  O   UNL     1       4.250  18.279  15.198  1.00  0.00    -0.237 OA
ATOM     94  O   UNL     1       2.847  16.436  16.072  1.00  0.00    -0.237 OA
ATOM     95  O   UNL     1       5.304  16.240  16.100  1.00  0.00    -0.744 OA
ENDBRANCH  88  92
ENDBRANCH  61  85
BRANCH  73  96
ATOM     96  C   UNL     1       2.102  22.642   9.238  1.00  0.00     0.023 A 
ATOM     97  C   UNL     1       3.455  22.939   9.002  1.00  0.00     0.031 A 
ATOM     98  C   UNL     1       1.310  23.615   9.873  1.00  0.00     0.131 A 
ATOM     99  C   UNL     1       3.991  24.156   9.450  1.00  0.00     0.055 A 
ATOM    100  C   UNL     1       1.835  24.848  10.264  1.00  0.00     0.041 A 
ATOM    101  F   UNL     1       0.012  23.384  10.123  1.00  0.00    -0.206 F 
ATOM    102  C   UNL     1       3.185  25.119  10.065  1.00  0.00     0.022 A 
BRANCH  99 103
ATOM    103  S   UNL     1       5.777  24.430   9.298  1.00  0.00     0.124 S 
ATOM    104  O   UNL     1       6.323  23.311  10.059  1.00  0.00    -0.237 OA
ATOM    105  O   UNL     1       5.979  24.377   7.854  1.00  0.00    -0.237 OA
ATOM    106  O   UNL     1       5.976  25.747   9.902  1.00  0.00    -0.744 OA
ENDBRANCH  99 103
ENDBRANCH  73  96
ENDBRANCH  47  48
ENDBRANCH  39  42
ENDBRANCH  37  38
ENDBRANCH  36  37
ENDBRANCH  35  36
ENDBRANCH   1  35
TORSDOF 21
