REMARK SMILES Cc1ccc(C2=NN(C(=O)CCC(=O)NCCCCCCNC(=O)c3ccc(-c4c5nc(c(-c6cc(S(=O)(=O)[O-])ccc6F)c6ccc([nH]6)c(-c6cc(S(=O)(=O)[O-])ccc6F)c6nc(c(-c7cc(S(=O)(=O)[O-])ccc7F)c7ccc4[nH]7)C=C6)C=C5)cc3)[C@H](C[C@@H]3C=c4cccc(C)c4=NC3=O)C2)cc1
REMARK SMILES IDX 17 1 16 2 15 3 13 4 14 5 12 7 11 8 9 9 10 10 8 11 6 12 7 13
REMARK SMILES IDX 102 14 88 15 5 16 1 17 2 18 3 19 104 20 4 21 103 22 89 23
REMARK SMILES IDX 90 24 91 25 100 26 92 27 99 28 101 29 93 30 98 31 94 32
REMARK SMILES IDX 96 33 95 34 97 35 18 36 19 37 20 38 21 39 22 40 23 41 24 43
REMARK SMILES IDX 25 44 26 45 87 46 27 47 86 48 28 49 29 50 30 51 80 52 31 53
REMARK SMILES IDX 85 54 79 55 81 56 32 57 84 58 78 59 77 60 33 62 65 63 45 64
REMARK SMILES IDX 64 65 46 66 49 67 63 68 82 69 47 70 48 71 62 73 83 74 50 75
REMARK SMILES IDX 34 76 35 77 43 78 36 79 42 80 44 81 41 82 37 83 38 84 39 85
REMARK SMILES IDX 40 86 66 87 67 88 75 89 68 90 74 91 76 92 73 93 69 94 70 95
REMARK SMILES IDX 71 96 72 97 51 98 52 99 60 100 53 101 59 102 61 103 58 104
REMARK SMILES IDX 54 105 55 106 56 107 57 108
REMARK H PARENT 15 6 22 42 81 61 49 72
REMARK Flexibility Score: inf
ROOT
ATOM      1  C   UNL     1      -4.036  -0.069  -0.826  1.00  0.00     0.021 C 
ENDROOT
BRANCH   1   2
ATOM      2  C   UNL     1      -4.947   0.900   0.951  1.00  0.00     0.116 C 
BRANCH   2   3
ATOM      3  N   UNL     1      -6.229   1.891   1.021  1.00  0.00    -0.356 N 
ATOM      4  C   UNL     1      -7.488   1.831   1.497  1.00  0.00     0.220 C 
ATOM      5  O   UNL     1      -8.203   2.818   1.302  1.00  0.00    -0.275 OA
ATOM      6  H   UNL     1      -6.037   2.764   0.609  1.00  0.00     0.163 HD
BRANCH   4   7
ATOM      7  C   UNL     1      -7.988   0.643   2.260  1.00  0.00     0.110 C 
BRANCH   7   8
ATOM      8  C   UNL     1      -7.759  -0.724   1.638  1.00  0.00     0.112 C 
BRANCH   8   9
ATOM      9  C   UNL     1      -6.327  -1.285   1.722  1.00  0.00     0.243 C 
ATOM     10  O   UNL     1      -5.957  -1.847   2.753  1.00  0.00    -0.273 OA
BRANCH   9  11
ATOM     11  N   UNL     1      -5.450  -0.971   0.610  1.00  0.00    -0.230 N 
ATOM     12  C   UNL     1      -3.066   0.540   0.543  1.00  0.00     0.070 C 
ATOM     13  N   UNL     1      -3.720  -0.726   1.121  1.00  0.00    -0.174 NA
ATOM     14  C   UNL     1      -4.501   1.622  -0.655  1.00  0.00     0.086 C 
ATOM     15  C   UNL     1      -6.005   0.216  -0.704  1.00  0.00     0.118 C 
BRANCH  12  16
ATOM     16  C   UNL     1      -1.247   0.285   0.322  1.00  0.00    -0.002 A 
ATOM     17  C   UNL     1       3.126  -0.246  -0.152  1.00  0.00     0.044 C 
ATOM     18  C   UNL     1       1.640  -0.092  -0.182  1.00  0.00    -0.051 A 
ATOM     19  C   UNL     1       0.688  -1.104  -0.322  1.00  0.00     0.004 A 
ATOM     20  C   UNL     1       1.160   1.145   0.059  1.00  0.00     0.004 A 
ATOM     21  C   UNL     1      -0.730  -0.947  -0.063  1.00  0.00     0.010 A 
ATOM     22  C   UNL     1      -0.198   1.284   0.306  1.00  0.00     0.010 A 
ENDBRANCH  12  16
BRANCH  15  23
ATOM     23  C   UNL     1      -6.479  -0.777  -1.989  1.00  0.00     0.045 C 
BRANCH  23  24
ATOM     24  C   UNL     1      -7.588  -1.849  -1.643  1.00  0.00     0.106 C 
ATOM     25  C   UNL     1      -7.123  -2.906  -0.679  1.00  0.00    -0.003 C 
ATOM     26  C   UNL     1      -8.349  -2.592  -2.761  1.00  0.00     0.253 C 
ATOM     27  C   UNL     1      -7.957  -3.850  -0.245  1.00  0.00    -0.003 A 
ATOM     28  N   UNL     1      -9.162  -3.670  -2.393  1.00  0.00    -0.212 NA
ATOM     29  O   UNL     1      -8.353  -2.147  -3.907  1.00  0.00    -0.272 OA
ATOM     30  C   UNL     1      -7.871  -4.459   1.059  1.00  0.00     0.010 A 
ATOM     31  C   UNL     1      -8.984  -4.255  -1.243  1.00  0.00     0.077 A 
ATOM     32  C   UNL     1      -8.743  -5.409   1.411  1.00  0.00     0.001 A 
ATOM     33  C   UNL     1      -9.727  -5.511  -0.835  1.00  0.00    -0.025 A 
ATOM     34  C   UNL     1      -9.616  -5.989   0.421  1.00  0.00     0.005 A 
ATOM     35  C   UNL     1     -10.398  -6.303  -1.910  1.00  0.00     0.047 C 
ENDBRANCH  23  24
ENDBRANCH  15  23
ENDBRANCH   9  11
ENDBRANCH   8   9
ENDBRANCH   7   8
ENDBRANCH   4   7
ENDBRANCH   2   3
ENDBRANCH   1   2
BRANCH   1  36
ATOM     36  C   UNL     1      -2.609   1.152  -1.466  1.00  0.00     0.002 C 
BRANCH  36  37
ATOM     37  C   UNL     1      -2.261   2.615  -0.327  1.00  0.00     0.002 C 
BRANCH  37  38
ATOM     38  C   UNL     1      -2.091   2.678   1.528  1.00  0.00     0.021 C 
BRANCH  38  39
ATOM     39  C   UNL     1      -1.575   1.491   2.721  1.00  0.00     0.116 C 
BRANCH  39  40
ATOM     40  N   UNL     1      -0.126   1.346   3.113  1.00  0.00    -0.352 N 
ATOM     41  C   UNL     1       0.830   0.332   3.321  1.00  0.00     0.251 C 
ATOM     42  H   UNL     1       0.275   2.231   3.274  1.00  0.00     0.163 HD
ATOM     43  O   UNL     1       1.903   0.709   3.815  1.00  0.00    -0.269 OA
BRANCH  41  44
ATOM     44  C   UNL     1       0.760  -1.133   2.948  1.00  0.00     0.039 A 
ATOM     45  C   UNL     1       1.953  -1.803   2.538  1.00  0.00     0.014 A 
ATOM     46  C   UNL     1      -0.414  -1.867   2.911  1.00  0.00     0.014 A 
ATOM     47  C   UNL     1       1.929  -3.049   1.861  1.00  0.00     0.010 A 
ATOM     48  C   UNL     1      -0.439  -3.111   2.252  1.00  0.00     0.010 A 
ATOM     49  C   UNL     1       0.701  -3.660   1.628  1.00  0.00    -0.014 A 
BRANCH  49  50
ATOM     50  C   UNL     1       0.474  -4.870   0.809  1.00  0.00     0.031 A 
ATOM     51  C   UNL     1       0.487  -6.196   1.486  1.00  0.00     0.074 A 
ATOM     52  C   UNL     1      -0.019  -4.822  -0.459  1.00  0.00     0.049 A 
ATOM     53  N   UNL     1       0.450  -7.342   0.890  1.00  0.00    -0.248 NA
ATOM     54  C   UNL     1       0.583  -6.317   2.937  1.00  0.00     0.031 C 
ATOM     55  C   UNL     1      -0.927  -5.803  -1.058  1.00  0.00     0.029 A 
ATOM     56  N   UNL     1       0.249  -3.949  -1.521  1.00  0.00    -0.354 N 
ATOM     57  C   UNL     1       0.160  -8.293   1.845  1.00  0.00     0.074 A 
ATOM     58  C   UNL     1       0.367  -7.625   3.108  1.00  0.00     0.031 C 
ATOM     59  C   UNL     1      -0.993  -5.610  -2.383  1.00  0.00     0.029 A 
ATOM     60  C   UNL     1       0.019  -4.636  -2.727  1.00  0.00     0.049 A 
ATOM     61  H   UNL     1       0.548  -3.015  -1.438  1.00  0.00     0.167 HD
ATOM     62  C   UNL     1      -0.394  -9.484   1.473  1.00  0.00     0.034 A 
ATOM     63  C   UNL     1       0.944  -4.765  -3.717  1.00  0.00     0.034 A 
ATOM     64  C   UNL     1      -0.548  -9.576   0.025  1.00  0.00     0.049 A 
ATOM     65  C   UNL     1       1.226  -6.198  -4.085  1.00  0.00     0.074 A 
ATOM     66  C   UNL     1      -1.630  -9.357  -0.812  1.00  0.00     0.029 A 
ATOM     67  N   UNL     1       0.569  -9.687  -0.786  1.00  0.00    -0.354 N 
ATOM     68  N   UNL     1       0.830  -7.205  -3.362  1.00  0.00    -0.248 NA
ATOM     69  C   UNL     1       2.014  -6.617  -5.239  1.00  0.00     0.031 C 
ATOM     70  C   UNL     1      -1.144  -9.296  -2.140  1.00  0.00     0.029 A 
ATOM     71  C   UNL     1       0.225  -9.503  -2.111  1.00  0.00     0.049 A 
ATOM     72  H   UNL     1       1.481  -9.872  -0.464  1.00  0.00     0.167 HD
ATOM     73  C   UNL     1       1.369  -8.363  -3.849  1.00  0.00     0.074 A 
ATOM     74  C   UNL     1       2.050  -7.949  -5.063  1.00  0.00     0.031 C 
ATOM     75  C   UNL     1       1.239  -9.534  -3.157  1.00  0.00     0.034 A 
BRANCH  62  76
ATOM     76  C   UNL     1      -1.096 -10.448   2.407  1.00  0.00     0.023 A 
ATOM     77  C   UNL     1      -2.141 -11.248   1.891  1.00  0.00     0.031 A 
ATOM     78  C   UNL     1      -0.832 -10.620   3.777  1.00  0.00     0.131 A 
ATOM     79  C   UNL     1      -2.922 -12.076   2.715  1.00  0.00     0.055 A 
ATOM     80  C   UNL     1      -1.633 -11.417   4.611  1.00  0.00     0.041 A 
ATOM     81  F   UNL     1       0.240 -10.071   4.363  1.00  0.00    -0.206 F 
ATOM     82  C   UNL     1      -2.693 -12.142   4.084  1.00  0.00     0.022 A 
BRANCH  79  83
ATOM     83  S   UNL     1      -4.247 -13.058   1.961  1.00  0.00     0.124 S 
ATOM     84  O   UNL     1      -5.117 -12.027   1.403  1.00  0.00    -0.237 OA
ATOM     85  O   UNL     1      -3.519 -13.879   1.000  1.00  0.00    -0.237 OA
ATOM     86  O   UNL     1      -4.812 -13.791   3.094  1.00  0.00    -0.744 OA
ENDBRANCH  79  83
ENDBRANCH  62  76
BRANCH  63  87
ATOM     87  C   UNL     1       1.949  -3.678  -3.772  1.00  0.00     0.023 A 
ATOM     88  C   UNL     1       1.532  -2.398  -4.186  1.00  0.00     0.031 A 
ATOM     89  C   UNL     1       3.178  -3.799  -3.109  1.00  0.00     0.131 A 
ATOM     90  C   UNL     1       2.296  -1.271  -3.859  1.00  0.00     0.055 A 
ATOM     91  C   UNL     1       3.954  -2.678  -2.815  1.00  0.00     0.041 A 
ATOM     92  F   UNL     1       3.592  -4.989  -2.649  1.00  0.00    -0.206 F 
ATOM     93  C   UNL     1       3.512  -1.407  -3.186  1.00  0.00     0.022 A 
BRANCH  90  94
ATOM     94  S   UNL     1       1.571   0.377  -4.122  1.00  0.00     0.124 S 
ATOM     95  O   UNL     1       1.713   0.544  -5.564  1.00  0.00    -0.237 OA
ATOM     96  O   UNL     1       0.201   0.205  -3.644  1.00  0.00    -0.237 OA
ATOM     97  O   UNL     1       2.405   1.261  -3.310  1.00  0.00    -0.744 OA
ENDBRANCH  90  94
ENDBRANCH  63  87
BRANCH  75  98
ATOM     98  C   UNL     1       1.996 -10.809  -3.441  1.00  0.00     0.023 A 
ATOM     99  C   UNL     1       3.107 -10.858  -4.291  1.00  0.00     0.031 A 
ATOM    100  C   UNL     1       1.651 -12.032  -2.818  1.00  0.00     0.131 A 
ATOM    101  C   UNL     1       3.734 -12.073  -4.606  1.00  0.00     0.055 A 
ATOM    102  C   UNL     1       2.341 -13.226  -3.052  1.00  0.00     0.041 A 
ATOM    103  F   UNL     1       0.633 -12.124  -1.950  1.00  0.00    -0.206 F 
ATOM    104  C   UNL     1       3.373 -13.259  -3.976  1.00  0.00     0.022 A 
BRANCH 101 105
ATOM    105  S   UNL     1       4.944 -12.069  -5.952  1.00  0.00     0.124 S 
ATOM    106  O   UNL     1       4.150 -11.557  -7.066  1.00  0.00    -0.237 OA
ATOM    107  O   UNL     1       5.974 -11.168  -5.444  1.00  0.00    -0.237 OA
ATOM    108  O   UNL     1       5.340 -13.470  -6.064  1.00  0.00    -0.744 OA
ENDBRANCH 101 105
ENDBRANCH  75  98
ENDBRANCH  49  50
ENDBRANCH  41  44
ENDBRANCH  39  40
ENDBRANCH  38  39
ENDBRANCH  37  38
ENDBRANCH  36  37
ENDBRANCH   1  36
TORSDOF 22
