REMARK SMILES O=C(NCCCCCCNC(=O)[C@H]1CS[C@@H](c2cccc(OCc3ccc(Cl)cc3Cl)c2)[NH2+]1)c1ccc(-c2c3nc(c(-c4cc(S(=O)(=O)[O-])ccc4F)c4ccc([nH]4)c(-c4cc(S(=O)(=O)[O-])ccc4F)c4nc(c(-c5cc(S(=O)(=O)[O-])ccc5F)c5ccc2[nH]5)C=C4)C=C3)cc1
REMARK SMILES IDX 7 1 6 2 5 3 4 4 3 5 1 6 2 7 34 9 35 10 96 11 36 12 95 13
REMARK SMILES IDX 37 14 38 15 39 16 89 17 40 18 94 19 88 20 90 21 41 22 93 23
REMARK SMILES IDX 87 24 86 25 42 27 74 28 54 29 73 30 55 31 58 32 72 33 91 34
REMARK SMILES IDX 56 35 57 36 71 38 92 39 59 40 43 41 44 42 52 43 45 44 51 45
REMARK SMILES IDX 53 46 50 47 46 48 47 49 48 50 49 51 75 52 76 53 84 54 77 55
REMARK SMILES IDX 83 56 85 57 82 58 78 59 79 60 80 61 81 62 60 63 61 64 69 65
REMARK SMILES IDX 62 66 68 67 70 68 67 69 63 70 64 71 65 72 66 73 8 74 9 75
REMARK SMILES IDX 10 76 11 77 12 79 13 80 14 81 33 82 15 83 16 84 17 87 18 88
REMARK SMILES IDX 32 89 19 90 21 91 20 92 22 93 23 94 24 95 25 96 30 97 26 98
REMARK SMILES IDX 29 99 31 100 27 101 28 102
REMARK H PARENT 3 8 90 26 58 37 10 78 33 85 33 86
REMARK Flexibility Score: inf
ROOT
ATOM      1  C   UNL     1       4.759  -3.428  -2.689  1.00  0.00     0.002 C 
ENDROOT
BRANCH   1   2
ATOM      2  C   UNL     1       4.066  -3.598  -1.332  1.00  0.00     0.002 C 
BRANCH   2   3
ATOM      3  C   UNL     1       4.513  -2.630  -0.235  1.00  0.00     0.021 C 
BRANCH   3   4
ATOM      4  C   UNL     1       4.382  -1.152  -0.582  1.00  0.00     0.116 C 
BRANCH   4   5
ATOM      5  N   UNL     1       2.999  -0.735  -0.755  1.00  0.00    -0.352 N 
ATOM      6  O   UNL     1       1.105   0.401  -0.297  1.00  0.00    -0.269 OA
ATOM      7  C   UNL     1       2.317   0.288  -0.138  1.00  0.00     0.251 C 
ATOM      8  H   UNL     1       2.478  -1.259  -1.406  1.00  0.00     0.163 HD
BRANCH   7   9
ATOM      9  C   UNL     1       3.045   1.234   0.737  1.00  0.00     0.039 A 
ATOM     10  C   UNL     1       4.262   1.786   0.332  1.00  0.00     0.014 A 
ATOM     11  C   UNL     1       2.507   1.565   1.984  1.00  0.00     0.014 A 
ATOM     12  C   UNL     1       5.012   2.538   1.230  1.00  0.00     0.010 A 
ATOM     13  C   UNL     1       3.225   2.392   2.854  1.00  0.00     0.010 A 
ATOM     14  C   UNL     1       4.504   2.852   2.502  1.00  0.00    -0.014 A 
BRANCH  14  15
ATOM     15  C   UNL     1       5.327   3.672   3.432  1.00  0.00     0.031 A 
ATOM     16  C   UNL     1       5.838   3.099   4.727  1.00  0.00     0.074 A 
ATOM     17  C   UNL     1       5.652   4.931   3.076  1.00  0.00     0.049 A 
ATOM     18  N   UNL     1       6.604   3.655   5.631  1.00  0.00    -0.248 NA
ATOM     19  C   UNL     1       5.425   1.727   5.055  1.00  0.00     0.031 C 
ATOM     20  C   UNL     1       5.207   5.598   1.849  1.00  0.00     0.029 A 
ATOM     21  N   UNL     1       6.447   5.864   3.690  1.00  0.00    -0.354 N 
ATOM     22  C   UNL     1       6.749   2.713   6.645  1.00  0.00     0.074 A 
ATOM     23  C   UNL     1       5.960   1.562   6.257  1.00  0.00     0.031 C 
ATOM     24  C   UNL     1       5.781   6.808   1.774  1.00  0.00     0.029 A 
ATOM     25  C   UNL     1       6.582   7.030   2.973  1.00  0.00     0.049 A 
ATOM     26  H   UNL     1       6.881   5.713   4.561  1.00  0.00     0.167 HD
ATOM     27  C   UNL     1       7.478   2.798   7.787  1.00  0.00     0.034 A 
ATOM     28  C   UNL     1       7.265   8.156   3.250  1.00  0.00     0.034 A 
ATOM     29  C   UNL     1       8.269   3.950   8.155  1.00  0.00     0.049 A 
ATOM     30  C   UNL     1       8.056   8.229   4.528  1.00  0.00     0.074 A 
ATOM     31  C   UNL     1       9.069   4.128   9.271  1.00  0.00     0.029 A 
ATOM     32  N   UNL     1       8.355   5.126   7.418  1.00  0.00    -0.354 N 
ATOM     33  N   UNL     1       8.198   7.320   5.465  1.00  0.00    -0.248 NA
ATOM     34  C   UNL     1       8.785   9.478   4.781  1.00  0.00     0.031 C 
ATOM     35  C   UNL     1       9.588   5.428   9.241  1.00  0.00     0.029 A 
ATOM     36  C   UNL     1       9.173   6.039   8.069  1.00  0.00     0.049 A 
ATOM     37  H   UNL     1       7.902   5.287   6.559  1.00  0.00     0.167 HD
ATOM     38  C   UNL     1       9.055   7.880   6.407  1.00  0.00     0.074 A 
ATOM     39  C   UNL     1       9.411   9.195   5.913  1.00  0.00     0.031 C 
ATOM     40  C   UNL     1       9.510   7.354   7.573  1.00  0.00     0.034 A 
BRANCH  27  41
ATOM     41  C   UNL     1       7.414   1.627   8.742  1.00  0.00     0.023 A 
ATOM     42  C   UNL     1       7.895   0.354   8.389  1.00  0.00     0.031 A 
ATOM     43  C   UNL     1       6.837   1.781  10.015  1.00  0.00     0.131 A 
ATOM     44  C   UNL     1       7.723  -0.729   9.267  1.00  0.00     0.055 A 
ATOM     45  C   UNL     1       6.741   0.718  10.916  1.00  0.00     0.041 A 
ATOM     46  F   UNL     1       6.343   2.967  10.403  1.00  0.00    -0.206 F 
ATOM     47  C   UNL     1       7.171  -0.551  10.537  1.00  0.00     0.022 A 
BRANCH  44  48
ATOM     48  S   UNL     1       8.098  -2.399   8.665  1.00  0.00     0.124 S 
ATOM     49  O   UNL     1       7.231  -2.494   7.492  1.00  0.00    -0.237 OA
ATOM     50  O   UNL     1       9.529  -2.325   8.395  1.00  0.00    -0.237 OA
ATOM     51  O   UNL     1       7.716  -3.260   9.783  1.00  0.00    -0.744 OA
ENDBRANCH  44  48
ENDBRANCH  27  41
BRANCH  28  52
ATOM     52  C   UNL     1       7.224   9.309   2.307  1.00  0.00     0.023 A 
ATOM     53  C   UNL     1       8.381   9.742   1.641  1.00  0.00     0.031 A 
ATOM     54  C   UNL     1       6.028  10.012   2.079  1.00  0.00     0.131 A 
ATOM     55  C   UNL     1       8.327  10.870   0.809  1.00  0.00     0.055 A 
ATOM     56  C   UNL     1       5.967  11.102   1.210  1.00  0.00     0.041 A 
ATOM     57  F   UNL     1       4.892   9.634   2.686  1.00  0.00    -0.206 F 
ATOM     58  C   UNL     1       7.125  11.544   0.578  1.00  0.00     0.022 A 
BRANCH  55  59
ATOM     59  S   UNL     1       9.870  11.491   0.086  1.00  0.00     0.124 S 
ATOM     60  O   UNL     1      10.673  11.749   1.276  1.00  0.00    -0.237 OA
ATOM     61  O   UNL     1      10.291  10.365  -0.740  1.00  0.00    -0.237 OA
ATOM     62  O   UNL     1       9.446  12.679  -0.652  1.00  0.00    -0.744 OA
ENDBRANCH  55  59
ENDBRANCH  28  52
BRANCH  40  63
ATOM     63  C   UNL     1      10.481   8.196   8.363  1.00  0.00     0.023 A 
ATOM     64  C   UNL     1      10.095   9.410   8.958  1.00  0.00     0.031 A 
ATOM     65  C   UNL     1      11.823   7.795   8.486  1.00  0.00     0.131 A 
ATOM     66  C   UNL     1      11.055  10.213   9.592  1.00  0.00     0.055 A 
ATOM     67  C   UNL     1      12.761   8.569   9.171  1.00  0.00     0.041 A 
ATOM     68  F   UNL     1      12.247   6.646   7.936  1.00  0.00    -0.206 F 
ATOM     69  C   UNL     1      12.383   9.793   9.715  1.00  0.00     0.022 A 
BRANCH  66  70
ATOM     70  S   UNL     1      10.570  11.867  10.158  1.00  0.00     0.124 S 
ATOM     71  O   UNL     1      10.060  12.471   8.931  1.00  0.00    -0.237 OA
ATOM     72  O   UNL     1       9.575  11.566  11.182  1.00  0.00    -0.237 OA
ATOM     73  O   UNL     1      11.820  12.439  10.658  1.00  0.00    -0.744 OA
ENDBRANCH  66  70
ENDBRANCH  40  63
ENDBRANCH  14  15
ENDBRANCH   7   9
ENDBRANCH   4   5
ENDBRANCH   3   4
ENDBRANCH   2   3
ENDBRANCH   1   2
BRANCH   1  74
ATOM     74  C   UNL     1       6.290  -3.383  -2.651  1.00  0.00     0.021 C 
BRANCH  74  75
ATOM     75  C   UNL     1       6.950  -4.621  -2.048  1.00  0.00     0.116 C 
BRANCH  75  76
ATOM     76  N   UNL     1       6.838  -5.768  -2.935  1.00  0.00    -0.351 N 
ATOM     77  C   UNL     1       7.779  -6.451  -3.653  1.00  0.00     0.279 C 
ATOM     78  H   UNL     1       5.922  -6.114  -3.036  1.00  0.00     0.163 HD
ATOM     79  O   UNL     1       7.378  -7.319  -4.434  1.00  0.00    -0.268 OA
BRANCH  77  80
ATOM     80  C   UNL     1       9.284  -6.170  -3.492  1.00  0.00     0.283 C 
ATOM     81  C   UNL     1       9.677  -4.774  -3.963  1.00  0.00     0.151 C 
ATOM     82  N   UNL     1       9.701  -6.446  -2.102  1.00  0.00    -0.321 N 
ATOM     83  S   UNL     1      10.807  -4.119  -2.714  1.00  0.00    -0.088 SA
ATOM     84  C   UNL     1      10.906  -5.671  -1.803  1.00  0.00     0.274 C 
ATOM     85  H   UNL     1       9.899  -7.441  -1.996  1.00  0.00     0.348 HD
ATOM     86  H   UNL     1       8.953  -6.184  -1.460  1.00  0.00     0.348 HD
BRANCH  84  87
ATOM     87  C   UNL     1      11.067  -5.583  -0.295  1.00  0.00     0.024 A 
ATOM     88  C   UNL     1      10.735  -4.458   0.476  1.00  0.00     0.011 A 
ATOM     89  C   UNL     1      11.425  -6.770   0.380  1.00  0.00     0.057 A 
ATOM     90  C   UNL     1      10.770  -4.517   1.871  1.00  0.00     0.004 A 
ATOM     91  C   UNL     1      11.390  -6.852   1.771  1.00  0.00     0.120 A 
ATOM     92  C   UNL     1      11.092  -5.711   2.514  1.00  0.00     0.046 A 
BRANCH  91  93
ATOM     93  O   UNL     1      11.507  -8.000   2.505  1.00  0.00    -0.489 OA
BRANCH  93  94
ATOM     94  C   UNL     1      11.563  -9.262   1.831  1.00  0.00     0.267 C 
BRANCH  94  95
ATOM     95  C   UNL     1      10.252  -9.805   1.274  1.00  0.00     0.008 A 
ATOM     96  C   UNL     1       9.087  -9.020   1.202  1.00  0.00     0.010 A 
ATOM     97  C   UNL     1      10.183 -11.117   0.768  1.00  0.00     0.049 A 
ATOM     98  C   UNL     1       7.917  -9.504   0.611  1.00  0.00     0.021 A 
ATOM     99  C   UNL     1       9.004 -11.615   0.201  1.00  0.00     0.041 A 
ATOM    100  Cl  UNL     1      11.546 -12.183   0.815  1.00  0.00    -0.084 Cl
ATOM    101  C   UNL     1       7.881 -10.800   0.114  1.00  0.00     0.042 A 
ATOM    102  Cl  UNL     1       6.440 -11.401  -0.610  1.00  0.00    -0.084 Cl
ENDBRANCH  94  95
ENDBRANCH  93  94
ENDBRANCH  91  93
ENDBRANCH  84  87
ENDBRANCH  77  80
ENDBRANCH  75  76
ENDBRANCH  74  75
ENDBRANCH   1  74
TORSDOF 20
