REMARK SMILES CN1C(=O)/C(=C\c2ccc(-c3ccccc3C(=O)NCCCCCCNC(=O)c3ccc(-c4c5nc(c(-c6cc(S(=O)(=O)[O-])ccc6F)c6ccc([nH]6)c(-c6cc(S(=O)(=O)[O-])ccc6F)c6nc(c(-c7cc(S(=O)(=O)[O-])ccc7F)c7ccc4[nH]7)C=C6)C=C5)cc3)o2)C(=O)[NH+]=C1S
REMARK SMILES IDX 22 1 21 2 20 3 19 4 17 5 18 6 16 8 11 9 12 10 13 11 15 12
REMARK SMILES IDX 14 13 10 14 7 15 8 16 92 17 9 18 6 19 1 20 2 21 3 22 96 23
REMARK SMILES IDX 4 24 5 25 95 26 93 27 94 29 97 30 23 32 24 33 25 34 26 35
REMARK SMILES IDX 27 36 28 38 29 39 30 40 91 41 31 42 90 43 32 44 33 45 34 46
REMARK SMILES IDX 84 47 35 48 89 49 83 50 85 51 36 52 88 53 82 54 81 55 37 57
REMARK SMILES IDX 69 58 49 59 68 60 50 61 53 62 67 63 86 64 51 65 52 66 66 68
REMARK SMILES IDX 87 69 54 70 38 71 39 72 47 73 40 74 46 75 48 76 45 77 41 78
REMARK SMILES IDX 42 79 43 80 44 81 70 82 71 83 79 84 72 85 78 86 80 87 77 88
REMARK SMILES IDX 73 89 74 90 75 91 76 92 55 93 56 94 64 95 57 96 63 97 65 98
REMARK SMILES IDX 62 99 58 100 59 101 60 102 61 103
REMARK H PARENT 19 7 95 28 97 31 26 37 85 56 53 67
REMARK Flexibility Score: inf
ROOT
ATOM      1  C   UNL     1      -4.694  -2.205  -5.132  1.00  0.00     0.002 C 
ENDROOT
BRANCH   1   2
ATOM      2  C   UNL     1      -3.387  -2.622  -5.816  1.00  0.00     0.021 C 
BRANCH   2   3
ATOM      3  C   UNL     1      -2.526  -3.694  -5.154  1.00  0.00     0.116 C 
BRANCH   3   4
ATOM      4  N   UNL     1      -2.926  -5.074  -5.266  1.00  0.00    -0.352 N 
ATOM      5  C   UNL     1      -2.182  -6.237  -5.181  1.00  0.00     0.252 C 
ATOM      6  O   UNL     1      -2.838  -7.285  -5.172  1.00  0.00    -0.269 OA
ATOM      7  H   UNL     1      -3.887  -5.212  -5.430  1.00  0.00     0.163 HD
BRANCH   5   8
ATOM      8  C   UNL     1      -0.673  -6.366  -5.183  1.00  0.00     0.050 A 
ATOM      9  C   UNL     1       0.309  -5.528  -4.620  1.00  0.00     0.030 A 
ATOM     10  C   UNL     1       1.682  -5.851  -4.752  1.00  0.00     0.013 A 
ATOM     11  C   UNL     1       2.103  -7.020  -5.374  1.00  0.00     0.001 A 
ATOM     12  C   UNL     1      -0.209  -7.559  -5.796  1.00  0.00     0.014 A 
ATOM     13  C   UNL     1       1.151  -7.887  -5.882  1.00  0.00     0.001 A 
BRANCH   9  14
ATOM     14  C   UNL     1       0.053  -4.356  -3.821  1.00  0.00     0.135 A 
ATOM     15  C   UNL     1       0.055  -2.156  -3.566  1.00  0.00     0.128 A 
ATOM     16  C   UNL     1      -0.478  -2.732  -2.413  1.00  0.00     0.051 A 
ATOM     17  O   UNL     1       0.399  -3.179  -4.410  1.00  0.00    -0.457 OA
ATOM     18  C   UNL     1      -0.449  -4.136  -2.563  1.00  0.00     0.051 A 
BRANCH  15  19
ATOM     19  C   UNL     1       0.173  -0.790  -3.939  1.00  0.00     0.071 C 
ATOM     20  C   UNL     1       1.329   0.619   0.488  1.00  0.00     0.301 C 
ATOM     21  N   UNL     1       1.170   0.946  -0.924  1.00  0.00    -0.189 N 
ATOM     22  C   UNL     1       1.205  -0.112  -1.791  1.00  0.00     0.349 C 
ATOM     23  C   UNL     1       1.233   2.208  -1.451  1.00  0.00     0.318 C 
ATOM     24  O   UNL     1       1.718  -1.189  -1.502  1.00  0.00    -0.240 OA
ATOM     25  C   UNL     1       0.625   0.171  -3.115  1.00  0.00     0.157 C 
ATOM     26  N   UNL     1       0.940   2.519  -2.665  1.00  0.00    -0.200 N 
ATOM     27  C   UNL     1       0.458   1.581  -3.527  1.00  0.00     0.347 C 
ATOM     28  H   UNL     1       1.067   3.446  -2.974  1.00  0.00     0.316 HD
ATOM     29  O   UNL     1      -0.119   1.870  -4.572  1.00  0.00    -0.241 OA
BRANCH  23  30
ATOM     30  S   UNL     1       1.837   3.470  -0.423  1.00  0.00    -0.055 SA
ATOM     31  H   UNL     1       2.091   2.964   0.813  1.00  0.00     0.116 HD
ENDBRANCH  23  30
ENDBRANCH  15  19
ENDBRANCH   9  14
ENDBRANCH   5   8
ENDBRANCH   3   4
ENDBRANCH   2   3
ENDBRANCH   1   2
BRANCH   1  32
ATOM     32  C   UNL     1      -4.666  -1.815  -3.648  1.00  0.00     0.002 C 
BRANCH  32  33
ATOM     33  C   UNL     1      -3.653  -0.762  -3.190  1.00  0.00     0.021 C 
BRANCH  33  34
ATOM     34  C   UNL     1      -3.642   0.582  -3.913  1.00  0.00     0.116 C 
BRANCH  34  35
ATOM     35  N   UNL     1      -4.897   1.297  -3.792  1.00  0.00    -0.352 N 
ATOM     36  C   UNL     1      -5.184   2.551  -3.309  1.00  0.00     0.251 C 
ATOM     37  H   UNL     1      -5.682   0.796  -4.113  1.00  0.00     0.163 HD
ATOM     38  O   UNL     1      -6.367   2.858  -3.162  1.00  0.00    -0.269 OA
BRANCH  36  39
ATOM     39  C   UNL     1      -4.125   3.526  -2.936  1.00  0.00     0.039 A 
ATOM     40  C   UNL     1      -4.375   4.398  -1.868  1.00  0.00     0.014 A 
ATOM     41  C   UNL     1      -2.932   3.660  -3.648  1.00  0.00     0.014 A 
ATOM     42  C   UNL     1      -3.431   5.364  -1.501  1.00  0.00     0.010 A 
ATOM     43  C   UNL     1      -1.953   4.568  -3.227  1.00  0.00     0.010 A 
ATOM     44  C   UNL     1      -2.194   5.446  -2.159  1.00  0.00    -0.014 A 
BRANCH  44  45
ATOM     45  C   UNL     1      -1.171   6.455  -1.751  1.00  0.00     0.031 A 
ATOM     46  C   UNL     1      -0.695   7.506  -2.725  1.00  0.00     0.074 A 
ATOM     47  C   UNL     1      -0.637   6.410  -0.512  1.00  0.00     0.049 A 
ATOM     48  N   UNL     1       0.199   8.450  -2.557  1.00  0.00    -0.248 NA
ATOM     49  C   UNL     1      -1.289   7.482  -4.069  1.00  0.00     0.031 C 
ATOM     50  C   UNL     1      -0.978   5.427   0.520  1.00  0.00     0.029 A 
ATOM     51  N   UNL     1       0.324   7.191   0.085  1.00  0.00    -0.354 N 
ATOM     52  C   UNL     1       0.270   9.131  -3.769  1.00  0.00     0.074 A 
ATOM     53  C   UNL     1      -0.609   8.436  -4.686  1.00  0.00     0.031 C 
ATOM     54  C   UNL     1      -0.237   5.660   1.616  1.00  0.00     0.029 A 
ATOM     55  C   UNL     1       0.654   6.787   1.359  1.00  0.00     0.049 A 
ATOM     56  H   UNL     1       0.737   7.967  -0.357  1.00  0.00     0.167 HD
ATOM     57  C   UNL     1       0.972  10.251  -4.083  1.00  0.00     0.034 A 
ATOM     58  C   UNL     1       1.579   7.254   2.223  1.00  0.00     0.034 A 
ATOM     59  C   UNL     1       1.847  10.935  -3.159  1.00  0.00     0.049 A 
ATOM     60  C   UNL     1       2.386   8.468   1.843  1.00  0.00     0.074 A 
ATOM     61  C   UNL     1       2.550  12.113  -3.347  1.00  0.00     0.029 A 
ATOM     62  N   UNL     1       2.155  10.494  -1.878  1.00  0.00    -0.354 N 
ATOM     63  N   UNL     1       2.377   9.148   0.720  1.00  0.00    -0.248 NA
ATOM     64  C   UNL     1       3.301   8.998   2.861  1.00  0.00     0.031 C 
ATOM     65  C   UNL     1       3.344  12.338  -2.217  1.00  0.00     0.029 A 
ATOM     66  C   UNL     1       3.069  11.352  -1.282  1.00  0.00     0.049 A 
ATOM     67  H   UNL     1       1.781   9.688  -1.454  1.00  0.00     0.167 HD
ATOM     68  C   UNL     1       3.254  10.213   0.914  1.00  0.00     0.074 A 
ATOM     69  C   UNL     1       3.767  10.085   2.263  1.00  0.00     0.031 C 
ATOM     70  C   UNL     1       3.591  11.213   0.059  1.00  0.00     0.034 A 
BRANCH  57  71
ATOM     71  C   UNL     1       0.835  10.790  -5.492  1.00  0.00     0.023 A 
ATOM     72  C   UNL     1      -0.407  11.202  -6.009  1.00  0.00     0.031 A 
ATOM     73  C   UNL     1       1.952  10.866  -6.343  1.00  0.00     0.131 A 
ATOM     74  C   UNL     1      -0.519  11.580  -7.356  1.00  0.00     0.055 A 
ATOM     75  C   UNL     1       1.851  11.332  -7.656  1.00  0.00     0.041 A 
ATOM     76  F   UNL     1       3.164  10.474  -5.918  1.00  0.00    -0.206 F 
ATOM     77  C   UNL     1       0.606  11.674  -8.176  1.00  0.00     0.022 A 
BRANCH  74  78
ATOM     78  S   UNL     1      -2.178  11.783  -8.063  1.00  0.00     0.124 S 
ATOM     79  O   UNL     1      -2.780  10.481  -7.785  1.00  0.00    -0.237 OA
ATOM     80  O   UNL     1      -2.709  12.908  -7.302  1.00  0.00    -0.237 OA
ATOM     81  O   UNL     1      -1.918  12.051  -9.476  1.00  0.00    -0.744 OA
ENDBRANCH  74  78
ENDBRANCH  57  71
BRANCH  58  82
ATOM     82  C   UNL     1       1.797   6.570   3.531  1.00  0.00     0.023 A 
ATOM     83  C   UNL     1       1.480   7.194   4.747  1.00  0.00     0.031 A 
ATOM     84  C   UNL     1       2.358   5.282   3.581  1.00  0.00     0.131 A 
ATOM     85  C   UNL     1       1.762   6.544   5.960  1.00  0.00     0.055 A 
ATOM     86  C   UNL     1       2.586   4.617   4.787  1.00  0.00     0.041 A 
ATOM     87  F   UNL     1       2.689   4.641   2.450  1.00  0.00    -0.206 F 
ATOM     88  C   UNL     1       2.297   5.254   5.988  1.00  0.00     0.022 A 
BRANCH  85  89
ATOM     89  S   UNL     1       1.490   7.442   7.513  1.00  0.00     0.124 S 
ATOM     90  O   UNL     1       2.351   8.605   7.337  1.00  0.00    -0.237 OA
ATOM     91  O   UNL     1       0.053   7.691   7.469  1.00  0.00    -0.237 OA
ATOM     92  O   UNL     1       1.924   6.491   8.535  1.00  0.00    -0.744 OA
ENDBRANCH  85  89
ENDBRANCH  58  82
BRANCH  70  93
ATOM     93  C   UNL     1       4.524  12.281   0.581  1.00  0.00     0.023 A 
ATOM     94  C   UNL     1       5.852  11.999   0.945  1.00  0.00     0.031 A 
ATOM     95  C   UNL     1       4.065  13.603   0.736  1.00  0.00     0.131 A 
ATOM     96  C   UNL     1       6.653  13.006   1.506  1.00  0.00     0.055 A 
ATOM     97  C   UNL     1       4.889  14.616   1.227  1.00  0.00     0.041 A 
ATOM     98  F   UNL     1       2.804  13.932   0.411  1.00  0.00    -0.206 F 
ATOM     99  C   UNL     1       6.186  14.317   1.631  1.00  0.00     0.022 A 
BRANCH  96 100
ATOM    100  S   UNL     1       8.275  12.554   2.180  1.00  0.00     0.124 S 
ATOM    101  O   UNL     1       7.922  11.529   3.156  1.00  0.00    -0.237 OA
ATOM    102  O   UNL     1       8.987  12.088   0.994  1.00  0.00    -0.237 OA
ATOM    103  O   UNL     1       8.772  13.806   2.748  1.00  0.00    -0.744 OA
ENDBRANCH  96 100
ENDBRANCH  70  93
ENDBRANCH  44  45
ENDBRANCH  36  39
ENDBRANCH  34  35
ENDBRANCH  33  34
ENDBRANCH  32  33
ENDBRANCH   1  32
TORSDOF 19
