REMARK SMILES COc1ccc([C@@H]2C3=C(C[C@@H](c4ccccc4)CC3=O)Nc3ccccc3N2C(=O)CCC(=O)NCCCCCCNC(=O)c2ccc(-c3c4nc(c(-c5cc(S(=O)(=O)[O-])ccc5F)c5ccc([nH]5)c(-c5cc(S(=O)(=O)[O-])ccc5F)c5nc(c(-c6cc(S(=O)(=O)[O-])ccc6F)c6ccc3[nH]6)C=C5)C=C4)cc2)cc1
REMARK SMILES IDX 36 1 35 2 33 3 34 4 32 6 31 7 29 8 30 9 28 10 7 11 6 13 3 14
REMARK SMILES IDX 4 15 109 16 5 17 108 18 2 19 1 20 27 21 22 22 26 23 23 24
REMARK SMILES IDX 25 25 24 26 21 27 9 29 8 30 10 31 19 32 11 34 18 35 20 36
REMARK SMILES IDX 12 37 13 38 17 39 14 40 16 41 15 42 37 43 38 44 39 45 40 46
REMARK SMILES IDX 41 47 42 48 43 49 44 51 45 52 46 53 107 54 47 55 106 56
REMARK SMILES IDX 48 57 49 58 50 59 100 60 51 61 105 62 99 63 101 64 52 65
REMARK SMILES IDX 104 66 98 67 97 68 53 70 85 71 65 72 84 73 66 74 69 75 83 76
REMARK SMILES IDX 102 77 67 78 68 79 82 81 103 82 70 83 54 84 55 85 63 86
REMARK SMILES IDX 56 87 62 88 64 89 61 90 57 91 58 92 59 93 60 94 86 95 87 96
REMARK SMILES IDX 95 97 88 98 94 99 96 100 93 101 89 102 90 103 91 104 92 105
REMARK SMILES IDX 71 106 72 107 80 108 73 109 79 110 81 111 78 112 74 113
REMARK SMILES IDX 75 114 76 115 77 116
REMARK H PARENT 35 5 21 28 42 50 101 69 69 80
REMARK Flexibility Score: 90.00
ROOT
ATOM      1  C   UNL     1      -0.042   4.184  -0.920  1.00  0.00     0.116 C 
ENDROOT
BRANCH   1   2
ATOM      2  N   UNL     1       0.167   5.393  -0.141  1.00  0.00    -0.356 N 
ATOM      3  C   UNL     1      -0.212   6.674  -0.389  1.00  0.00     0.220 C 
ATOM      4  O   UNL     1      -0.065   7.512   0.503  1.00  0.00    -0.275 OA
ATOM      5  H   UNL     1       0.661   5.263   0.700  1.00  0.00     0.163 HD
BRANCH   3   6
ATOM      6  C   UNL     1      -0.778   7.056  -1.735  1.00  0.00     0.110 C 
BRANCH   6   7
ATOM      7  C   UNL     1       0.132   8.071  -2.415  1.00  0.00     0.110 C 
BRANCH   7   8
ATOM      8  C   UNL     1       1.356   7.409  -3.055  1.00  0.00     0.228 C 
ATOM      9  O   UNL     1       1.182   6.715  -4.063  1.00  0.00    -0.274 OA
BRANCH   8  10
ATOM     10  N   UNL     1       2.626   7.621  -2.493  1.00  0.00    -0.298 N 
BRANCH  10  11
ATOM     11  C   UNL     1       3.822   7.293  -3.335  1.00  0.00     0.156 CG0
ATOM     12  G   UNL     1       4.323   8.482  -4.170  1.00  0.00     0.000 G0
BRANCH  11  13
ATOM     13  C   UNL     1       4.965   6.456  -2.752  1.00  0.00    -0.020 A 
ATOM     14  C   UNL     1       7.558   5.620  -2.108  1.00  0.00     0.118 A 
ATOM     15  C   UNL     1       6.733   6.141  -1.119  1.00  0.00     0.047 A 
ATOM     16  C   UNL     1       7.043   5.333  -3.365  1.00  0.00     0.047 A 
ATOM     17  C   UNL     1       5.438   6.559  -1.440  1.00  0.00     0.010 A 
ATOM     18  C   UNL     1       5.752   5.742  -3.683  1.00  0.00     0.010 A 
BRANCH  14  19
ATOM     19  O   UNL     1       8.886   5.469  -1.808  1.00  0.00    -0.497 OA
ATOM     20  C   UNL     1       9.706   6.090  -2.806  1.00  0.00     0.278 C 
ENDBRANCH  14  19
ENDBRANCH  11  13
ENDBRANCH  10  11
BRANCH  10  21
ATOM     21  C   UNL     1       2.805   8.717  -1.617  1.00  0.00     0.068 A 
ATOM     22  C   UNL     1       2.908  10.003  -2.181  1.00  0.00     0.062 A 
ATOM     23  C   UNL     1       2.894   8.513  -0.242  1.00  0.00     0.028 A 
ATOM     24  C   UNL     1       3.333  11.044  -1.355  1.00  0.00     0.028 A 
ATOM     25  C   UNL     1       3.275   9.570   0.576  1.00  0.00     0.002 A 
ATOM     26  C   UNL     1       3.540  10.819   0.014  1.00  0.00     0.002 A 
BRANCH  22  27
ATOM     27  N   UNL     1       2.737  10.180  -3.578  1.00  0.00    -0.357 N 
ATOM     28  H   UNL     1       2.007  10.751  -3.909  1.00  0.00     0.166 HD
BRANCH  27  29
ATOM     29  C   UNL     1       3.583   9.561  -4.484  1.00  0.00     0.025 C 
ATOM     30  C   UNL     1       4.323   8.482  -4.170  1.00  0.00     0.042 CG0
ATOM     31  C   UNL     1       3.903  10.231  -5.801  1.00  0.00     0.063 C 
ATOM     32  C   UNL     1       5.720   9.035  -4.012  1.00  0.00     0.163 C 
ATOM     33  G   UNL     1       3.822   7.293  -3.335  1.00  0.00     0.000 G0
ATOM     34  C   UNL     1       5.339  10.777  -5.851  1.00  0.00     0.033 C 
ATOM     35  C   UNL     1       6.326   9.832  -5.151  1.00  0.00     0.089 C 
ATOM     36  O   UNL     1       6.365   8.901  -2.973  1.00  0.00    -0.294 OA
BRANCH  34  37
ATOM     37  C   UNL     1       5.471  12.246  -5.450  1.00  0.00    -0.044 A 
ATOM     38  C   UNL     1       4.497  12.931  -4.711  1.00  0.00     0.004 A 
ATOM     39  C   UNL     1       6.561  12.990  -5.929  1.00  0.00     0.004 A 
ATOM     40  C   UNL     1       4.566  14.308  -4.501  1.00  0.00     0.000 A 
ATOM     41  C   UNL     1       6.636  14.371  -5.718  1.00  0.00     0.000 A 
ATOM     42  C   UNL     1       5.631  15.032  -5.017  1.00  0.00     0.000 A 
ENDBRANCH  34  37
ENDBRANCH  27  29
ENDBRANCH  22  27
ENDBRANCH  10  21
ENDBRANCH   8  10
ENDBRANCH   7   8
ENDBRANCH   6   7
ENDBRANCH   3   6
ENDBRANCH   1   2
BRANCH   1  43
ATOM     43  C   UNL     1       0.927   3.987  -2.084  1.00  0.00     0.021 C 
BRANCH  43  44
ATOM     44  C   UNL     1       2.411   4.175  -1.749  1.00  0.00     0.002 C 
BRANCH  44  45
ATOM     45  C   UNL     1       3.203   2.900  -1.448  1.00  0.00     0.002 C 
BRANCH  45  46
ATOM     46  C   UNL     1       3.263   1.871  -2.581  1.00  0.00     0.021 C 
BRANCH  46  47
ATOM     47  C   UNL     1       3.826   2.372  -3.908  1.00  0.00     0.116 C 
BRANCH  47  48
ATOM     48  N   UNL     1       5.276   2.512  -3.902  1.00  0.00    -0.352 N 
ATOM     49  C   UNL     1       6.184   2.067  -4.838  1.00  0.00     0.251 C 
ATOM     50  H   UNL     1       5.657   2.986  -3.128  1.00  0.00     0.163 HD
ATOM     51  O   UNL     1       7.388   2.262  -4.711  1.00  0.00    -0.269 OA
BRANCH  49  52
ATOM     52  C   UNL     1       5.682   1.290  -5.986  1.00  0.00     0.039 A 
ATOM     53  C   UNL     1       6.071  -0.047  -6.099  1.00  0.00     0.014 A 
ATOM     54  C   UNL     1       4.733   1.840  -6.850  1.00  0.00     0.014 A 
ATOM     55  C   UNL     1       5.420  -0.872  -7.016  1.00  0.00     0.010 A 
ATOM     56  C   UNL     1       4.047   1.000  -7.723  1.00  0.00     0.010 A 
ATOM     57  C   UNL     1       4.361  -0.368  -7.788  1.00  0.00    -0.014 A 
BRANCH  57  58
ATOM     58  C   UNL     1       3.532  -1.266  -8.631  1.00  0.00     0.031 A 
ATOM     59  C   UNL     1       3.542  -1.103 -10.123  1.00  0.00     0.074 A 
ATOM     60  C   UNL     1       2.707  -2.156  -8.041  1.00  0.00     0.049 A 
ATOM     61  N   UNL     1       2.793  -1.685 -11.022  1.00  0.00    -0.248 NA
ATOM     62  C   UNL     1       4.504  -0.136 -10.671  1.00  0.00     0.031 C 
ATOM     63  C   UNL     1       2.594  -2.375  -6.596  1.00  0.00     0.029 A 
ATOM     64  N   UNL     1       1.792  -3.028  -8.576  1.00  0.00    -0.354 N 
ATOM     65  C   UNL     1       3.174  -1.137 -12.241  1.00  0.00     0.074 A 
ATOM     66  C   UNL     1       4.197  -0.152 -11.960  1.00  0.00     0.031 C 
ATOM     67  C   UNL     1       1.669  -3.320  -6.363  1.00  0.00     0.029 A 
ATOM     68  C   UNL     1       1.086  -3.741  -7.632  1.00  0.00     0.049 A 
ATOM     69  H   UNL     1       1.653  -3.134  -9.545  1.00  0.00     0.167 HD
ATOM     70  C   UNL     1       2.716  -1.440 -13.480  1.00  0.00     0.034 A 
ATOM     71  C   UNL     1       0.068  -4.615  -7.775  1.00  0.00     0.034 A 
ATOM     72  C   UNL     1       1.712  -2.441 -13.739  1.00  0.00     0.049 A 
ATOM     73  C   UNL     1      -0.423  -4.931  -9.167  1.00  0.00     0.074 A 
ATOM     74  C   UNL     1       1.215  -2.867 -14.959  1.00  0.00     0.029 A 
ATOM     75  N   UNL     1       1.049  -3.172 -12.762  1.00  0.00    -0.354 N 
ATOM     76  N   UNL     1      -0.016  -4.439 -10.315  1.00  0.00    -0.248 NA
ATOM     77  C   UNL     1      -1.499  -5.924  -9.288  1.00  0.00     0.031 C 
ATOM     78  C   UNL     1       0.212  -3.811 -14.717  1.00  0.00     0.029 A 
ATOM     79  C   UNL     1       0.132  -4.027 -13.351  1.00  0.00     0.049 A 
ATOM     80  H   UNL     1       1.207  -3.093 -11.794  1.00  0.00     0.167 HD
ATOM     81  C   UNL     1      -0.757  -5.096 -11.293  1.00  0.00     0.074 A 
ATOM     82  C   UNL     1      -1.632  -6.020 -10.603  1.00  0.00     0.031 C 
ATOM     83  C   UNL     1      -0.716  -4.954 -12.642  1.00  0.00     0.034 A 
BRANCH  70  84
ATOM     84  C   UNL     1       3.274  -0.656 -14.641  1.00  0.00     0.023 A 
ATOM     85  C   UNL     1       4.625  -0.750 -15.016  1.00  0.00     0.031 A 
ATOM     86  C   UNL     1       2.441   0.203 -15.379  1.00  0.00     0.131 A 
ATOM     87  C   UNL     1       5.117   0.048 -16.060  1.00  0.00     0.055 A 
ATOM     88  C   UNL     1       2.920   0.938 -16.465  1.00  0.00     0.041 A 
ATOM     89  F   UNL     1       1.147   0.348 -15.052  1.00  0.00    -0.206 F 
ATOM     90  C   UNL     1       4.268   0.872 -16.803  1.00  0.00     0.022 A 
BRANCH  87  91
ATOM     91  S   UNL     1       6.904   0.078 -16.360  1.00  0.00     0.124 S 
ATOM     92  O   UNL     1       7.405   0.621 -15.100  1.00  0.00    -0.237 OA
ATOM     93  O   UNL     1       7.207  -1.326 -16.616  1.00  0.00    -0.237 OA
ATOM     94  O   UNL     1       7.044   0.966 -17.513  1.00  0.00    -0.744 OA
ENDBRANCH  87  91
ENDBRANCH  70  84
BRANCH  71  95
ATOM     95  C   UNL     1      -0.581  -5.238  -6.583  1.00  0.00     0.023 A 
ATOM     96  C   UNL     1      -0.554  -6.628  -6.387  1.00  0.00     0.031 A 
ATOM     97  C   UNL     1      -1.302  -4.460  -5.659  1.00  0.00     0.131 A 
ATOM     98  C   UNL     1      -1.286  -7.203  -5.335  1.00  0.00     0.055 A 
ATOM     99  C   UNL     1      -1.979  -5.031  -4.580  1.00  0.00     0.041 A 
ATOM    100  F   UNL     1      -1.360  -3.125  -5.794  1.00  0.00    -0.206 F 
ATOM    101  C   UNL     1      -1.988  -6.413  -4.424  1.00  0.00     0.022 A 
BRANCH  98 102
ATOM    102  S   UNL     1      -1.405  -9.012  -5.250  1.00  0.00     0.124 S 
ATOM    103  O   UNL     1      -1.904  -9.340  -6.580  1.00  0.00    -0.237 OA
ATOM    104  O   UNL     1      -0.025  -9.392  -4.969  1.00  0.00    -0.237 OA
ATOM    105  O   UNL     1      -2.348  -9.238  -4.156  1.00  0.00    -0.744 OA
ENDBRANCH  98 102
ENDBRANCH  71  95
BRANCH  83 106
ATOM    106  C   UNL     1      -1.586  -5.873 -13.459  1.00  0.00     0.023 A 
ATOM    107  C   UNL     1      -2.985  -5.749 -13.480  1.00  0.00     0.031 A 
ATOM    108  C   UNL     1      -0.994  -6.877 -14.247  1.00  0.00     0.131 A 
ATOM    109  C   UNL     1      -3.751  -6.640 -14.247  1.00  0.00     0.055 A 
ATOM    110  C   UNL     1      -1.757  -7.727 -15.046  1.00  0.00     0.041 A 
ATOM    111  F   UNL     1       0.339  -7.035 -14.261  1.00  0.00    -0.206 F 
ATOM    112  C   UNL     1      -3.144  -7.616 -15.043  1.00  0.00     0.022 A 
BRANCH 109 113
ATOM    113  S   UNL     1      -5.559  -6.541 -14.153  1.00  0.00     0.124 S 
ATOM    114  O   UNL     1      -5.806  -6.825 -12.743  1.00  0.00    -0.237 OA
ATOM    115  O   UNL     1      -5.821  -5.171 -14.583  1.00  0.00    -0.237 OA
ATOM    116  O   UNL     1      -6.008  -7.576 -15.083  1.00  0.00    -0.744 OA
ENDBRANCH 109 113
ENDBRANCH  83 106
ENDBRANCH  57  58
ENDBRANCH  49  52
ENDBRANCH  47  48
ENDBRANCH  46  47
ENDBRANCH  45  46
ENDBRANCH  44  45
ENDBRANCH  43  44
ENDBRANCH   1  43
TORSDOF 22
