REMARK SMILES COc1ccc(-c2csc(NC(=O)[C@H](CC(=O)NCCCCCCNC(=O)c3ccc(-c4c5nc(c(-c6cc(S(=O)(=O)[O-])ccc6F)c6ccc([nH]6)c(-c6cc(S(=O)(=O)[O-])ccc6F)c6nc(c(-c7cc(S(=O)(=O)[O-])ccc7F)c7ccc4[nH]7)C=C6)C=C5)cc3)[NH+]3CCCCC3)n2)cc1
REMARK SMILES IDX 20 1 19 2 18 3 16 4 17 5 15 7 14 8 12 9 11 10 13 12 10 13
REMARK SMILES IDX 7 14 8 15 97 16 9 17 6 18 3 19 4 20 99 21 5 22 98 23 2 24
REMARK SMILES IDX 1 25 91 26 92 27 96 28 93 30 95 31 94 32 21 33 22 34 23 35
REMARK SMILES IDX 24 36 25 37 26 38 27 40 28 41 29 42 90 43 30 44 89 45 31 46
REMARK SMILES IDX 32 47 33 48 83 49 34 50 88 51 82 52 84 53 35 54 87 55 81 56
REMARK SMILES IDX 80 57 36 59 68 60 48 61 67 62 49 63 52 64 66 65 85 66 50 67
REMARK SMILES IDX 51 68 65 70 86 71 53 72 37 73 38 74 46 75 39 76 45 77 47 78
REMARK SMILES IDX 44 79 40 80 41 81 42 82 43 83 69 84 70 85 78 86 71 87 77 88
REMARK SMILES IDX 79 89 76 90 72 91 73 92 74 93 75 94 54 95 55 96 63 97 56 98
REMARK SMILES IDX 62 99 64 100 61 101 57 102 58 103 59 104 60 105
REMARK H PARENT 18 6 11 11 91 29 25 39 84 58 52 69
REMARK Flexibility Score: inf
ROOT
ATOM      1  C   UNL     1       1.242   3.540   6.730  1.00  0.00     0.021 C 
ENDROOT
BRANCH   1   2
ATOM      2  C   UNL     1       2.740   3.343   6.932  1.00  0.00     0.116 C 
BRANCH   2   3
ATOM      3  N   UNL     1       3.788   4.261   6.597  1.00  0.00    -0.356 N 
ATOM      4  C   UNL     1       4.788   4.763   7.381  1.00  0.00     0.226 C 
ATOM      5  O   UNL     1       5.778   5.213   6.788  1.00  0.00    -0.275 OA
ATOM      6  H   UNL     1       3.788   4.576   5.665  1.00  0.00     0.163 HD
BRANCH   4   7
ATOM      7  C   UNL     1       4.757   4.887   8.905  1.00  0.00     0.175 C 
BRANCH   7   8
ATOM      8  C   UNL     1       3.546   4.605   9.784  1.00  0.00     0.284 C 
BRANCH   8   9
ATOM      9  C   UNL     1       2.150   5.242   9.373  1.00  0.00     0.285 C 
ATOM     10  N   UNL     1       1.884   6.286   8.500  1.00  0.00    -0.297 N 
ATOM     11  H   UNL     1       1.125   6.853   8.768  1.00  0.00     0.172 HD
ATOM     12  O   UNL     1       1.130   4.861   9.979  1.00  0.00    -0.268 OA
BRANCH  10  13
ATOM     13  C   UNL     1       2.494   6.676   7.320  1.00  0.00     0.190 A 
ATOM     14  C   UNL     1       2.916   6.955   5.143  1.00  0.00     0.084 A 
ATOM     15  C   UNL     1       3.930   7.724   5.685  1.00  0.00     0.097 A 
ATOM     16  N   UNL     1       2.024   6.459   6.098  1.00  0.00    -0.220 NA
ATOM     17  S   UNL     1       3.735   7.851   7.395  1.00  0.00    -0.105 S 
BRANCH  14  18
ATOM     18  C   UNL     1       2.830   6.757   3.685  1.00  0.00     0.001 A 
ATOM     19  C   UNL     1       3.126   6.689   0.854  1.00  0.00     0.118 A 
ATOM     20  C   UNL     1       3.499   5.595   1.636  1.00  0.00     0.047 A 
ATOM     21  C   UNL     1       2.527   7.780   1.478  1.00  0.00     0.047 A 
ATOM     22  C   UNL     1       3.361   5.628   3.039  1.00  0.00     0.014 A 
ATOM     23  C   UNL     1       2.378   7.810   2.877  1.00  0.00     0.014 A 
BRANCH  19  24
ATOM     24  O   UNL     1       3.365   6.577  -0.490  1.00  0.00    -0.497 OA
ATOM     25  C   UNL     1       3.552   7.800  -1.202  1.00  0.00     0.278 C 
ENDBRANCH  19  24
ENDBRANCH  14  18
ENDBRANCH  10  13
ENDBRANCH   8   9
BRANCH   8  26
ATOM     26  N   UNL     1       3.600   3.154  10.321  1.00  0.00    -0.324 N 
ATOM     27  C   UNL     1       2.673   2.780  11.397  1.00  0.00     0.262 C 
ATOM     28  C   UNL     1       3.791   2.043   9.378  1.00  0.00     0.262 C 
ATOM     29  H   UNL     1       4.513   3.279  10.758  1.00  0.00     0.348 HD
ATOM     30  C   UNL     1       3.040   1.414  12.033  1.00  0.00     0.062 C 
ATOM     31  C   UNL     1       4.205   0.707   9.974  1.00  0.00     0.062 C 
ATOM     32  C   UNL     1       3.172   0.294  11.003  1.00  0.00     0.012 C 
ENDBRANCH   8  26
ENDBRANCH   7   8
ENDBRANCH   4   7
ENDBRANCH   2   3
ENDBRANCH   1   2
BRANCH   1  33
ATOM     33  C   UNL     1       0.635   3.384   5.357  1.00  0.00     0.002 C 
BRANCH  33  34
ATOM     34  C   UNL     1       1.181   2.231   4.532  1.00  0.00     0.002 C 
BRANCH  34  35
ATOM     35  C   UNL     1       1.207   0.856   5.209  1.00  0.00     0.021 C 
BRANCH  35  36
ATOM     36  C   UNL     1      -0.097   0.385   5.838  1.00  0.00     0.116 C 
BRANCH  36  37
ATOM     37  N   UNL     1      -1.177   0.324   4.873  1.00  0.00    -0.352 N 
ATOM     38  C   UNL     1      -1.850  -0.763   4.389  1.00  0.00     0.251 C 
ATOM     39  H   UNL     1      -1.468   1.193   4.513  1.00  0.00     0.163 HD
ATOM     40  O   UNL     1      -2.573  -0.629   3.393  1.00  0.00    -0.269 OA
BRANCH  38  41
ATOM     41  C   UNL     1      -1.706  -2.089   5.025  1.00  0.00     0.039 A 
ATOM     42  C   UNL     1      -1.595  -3.219   4.211  1.00  0.00     0.014 A 
ATOM     43  C   UNL     1      -1.715  -2.233   6.416  1.00  0.00     0.014 A 
ATOM     44  C   UNL     1      -1.448  -4.482   4.788  1.00  0.00     0.010 A 
ATOM     45  C   UNL     1      -1.489  -3.483   6.990  1.00  0.00     0.010 A 
ATOM     46  C   UNL     1      -1.366  -4.625   6.183  1.00  0.00    -0.014 A 
BRANCH  46  47
ATOM     47  C   UNL     1      -1.183  -5.962   6.810  1.00  0.00     0.031 A 
ATOM     48  C   UNL     1      -2.252  -6.529   7.706  1.00  0.00     0.074 A 
ATOM     49  C   UNL     1      -0.039  -6.647   6.607  1.00  0.00     0.049 A 
ATOM     50  N   UNL     1      -2.254  -7.643   8.393  1.00  0.00    -0.248 NA
ATOM     51  C   UNL     1      -3.469  -5.720   7.873  1.00  0.00     0.031 C 
ATOM     52  C   UNL     1       1.083  -6.191   5.784  1.00  0.00     0.029 A 
ATOM     53  N   UNL     1       0.373  -7.868   7.081  1.00  0.00    -0.354 N 
ATOM     54  C   UNL     1      -3.463  -7.663   9.082  1.00  0.00     0.074 A 
ATOM     55  C   UNL     1      -4.137  -6.418   8.778  1.00  0.00     0.031 C 
ATOM     56  C   UNL     1       2.042  -7.131   5.789  1.00  0.00     0.029 A 
ATOM     57  C   UNL     1       1.630  -8.232   6.654  1.00  0.00     0.049 A 
ATOM     58  H   UNL     1      -0.178  -8.431   7.670  1.00  0.00     0.167 HD
ATOM     59  C   UNL     1      -3.974  -8.639   9.874  1.00  0.00     0.034 A 
ATOM     60  C   UNL     1       2.373  -9.321   6.938  1.00  0.00     0.034 A 
ATOM     61  C   UNL     1      -3.293  -9.879  10.158  1.00  0.00     0.049 A 
ATOM     62  C   UNL     1       1.799 -10.377   7.850  1.00  0.00     0.074 A 
ATOM     63  C   UNL     1      -3.737 -10.954  10.909  1.00  0.00     0.029 A 
ATOM     64  N   UNL     1      -2.018 -10.209   9.714  1.00  0.00    -0.354 N 
ATOM     65  N   UNL     1       0.635 -10.401   8.458  1.00  0.00    -0.248 NA
ATOM     66  C   UNL     1       2.633 -11.559   8.102  1.00  0.00     0.031 C 
ATOM     67  C   UNL     1      -2.706 -11.896  10.982  1.00  0.00     0.029 A 
ATOM     68  C   UNL     1      -1.650 -11.454  10.202  1.00  0.00     0.049 A 
ATOM     69  H   UNL     1      -1.458  -9.641   9.136  1.00  0.00     0.167 HD
ATOM     70  C   UNL     1       0.585 -11.618   9.134  1.00  0.00     0.074 A 
ATOM     71  C   UNL     1       1.828 -12.302   8.847  1.00  0.00     0.031 C 
ATOM     72  C   UNL     1      -0.403 -12.126   9.914  1.00  0.00     0.034 A 
BRANCH  59  73
ATOM     73  C   UNL     1      -5.322  -8.386  10.509  1.00  0.00     0.023 A 
ATOM     74  C   UNL     1      -6.481  -8.191   9.737  1.00  0.00     0.031 A 
ATOM     75  C   UNL     1      -5.449  -8.316  11.909  1.00  0.00     0.131 A 
ATOM     76  C   UNL     1      -7.693  -7.856  10.361  1.00  0.00     0.055 A 
ATOM     77  C   UNL     1      -6.676  -8.070  12.527  1.00  0.00     0.041 A 
ATOM     78  F   UNL     1      -4.376  -8.472  12.701  1.00  0.00    -0.206 F 
ATOM     79  C   UNL     1      -7.805  -7.822  11.752  1.00  0.00     0.022 A 
BRANCH  76  80
ATOM     80  S   UNL     1      -9.079  -7.315   9.324  1.00  0.00     0.124 S 
ATOM     81  O   UNL     1      -8.498  -6.168   8.630  1.00  0.00    -0.237 OA
ATOM     82  O   UNL     1      -9.340  -8.493   8.505  1.00  0.00    -0.237 OA
ATOM     83  O   UNL     1     -10.123  -6.983  10.293  1.00  0.00    -0.744 OA
ENDBRANCH  76  80
ENDBRANCH  59  73
BRANCH  60  84
ATOM     84  C   UNL     1       3.745  -9.471   6.369  1.00  0.00     0.023 A 
ATOM     85  C   UNL     1       4.058 -10.527   5.498  1.00  0.00     0.031 A 
ATOM     86  C   UNL     1       4.778  -8.587   6.729  1.00  0.00     0.131 A 
ATOM     87  C   UNL     1       5.379 -10.703   5.057  1.00  0.00     0.055 A 
ATOM     88  C   UNL     1       6.078  -8.731   6.239  1.00  0.00     0.041 A 
ATOM     89  F   UNL     1       4.535  -7.558   7.557  1.00  0.00    -0.206 F 
ATOM     90  C   UNL     1       6.388  -9.804   5.410  1.00  0.00     0.022 A 
BRANCH  87  91
ATOM     91  S   UNL     1       5.783 -12.186   4.093  1.00  0.00     0.124 S 
ATOM     92  O   UNL     1       5.373 -13.250   5.002  1.00  0.00    -0.237 OA
ATOM     93  O   UNL     1       4.960 -12.006   2.902  1.00  0.00    -0.237 OA
ATOM     94  O   UNL     1       7.223 -12.069   3.877  1.00  0.00    -0.744 OA
ENDBRANCH  87  91
ENDBRANCH  60  84
BRANCH  72  95
ATOM     95  C   UNL     1      -0.201 -13.519  10.465  1.00  0.00     0.023 A 
ATOM     96  C   UNL     1       0.813 -13.814  11.393  1.00  0.00     0.031 A 
ATOM     97  C   UNL     1      -1.035 -14.570  10.043  1.00  0.00     0.131 A 
ATOM     98  C   UNL     1       1.004 -15.136  11.823  1.00  0.00     0.055 A 
ATOM     99  C   UNL     1      -0.884 -15.870  10.526  1.00  0.00     0.041 A 
ATOM    100  F   UNL     1      -2.018 -14.349   9.154  1.00  0.00    -0.206 F 
ATOM    101  C   UNL     1       0.149 -16.162  11.411  1.00  0.00     0.022 A 
BRANCH  98 102
ATOM    102  S   UNL     1       2.449 -15.519  12.850  1.00  0.00     0.124 S 
ATOM    103  O   UNL     1       3.550 -15.065  12.006  1.00  0.00    -0.237 OA
ATOM    104  O   UNL     1       2.198 -14.728  14.050  1.00  0.00    -0.237 OA
ATOM    105  O   UNL     1       2.366 -16.967  13.034  1.00  0.00    -0.744 OA
ENDBRANCH  98 102
ENDBRANCH  72  95
ENDBRANCH  46  47
ENDBRANCH  38  41
ENDBRANCH  36  37
ENDBRANCH  35  36
ENDBRANCH  34  35
ENDBRANCH  33  34
ENDBRANCH   1  33
TORSDOF 22
