REMARK SMILES CCCC(=O)Nc1cccc(C(=O)N[C@@H](C(=O)NCCCCCCNC(=O)c2ccc(-c3c4nc(c(-c5cc(S(=O)(=O)[O-])ccc5F)c5ccc([nH]5)c(-c5cc(S(=O)(=O)[O-])ccc5F)c5nc(c(-c6cc(S(=O)(=O)[O-])ccc6F)c6ccc3[nH]6)C=C5)C=C4)cc2)C2=C(C)N=N[C@@H]2C)c1
REMARK SMILES IDX 20 1 19 2 18 3 16 4 17 5 15 7 14 8 12 9 13 10 11 12 7 13
REMARK SMILES IDX 8 14 98 15 9 16 10 17 6 18 4 19 5 20 3 22 2 23 1 24 91 25
REMARK SMILES IDX 92 26 96 27 93 28 94 29 95 30 97 31 21 32 22 33 23 34 24 35
REMARK SMILES IDX 25 36 26 37 27 39 28 40 29 41 90 42 30 43 89 44 31 45 32 46
REMARK SMILES IDX 33 47 83 48 34 49 88 50 82 51 84 52 35 53 87 54 81 55 80 56
REMARK SMILES IDX 36 58 68 59 48 60 67 61 49 62 52 63 66 64 85 65 50 66 51 67
REMARK SMILES IDX 65 69 86 70 53 71 37 72 38 73 46 74 39 75 45 76 47 77 44 78
REMARK SMILES IDX 40 79 41 80 42 81 43 82 69 83 70 84 78 85 71 86 77 87 79 88
REMARK SMILES IDX 76 89 72 90 73 91 74 92 75 93 54 94 55 95 63 96 56 97 62 98
REMARK SMILES IDX 64 99 61 100 57 101 58 102 59 103 60 104
REMARK H PARENT 18 6 14 11 6 21 25 38 84 57 52 68
REMARK Flexibility Score: inf
ROOT
ATOM      1  C   UNL     1      -1.636   1.473  -3.578  1.00  0.00     0.021 C 
ENDROOT
BRANCH   1   2
ATOM      2  C   UNL     1      -1.664   1.197  -2.082  1.00  0.00     0.116 C 
BRANCH   2   3
ATOM      3  N   UNL     1      -2.379  -0.018  -1.786  1.00  0.00    -0.354 N 
ATOM      4  C   UNL     1      -1.919  -1.213  -1.321  1.00  0.00     0.247 C 
ATOM      5  O   UNL     1      -2.780  -2.072  -1.102  1.00  0.00    -0.272 OA
ATOM      6  H   UNL     1      -3.350   0.021  -1.945  1.00  0.00     0.163 HD
BRANCH   4   7
ATOM      7  C   UNL     1      -0.412  -1.409  -0.931  1.00  0.00     0.202 C 
BRANCH   7   8
ATOM      8  N   UNL     1       0.507  -0.995  -2.007  1.00  0.00    -0.337 N 
ATOM      9  C   UNL     1       1.426   0.002  -2.262  1.00  0.00     0.252 C 
ATOM     10  O   UNL     1       1.880   0.014  -3.409  1.00  0.00    -0.269 OA
ATOM     11  H   UNL     1       0.448  -1.614  -2.771  1.00  0.00     0.165 HD
BRANCH   9  12
ATOM     12  C   UNL     1       1.922   1.053  -1.310  1.00  0.00     0.041 A 
ATOM     13  C   UNL     1       1.961   2.225   0.820  1.00  0.00     0.041 A 
ATOM     14  C   UNL     1       3.087   2.948   0.458  1.00  0.00     0.026 A 
ATOM     15  C   UNL     1       1.347   1.345  -0.077  1.00  0.00     0.040 A 
ATOM     16  C   UNL     1       3.643   2.726  -0.798  1.00  0.00     0.003 A 
ATOM     17  C   UNL     1       3.074   1.779  -1.666  1.00  0.00     0.014 A 
BRANCH  13  18
ATOM     18  N   UNL     1       1.435   2.326   2.113  1.00  0.00    -0.326 N 
ATOM     19  C   UNL     1       1.272   1.228   2.926  1.00  0.00     0.224 C 
ATOM     20  O   UNL     1       0.285   1.128   3.653  1.00  0.00    -0.275 OA
ATOM     21  H   UNL     1       1.174   3.213   2.453  1.00  0.00     0.169 HD
BRANCH  19  22
ATOM     22  C   UNL     1       2.393   0.188   2.931  1.00  0.00     0.100 C 
BRANCH  22  23
ATOM     23  C   UNL     1       2.096  -1.080   2.138  1.00  0.00     0.006 C 
ATOM     24  C   UNL     1       3.000  -1.332   0.939  1.00  0.00     0.004 C 
ENDBRANCH  22  23
ENDBRANCH  19  22
ENDBRANCH  13  18
ENDBRANCH   9  12
ENDBRANCH   7   8
BRANCH   7  25
ATOM     25  C   UNL     1      -0.214  -2.858  -0.569  1.00  0.00     0.011 C 
ATOM     26  C   UNL     1      -0.384  -3.462   0.622  1.00  0.00     0.064 C 
ATOM     27  C   UNL     1      -0.128  -3.989  -1.546  1.00  0.00     0.156 C 
ATOM     28  C   UNL     1      -0.778  -2.895   1.946  1.00  0.00     0.069 C 
ATOM     29  N   UNL     1      -0.331  -4.830   0.534  1.00  0.00    -0.160 NA
ATOM     30  N   UNL     1      -0.230  -5.188  -0.667  1.00  0.00    -0.181 NA
ATOM     31  C   UNL     1       1.167  -4.130  -2.329  1.00  0.00     0.040 C 
ENDBRANCH   7  25
ENDBRANCH   4   7
ENDBRANCH   2   3
ENDBRANCH   1   2
BRANCH   1  32
ATOM     32  C   UNL     1      -2.930   2.130  -4.058  1.00  0.00     0.002 C 
BRANCH  32  33
ATOM     33  C   UNL     1      -3.229   3.474  -3.381  1.00  0.00     0.002 C 
BRANCH  33  34
ATOM     34  C   UNL     1      -2.125   4.524  -3.545  1.00  0.00     0.021 C 
BRANCH  34  35
ATOM     35  C   UNL     1      -1.824   4.869  -4.999  1.00  0.00     0.116 C 
BRANCH  35  36
ATOM     36  N   UNL     1      -3.023   5.323  -5.688  1.00  0.00    -0.352 N 
ATOM     37  C   UNL     1      -3.251   6.511  -6.327  1.00  0.00     0.251 C 
ATOM     38  H   UNL     1      -3.774   4.687  -5.695  1.00  0.00     0.163 HD
ATOM     39  O   UNL     1      -4.404   6.852  -6.595  1.00  0.00    -0.269 OA
BRANCH  37  40
ATOM     40  C   UNL     1      -2.108   7.371  -6.683  1.00  0.00     0.039 A 
ATOM     41  C   UNL     1      -2.198   8.747  -6.473  1.00  0.00     0.014 A 
ATOM     42  C   UNL     1      -0.948   6.808  -7.224  1.00  0.00     0.014 A 
ATOM     43  C   UNL     1      -1.100   9.556  -6.765  1.00  0.00     0.010 A 
ATOM     44  C   UNL     1       0.170   7.604  -7.437  1.00  0.00     0.010 A 
ATOM     45  C   UNL     1       0.102   8.988  -7.219  1.00  0.00    -0.014 A 
BRANCH  45  46
ATOM     46  C   UNL     1       1.296   9.827  -7.489  1.00  0.00     0.031 A 
ATOM     47  C   UNL     1       1.850   9.911  -8.886  1.00  0.00     0.074 A 
ATOM     48  C   UNL     1       1.907  10.461  -6.470  1.00  0.00     0.049 A 
ATOM     49  N   UNL     1       2.923  10.525  -9.313  1.00  0.00    -0.248 NA
ATOM     50  C   UNL     1       1.117   9.185  -9.935  1.00  0.00     0.031 C 
ATOM     51  C   UNL     1       1.474  10.425  -5.071  1.00  0.00     0.029 A 
ATOM     52  N   UNL     1       3.025  11.257  -6.449  1.00  0.00    -0.354 N 
ATOM     53  C   UNL     1       3.001  10.249 -10.674  1.00  0.00     0.074 A 
ATOM     54  C   UNL     1       1.901   9.363 -10.987  1.00  0.00     0.031 C 
ATOM     55  C   UNL     1       2.297  11.190  -4.336  1.00  0.00     0.029 A 
ATOM     56  C   UNL     1       3.348  11.725  -5.195  1.00  0.00     0.049 A 
ATOM     57  H   UNL     1       3.547  11.473  -7.255  1.00  0.00     0.167 HD
ATOM     58  C   UNL     1       3.896  10.712 -11.580  1.00  0.00     0.034 A 
ATOM     59  C   UNL     1       4.383  12.485  -4.785  1.00  0.00     0.034 A 
ATOM     60  C   UNL     1       4.977  11.607 -11.249  1.00  0.00     0.049 A 
ATOM     61  C   UNL     1       5.387  12.954  -5.810  1.00  0.00     0.074 A 
ATOM     62  C   UNL     1       5.907  12.181 -12.097  1.00  0.00     0.029 A 
ATOM     63  N   UNL     1       5.281  12.050  -9.969  1.00  0.00    -0.354 N 
ATOM     64  N   UNL     1       5.417  12.726  -7.103  1.00  0.00    -0.248 NA
ATOM     65  C   UNL     1       6.490  13.791  -5.322  1.00  0.00     0.031 C 
ATOM     66  C   UNL     1       6.820  12.903 -11.322  1.00  0.00     0.029 A 
ATOM     67  C   UNL     1       6.406  12.859 -10.000  1.00  0.00     0.049 A 
ATOM     68  H   UNL     1       4.771  11.823  -9.157  1.00  0.00     0.167 HD
ATOM     69  C   UNL     1       6.519  13.427  -7.586  1.00  0.00     0.074 A 
ATOM     70  C   UNL     1       7.116  14.095  -6.449  1.00  0.00     0.031 C 
ATOM     71  C   UNL     1       6.992  13.517  -8.856  1.00  0.00     0.034 A 
BRANCH  58  72
ATOM     72  C   UNL     1       3.759  10.236 -13.007  1.00  0.00     0.023 A 
ATOM     73  C   UNL     1       2.624  10.530 -13.783  1.00  0.00     0.031 A 
ATOM     74  C   UNL     1       4.781   9.472 -13.600  1.00  0.00     0.131 A 
ATOM     75  C   UNL     1       2.510  10.011 -15.081  1.00  0.00     0.055 A 
ATOM     76  C   UNL     1       4.697   9.029 -14.921  1.00  0.00     0.041 A 
ATOM     77  F   UNL     1       5.878   9.138 -12.902  1.00  0.00    -0.206 F 
ATOM     78  C   UNL     1       3.551   9.287 -15.666  1.00  0.00     0.022 A 
BRANCH  75  79
ATOM     79  S   UNL     1       0.925  10.183 -15.947  1.00  0.00     0.124 S 
ATOM     80  O   UNL     1       0.014   9.499 -15.032  1.00  0.00    -0.237 OA
ATOM     81  O   UNL     1       0.771  11.630 -16.038  1.00  0.00    -0.237 OA
ATOM     82  O   UNL     1       1.152   9.497 -17.217  1.00  0.00    -0.744 OA
ENDBRANCH  75  79
ENDBRANCH  58  72
BRANCH  59  83
ATOM     83  C   UNL     1       4.541  12.846  -3.346  1.00  0.00     0.023 A 
ATOM     84  C   UNL     1       4.522  14.188  -2.932  1.00  0.00     0.031 A 
ATOM     85  C   UNL     1       4.780  11.861  -2.370  1.00  0.00     0.131 A 
ATOM     86  C   UNL     1       4.803  14.513  -1.597  1.00  0.00     0.055 A 
ATOM     87  C   UNL     1       4.993  12.187  -1.029  1.00  0.00     0.041 A 
ATOM     88  F   UNL     1       4.808  10.562  -2.707  1.00  0.00    -0.206 F 
ATOM     89  C   UNL     1       5.022  13.521  -0.639  1.00  0.00     0.022 A 
BRANCH  86  90
ATOM     90  S   UNL     1       4.996  16.262  -1.154  1.00  0.00     0.124 S 
ATOM     91  O   UNL     1       6.051  16.682  -2.068  1.00  0.00    -0.237 OA
ATOM     92  O   UNL     1       3.663  16.790  -1.423  1.00  0.00    -0.237 OA
ATOM     93  O   UNL     1       5.373  16.214   0.257  1.00  0.00    -0.744 OA
ENDBRANCH  86  90
ENDBRANCH  59  83
BRANCH  71  94
ATOM     94  C   UNL     1       8.181  14.418  -9.086  1.00  0.00     0.023 A 
ATOM     95  C   UNL     1       9.444  14.140  -8.536  1.00  0.00     0.031 A 
ATOM     96  C   UNL     1       8.043  15.579  -9.869  1.00  0.00     0.131 A 
ATOM     97  C   UNL     1      10.503  15.041  -8.727  1.00  0.00     0.055 A 
ATOM     98  C   UNL     1       9.117  16.435 -10.113  1.00  0.00     0.041 A 
ATOM     99  F   UNL     1       6.858  15.898 -10.416  1.00  0.00    -0.206 F 
ATOM    100  C   UNL     1      10.353  16.175  -9.529  1.00  0.00     0.022 A 
BRANCH  97 101
ATOM    101  S   UNL     1      12.054  14.763  -7.829  1.00  0.00     0.124 S 
ATOM    102  O   UNL     1      11.604  14.762  -6.441  1.00  0.00    -0.237 OA
ATOM    103  O   UNL     1      12.494  13.476  -8.356  1.00  0.00    -0.237 OA
ATOM    104  O   UNL     1      12.882  15.905  -8.213  1.00  0.00    -0.744 OA
ENDBRANCH  97 101
ENDBRANCH  71  94
ENDBRANCH  45  46
ENDBRANCH  37  40
ENDBRANCH  35  36
ENDBRANCH  34  35
ENDBRANCH  33  34
ENDBRANCH  32  33
ENDBRANCH   1  32
TORSDOF 22
