REMARK SMILES CCOc1ccc(-c2ccc(C(=O)NCCCCCCNC(=O)c3ccc(-c4c5nc(c(-c6cc(S(=O)(=O)[O-])ccc6F)c6ccc([nH]6)c(-c6cc(S(=O)(=O)[O-])ccc6F)c6nc(c(-c7cc(S(=O)(=O)[O-])ccc7F)c7ccc4[nH]7)C=C6)C=C5)cc3)cn2)c(C)c1
REMARK SMILES IDX 17 1 16 2 15 3 14 4 12 5 13 6 11 8 8 9 9 10 88 11 10 12
REMARK SMILES IDX 87 13 7 14 4 15 5 16 91 17 6 18 89 19 90 20 3 21 2 22 1 23
REMARK SMILES IDX 18 24 19 25 20 26 21 27 22 28 23 30 24 31 25 32 86 33 26 34
REMARK SMILES IDX 85 35 27 36 28 37 29 38 79 39 30 40 84 41 78 42 80 43 31 44
REMARK SMILES IDX 83 45 77 46 76 47 32 49 64 50 44 51 63 52 45 53 48 54 62 55
REMARK SMILES IDX 81 56 46 57 47 58 61 60 82 61 49 62 33 63 34 64 42 65 35 66
REMARK SMILES IDX 41 67 43 68 40 69 36 70 37 71 38 72 39 73 65 74 66 75 74 76
REMARK SMILES IDX 67 77 73 78 75 79 72 80 68 81 69 82 70 83 71 84 50 85 51 86
REMARK SMILES IDX 59 87 52 88 58 89 60 90 57 91 53 92 54 93 55 94 56 95
REMARK H PARENT 14 7 21 29 80 48 48 59
REMARK Flexibility Score: inf
ROOT
ATOM      1  C   UNL     1      13.458   4.890  -1.164  1.00  0.00     0.002 C 
ENDROOT
BRANCH   1   2
ATOM      2  C   UNL     1      11.932   4.716  -1.136  1.00  0.00     0.021 C 
BRANCH   2   3
ATOM      3  C   UNL     1      11.283   4.583  -2.515  1.00  0.00     0.116 C 
BRANCH   3   4
ATOM      4  N   UNL     1      11.515   3.266  -3.080  1.00  0.00    -0.352 N 
ATOM      5  C   UNL     1      10.665   2.233  -3.375  1.00  0.00     0.252 C 
ATOM      6  O   UNL     1      11.107   1.261  -3.986  1.00  0.00    -0.269 OA
ATOM      7  H   UNL     1      12.459   3.081  -3.291  1.00  0.00     0.163 HD
BRANCH   5   8
ATOM      8  C   UNL     1       9.225   2.258  -3.038  1.00  0.00     0.058 A 
ATOM      9  C   UNL     1       6.495   2.133  -2.640  1.00  0.00     0.070 A 
ATOM     10  C   UNL     1       7.290   2.791  -1.703  1.00  0.00     0.030 A 
ATOM     11  N   UNL     1       7.012   1.521  -3.730  1.00  0.00    -0.255 NA
ATOM     12  C   UNL     1       8.674   2.834  -1.896  1.00  0.00     0.018 A 
ATOM     13  C   UNL     1       8.357   1.592  -3.898  1.00  0.00     0.125 A 
BRANCH   9  14
ATOM     14  C   UNL     1       5.046   1.996  -2.463  1.00  0.00     0.003 A 
ATOM     15  C   UNL     1       2.303   1.619  -1.976  1.00  0.00     0.119 A 
ATOM     16  C   UNL     1       3.190   0.574  -1.755  1.00  0.00     0.047 A 
ATOM     17  C   UNL     1       2.757   2.828  -2.499  1.00  0.00     0.050 A 
ATOM     18  C   UNL     1       4.551   0.769  -1.982  1.00  0.00     0.014 A 
ATOM     19  C   UNL     1       4.126   3.027  -2.761  1.00  0.00    -0.038 A 
ATOM     20  C   UNL     1       4.550   4.346  -3.349  1.00  0.00     0.045 C 
BRANCH  15  21
ATOM     21  O   UNL     1       0.961   1.444  -1.781  1.00  0.00    -0.494 OA
BRANCH  21  22
ATOM     22  C   UNL     1       0.605   1.503  -0.393  1.00  0.00     0.226 C 
ATOM     23  C   UNL     1       0.560   0.115   0.228  1.00  0.00     0.049 C 
ENDBRANCH  21  22
ENDBRANCH  15  21
ENDBRANCH   9  14
ENDBRANCH   5   8
ENDBRANCH   3   4
ENDBRANCH   2   3
ENDBRANCH   1   2
BRANCH   1  24
ATOM     24  C   UNL     1      13.998   6.067  -1.996  1.00  0.00     0.002 C 
BRANCH  24  25
ATOM     25  C   UNL     1      13.322   7.420  -1.760  1.00  0.00     0.021 C 
BRANCH  25  26
ATOM     26  C   UNL     1      13.593   8.002  -0.377  1.00  0.00     0.116 C 
BRANCH  26  27
ATOM     27  N   UNL     1      14.493   9.144  -0.384  1.00  0.00    -0.352 N 
ATOM     28  C   UNL     1      14.991   9.888   0.677  1.00  0.00     0.251 C 
ATOM     29  H   UNL     1      14.795   9.434  -1.275  1.00  0.00     0.163 HD
ATOM     30  O   UNL     1      15.633  10.896   0.478  1.00  0.00    -0.269 OA
BRANCH  28  31
ATOM     31  C   UNL     1      14.818   9.377   2.063  1.00  0.00     0.039 A 
ATOM     32  C   UNL     1      15.945   9.376   2.897  1.00  0.00     0.014 A 
ATOM     33  C   UNL     1      13.640   8.764   2.482  1.00  0.00     0.014 A 
ATOM     34  C   UNL     1      15.954   8.587   4.046  1.00  0.00     0.010 A 
ATOM     35  C   UNL     1      13.676   7.911   3.566  1.00  0.00     0.010 A 
ATOM     36  C   UNL     1      14.850   7.781   4.315  1.00  0.00    -0.014 A 
BRANCH  36  37
ATOM     37  C   UNL     1      14.845   6.711   5.303  1.00  0.00     0.031 A 
ATOM     38  C   UNL     1      14.137   6.882   6.585  1.00  0.00     0.074 A 
ATOM     39  C   UNL     1      15.419   5.528   5.002  1.00  0.00     0.049 A 
ATOM     40  N   UNL     1      14.317   6.143   7.626  1.00  0.00    -0.248 NA
ATOM     41  C   UNL     1      13.207   7.980   6.820  1.00  0.00     0.031 C 
ATOM     42  C   UNL     1      15.268   4.258   5.704  1.00  0.00     0.029 A 
ATOM     43  N   UNL     1      16.492   5.325   4.139  1.00  0.00    -0.354 N 
ATOM     44  C   UNL     1      13.347   6.462   8.547  1.00  0.00     0.074 A 
ATOM     45  C   UNL     1      12.765   7.681   8.044  1.00  0.00     0.031 C 
ATOM     46  C   UNL     1      16.344   3.496   5.455  1.00  0.00     0.029 A 
ATOM     47  C   UNL     1      17.285   4.314   4.712  1.00  0.00     0.049 A 
ATOM     48  H   UNL     1      16.664   5.797   3.292  1.00  0.00     0.167 HD
ATOM     49  C   UNL     1      13.073   5.570   9.544  1.00  0.00     0.034 A 
ATOM     50  C   UNL     1      18.573   4.564   5.086  1.00  0.00     0.034 A 
ATOM     51  C   UNL     1      14.096   4.515   9.598  1.00  0.00     0.049 A 
ATOM     52  C   UNL     1      18.830   4.329   6.558  1.00  0.00     0.074 A 
ATOM     53  C   UNL     1      14.120   3.185   9.211  1.00  0.00     0.029 A 
ATOM     54  N   UNL     1      15.417   4.863   9.872  1.00  0.00    -0.354 N 
ATOM     55  N   UNL     1      17.898   4.268   7.470  1.00  0.00    -0.248 NA
ATOM     56  C   UNL     1      20.165   4.141   7.111  1.00  0.00     0.031 C 
ATOM     57  C   UNL     1      15.477   2.756   9.196  1.00  0.00     0.029 A 
ATOM     58  C   UNL     1      16.273   3.811   9.608  1.00  0.00     0.049 A 
ATOM     59  H   UNL     1      15.703   5.743  10.209  1.00  0.00     0.167 HD
ATOM     60  C   UNL     1      18.467   4.037   8.700  1.00  0.00     0.074 A 
ATOM     61  C   UNL     1      19.890   3.949   8.413  1.00  0.00     0.031 C 
ATOM     62  C   UNL     1      17.710   3.944   9.840  1.00  0.00     0.034 A 
BRANCH  49  63
ATOM     63  C   UNL     1      11.751   5.478  10.300  1.00  0.00     0.023 A 
ATOM     64  C   UNL     1      11.421   4.267  10.952  1.00  0.00     0.031 A 
ATOM     65  C   UNL     1      10.742   6.462  10.351  1.00  0.00     0.131 A 
ATOM     66  C   UNL     1      10.148   4.051  11.523  1.00  0.00     0.055 A 
ATOM     67  C   UNL     1       9.470   6.243  10.901  1.00  0.00     0.041 A 
ATOM     68  F   UNL     1      10.921   7.706   9.905  1.00  0.00    -0.206 F 
ATOM     69  C   UNL     1       9.161   5.029  11.481  1.00  0.00     0.022 A 
BRANCH  66  70
ATOM     70  S   UNL     1       9.775   2.454  12.300  1.00  0.00     0.124 S 
ATOM     71  O   UNL     1       9.956   1.522  11.192  1.00  0.00    -0.237 OA
ATOM     72  O   UNL     1      10.762   2.392  13.371  1.00  0.00    -0.237 OA
ATOM     73  O   UNL     1       8.391   2.612  12.749  1.00  0.00    -0.744 OA
ENDBRANCH  66  70
ENDBRANCH  49  63
BRANCH  50  74
ATOM     74  C   UNL     1      19.243   5.585   4.227  1.00  0.00     0.023 A 
ATOM     75  C   UNL     1      19.266   5.327   2.838  1.00  0.00     0.031 A 
ATOM     76  C   UNL     1      19.446   6.904   4.652  1.00  0.00     0.131 A 
ATOM     77  C   UNL     1      19.285   6.388   1.923  1.00  0.00     0.055 A 
ATOM     78  C   UNL     1      19.557   7.954   3.729  1.00  0.00     0.041 A 
ATOM     79  F   UNL     1      19.410   7.217   5.955  1.00  0.00    -0.206 F 
ATOM     80  C   UNL     1      19.424   7.705   2.361  1.00  0.00     0.022 A 
BRANCH  77  81
ATOM     81  S   UNL     1      18.812   6.046   0.198  1.00  0.00     0.124 S 
ATOM     82  O   UNL     1      20.091   5.681  -0.401  1.00  0.00    -0.237 OA
ATOM     83  O   UNL     1      17.841   4.961   0.339  1.00  0.00    -0.237 OA
ATOM     84  O   UNL     1      18.238   7.309  -0.257  1.00  0.00    -0.744 OA
ENDBRANCH  77  81
ENDBRANCH  50  74
BRANCH  62  85
ATOM     85  C   UNL     1      18.225   3.884  11.273  1.00  0.00     0.023 A 
ATOM     86  C   UNL     1      19.563   4.089  11.640  1.00  0.00     0.031 A 
ATOM     87  C   UNL     1      17.335   3.670  12.359  1.00  0.00     0.131 A 
ATOM     88  C   UNL     1      19.983   4.005  12.983  1.00  0.00     0.055 A 
ATOM     89  C   UNL     1      17.740   3.656  13.698  1.00  0.00     0.041 A 
ATOM     90  F   UNL     1      16.020   3.480  12.174  1.00  0.00    -0.206 F 
ATOM     91  C   UNL     1      19.077   3.809  14.019  1.00  0.00     0.022 A 
BRANCH  88  92
ATOM     92  S   UNL     1      21.758   4.116  13.337  1.00  0.00     0.124 S 
ATOM     93  O   UNL     1      22.275   2.934  12.653  1.00  0.00    -0.237 OA
ATOM     94  O   UNL     1      22.117   5.399  12.741  1.00  0.00    -0.237 OA
ATOM     95  O   UNL     1      21.825   4.068  14.796  1.00  0.00    -0.744 OA
ENDBRANCH  88  92
ENDBRANCH  62  85
ENDBRANCH  36  37
ENDBRANCH  28  31
ENDBRANCH  26  27
ENDBRANCH  25  26
ENDBRANCH  24  25
ENDBRANCH   1  24
TORSDOF 19
