REMARK SMILES C[NH+](C)Cc1noc(C[C@@](C)(C(=O)NCCCCCCNC(=O)c2ccc(-c3c4nc(c(-c5cc(S(=O)(=O)[O-])ccc5F)c5ccc([nH]5)c(-c5cc(S(=O)(=O)[O-])ccc5F)c5nc(c(-c6cc(S(=O)(=O)[O-])ccc6F)c6ccc3[nH]6)C=C5)C=C4)cc2)c2ccccc2)n1
REMARK SMILES IDX 17 1 16 2 15 3 14 4 12 5 13 6 10 8 11 9 9 10 8 11 5 12 6 13
REMARK SMILES IDX 93 14 7 15 4 16 2 17 1 18 3 19 87 21 88 22 92 23 89 24 91 25
REMARK SMILES IDX 90 26 18 27 19 28 20 29 21 30 22 31 23 33 24 34 25 35 86 36
REMARK SMILES IDX 26 37 85 38 27 39 28 40 29 41 79 42 30 43 84 44 78 45 80 46
REMARK SMILES IDX 31 47 83 48 77 49 76 50 32 52 64 53 44 54 63 55 45 56 48 57
REMARK SMILES IDX 62 58 81 59 46 60 47 61 61 63 82 64 49 65 33 66 34 67 42 68
REMARK SMILES IDX 35 69 41 70 43 71 40 72 36 73 37 74 38 75 39 76 65 77 66 78
REMARK SMILES IDX 74 79 67 80 73 81 75 82 72 83 68 84 69 85 70 86 71 87 50 88
REMARK SMILES IDX 51 89 59 90 52 91 58 92 60 93 57 94 53 95 54 96 55 97 56 98
REMARK H PARENT 14 7 2 20 21 32 80 51 48 62
REMARK Flexibility Score: inf
ROOT
ATOM      1  C   UNL     1      -4.460   6.651   4.356  1.00  0.00     0.002 C 
ENDROOT
BRANCH   1   2
ATOM      2  C   UNL     1      -3.616   6.183   3.165  1.00  0.00     0.021 C 
BRANCH   2   3
ATOM      3  C   UNL     1      -2.168   6.669   3.221  1.00  0.00     0.116 C 
BRANCH   3   4
ATOM      4  N   UNL     1      -1.433   5.944   4.240  1.00  0.00    -0.355 N 
ATOM      5  C   UNL     1      -0.463   4.991   4.194  1.00  0.00     0.230 C 
ATOM      6  O   UNL     1      -0.184   4.487   5.287  1.00  0.00    -0.274 OA
ATOM      7  H   UNL     1      -1.689   6.193   5.157  1.00  0.00     0.163 HD
BRANCH   5   8
ATOM      8  C   UNL     1       0.262   4.579   2.877  1.00  0.00     0.080 C 
ATOM      9  C   UNL     1       0.925   5.847   2.273  1.00  0.00     0.027 C 
BRANCH   8  10
ATOM     10  C   UNL     1      -0.794   4.000   1.895  1.00  0.00     0.122 C 
BRANCH  10  11
ATOM     11  C   UNL     1      -0.235   3.526   0.609  1.00  0.00     0.228 A 
ATOM     12  C   UNL     1       0.476   2.469  -1.049  1.00  0.00     0.226 A 
ATOM     13  N   UNL     1       0.658   3.752  -1.398  1.00  0.00    -0.056 NA
ATOM     14  N   UNL     1      -0.101   2.296   0.185  1.00  0.00    -0.190 NA
ATOM     15  O   UNL     1       0.167   4.459  -0.299  1.00  0.00    -0.339 OA
BRANCH  12  16
ATOM     16  C   UNL     1       0.903   1.338  -1.938  1.00  0.00     0.344 C 
BRANCH  16  17
ATOM     17  N   UNL     1       0.463  -0.021  -1.544  1.00  0.00    -0.333 N 
ATOM     18  C   UNL     1       1.026  -0.456  -0.267  1.00  0.00     0.332 C 
ATOM     19  C   UNL     1      -0.990  -0.165  -1.567  1.00  0.00     0.332 C 
ATOM     20  H   UNL     1       0.840  -0.648  -2.255  1.00  0.00     0.348 HD
ENDBRANCH  16  17
ENDBRANCH  12  16
ENDBRANCH  10  11
ENDBRANCH   8  10
BRANCH   8  21
ATOM     21  C   UNL     1       1.372   3.537   3.237  1.00  0.00    -0.032 A 
ATOM     22  C   UNL     1       1.129   2.149   3.219  1.00  0.00     0.005 A 
ATOM     23  C   UNL     1       2.652   3.953   3.654  1.00  0.00     0.005 A 
ATOM     24  C   UNL     1       2.132   1.227   3.533  1.00  0.00     0.000 A 
ATOM     25  C   UNL     1       3.653   3.031   3.975  1.00  0.00     0.000 A 
ATOM     26  C   UNL     1       3.396   1.667   3.904  1.00  0.00     0.000 A 
ENDBRANCH   8  21
ENDBRANCH   5   8
ENDBRANCH   3   4
ENDBRANCH   2   3
ENDBRANCH   1   2
BRANCH   1  27
ATOM     27  C   UNL     1      -4.499   8.171   4.552  1.00  0.00     0.002 C 
BRANCH  27  28
ATOM     28  C   UNL     1      -4.904   8.966   3.308  1.00  0.00     0.021 C 
BRANCH  28  29
ATOM     29  C   UNL     1      -6.282   8.609   2.763  1.00  0.00     0.116 C 
BRANCH  29  30
ATOM     30  N   UNL     1      -7.332   8.917   3.721  1.00  0.00    -0.352 N 
ATOM     31  C   UNL     1      -8.406   9.761   3.581  1.00  0.00     0.251 C 
ATOM     32  H   UNL     1      -7.263   8.458   4.589  1.00  0.00     0.163 HD
ATOM     33  O   UNL     1      -9.058  10.095   4.566  1.00  0.00    -0.269 OA
BRANCH  31  34
ATOM     34  C   UNL     1      -8.749  10.277   2.240  1.00  0.00     0.039 A 
ATOM     35  C   UNL     1      -8.995  11.641   2.076  1.00  0.00     0.014 A 
ATOM     36  C   UNL     1      -8.799   9.411   1.143  1.00  0.00     0.014 A 
ATOM     37  C   UNL     1      -9.220  12.150   0.796  1.00  0.00     0.010 A 
ATOM     38  C   UNL     1      -8.952   9.931  -0.138  1.00  0.00     0.010 A 
ATOM     39  C   UNL     1      -9.158  11.307  -0.326  1.00  0.00    -0.014 A 
BRANCH  39  40
ATOM     40  C   UNL     1      -9.285  11.841  -1.706  1.00  0.00     0.031 A 
ATOM     41  C   UNL     1     -10.432  11.408  -2.577  1.00  0.00     0.074 A 
ATOM     42  C   UNL     1      -8.327  12.652  -2.197  1.00  0.00     0.049 A 
ATOM     43  N   UNL     1     -10.656  11.668  -3.839  1.00  0.00    -0.248 NA
ATOM     44  C   UNL     1     -11.443  10.544  -1.951  1.00  0.00     0.031 C 
ATOM     45  C   UNL     1      -7.153  13.118  -1.455  1.00  0.00     0.029 A 
ATOM     46  N   UNL     1      -8.177  13.216  -3.440  1.00  0.00    -0.354 N 
ATOM     47  C   UNL     1     -11.828  10.993  -4.162  1.00  0.00     0.074 A 
ATOM     48  C   UNL     1     -12.231  10.264  -2.978  1.00  0.00     0.031 C 
ATOM     49  C   UNL     1      -6.416  13.910  -2.249  1.00  0.00     0.029 A 
ATOM     50  C   UNL     1      -7.029  13.963  -3.573  1.00  0.00     0.049 A 
ATOM     51  H   UNL     1      -8.829  13.097  -4.167  1.00  0.00     0.167 HD
ATOM     52  C   UNL     1     -12.513  10.998  -5.333  1.00  0.00     0.034 A 
ATOM     53  C   UNL     1      -6.514  14.598  -4.645  1.00  0.00     0.034 A 
ATOM     54  C   UNL     1     -12.096  11.734  -6.501  1.00  0.00     0.049 A 
ATOM     55  C   UNL     1      -7.265  14.542  -5.953  1.00  0.00     0.074 A 
ATOM     56  C   UNL     1     -12.742  11.853  -7.720  1.00  0.00     0.029 A 
ATOM     57  N   UNL     1     -10.920  12.467  -6.604  1.00  0.00    -0.354 N 
ATOM     58  N   UNL     1      -8.398  13.938  -6.229  1.00  0.00    -0.248 NA
ATOM     59  C   UNL     1      -6.670  15.255  -7.090  1.00  0.00     0.031 C 
ATOM     60  C   UNL     1     -11.921  12.587  -8.582  1.00  0.00     0.029 A 
ATOM     61  C   UNL     1     -10.802  13.003  -7.878  1.00  0.00     0.049 A 
ATOM     62  H   UNL     1     -10.265  12.588  -5.879  1.00  0.00     0.167 HD
ATOM     63  C   UNL     1      -8.664  14.225  -7.565  1.00  0.00     0.074 A 
ATOM     64  C   UNL     1      -7.583  15.067  -8.032  1.00  0.00     0.031 C 
ATOM     65  C   UNL     1      -9.710  13.831  -8.336  1.00  0.00     0.034 A 
BRANCH  52  66
ATOM     66  C   UNL     1     -13.765  10.156  -5.411  1.00  0.00     0.023 A 
ATOM     67  C   UNL     1     -14.877  10.406  -4.589  1.00  0.00     0.031 A 
ATOM     68  C   UNL     1     -13.841   9.075  -6.307  1.00  0.00     0.131 A 
ATOM     69  C   UNL     1     -15.984   9.545  -4.625  1.00  0.00     0.055 A 
ATOM     70  C   UNL     1     -14.980   8.272  -6.399  1.00  0.00     0.041 A 
ATOM     71  F   UNL     1     -12.803   8.771  -7.103  1.00  0.00    -0.206 F 
ATOM     72  C   UNL     1     -16.055   8.495  -5.543  1.00  0.00     0.022 A 
BRANCH  69  73
ATOM     73  S   UNL     1     -17.262   9.726  -3.351  1.00  0.00     0.124 S 
ATOM     74  O   UNL     1     -16.484   9.554  -2.126  1.00  0.00    -0.237 OA
ATOM     75  O   UNL     1     -17.770  11.069  -3.602  1.00  0.00    -0.237 OA
ATOM     76  O   UNL     1     -18.195   8.639  -3.644  1.00  0.00    -0.744 OA
ENDBRANCH  69  73
ENDBRANCH  52  66
BRANCH  53  77
ATOM     77  C   UNL     1      -5.212  15.319  -4.546  1.00  0.00     0.023 A 
ATOM     78  C   UNL     1      -5.136  16.706  -4.747  1.00  0.00     0.031 A 
ATOM     79  C   UNL     1      -4.015  14.624  -4.293  1.00  0.00     0.131 A 
ATOM     80  C   UNL     1      -3.887  17.346  -4.743  1.00  0.00     0.055 A 
ATOM     81  C   UNL     1      -2.782  15.275  -4.231  1.00  0.00     0.041 A 
ATOM     82  F   UNL     1      -4.029  13.297  -4.091  1.00  0.00    -0.206 F 
ATOM     83  C   UNL     1      -2.711  16.643  -4.471  1.00  0.00     0.022 A 
BRANCH  80  84
ATOM     84  S   UNL     1      -3.811  19.102  -5.194  1.00  0.00     0.124 S 
ATOM     85  O   UNL     1      -4.401  19.090  -6.527  1.00  0.00    -0.237 OA
ATOM     86  O   UNL     1      -4.612  19.719  -4.142  1.00  0.00    -0.237 OA
ATOM     87  O   UNL     1      -2.382  19.403  -5.145  1.00  0.00    -0.744 OA
ENDBRANCH  80  84
ENDBRANCH  53  77
BRANCH  65  88
ATOM     88  C   UNL     1      -9.752  14.344  -9.755  1.00  0.00     0.023 A 
ATOM     89  C   UNL     1      -8.802  13.952 -10.713  1.00  0.00     0.031 A 
ATOM     90  C   UNL     1     -10.763  15.238 -10.153  1.00  0.00     0.131 A 
ATOM     91  C   UNL     1      -8.852  14.490 -12.008  1.00  0.00     0.055 A 
ATOM     92  C   UNL     1     -10.845  15.720 -11.460  1.00  0.00     0.041 A 
ATOM     93  F   UNL     1     -11.694  15.650  -9.278  1.00  0.00    -0.206 F 
ATOM     94  C   UNL     1      -9.879  15.355 -12.393  1.00  0.00     0.022 A 
BRANCH  91  95
ATOM     95  S   UNL     1      -7.507  14.109 -13.164  1.00  0.00     0.124 S 
ATOM     96  O   UNL     1      -6.342  14.628 -12.454  1.00  0.00    -0.237 OA
ATOM     97  O   UNL     1      -7.591  12.656 -13.273  1.00  0.00    -0.237 OA
ATOM     98  O   UNL     1      -7.875  14.843 -14.373  1.00  0.00    -0.744 OA
ENDBRANCH  91  95
ENDBRANCH  65  88
ENDBRANCH  39  40
ENDBRANCH  31  34
ENDBRANCH  29  30
ENDBRANCH  28  29
ENDBRANCH  27  28
ENDBRANCH   1  27
TORSDOF 21
