REMARK SMILES CC(C)(C)c1cc(Nc2ccccc2C(=O)NCCCCCCNC(=O)c2ccc(-c3c4nc(c(-c5cc(S(=O)(=O)[O-])ccc5F)c5ccc([nH]5)c(-c5cc(S(=O)(=O)[O-])ccc5F)c5nc(c(-c6cc(S(=O)(=O)[O-])ccc6F)c6ccc3[nH]6)C=C5)C=C4)cc2)cc2c1OCC2(C)C
REMARK SMILES IDX 20 1 19 2 18 3 17 4 15 5 16 6 14 8 9 9 10 10 11 11 13 12
REMARK SMILES IDX 12 13 8 14 7 16 5 17 6 18 92 19 91 20 93 21 90 22 95 23
REMARK SMILES IDX 94 24 96 25 97 26 2 27 1 28 3 29 4 30 21 31 22 32 23 33
REMARK SMILES IDX 24 34 25 35 26 37 27 38 28 39 89 40 29 41 88 42 30 43 31 44
REMARK SMILES IDX 32 45 82 46 33 47 87 48 81 49 83 50 34 51 86 52 80 53 79 54
REMARK SMILES IDX 35 56 67 57 47 58 66 59 48 60 51 61 65 62 84 63 49 64 50 65
REMARK SMILES IDX 64 67 85 68 52 69 36 70 37 71 45 72 38 73 44 74 46 75 43 76
REMARK SMILES IDX 39 77 40 78 41 79 42 80 68 81 69 82 77 83 70 84 76 85 78 86
REMARK SMILES IDX 75 87 71 88 72 89 73 90 74 91 53 92 54 93 62 94 55 95 61 96
REMARK SMILES IDX 63 97 60 98 56 99 57 100 58 101 59 102
REMARK H PARENT 17 7 8 15 24 36 83 55 51 66
REMARK Flexibility Score: inf
ROOT
ATOM      1  C   UNL     1      -0.204   0.713   6.096  1.00  0.00     0.002 C 
ENDROOT
BRANCH   1   2
ATOM      2  C   UNL     1       0.100  -0.629   5.428  1.00  0.00     0.021 C 
BRANCH   2   3
ATOM      3  C   UNL     1       1.466  -1.289   5.609  1.00  0.00     0.116 C 
BRANCH   3   4
ATOM      4  N   UNL     1       1.913  -1.557   6.951  1.00  0.00    -0.352 N 
ATOM      5  C   UNL     1       2.725  -2.551   7.456  1.00  0.00     0.253 C 
ATOM      6  O   UNL     1       2.983  -2.454   8.663  1.00  0.00    -0.269 OA
ATOM      7  H   UNL     1       1.583  -0.920   7.625  1.00  0.00     0.163 HD
BRANCH   5   8
ATOM      8  C   UNL     1       3.277  -3.755   6.729  1.00  0.00     0.063 A 
ATOM      9  C   UNL     1       3.724  -3.891   5.398  1.00  0.00     0.051 A 
ATOM     10  C   UNL     1       4.324  -5.113   4.992  1.00  0.00     0.027 A 
ATOM     11  C   UNL     1       4.420  -6.215   5.834  1.00  0.00     0.002 A 
ATOM     12  C   UNL     1       3.399  -4.896   7.567  1.00  0.00     0.016 A 
ATOM     13  C   UNL     1       3.942  -6.109   7.127  1.00  0.00     0.001 A 
BRANCH   9  14
ATOM     14  N   UNL     1       3.574  -2.929   4.382  1.00  0.00    -0.355 N 
ATOM     15  H   UNL     1       4.088  -2.094   4.473  1.00  0.00     0.167 HD
BRANCH  14  16
ATOM     16  C   UNL     1       2.745  -3.059   3.239  1.00  0.00     0.039 A 
ATOM     17  C   UNL     1       1.572  -1.958   1.362  1.00  0.00     0.002 A 
ATOM     18  C   UNL     1       2.540  -1.950   2.394  1.00  0.00     0.034 A 
ATOM     19  C   UNL     1       0.895  -3.161   1.162  1.00  0.00     0.127 A 
ATOM     20  C   UNL     1       1.091  -4.264   1.966  1.00  0.00     0.006 A 
ATOM     21  O   UNL     1      -0.040  -3.373   0.184  1.00  0.00    -0.492 OA
ATOM     22  C   UNL     1       1.997  -4.222   3.008  1.00  0.00     0.034 A 
ATOM     23  C   UNL     1       0.233  -5.396   1.519  1.00  0.00     0.028 C 
ATOM     24  C   UNL     1      -0.602  -4.675   0.444  1.00  0.00     0.240 C 
ATOM     25  C   UNL     1       1.109  -6.498   0.916  1.00  0.00     0.020 C 
ATOM     26  C   UNL     1      -0.661  -5.955   2.628  1.00  0.00     0.020 C 
BRANCH  17  27
ATOM     27  C   UNL     1       1.161  -0.695   0.599  1.00  0.00    -0.009 C 
ATOM     28  C   UNL     1       1.333  -0.855  -0.922  1.00  0.00     0.016 C 
ATOM     29  C   UNL     1       1.986   0.548   0.995  1.00  0.00     0.016 C 
ATOM     30  C   UNL     1      -0.324  -0.427   0.937  1.00  0.00     0.016 C 
ENDBRANCH  17  27
ENDBRANCH  14  16
ENDBRANCH   9  14
ENDBRANCH   5   8
ENDBRANCH   3   4
ENDBRANCH   2   3
ENDBRANCH   1   2
BRANCH   1  31
ATOM     31  C   UNL     1       0.647   1.941   5.753  1.00  0.00     0.002 C 
BRANCH  31  32
ATOM     32  C   UNL     1       0.914   2.274   4.279  1.00  0.00     0.021 C 
BRANCH  32  33
ATOM     33  C   UNL     1      -0.279   2.366   3.315  1.00  0.00     0.116 C 
BRANCH  33  34
ATOM     34  N   UNL     1      -0.877   3.691   3.234  1.00  0.00    -0.352 N 
ATOM     35  C   UNL     1      -0.981   4.577   2.177  1.00  0.00     0.251 C 
ATOM     36  H   UNL     1      -1.276   4.011   4.076  1.00  0.00     0.163 HD
ATOM     37  O   UNL     1      -1.447   5.696   2.389  1.00  0.00    -0.269 OA
BRANCH  35  38
ATOM     38  C   UNL     1      -0.524   4.238   0.800  1.00  0.00     0.039 A 
ATOM     39  C   UNL     1      -0.925   3.073   0.157  1.00  0.00     0.014 A 
ATOM     40  C   UNL     1       0.262   5.148   0.086  1.00  0.00     0.014 A 
ATOM     41  C   UNL     1      -0.390   2.730  -1.101  1.00  0.00     0.010 A 
ATOM     42  C   UNL     1       0.730   4.837  -1.208  1.00  0.00     0.010 A 
ATOM     43  C   UNL     1       0.473   3.590  -1.803  1.00  0.00    -0.014 A 
BRANCH  43  44
ATOM     44  C   UNL     1       1.123   3.192  -3.110  1.00  0.00     0.031 A 
ATOM     45  C   UNL     1       2.629   3.306  -3.300  1.00  0.00     0.074 A 
ATOM     46  C   UNL     1       0.405   2.714  -4.152  1.00  0.00     0.049 A 
ATOM     47  N   UNL     1       3.347   3.147  -4.388  1.00  0.00    -0.248 NA
ATOM     48  C   UNL     1       3.429   3.655  -2.116  1.00  0.00     0.031 C 
ATOM     49  C   UNL     1      -1.040   2.502  -4.153  1.00  0.00     0.029 A 
ATOM     50  N   UNL     1       0.792   2.316  -5.418  1.00  0.00    -0.354 N 
ATOM     51  C   UNL     1       4.666   3.428  -4.032  1.00  0.00     0.074 A 
ATOM     52  C   UNL     1       4.643   3.793  -2.632  1.00  0.00     0.031 C 
ATOM     53  C   UNL     1      -1.410   1.973  -5.328  1.00  0.00     0.029 A 
ATOM     54  C   UNL     1      -0.251   1.900  -6.217  1.00  0.00     0.049 A 
ATOM     55  H   UNL     1       1.729   2.329  -5.721  1.00  0.00     0.167 HD
ATOM     56  C   UNL     1       5.794   3.374  -4.785  1.00  0.00     0.034 A 
ATOM     57  C   UNL     1      -0.303   1.536  -7.520  1.00  0.00     0.034 A 
ATOM     58  C   UNL     1       5.843   2.942  -6.162  1.00  0.00     0.049 A 
ATOM     59  C   UNL     1       0.955   1.522  -8.355  1.00  0.00     0.074 A 
ATOM     60  C   UNL     1       6.960   2.809  -6.971  1.00  0.00     0.029 A 
ATOM     61  N   UNL     1       4.754   2.559  -6.929  1.00  0.00    -0.354 N 
ATOM     62  N   UNL     1       2.188   1.782  -7.992  1.00  0.00    -0.248 NA
ATOM     63  C   UNL     1       0.818   1.173  -9.779  1.00  0.00     0.031 C 
ATOM     64  C   UNL     1       6.542   2.422  -8.243  1.00  0.00     0.029 A 
ATOM     65  C   UNL     1       5.173   2.224  -8.209  1.00  0.00     0.049 A 
ATOM     66  H   UNL     1       3.822   2.529  -6.613  1.00  0.00     0.167 HD
ATOM     67  C   UNL     1       2.971   1.605  -9.132  1.00  0.00     0.074 A 
ATOM     68  C   UNL     1       2.079   1.191 -10.192  1.00  0.00     0.031 C 
ATOM     69  C   UNL     1       4.308   1.782  -9.277  1.00  0.00     0.034 A 
BRANCH  56  70
ATOM     70  C   UNL     1       7.115   3.773  -4.160  1.00  0.00     0.023 A 
ATOM     71  C   UNL     1       7.848   4.849  -4.701  1.00  0.00     0.031 A 
ATOM     72  C   UNL     1       7.722   2.997  -3.157  1.00  0.00     0.131 A 
ATOM     73  C   UNL     1       9.159   5.090  -4.269  1.00  0.00     0.055 A 
ATOM     74  C   UNL     1       9.010   3.275  -2.692  1.00  0.00     0.041 A 
ATOM     75  F   UNL     1       7.073   1.955  -2.614  1.00  0.00    -0.206 F 
ATOM     76  C   UNL     1       9.740   4.314  -3.261  1.00  0.00     0.022 A 
BRANCH  73  77
ATOM     77  S   UNL     1      10.192   6.354  -5.061  1.00  0.00     0.124 S 
ATOM     78  O   UNL     1      10.495   7.239  -3.936  1.00  0.00    -0.237 OA
ATOM     79  O   UNL     1      11.322   5.563  -5.548  1.00  0.00    -0.237 OA
ATOM     80  O   UNL     1       9.331   6.923  -6.085  1.00  0.00    -0.744 OA
ENDBRANCH  73  77
ENDBRANCH  56  70
BRANCH  57  81
ATOM     81  C   UNL     1      -1.620   1.139  -8.111  1.00  0.00     0.023 A 
ATOM     82  C   UNL     1      -2.704   2.037  -8.133  1.00  0.00     0.031 A 
ATOM     83  C   UNL     1      -1.843  -0.171  -8.567  1.00  0.00     0.131 A 
ATOM     84  C   UNL     1      -3.976   1.587  -8.506  1.00  0.00     0.055 A 
ATOM     85  C   UNL     1      -3.095  -0.590  -9.024  1.00  0.00     0.041 A 
ATOM     86  F   UNL     1      -0.844  -1.066  -8.569  1.00  0.00    -0.206 F 
ATOM     87  C   UNL     1      -4.175   0.285  -8.972  1.00  0.00     0.022 A 
BRANCH  84  88
ATOM     88  S   UNL     1      -5.440   2.629  -8.249  1.00  0.00     0.124 S 
ATOM     89  O   UNL     1      -5.990   2.722  -9.597  1.00  0.00    -0.237 OA
ATOM     90  O   UNL     1      -6.212   1.824  -7.305  1.00  0.00    -0.237 OA
ATOM     91  O   UNL     1      -4.891   3.866  -7.704  1.00  0.00    -0.744 OA
ENDBRANCH  84  88
ENDBRANCH  57  81
BRANCH  69  92
ATOM     92  C   UNL     1       4.954   1.521 -10.622  1.00  0.00     0.023 A 
ATOM     93  C   UNL     1       5.957   0.537 -10.743  1.00  0.00     0.031 A 
ATOM     94  C   UNL     1       4.709   2.351 -11.729  1.00  0.00     0.131 A 
ATOM     95  C   UNL     1       6.712   0.446 -11.920  1.00  0.00     0.055 A 
ATOM     96  C   UNL     1       5.428   2.221 -12.919  1.00  0.00     0.041 A 
ATOM     97  F   UNL     1       3.773   3.312 -11.666  1.00  0.00    -0.206 F 
ATOM     98  C   UNL     1       6.447   1.277 -13.012  1.00  0.00     0.022 A 
BRANCH  95  99
ATOM     99  S   UNL     1       8.129  -0.683 -12.043  1.00  0.00     0.124 S 
ATOM    100  O   UNL     1       7.750  -1.522 -13.178  1.00  0.00    -0.237 OA
ATOM    101  O   UNL     1       9.235   0.238 -12.292  1.00  0.00    -0.237 OA
ATOM    102  O   UNL     1       8.153  -1.361 -10.752  1.00  0.00    -0.744 OA
ENDBRANCH  95  99
ENDBRANCH  69  92
ENDBRANCH  43  44
ENDBRANCH  35  38
ENDBRANCH  33  34
ENDBRANCH  32  33
ENDBRANCH  31  32
ENDBRANCH   1  31
TORSDOF 19
