REMARK SMILES CC(C)([NH2+]C[C@@H]1COc2ccccc21)C(=O)NCCCCCCNC(=O)c1ccc(-c2c3nc(c(-c4cc(S(=O)(=O)[O-])ccc4F)c4ccc([nH]4)c(-c4cc(S(=O)(=O)[O-])ccc4F)c4nc(c(-c5cc(S(=O)(=O)[O-])ccc5F)c5ccc2[nH]5)C=C4)C=C3)cc1
REMARK SMILES IDX 20 1 19 2 18 3 17 4 15 5 16 6 2 8 1 9 3 10 4 11 5 14 6 15
REMARK SMILES IDX 7 16 14 17 8 18 9 19 13 20 10 21 12 22 11 23 21 24 22 25
REMARK SMILES IDX 23 26 24 27 25 28 26 30 27 31 28 32 89 33 29 34 88 35 30 36
REMARK SMILES IDX 31 37 32 38 82 39 33 40 87 41 81 42 83 43 34 44 86 45 80 46
REMARK SMILES IDX 79 47 35 49 67 50 47 51 66 52 48 53 51 54 65 55 84 56 49 57
REMARK SMILES IDX 50 58 64 60 85 61 52 62 36 63 37 64 45 65 38 66 44 67 46 68
REMARK SMILES IDX 43 69 39 70 40 71 41 72 42 73 68 74 69 75 77 76 70 77 76 78
REMARK SMILES IDX 78 79 75 80 71 81 72 82 73 83 74 84 53 85 54 86 62 87 55 88
REMARK SMILES IDX 61 89 63 90 60 91 56 92 57 93 58 94 59 95
REMARK H PARENT 17 7 4 12 4 13 24 29 83 48 51 59
REMARK Flexibility Score: inf
ROOT
ATOM      1  C   UNL     1      -0.717   5.677  -5.270  1.00  0.00     0.002 C 
ENDROOT
BRANCH   1   2
ATOM      2  C   UNL     1      -0.833   4.575  -4.217  1.00  0.00     0.021 C 
BRANCH   2   3
ATOM      3  C   UNL     1      -2.088   4.695  -3.350  1.00  0.00     0.116 C 
BRANCH   3   4
ATOM      4  N   UNL     1      -3.120   3.781  -3.755  1.00  0.00    -0.351 N 
ATOM      5  C   UNL     1      -3.732   2.741  -3.138  1.00  0.00     0.280 C 
ATOM      6  O   UNL     1      -4.648   2.251  -3.821  1.00  0.00    -0.268 OA
ATOM      7  H   UNL     1      -3.450   3.943  -4.668  1.00  0.00     0.163 HD
BRANCH   5   8
ATOM      8  C   UNL     1      -3.480   2.237  -1.666  1.00  0.00     0.169 C 
ATOM      9  C   UNL     1      -4.302   0.904  -1.580  1.00  0.00     0.090 C 
ATOM     10  C   UNL     1      -4.108   3.173  -0.634  1.00  0.00     0.090 C 
BRANCH   8  11
ATOM     11  N   UNL     1      -2.115   1.770  -1.324  1.00  0.00    -0.333 N 
ATOM     12  H   UNL     1      -1.879   1.107  -2.063  1.00  0.00     0.347 HD
ATOM     13  H   UNL     1      -2.281   1.524  -0.348  1.00  0.00     0.347 HD
BRANCH  11  14
ATOM     14  C   UNL     1      -0.905   2.563  -1.143  1.00  0.00     0.273 C 
BRANCH  14  15
ATOM     15  C   UNL     1      -0.634   3.485   0.079  1.00  0.00     0.116 C 
ATOM     16  C   UNL     1      -1.477   4.757   0.289  1.00  0.00     0.244 C 
ATOM     17  C   UNL     1       0.720   4.128   0.015  1.00  0.00     0.006 A 
ATOM     18  O   UNL     1      -0.642   5.895   0.602  1.00  0.00    -0.492 OA
ATOM     19  C   UNL     1       0.623   5.478   0.309  1.00  0.00     0.123 A 
ATOM     20  C   UNL     1       1.963   3.561  -0.223  1.00  0.00     0.008 A 
ATOM     21  C   UNL     1       1.724   6.312   0.343  1.00  0.00     0.047 A 
ATOM     22  C   UNL     1       3.095   4.383  -0.181  1.00  0.00     0.001 A 
ATOM     23  C   UNL     1       2.976   5.754   0.093  1.00  0.00     0.004 A 
ENDBRANCH  14  15
ENDBRANCH  11  14
ENDBRANCH   8  11
ENDBRANCH   5   8
ENDBRANCH   3   4
ENDBRANCH   2   3
ENDBRANCH   1   2
BRANCH   1  24
ATOM     24  C   UNL     1      -0.619   7.098  -4.699  1.00  0.00     0.002 C 
BRANCH  24  25
ATOM     25  C   UNL     1       0.530   7.336  -3.713  1.00  0.00     0.021 C 
BRANCH  25  26
ATOM     26  C   UNL     1       1.922   7.046  -4.270  1.00  0.00     0.116 C 
BRANCH  26  27
ATOM     27  N   UNL     1       2.184   7.802  -5.487  1.00  0.00    -0.352 N 
ATOM     28  C   UNL     1       3.138   8.755  -5.743  1.00  0.00     0.251 C 
ATOM     29  H   UNL     1       1.585   7.598  -6.241  1.00  0.00     0.163 HD
ATOM     30  O   UNL     1       3.040   9.462  -6.740  1.00  0.00    -0.269 OA
BRANCH  28  31
ATOM     31  C   UNL     1       4.271   8.931  -4.811  1.00  0.00     0.039 A 
ATOM     32  C   UNL     1       4.661  10.223  -4.451  1.00  0.00     0.014 A 
ATOM     33  C   UNL     1       4.955   7.821  -4.306  1.00  0.00     0.014 A 
ATOM     34  C   UNL     1       5.691  10.400  -3.525  1.00  0.00     0.010 A 
ATOM     35  C   UNL     1       5.936   7.998  -3.334  1.00  0.00     0.010 A 
ATOM     36  C   UNL     1       6.307   9.288  -2.928  1.00  0.00    -0.014 A 
BRANCH  36  37
ATOM     37  C   UNL     1       7.320   9.450  -1.853  1.00  0.00     0.031 A 
ATOM     38  C   UNL     1       8.733   8.986  -2.068  1.00  0.00     0.074 A 
ATOM     39  C   UNL     1       6.939   9.943  -0.657  1.00  0.00     0.049 A 
ATOM     40  N   UNL     1       9.727   8.943  -1.220  1.00  0.00    -0.248 NA
ATOM     41  C   UNL     1       9.062   8.479  -3.408  1.00  0.00     0.031 C 
ATOM     42  C   UNL     1       5.587  10.399  -0.325  1.00  0.00     0.029 A 
ATOM     43  N   UNL     1       7.645  10.132   0.504  1.00  0.00    -0.354 N 
ATOM     44  C   UNL     1      10.799   8.396  -1.918  1.00  0.00     0.074 A 
ATOM     45  C   UNL     1      10.312   8.072  -3.242  1.00  0.00     0.031 C 
ATOM     46  C   UNL     1       5.568  10.832   0.945  1.00  0.00     0.029 A 
ATOM     47  C   UNL     1       6.887  10.632   1.537  1.00  0.00     0.049 A 
ATOM     48  H   UNL     1       8.605   9.928   0.589  1.00  0.00     0.167 HD
ATOM     49  C   UNL     1      12.073   8.202  -1.495  1.00  0.00     0.034 A 
ATOM     50  C   UNL     1       7.209  10.879   2.823  1.00  0.00     0.034 A 
ATOM     51  C   UNL     1      12.537   8.535  -0.170  1.00  0.00     0.049 A 
ATOM     52  C   UNL     1       8.618  10.601   3.284  1.00  0.00     0.074 A 
ATOM     53  C   UNL     1      13.817   8.432   0.345  1.00  0.00     0.029 A 
ATOM     54  N   UNL     1      11.736   9.023   0.856  1.00  0.00    -0.354 N 
ATOM     55  N   UNL     1       9.633  10.130   2.597  1.00  0.00    -0.248 NA
ATOM     56  C   UNL     1       8.925  10.889   4.690  1.00  0.00     0.031 C 
ATOM     57  C   UNL     1      13.775   8.778   1.700  1.00  0.00     0.029 A 
ATOM     58  C   UNL     1      12.486   9.181   2.012  1.00  0.00     0.049 A 
ATOM     59  H   UNL     1      10.776   9.226   0.774  1.00  0.00     0.167 HD
ATOM     60  C   UNL     1      10.706  10.092   3.483  1.00  0.00     0.074 A 
ATOM     61  C   UNL     1      10.217  10.603   4.747  1.00  0.00     0.031 C 
ATOM     62  C   UNL     1      11.981   9.677   3.271  1.00  0.00     0.034 A 
BRANCH  49  63
ATOM     63  C   UNL     1      13.042   7.572  -2.468  1.00  0.00     0.023 A 
ATOM     64  C   UNL     1      13.386   8.196  -3.679  1.00  0.00     0.031 A 
ATOM     65  C   UNL     1      13.620   6.320  -2.187  1.00  0.00     0.131 A 
ATOM     66  C   UNL     1      14.221   7.538  -4.595  1.00  0.00     0.055 A 
ATOM     67  C   UNL     1      14.517   5.709  -3.066  1.00  0.00     0.041 A 
ATOM     68  F   UNL     1      13.314   5.663  -1.057  1.00  0.00    -0.206 F 
ATOM     69  C   UNL     1      14.810   6.311  -4.285  1.00  0.00     0.022 A 
BRANCH  66  70
ATOM     70  S   UNL     1      14.407   8.242  -6.256  1.00  0.00     0.124 S 
ATOM     71  O   UNL     1      13.021   8.280  -6.717  1.00  0.00    -0.237 OA
ATOM     72  O   UNL     1      15.026   9.534  -5.984  1.00  0.00    -0.237 OA
ATOM     73  O   UNL     1      15.259   7.275  -6.945  1.00  0.00    -0.744 OA
ENDBRANCH  66  70
ENDBRANCH  49  63
BRANCH  50  74
ATOM     74  C   UNL     1       6.181  11.390   3.775  1.00  0.00     0.023 A 
ATOM     75  C   UNL     1       6.321  12.648   4.382  1.00  0.00     0.031 A 
ATOM     76  C   UNL     1       5.063  10.611   4.124  1.00  0.00     0.131 A 
ATOM     77  C   UNL     1       5.386  13.069   5.341  1.00  0.00     0.055 A 
ATOM     78  C   UNL     1       4.105  11.059   5.034  1.00  0.00     0.041 A 
ATOM     79  F   UNL     1       4.880   9.400   3.572  1.00  0.00    -0.206 F 
ATOM     80  C   UNL     1       4.271  12.291   5.660  1.00  0.00     0.022 A 
BRANCH  77  81
ATOM     81  S   UNL     1       5.702  14.613   6.240  1.00  0.00     0.124 S 
ATOM     82  O   UNL     1       7.005  14.345   6.838  1.00  0.00    -0.237 OA
ATOM     83  O   UNL     1       5.679  15.599   5.165  1.00  0.00    -0.237 OA
ATOM     84  O   UNL     1       4.587  14.693   7.181  1.00  0.00    -0.744 OA
ENDBRANCH  77  81
ENDBRANCH  50  74
BRANCH  62  85
ATOM     85  C   UNL     1      12.944   9.793   4.428  1.00  0.00     0.023 A 
ATOM     86  C   UNL     1      12.806   9.011   5.587  1.00  0.00     0.031 A 
ATOM     87  C   UNL     1      14.019  10.698   4.364  1.00  0.00     0.131 A 
ATOM     88  C   UNL     1      13.700   9.181   6.655  1.00  0.00     0.055 A 
ATOM     89  C   UNL     1      14.942  10.818   5.404  1.00  0.00     0.041 A 
ATOM     90  F   UNL     1      14.197  11.474   3.283  1.00  0.00    -0.206 F 
ATOM     91  C   UNL     1      14.778  10.065   6.563  1.00  0.00     0.022 A 
BRANCH  88  92
ATOM     92  S   UNL     1      13.390   8.287   8.202  1.00  0.00     0.124 S 
ATOM     93  O   UNL     1      12.073   8.789   8.583  1.00  0.00    -0.237 OA
ATOM     94  O   UNL     1      13.441   6.893   7.775  1.00  0.00    -0.237 OA
ATOM     95  O   UNL     1      14.488   8.710   9.069  1.00  0.00    -0.744 OA
ENDBRANCH  88  92
ENDBRANCH  62  85
ENDBRANCH  36  37
ENDBRANCH  28  31
ENDBRANCH  26  27
ENDBRANCH  25  26
ENDBRANCH  24  25
ENDBRANCH   1  24
TORSDOF 19
