REMARK SMILES CC(=O)N[C@H](C(=O)NC1(CC(=O)NCCCCCCNC(=O)c2ccc(-c3c4nc(c(-c5cc(S(=O)(=O)[O-])ccc5F)c5ccc([nH]5)c(-c5cc(S(=O)(=O)[O-])ccc5F)c5nc(c(-c6cc(S(=O)(=O)[O-])ccc6F)c6ccc3[nH]6)C=C5)C=C4)cc2)CCC1)C(C)C
REMARK SMILES IDX 16 1 15 2 14 3 13 4 11 5 12 6 10 8 9 9 86 10 88 11 87 12
REMARK SMILES IDX 8 13 6 14 7 15 5 17 4 18 1 19 2 20 3 21 89 23 90 24 91 25
REMARK SMILES IDX 17 26 18 27 19 28 20 29 21 30 22 32 23 33 24 34 85 35 25 36
REMARK SMILES IDX 84 37 26 38 27 39 28 40 78 41 29 42 83 43 77 44 79 45 30 46
REMARK SMILES IDX 82 47 76 48 75 49 31 51 63 52 43 53 62 54 44 55 47 56 61 57
REMARK SMILES IDX 80 58 45 59 46 60 60 62 81 63 48 64 32 65 33 66 41 67 34 68
REMARK SMILES IDX 40 69 42 70 39 71 35 72 36 73 37 74 38 75 64 76 65 77 73 78
REMARK SMILES IDX 66 79 72 80 74 81 71 82 67 83 68 84 69 85 70 86 49 87 50 88
REMARK SMILES IDX 58 89 51 90 57 91 59 92 56 93 52 94 53 95 54 96 55 97
REMARK H PARENT 13 7 8 16 4 22 20 31 79 50 47 61
REMARK Flexibility Score: inf
ROOT
ATOM      1  C   UNL     1      -4.268   1.532   2.154  1.00  0.00     0.002 C 
ENDROOT
BRANCH   1   2
ATOM      2  C   UNL     1      -4.021   2.531   1.022  1.00  0.00     0.021 C 
BRANCH   2   3
ATOM      3  C   UNL     1      -2.810   3.401   1.330  1.00  0.00     0.116 C 
BRANCH   3   4
ATOM      4  N   UNL     1      -1.643   2.611   1.050  1.00  0.00    -0.356 N 
ATOM      5  C   UNL     1      -1.105   2.480  -0.192  1.00  0.00     0.222 C 
ATOM      6  O   UNL     1      -0.436   1.482  -0.437  1.00  0.00    -0.275 OA
ATOM      7  H   UNL     1      -1.210   2.140   1.798  1.00  0.00     0.163 HD
BRANCH   5   8
ATOM      8  C   UNL     1      -1.285   3.672  -1.109  1.00  0.00     0.128 C 
BRANCH   8   9
ATOM      9  C   UNL     1      -1.043   3.478  -2.576  1.00  0.00     0.049 C 
ATOM     10  C   UNL     1      -1.115   4.666  -3.599  1.00  0.00     0.029 C 
ATOM     11  C   UNL     1      -2.442   3.080  -3.172  1.00  0.00     0.029 C 
ATOM     12  C   UNL     1      -2.644   4.605  -3.462  1.00  0.00     0.005 C 
BRANCH   9  13
ATOM     13  N   UNL     1       0.140   2.664  -2.838  1.00  0.00    -0.348 N 
ATOM     14  C   UNL     1       1.417   2.645  -2.358  1.00  0.00     0.243 C 
ATOM     15  O   UNL     1       2.109   1.778  -2.935  1.00  0.00    -0.273 OA
ATOM     16  H   UNL     1      -0.020   1.969  -3.516  1.00  0.00     0.164 HD
BRANCH  14  17
ATOM     17  C   UNL     1       2.160   3.513  -1.205  1.00  0.00     0.173 C 
BRANCH  17  18
ATOM     18  N   UNL     1       3.476   3.723  -1.852  1.00  0.00    -0.344 N 
ATOM     19  C   UNL     1       4.958   3.809   0.137  1.00  0.00     0.114 C 
ATOM     20  C   UNL     1       4.733   3.784  -1.347  1.00  0.00     0.217 C 
ATOM     21  O   UNL     1       5.681   3.872  -2.128  1.00  0.00    -0.275 OA
ATOM     22  H   UNL     1       3.430   3.840  -2.828  1.00  0.00     0.164 HD
ENDBRANCH  17  18
BRANCH  17  23
ATOM     23  C   UNL     1       1.658   4.840  -0.521  1.00  0.00     0.015 C 
ATOM     24  C   UNL     1       1.062   4.589   0.903  1.00  0.00     0.010 C 
ATOM     25  C   UNL     1       2.664   5.989  -0.302  1.00  0.00     0.010 C 
ENDBRANCH  17  23
ENDBRANCH  14  17
ENDBRANCH   9  13
ENDBRANCH   8   9
ENDBRANCH   5   8
ENDBRANCH   3   4
ENDBRANCH   2   3
ENDBRANCH   1   2
BRANCH   1  26
ATOM     26  C   UNL     1      -4.334   2.198   3.534  1.00  0.00     0.002 C 
BRANCH  26  27
ATOM     27  C   UNL     1      -5.233   3.439   3.571  1.00  0.00     0.021 C 
BRANCH  27  28
ATOM     28  C   UNL     1      -6.628   3.177   3.026  1.00  0.00     0.116 C 
BRANCH  28  29
ATOM     29  N   UNL     1      -7.248   2.073   3.729  1.00  0.00    -0.352 N 
ATOM     30  C   UNL     1      -8.442   2.075   4.398  1.00  0.00     0.251 C 
ATOM     31  H   UNL     1      -6.753   1.222   3.725  1.00  0.00     0.163 HD
ATOM     32  O   UNL     1      -8.709   1.202   5.203  1.00  0.00    -0.269 OA
BRANCH  30  33
ATOM     33  C   UNL     1      -9.371   3.183   4.114  1.00  0.00     0.039 A 
ATOM     34  C   UNL     1      -9.922   3.888   5.181  1.00  0.00     0.014 A 
ATOM     35  C   UNL     1      -9.631   3.550   2.788  1.00  0.00     0.014 A 
ATOM     36  C   UNL     1     -10.723   4.993   4.914  1.00  0.00     0.010 A 
ATOM     37  C   UNL     1     -10.358   4.701   2.529  1.00  0.00     0.010 A 
ATOM     38  C   UNL     1     -10.925   5.421   3.590  1.00  0.00    -0.014 A 
BRANCH  38  39
ATOM     39  C   UNL     1     -11.744   6.620   3.299  1.00  0.00     0.031 A 
ATOM     40  C   UNL     1     -13.024   6.476   2.526  1.00  0.00     0.074 A 
ATOM     41  C   UNL     1     -11.309   7.829   3.701  1.00  0.00     0.049 A 
ATOM     42  N   UNL     1     -13.858   7.402   2.134  1.00  0.00    -0.248 NA
ATOM     43  C   UNL     1     -13.399   5.114   2.112  1.00  0.00     0.031 C 
ATOM     44  C   UNL     1     -10.061   8.079   4.426  1.00  0.00     0.029 A 
ATOM     45  N   UNL     1     -11.864   9.073   3.558  1.00  0.00    -0.354 N 
ATOM     46  C   UNL     1     -14.854   6.738   1.427  1.00  0.00     0.074 A 
ATOM     47  C   UNL     1     -14.479   5.341   1.383  1.00  0.00     0.031 C 
ATOM     48  C   UNL     1      -9.964   9.390   4.694  1.00  0.00     0.029 A 
ATOM     49  C   UNL     1     -11.110  10.081   4.114  1.00  0.00     0.049 A 
ATOM     50  H   UNL     1     -12.721   9.232   3.100  1.00  0.00     0.167 HD
ATOM     51  C   UNL     1     -15.988   7.247   0.887  1.00  0.00     0.034 A 
ATOM     52  C   UNL     1     -11.316  11.412   4.138  1.00  0.00     0.034 A 
ATOM     53  C   UNL     1     -16.339   8.644   0.949  1.00  0.00     0.049 A 
ATOM     54  C   UNL     1     -12.564  11.958   3.491  1.00  0.00     0.074 A 
ATOM     55  C   UNL     1     -17.484   9.265   0.482  1.00  0.00     0.029 A 
ATOM     56  N   UNL     1     -15.543   9.641   1.500  1.00  0.00    -0.354 N 
ATOM     57  N   UNL     1     -13.525  11.310   2.873  1.00  0.00    -0.248 NA
ATOM     58  C   UNL     1     -12.758  13.411   3.553  1.00  0.00     0.031 C 
ATOM     59  C   UNL     1     -17.343  10.643   0.676  1.00  0.00     0.029 A 
ATOM     60  C   UNL     1     -16.153  10.877   1.347  1.00  0.00     0.049 A 
ATOM     61  H   UNL     1     -14.674   9.492   1.937  1.00  0.00     0.167 HD
ATOM     62  C   UNL     1     -14.453  12.278   2.498  1.00  0.00     0.074 A 
ATOM     63  C   UNL     1     -13.944  13.546   2.979  1.00  0.00     0.031 C 
ATOM     64  C   UNL     1     -15.620  12.134   1.819  1.00  0.00     0.034 A 
BRANCH  51  65
ATOM     65  C   UNL     1     -16.905   6.291   0.162  1.00  0.00     0.023 A 
ATOM     66  C   UNL     1     -17.521   5.212   0.821  1.00  0.00     0.031 A 
ATOM     67  C   UNL     1     -17.152   6.447  -1.213  1.00  0.00     0.131 A 
ATOM     68  C   UNL     1     -18.290   4.292   0.093  1.00  0.00     0.055 A 
ATOM     69  C   UNL     1     -17.989   5.577  -1.915  1.00  0.00     0.041 A 
ATOM     70  F   UNL     1     -16.572   7.441  -1.903  1.00  0.00    -0.206 F 
ATOM     71  C   UNL     1     -18.552   4.483  -1.265  1.00  0.00     0.022 A 
BRANCH  68  72
ATOM     72  S   UNL     1     -18.817   2.762   0.913  1.00  0.00     0.124 S 
ATOM     73  O   UNL     1     -17.535   2.189   1.318  1.00  0.00    -0.237 OA
ATOM     74  O   UNL     1     -19.664   3.259   1.991  1.00  0.00    -0.237 OA
ATOM     75  O   UNL     1     -19.513   2.030  -0.142  1.00  0.00    -0.744 OA
ENDBRANCH  68  72
ENDBRANCH  51  65
BRANCH  52  76
ATOM     76  C   UNL     1     -10.320  12.320   4.776  1.00  0.00     0.023 A 
ATOM     77  C   UNL     1     -10.665  13.108   5.885  1.00  0.00     0.031 A 
ATOM     78  C   UNL     1      -9.018  12.446   4.259  1.00  0.00     0.131 A 
ATOM     79  C   UNL     1      -9.740  14.025   6.406  1.00  0.00     0.055 A 
ATOM     80  C   UNL     1      -8.081  13.314   4.820  1.00  0.00     0.041 A 
ATOM     81  F   UNL     1      -8.633  11.713   3.201  1.00  0.00    -0.206 F 
ATOM     82  C   UNL     1      -8.445  14.122   5.892  1.00  0.00     0.022 A 
BRANCH  79  83
ATOM     83  S   UNL     1     -10.287  15.165   7.707  1.00  0.00     0.124 S 
ATOM     84  O   UNL     1     -11.412  15.831   7.061  1.00  0.00    -0.237 OA
ATOM     85  O   UNL     1     -10.620  14.247   8.792  1.00  0.00    -0.237 OA
ATOM     86  O   UNL     1      -9.113  16.003   7.939  1.00  0.00    -0.744 OA
ENDBRANCH  79  83
ENDBRANCH  52  76
BRANCH  64  87
ATOM     87  C   UNL     1     -16.438  13.383   1.592  1.00  0.00     0.023 A 
ATOM     88  C   UNL     1     -15.971  14.434   0.784  1.00  0.00     0.031 A 
ATOM     89  C   UNL     1     -17.695  13.528   2.204  1.00  0.00     0.131 A 
ATOM     90  C   UNL     1     -16.727  15.609   0.660  1.00  0.00     0.055 A 
ATOM     91  C   UNL     1     -18.476  14.669   2.019  1.00  0.00     0.041 A 
ATOM     92  F   UNL     1     -18.189  12.558   2.990  1.00  0.00    -0.206 F 
ATOM     93  C   UNL     1     -17.986  15.725   1.256  1.00  0.00     0.022 A 
BRANCH  90  94
ATOM     94  S   UNL     1     -15.995  17.027  -0.200  1.00  0.00     0.124 S 
ATOM     95  O   UNL     1     -14.783  17.260   0.579  1.00  0.00    -0.237 OA
ATOM     96  O   UNL     1     -15.795  16.506  -1.548  1.00  0.00    -0.237 OA
ATOM     97  O   UNL     1     -17.017  18.065  -0.082  1.00  0.00    -0.744 OA
ENDBRANCH  90  94
ENDBRANCH  64  87
ENDBRANCH  38  39
ENDBRANCH  30  33
ENDBRANCH  28  29
ENDBRANCH  27  28
ENDBRANCH  26  27
ENDBRANCH   1  26
TORSDOF 21
