REMARK SMILES Cc1nsc(NC(=O)N2CCC[C@@H](C)C2)c1C(=O)NCCCCCCNC(=O)c1ccc(-c2c3nc(c(-c4cc(S(=O)(=O)[O-])ccc4F)c4ccc([nH]4)c(-c4cc(S(=O)(=O)[O-])ccc4F)c4nc(c(-c5cc(S(=O)(=O)[O-])ccc5F)c5ccc2[nH]5)C=C4)C=C3)cc1
REMARK SMILES IDX 23 1 22 2 21 3 20 4 19 5 17 6 18 7 16 9 1 10 2 11 3 12 4 13
REMARK SMILES IDX 5 14 6 15 7 16 8 18 9 19 10 20 15 21 11 22 13 23 12 24 14 25
REMARK SMILES IDX 24 26 25 27 26 28 27 29 28 31 29 32 30 33 91 34 31 35 90 36
REMARK SMILES IDX 32 37 33 38 34 39 84 40 35 41 89 42 83 43 85 44 36 45 88 46
REMARK SMILES IDX 82 47 81 48 37 50 69 51 49 52 68 53 50 54 53 55 67 56 86 57
REMARK SMILES IDX 51 58 52 59 66 61 87 62 54 63 38 64 39 65 47 66 40 67 46 68
REMARK SMILES IDX 48 69 45 70 41 71 42 72 43 73 44 74 70 75 71 76 79 77 72 78
REMARK SMILES IDX 78 79 80 80 77 81 73 82 74 83 75 84 76 85 55 86 56 87 64 88
REMARK SMILES IDX 57 89 63 90 65 91 62 92 58 93 59 94 60 95 61 96
REMARK H PARENT 19 8 6 17 26 30 85 49 53 60
REMARK Flexibility Score: inf
ROOT
ATOM      1  C   UNL     1       5.035  -1.554  -1.896  1.00  0.00     0.002 C 
ENDROOT
BRANCH   1   2
ATOM      2  C   UNL     1       4.246  -0.857  -3.011  1.00  0.00     0.002 C 
BRANCH   2   3
ATOM      3  C   UNL     1       2.790  -0.491  -2.744  1.00  0.00     0.021 C 
BRANCH   3   4
ATOM      4  C   UNL     1       2.457   0.157  -1.410  1.00  0.00     0.116 C 
BRANCH   4   5
ATOM      5  N   UNL     1       3.109   1.408  -1.087  1.00  0.00    -0.352 N 
ATOM      6  C   UNL     1       2.635   2.443  -0.304  1.00  0.00     0.256 C 
ATOM      7  O   UNL     1       3.385   3.394  -0.077  1.00  0.00    -0.269 OA
ATOM      8  H   UNL     1       4.005   1.538  -1.475  1.00  0.00     0.163 HD
BRANCH   6   9
ATOM      9  C   UNL     1       1.235   2.465   0.103  1.00  0.00     0.097 A 
ATOM     10  C   UNL     1       0.712   0.072   1.126  1.00  0.00     0.069 C 
ATOM     11  C   UNL     1       0.355   1.413   0.582  1.00  0.00     0.066 A 
ATOM     12  N   UNL     1      -0.951   1.678   0.506  1.00  0.00    -0.195 NA
ATOM     13  S   UNL     1      -1.118   3.220  -0.064  1.00  0.00    -0.017 S 
ATOM     14  C   UNL     1       0.510   3.649   0.198  1.00  0.00     0.130 A 
BRANCH  14  15
ATOM     15  N   UNL     1       0.938   4.960   0.261  1.00  0.00    -0.297 N 
ATOM     16  C   UNL     1       0.221   6.099   0.484  1.00  0.00     0.322 C 
ATOM     17  H   UNL     1       1.904   5.092   0.124  1.00  0.00     0.172 HD
ATOM     18  O   UNL     1       0.678   7.170   0.074  1.00  0.00    -0.248 OA
BRANCH  16  19
ATOM     19  N   UNL     1      -0.973   6.046   1.167  1.00  0.00    -0.324 N 
ATOM     20  C   UNL     1      -1.160   5.370   2.454  1.00  0.00     0.121 C 
ATOM     21  C   UNL     1      -1.999   7.024   0.841  1.00  0.00     0.124 C 
ATOM     22  C   UNL     1      -2.559   4.759   2.613  1.00  0.00     0.022 C 
ATOM     23  C   UNL     1      -3.337   6.293   0.718  1.00  0.00     0.005 C 
ATOM     24  C   UNL     1      -3.692   5.628   2.057  1.00  0.00     0.007 C 
ATOM     25  C   UNL     1      -4.442   7.234   0.253  1.00  0.00     0.009 C 
ENDBRANCH  16  19
ENDBRANCH  14  15
ENDBRANCH   6   9
ENDBRANCH   4   5
ENDBRANCH   3   4
ENDBRANCH   2   3
ENDBRANCH   1   2
BRANCH   1  26
ATOM     26  C   UNL     1       4.450  -2.822  -1.258  1.00  0.00     0.021 C 
BRANCH  26  27
ATOM     27  C   UNL     1       4.106  -3.948  -2.219  1.00  0.00     0.116 C 
BRANCH  27  28
ATOM     28  N   UNL     1       5.257  -4.458  -2.963  1.00  0.00    -0.352 N 
ATOM     29  C   UNL     1       5.271  -5.424  -3.962  1.00  0.00     0.251 C 
ATOM     30  H   UNL     1       6.130  -4.069  -2.727  1.00  0.00     0.163 HD
ATOM     31  O   UNL     1       6.292  -6.038  -4.217  1.00  0.00    -0.269 OA
BRANCH  29  32
ATOM     32  C   UNL     1       4.019  -5.682  -4.705  1.00  0.00     0.039 A 
ATOM     33  C   UNL     1       3.635  -6.962  -5.115  1.00  0.00     0.014 A 
ATOM     34  C   UNL     1       3.204  -4.587  -4.961  1.00  0.00     0.014 A 
ATOM     35  C   UNL     1       2.384  -7.126  -5.713  1.00  0.00     0.010 A 
ATOM     36  C   UNL     1       1.906  -4.779  -5.340  1.00  0.00     0.010 A 
ATOM     37  C   UNL     1       1.517  -6.024  -5.807  1.00  0.00    -0.014 A 
BRANCH  37  38
ATOM     38  C   UNL     1       0.146  -6.143  -6.290  1.00  0.00     0.031 A 
ATOM     39  C   UNL     1      -0.674  -7.120  -5.530  1.00  0.00     0.074 A 
ATOM     40  C   UNL     1      -0.401  -5.258  -7.155  1.00  0.00     0.049 A 
ATOM     41  N   UNL     1      -1.088  -8.277  -5.925  1.00  0.00    -0.248 NA
ATOM     42  C   UNL     1      -0.907  -6.869  -4.097  1.00  0.00     0.031 C 
ATOM     43  C   UNL     1       0.205  -4.048  -7.728  1.00  0.00     0.029 A 
ATOM     44  N   UNL     1      -1.675  -5.189  -7.625  1.00  0.00    -0.354 N 
ATOM     45  C   UNL     1      -1.867  -8.774  -4.886  1.00  0.00     0.074 A 
ATOM     46  C   UNL     1      -1.509  -8.002  -3.728  1.00  0.00     0.031 C 
ATOM     47  C   UNL     1      -0.756  -3.259  -8.260  1.00  0.00     0.029 A 
ATOM     48  C   UNL     1      -2.015  -3.980  -8.233  1.00  0.00     0.049 A 
ATOM     49  H   UNL     1      -2.311  -5.936  -7.542  1.00  0.00     0.167 HD
ATOM     50  C   UNL     1      -2.935  -9.584  -5.139  1.00  0.00     0.034 A 
ATOM     51  C   UNL     1      -3.243  -3.591  -8.676  1.00  0.00     0.034 A 
ATOM     52  C   UNL     1      -2.885 -10.081  -6.499  1.00  0.00     0.049 A 
ATOM     53  C   UNL     1      -4.032  -4.835  -8.858  1.00  0.00     0.074 A 
ATOM     54  C   UNL     1      -1.962 -10.807  -7.229  1.00  0.00     0.029 A 
ATOM     55  N   UNL     1      -3.698  -9.479  -7.436  1.00  0.00    -0.354 N 
ATOM     56  N   UNL     1      -3.726  -5.747  -9.742  1.00  0.00    -0.248 NA
ATOM     57  C   UNL     1      -4.821  -5.310  -7.730  1.00  0.00     0.031 C 
ATOM     58  C   UNL     1      -1.944 -10.186  -8.514  1.00  0.00     0.029 A 
ATOM     59  C   UNL     1      -2.925  -9.191  -8.535  1.00  0.00     0.049 A 
ATOM     60  H   UNL     1      -4.659  -9.289  -7.335  1.00  0.00     0.167 HD
ATOM     61  C   UNL     1      -3.887  -6.957  -9.082  1.00  0.00     0.074 A 
ATOM     62  C   UNL     1      -4.654  -6.629  -7.879  1.00  0.00     0.031 C 
ATOM     63  C   UNL     1      -3.139  -8.052  -9.412  1.00  0.00     0.034 A 
BRANCH  50  64
ATOM     64  C   UNL     1      -4.213  -9.622  -4.324  1.00  0.00     0.023 A 
ATOM     65  C   UNL     1      -5.223 -10.499  -4.767  1.00  0.00     0.031 A 
ATOM     66  C   UNL     1      -4.612  -8.682  -3.347  1.00  0.00     0.131 A 
ATOM     67  C   UNL     1      -6.555 -10.345  -4.348  1.00  0.00     0.055 A 
ATOM     68  C   UNL     1      -5.926  -8.577  -2.881  1.00  0.00     0.041 A 
ATOM     69  F   UNL     1      -3.791  -7.753  -2.848  1.00  0.00    -0.206 F 
ATOM     70  C   UNL     1      -6.915  -9.386  -3.408  1.00  0.00     0.022 A 
BRANCH  67  71
ATOM     71  S   UNL     1      -7.835 -11.297  -5.202  1.00  0.00     0.124 S 
ATOM     72  O   UNL     1      -7.577 -10.949  -6.595  1.00  0.00    -0.237 OA
ATOM     73  O   UNL     1      -7.506 -12.663  -4.806  1.00  0.00    -0.237 OA
ATOM     74  O   UNL     1      -9.078 -10.768  -4.645  1.00  0.00    -0.744 OA
ENDBRANCH  67  71
ENDBRANCH  50  64
BRANCH  51  75
ATOM     75  C   UNL     1      -3.844  -2.225  -8.610  1.00  0.00     0.023 A 
ATOM     76  C   UNL     1      -4.902  -1.789  -9.440  1.00  0.00     0.031 A 
ATOM     77  C   UNL     1      -3.516  -1.389  -7.518  1.00  0.00     0.131 A 
ATOM     78  C   UNL     1      -5.573  -0.569  -9.163  1.00  0.00     0.055 A 
ATOM     79  C   UNL     1      -4.182  -0.190  -7.249  1.00  0.00     0.041 A 
ATOM     80  F   UNL     1      -2.583  -1.754  -6.623  1.00  0.00    -0.206 F 
ATOM     81  C   UNL     1      -5.220   0.222  -8.067  1.00  0.00     0.022 A 
BRANCH  78  82
ATOM     82  S   UNL     1      -6.976  -0.013 -10.194  1.00  0.00     0.124 S 
ATOM     83  O   UNL     1      -6.351   0.178 -11.497  1.00  0.00    -0.237 OA
ATOM     84  O   UNL     1      -7.910  -1.126 -10.077  1.00  0.00    -0.237 OA
ATOM     85  O   UNL     1      -7.413   1.222  -9.540  1.00  0.00    -0.744 OA
ENDBRANCH  78  82
ENDBRANCH  51  75
BRANCH  63  86
ATOM     86  C   UNL     1      -2.318  -8.013 -10.690  1.00  0.00     0.023 A 
ATOM     87  C   UNL     1      -1.292  -7.080 -10.977  1.00  0.00     0.031 A 
ATOM     88  C   UNL     1      -2.509  -9.067 -11.601  1.00  0.00     0.131 A 
ATOM     89  C   UNL     1      -0.510  -7.227 -12.142  1.00  0.00     0.055 A 
ATOM     90  C   UNL     1      -1.719  -9.222 -12.738  1.00  0.00     0.041 A 
ATOM     91  F   UNL     1      -3.450  -9.999 -11.374  1.00  0.00    -0.206 F 
ATOM     92  C   UNL     1      -0.718  -8.300 -13.016  1.00  0.00     0.022 A 
BRANCH  89  93
ATOM     93  S   UNL     1       0.793  -6.019 -12.557  1.00  0.00     0.124 S 
ATOM     94  O   UNL     1       0.121  -4.732 -12.420  1.00  0.00    -0.237 OA
ATOM     95  O   UNL     1       1.825  -6.310 -11.565  1.00  0.00    -0.237 OA
ATOM     96  O   UNL     1       1.159  -6.370 -13.931  1.00  0.00    -0.744 OA
ENDBRANCH  89  93
ENDBRANCH  63  86
ENDBRANCH  37  38
ENDBRANCH  29  32
ENDBRANCH  27  28
ENDBRANCH  26  27
ENDBRANCH   1  26
TORSDOF 18
