REMARK SMILES COC(=O)c1ccc([C@H]([NH3+])CC(=O)NCCCCCCNC(=O)c2ccc(-c3c4nc(c(-c5cc(S(=O)(=O)[O-])ccc5F)c5ccc([nH]5)c(-c5cc(S(=O)(=O)[O-])ccc5F)c5nc(c(-c6cc(S(=O)(=O)[O-])ccc6F)c6ccc3[nH]6)C=C5)C=C4)cc2)cc1
REMARK SMILES IDX 17 1 16 2 15 3 14 4 12 5 13 6 11 8 9 9 8 10 5 11 6 12 88 13
REMARK SMILES IDX 7 14 87 15 3 16 4 17 2 18 1 19 10 20 18 24 19 25 20 26 21 27
REMARK SMILES IDX 22 28 23 30 24 31 25 32 86 33 26 34 85 35 27 36 28 37 29 38
REMARK SMILES IDX 79 39 30 40 84 41 78 42 80 43 31 44 83 45 77 46 76 47 32 49
REMARK SMILES IDX 64 50 44 51 63 52 45 53 48 54 62 55 81 56 46 57 47 58 61 60
REMARK SMILES IDX 82 61 49 62 33 63 34 64 42 65 35 66 41 67 43 68 40 69 36 70
REMARK SMILES IDX 37 71 38 72 39 73 65 74 66 75 74 76 67 77 73 78 75 79 72 80
REMARK SMILES IDX 68 81 69 82 70 83 71 84 50 85 51 86 59 87 52 88 58 89 60 90
REMARK SMILES IDX 57 91 53 92 54 93 55 94 56 95
REMARK H PARENT 14 7 10 21 10 22 10 23 21 29 80 48 48 59
REMARK Flexibility Score: inf
ROOT
ATOM      1  C   UNL     1      -0.216  -0.346  -3.817  1.00  0.00     0.002 C 
ENDROOT
BRANCH   1   2
ATOM      2  C   UNL     1      -0.242   1.123  -4.241  1.00  0.00     0.021 C 
BRANCH   2   3
ATOM      3  C   UNL     1       0.599   1.419  -5.481  1.00  0.00     0.116 C 
BRANCH   3   4
ATOM      4  N   UNL     1      -0.073   0.944  -6.678  1.00  0.00    -0.356 N 
ATOM      5  C   UNL     1      -0.545   1.662  -7.738  1.00  0.00     0.226 C 
ATOM      6  O   UNL     1      -1.217   1.095  -8.599  1.00  0.00    -0.275 OA
ATOM      7  H   UNL     1      -0.205  -0.030  -6.732  1.00  0.00     0.163 HD
BRANCH   5   8
ATOM      8  C   UNL     1      -0.204   3.125  -7.835  1.00  0.00     0.170 C 
BRANCH   8   9
ATOM      9  C   UNL     1      -1.252   4.091  -7.252  1.00  0.00     0.221 C 
BRANCH   9  10
ATOM     10  C   UNL     1      -0.568   5.448  -7.107  1.00  0.00     0.010 A 
ATOM     11  C   UNL     1       0.968   7.802  -7.060  1.00  0.00     0.060 A 
ATOM     12  C   UNL     1       1.098   6.864  -6.034  1.00  0.00     0.016 A 
ATOM     13  C   UNL     1       0.046   7.587  -8.091  1.00  0.00     0.016 A 
ATOM     14  C   UNL     1       0.330   5.701  -6.053  1.00  0.00     0.011 A 
ATOM     15  C   UNL     1      -0.715   6.414  -8.114  1.00  0.00     0.011 A 
BRANCH  11  16
ATOM     16  C   UNL     1       1.870   8.972  -7.046  1.00  0.00     0.337 C 
ATOM     17  O   UNL     1       2.986   8.953  -6.537  1.00  0.00    -0.246 OA
BRANCH  16  18
ATOM     18  O   UNL     1       1.275  10.037  -7.631  1.00  0.00    -0.465 OA
ATOM     19  C   UNL     1       2.062  11.227  -7.574  1.00  0.00     0.282 C 
ENDBRANCH  16  18
ENDBRANCH  11  16
ENDBRANCH   9  10
BRANCH   9  20
ATOM     20  N   UNL     1      -1.913   3.708  -6.004  1.00  0.00    -0.351 N 
ATOM     21  H   UNL     1      -1.225   3.671  -5.253  1.00  0.00     0.345 HD
ATOM     22  H   UNL     1      -2.344   2.791  -6.116  1.00  0.00     0.345 HD
ATOM     23  H   UNL     1      -2.630   4.396  -5.775  1.00  0.00     0.345 HD
ENDBRANCH   9  20
ENDBRANCH   8   9
ENDBRANCH   5   8
ENDBRANCH   3   4
ENDBRANCH   2   3
ENDBRANCH   1   2
BRANCH   1  24
ATOM     24  C   UNL     1       1.158  -0.860  -3.377  1.00  0.00     0.002 C 
BRANCH  24  25
ATOM     25  C   UNL     1       1.831  -0.045  -2.268  1.00  0.00     0.021 C 
BRANCH  25  26
ATOM     26  C   UNL     1       0.986   0.144  -1.011  1.00  0.00     0.116 C 
BRANCH  26  27
ATOM     27  N   UNL     1       0.628  -1.126  -0.406  1.00  0.00    -0.352 N 
ATOM     28  C   UNL     1       0.807  -1.558   0.883  1.00  0.00     0.251 C 
ATOM     29  H   UNL     1       0.195  -1.772  -1.009  1.00  0.00     0.163 HD
ATOM     30  O   UNL     1       0.653  -2.748   1.145  1.00  0.00    -0.269 OA
BRANCH  28  31
ATOM     31  C   UNL     1       1.192  -0.602   1.945  1.00  0.00     0.039 A 
ATOM     32  C   UNL     1       2.117  -1.009   2.909  1.00  0.00     0.014 A 
ATOM     33  C   UNL     1       0.614   0.670   2.023  1.00  0.00     0.014 A 
ATOM     34  C   UNL     1       2.476  -0.136   3.938  1.00  0.00     0.010 A 
ATOM     35  C   UNL     1       1.031   1.567   3.005  1.00  0.00     0.010 A 
ATOM     36  C   UNL     1       1.946   1.164   3.989  1.00  0.00    -0.014 A 
BRANCH  36  37
ATOM     37  C   UNL     1       2.302   2.083   5.101  1.00  0.00     0.031 A 
ATOM     38  C   UNL     1       1.246   2.524   6.081  1.00  0.00     0.074 A 
ATOM     39  C   UNL     1       3.567   2.530   5.219  1.00  0.00     0.049 A 
ATOM     40  N   UNL     1       1.356   3.315   7.118  1.00  0.00    -0.248 NA
ATOM     41  C   UNL     1      -0.120   2.033   5.845  1.00  0.00     0.031 C 
ATOM     42  C   UNL     1       4.665   2.209   4.304  1.00  0.00     0.029 A 
ATOM     43  N   UNL     1       4.148   3.343   6.159  1.00  0.00    -0.354 N 
ATOM     44  C   UNL     1       0.075   3.424   7.651  1.00  0.00     0.074 A 
ATOM     45  C   UNL     1      -0.805   2.677   6.777  1.00  0.00     0.031 C 
ATOM     46  C   UNL     1       5.791   2.789   4.748  1.00  0.00     0.029 A 
ATOM     47  C   UNL     1       5.492   3.551   5.957  1.00  0.00     0.049 A 
ATOM     48  H   UNL     1       3.648   3.741   6.909  1.00  0.00     0.167 HD
ATOM     49  C   UNL     1      -0.327   4.061   8.779  1.00  0.00     0.034 A 
ATOM     50  C   UNL     1       6.383   4.269   6.668  1.00  0.00     0.034 A 
ATOM     51  C   UNL     1       0.568   4.791   9.645  1.00  0.00     0.049 A 
ATOM     52  C   UNL     1       5.915   4.966   7.921  1.00  0.00     0.074 A 
ATOM     53  C   UNL     1       0.282   5.441  10.834  1.00  0.00     0.029 A 
ATOM     54  N   UNL     1       1.926   4.972   9.414  1.00  0.00    -0.354 N 
ATOM     55  N   UNL     1       4.710   5.013   8.442  1.00  0.00    -0.248 NA
ATOM     56  C   UNL     1       6.935   5.684   8.694  1.00  0.00     0.031 C 
ATOM     57  C   UNL     1       1.450   6.066  11.286  1.00  0.00     0.029 A 
ATOM     58  C   UNL     1       2.485   5.742  10.424  1.00  0.00     0.049 A 
ATOM     59  H   UNL     1       2.420   4.608   8.645  1.00  0.00     0.167 HD
ATOM     60  C   UNL     1       4.837   5.741   9.623  1.00  0.00     0.074 A 
ATOM     61  C   UNL     1       6.238   6.087   9.745  1.00  0.00     0.031 C 
ATOM     62  C   UNL     1       3.884   6.091  10.526  1.00  0.00     0.034 A 
BRANCH  49  63
ATOM     63  C   UNL     1      -1.800   4.010   9.118  1.00  0.00     0.023 A 
ATOM     64  C   UNL     1      -2.458   2.792   9.373  1.00  0.00     0.031 A 
ATOM     65  C   UNL     1      -2.568   5.187   9.149  1.00  0.00     0.131 A 
ATOM     66  C   UNL     1      -3.849   2.771   9.562  1.00  0.00     0.055 A 
ATOM     67  C   UNL     1      -3.937   5.168   9.425  1.00  0.00     0.041 A 
ATOM     68  F   UNL     1      -2.004   6.378   8.893  1.00  0.00    -0.206 F 
ATOM     69  C   UNL     1      -4.589   3.954   9.616  1.00  0.00     0.022 A 
BRANCH  66  70
ATOM     70  S   UNL     1      -4.697   1.167   9.576  1.00  0.00     0.124 S 
ATOM     71  O   UNL     1      -4.338   0.633   8.264  1.00  0.00    -0.237 OA
ATOM     72  O   UNL     1      -4.093   0.501  10.724  1.00  0.00    -0.237 OA
ATOM     73  O   UNL     1      -6.105   1.525   9.731  1.00  0.00    -0.744 OA
ENDBRANCH  66  70
ENDBRANCH  49  63
BRANCH  50  74
ATOM     74  C   UNL     1       7.805   4.362   6.229  1.00  0.00     0.023 A 
ATOM     75  C   UNL     1       8.842   3.834   7.014  1.00  0.00     0.031 A 
ATOM     76  C   UNL     1       8.152   5.023   5.037  1.00  0.00     0.131 A 
ATOM     77  C   UNL     1      10.179   4.022   6.628  1.00  0.00     0.055 A 
ATOM     78  C   UNL     1       9.480   5.160   4.629  1.00  0.00     0.041 A 
ATOM     79  F   UNL     1       7.199   5.539   4.245  1.00  0.00    -0.206 F 
ATOM     80  C   UNL     1      10.504   4.670   5.434  1.00  0.00     0.022 A 
BRANCH  77  81
ATOM     81  S   UNL     1      11.493   3.483   7.756  1.00  0.00     0.124 S 
ATOM     82  O   UNL     1      11.174   4.234   8.965  1.00  0.00    -0.237 OA
ATOM     83  O   UNL     1      11.268   2.043   7.816  1.00  0.00    -0.237 OA
ATOM     84  O   UNL     1      12.718   3.892   7.071  1.00  0.00    -0.744 OA
ENDBRANCH  77  81
ENDBRANCH  50  74
BRANCH  62  85
ATOM     85  C   UNL     1       4.349   6.852  11.745  1.00  0.00     0.023 A 
ATOM     86  C   UNL     1       4.915   8.135  11.646  1.00  0.00     0.031 A 
ATOM     87  C   UNL     1       4.268   6.264  13.020  1.00  0.00     0.131 A 
ATOM     88  C   UNL     1       5.453   8.753  12.785  1.00  0.00     0.055 A 
ATOM     89  C   UNL     1       4.737   6.915  14.162  1.00  0.00     0.041 A 
ATOM     90  F   UNL     1       3.738   5.040  13.177  1.00  0.00    -0.206 F 
ATOM     91  C   UNL     1       5.352   8.158  14.046  1.00  0.00     0.022 A 
BRANCH  88  92
ATOM     92  S   UNL     1       6.407  10.281  12.575  1.00  0.00     0.124 S 
ATOM     93  O   UNL     1       7.410   9.881  11.595  1.00  0.00    -0.237 OA
ATOM     94  O   UNL     1       5.393  11.218  12.103  1.00  0.00    -0.237 OA
ATOM     95  O   UNL     1       6.923  10.550  13.916  1.00  0.00    -0.744 OA
ENDBRANCH  88  92
ENDBRANCH  62  85
ENDBRANCH  36  37
ENDBRANCH  28  31
ENDBRANCH  26  27
ENDBRANCH  25  26
ENDBRANCH  24  25
ENDBRANCH   1  24
TORSDOF 21
