REMARK SMILES O=C(NCCCCCCNC(=O)[C@@]12C[C@H]3C[C@@H](C1)C[C@](n1cc([N+](=O)[O-])cn1)(C3)C2)c1ccc(-c2c3nc(c(-c4cc(S(=O)(=O)[O-])ccc4F)c4ccc([nH]4)c(-c4cc(S(=O)(=O)[O-])ccc4F)c4nc(c(-c5cc(S(=O)(=O)[O-])ccc5F)c5ccc2[nH]5)C=C4)C=C3)cc1
REMARK SMILES IDX 6 1 5 2 4 3 3 4 1 5 2 6 31 8 32 9 93 10 33 11 92 12 34 13
REMARK SMILES IDX 35 14 36 15 86 16 37 17 91 18 85 19 87 20 38 21 90 22 84 23
REMARK SMILES IDX 83 24 39 26 71 27 51 28 70 29 52 30 55 31 69 32 88 33 53 34
REMARK SMILES IDX 54 35 68 37 89 38 56 39 40 40 41 41 49 42 42 43 48 44 50 45
REMARK SMILES IDX 47 46 43 47 44 48 45 49 46 50 72 51 73 52 81 53 74 54 80 55
REMARK SMILES IDX 82 56 79 57 75 58 76 59 77 60 78 61 57 62 58 63 66 64 59 65
REMARK SMILES IDX 65 66 67 67 64 68 60 69 61 70 62 71 63 72 7 73 8 74 9 75
REMARK SMILES IDX 10 76 11 77 12 79 13 80 14 81 18 82 30 83 15 84 17 85 20 86
REMARK SMILES IDX 16 87 29 88 19 89 21 90 22 91 28 92 23 93 27 94 24 95 25 96
REMARK SMILES IDX 26 97
REMARK H PARENT 3 7 87 25 55 36 10 78
REMARK Flexibility Score: inf
ROOT
ATOM      1  C   UNL     1       4.045   2.400  -2.341  1.00  0.00     0.002 C 
ENDROOT
BRANCH   1   2
ATOM      2  C   UNL     1       4.637   1.062  -1.883  1.00  0.00     0.021 C 
BRANCH   2   3
ATOM      3  C   UNL     1       4.627   0.864  -0.368  1.00  0.00     0.116 C 
BRANCH   3   4
ATOM      4  N   UNL     1       3.300   0.906   0.210  1.00  0.00    -0.352 N 
ATOM      5  O   UNL     1       1.259   0.409   0.883  1.00  0.00    -0.269 OA
ATOM      6  C   UNL     1       2.252   0.028   0.257  1.00  0.00     0.251 C 
ATOM      7  H   UNL     1       3.110   1.754   0.672  1.00  0.00     0.163 HD
BRANCH   6   8
ATOM      8  C   UNL     1       2.218  -1.304  -0.413  1.00  0.00     0.039 A 
ATOM      9  C   UNL     1       3.316  -1.975  -0.954  1.00  0.00     0.014 A 
ATOM     10  C   UNL     1       0.955  -1.922  -0.487  1.00  0.00     0.014 A 
ATOM     11  C   UNL     1       3.152  -3.196  -1.605  1.00  0.00     0.010 A 
ATOM     12  C   UNL     1       0.790  -3.154  -1.115  1.00  0.00     0.010 A 
ATOM     13  C   UNL     1       1.889  -3.782  -1.696  1.00  0.00    -0.014 A 
BRANCH  13  14
ATOM     14  C   UNL     1       1.796  -5.128  -2.263  1.00  0.00     0.031 A 
ATOM     15  C   UNL     1       2.510  -6.192  -1.494  1.00  0.00     0.074 A 
ATOM     16  C   UNL     1       0.998  -5.456  -3.299  1.00  0.00     0.049 A 
ATOM     17  N   UNL     1       3.438  -6.999  -1.897  1.00  0.00    -0.248 NA
ATOM     18  C   UNL     1       2.211  -6.308  -0.057  1.00  0.00     0.031 C 
ATOM     19  C   UNL     1       0.012  -4.610  -3.973  1.00  0.00     0.029 A 
ATOM     20  N   UNL     1       0.823  -6.672  -3.896  1.00  0.00    -0.354 N 
ATOM     21  C   UNL     1       3.708  -7.854  -0.828  1.00  0.00     0.074 A 
ATOM     22  C   UNL     1       3.031  -7.293   0.310  1.00  0.00     0.031 C 
ATOM     23  C   UNL     1      -0.806  -5.387  -4.717  1.00  0.00     0.029 A 
ATOM     24  C   UNL     1      -0.323  -6.758  -4.678  1.00  0.00     0.049 A 
ATOM     25  H   UNL     1       1.452  -7.420  -3.782  1.00  0.00     0.167 HD
ATOM     26  C   UNL     1       4.325  -9.058  -1.001  1.00  0.00     0.034 A 
ATOM     27  C   UNL     1      -0.883  -7.883  -5.197  1.00  0.00     0.034 A 
ATOM     28  C   UNL     1       5.042  -9.102  -2.253  1.00  0.00     0.049 A 
ATOM     29  C   UNL     1       0.177  -8.918  -5.253  1.00  0.00     0.074 A 
ATOM     30  C   UNL     1       6.071  -8.364  -2.807  1.00  0.00     0.029 A 
ATOM     31  N   UNL     1       4.499  -9.809  -3.301  1.00  0.00    -0.354 N 
ATOM     32  N   UNL     1       1.232  -8.831  -6.016  1.00  0.00    -0.248 NA
ATOM     33  C   UNL     1       0.298  -9.841  -4.134  1.00  0.00     0.031 C 
ATOM     34  C   UNL     1       5.744  -8.263  -4.190  1.00  0.00     0.029 A 
ATOM     35  C   UNL     1       4.575  -8.996  -4.404  1.00  0.00     0.049 A 
ATOM     36  H   UNL     1       4.128 -10.721  -3.267  1.00  0.00     0.167 HD
ATOM     37  C   UNL     1       2.270  -9.342  -5.254  1.00  0.00     0.074 A 
ATOM     38  C   UNL     1       1.619 -10.040  -4.148  1.00  0.00     0.031 C 
ATOM     39  C   UNL     1       3.558  -8.926  -5.434  1.00  0.00     0.034 A 
BRANCH  26  40
ATOM     40  C   UNL     1       4.028 -10.314  -0.204  1.00  0.00     0.023 A 
ATOM     41  C   UNL     1       4.721 -11.489  -0.564  1.00  0.00     0.031 A 
ATOM     42  C   UNL     1       2.925 -10.499   0.658  1.00  0.00     0.131 A 
ATOM     43  C   UNL     1       4.247 -12.758  -0.185  1.00  0.00     0.055 A 
ATOM     44  C   UNL     1       2.500 -11.760   1.092  1.00  0.00     0.041 A 
ATOM     45  F   UNL     1       2.140  -9.492   1.058  1.00  0.00    -0.206 F 
ATOM     46  C   UNL     1       3.138 -12.902   0.640  1.00  0.00     0.022 A 
BRANCH  43  47
ATOM     47  S   UNL     1       4.987 -14.220  -0.962  1.00  0.00     0.124 S 
ATOM     48  O   UNL     1       4.927 -13.864  -2.376  1.00  0.00    -0.237 OA
ATOM     49  O   UNL     1       6.315 -14.239  -0.358  1.00  0.00    -0.237 OA
ATOM     50  O   UNL     1       4.099 -15.305  -0.554  1.00  0.00    -0.744 OA
ENDBRANCH  43  47
ENDBRANCH  26  40
BRANCH  27  51
ATOM     51  C   UNL     1      -2.339  -8.180  -5.307  1.00  0.00     0.023 A 
ATOM     52  C   UNL     1      -2.865  -9.151  -6.185  1.00  0.00     0.031 A 
ATOM     53  C   UNL     1      -3.231  -7.643  -4.350  1.00  0.00     0.131 A 
ATOM     54  C   UNL     1      -4.227  -9.531  -6.092  1.00  0.00     0.055 A 
ATOM     55  C   UNL     1      -4.574  -8.014  -4.269  1.00  0.00     0.041 A 
ATOM     56  F   UNL     1      -2.804  -6.793  -3.403  1.00  0.00    -0.206 F 
ATOM     57  C   UNL     1      -5.077  -8.967  -5.137  1.00  0.00     0.022 A 
BRANCH  54  58
ATOM     58  S   UNL     1      -4.896 -10.844  -7.165  1.00  0.00     0.124 S 
ATOM     59  O   UNL     1      -4.850 -10.218  -8.485  1.00  0.00    -0.237 OA
ATOM     60  O   UNL     1      -3.971 -11.941  -6.935  1.00  0.00    -0.237 OA
ATOM     61  O   UNL     1      -6.247 -11.059  -6.640  1.00  0.00    -0.744 OA
ENDBRANCH  54  58
ENDBRANCH  27  51
BRANCH  39  62
ATOM     62  C   UNL     1       3.904  -8.126  -6.671  1.00  0.00     0.023 A 
ATOM     63  C   UNL     1       3.330  -6.881  -7.009  1.00  0.00     0.031 A 
ATOM     64  C   UNL     1       4.979  -8.585  -7.453  1.00  0.00     0.131 A 
ATOM     65  C   UNL     1       3.836  -6.147  -8.100  1.00  0.00     0.055 A 
ATOM     66  C   UNL     1       5.489  -7.848  -8.520  1.00  0.00     0.041 A 
ATOM     67  F   UNL     1       5.589  -9.746  -7.158  1.00  0.00    -0.206 F 
ATOM     68  C   UNL     1       4.916  -6.626  -8.850  1.00  0.00     0.022 A 
BRANCH  65  69
ATOM     69  S   UNL     1       3.107  -4.541  -8.557  1.00  0.00     0.124 S 
ATOM     70  O   UNL     1       1.681  -4.830  -8.651  1.00  0.00    -0.237 OA
ATOM     71  O   UNL     1       3.517  -3.680  -7.450  1.00  0.00    -0.237 OA
ATOM     72  O   UNL     1       3.749  -4.226  -9.835  1.00  0.00    -0.744 OA
ENDBRANCH  65  69
ENDBRANCH  39  62
ENDBRANCH  13  14
ENDBRANCH   6   8
ENDBRANCH   3   4
ENDBRANCH   2   3
ENDBRANCH   1   2
BRANCH   1  73
ATOM     73  C   UNL     1       4.702   3.643  -1.728  1.00  0.00     0.002 C 
BRANCH  73  74
ATOM     74  C   UNL     1       6.217   3.727  -1.950  1.00  0.00     0.021 C 
BRANCH  74  75
ATOM     75  C   UNL     1       6.571   4.042  -3.405  1.00  0.00     0.116 C 
BRANCH  75  76
ATOM     76  N   UNL     1       6.636   5.481  -3.573  1.00  0.00    -0.356 N 
ATOM     77  C   UNL     1       7.613   6.378  -3.277  1.00  0.00     0.226 C 
ATOM     78  H   UNL     1       5.828   5.879  -3.971  1.00  0.00     0.163 HD
ATOM     79  O   UNL     1       7.252   7.556  -3.182  1.00  0.00    -0.274 OA
BRANCH  77  80
ATOM     80  C   UNL     1       9.116   6.011  -3.262  1.00  0.00     0.052 C 
ATOM     81  C   UNL     1       9.939   7.240  -2.785  1.00  0.00     0.020 C 
ATOM     82  C   UNL     1       9.570   4.795  -2.426  1.00  0.00     0.020 C 
ATOM     83  C   UNL     1       9.478   5.769  -4.728  1.00  0.00     0.047 C 
ATOM     84  C   UNL     1      11.449   6.996  -2.947  1.00  0.00    -0.007 C 
ATOM     85  C   UNL     1      11.086   4.547  -2.589  1.00  0.00    -0.007 C 
ATOM     86  C   UNL     1      10.989   5.487  -4.944  1.00  0.00     0.065 C 
ATOM     87  C   UNL     1      11.850   5.782  -2.103  1.00  0.00     0.007 C 
ATOM     88  C   UNL     1      11.775   6.727  -4.430  1.00  0.00     0.034 C 
ATOM     89  C   UNL     1      11.413   4.279  -4.076  1.00  0.00     0.034 C 
BRANCH  86  90
ATOM     90  N   UNL     1      11.161   5.222  -6.392  1.00  0.00    -0.259 N 
ATOM     91  C   UNL     1      10.286   4.402  -7.089  1.00  0.00     0.195 A 
ATOM     92  N   UNL     1      11.665   6.189  -7.202  1.00  0.00    -0.173 NA
ATOM     93  C   UNL     1       9.824   5.217  -8.105  1.00  0.00     0.307 A 
ATOM     94  C   UNL     1      10.785   6.233  -8.213  1.00  0.00     0.220 A 
BRANCH  93  95
ATOM     95  N   UNL     1       8.566   5.121  -8.771  1.00  0.00     0.066 N 
ATOM     96  O   UNL     1       8.423   5.799  -9.795  1.00  0.00    -0.258 OA
ATOM     97  O   UNL     1       7.694   4.440  -8.216  1.00  0.00    -0.258 OA
ENDBRANCH  93  95
ENDBRANCH  86  90
ENDBRANCH  77  80
ENDBRANCH  75  76
ENDBRANCH  74  75
ENDBRANCH  73  74
ENDBRANCH   1  73
TORSDOF 18
