REMARK SMILES Cc1c(/C=C/C(=O)NCCCCCCNC(=O)c2ccc(-c3c4nc(c(-c5cc(S(=O)(=O)[O-])ccc5F)c5ccc([nH]5)c(-c5cc(S(=O)(=O)[O-])ccc5F)c5nc(c(-c6cc(S(=O)(=O)[O-])ccc6F)c6ccc3[nH]6)C=C5)C=C4)cc2)cccc1C(=O)N1C[C@@H](C)[C@@H](C)C1
REMARK SMILES IDX 11 1 10 2 9 3 8 4 6 5 7 6 5 8 4 9 3 10 1 11 2 12 84 13 81 14
REMARK SMILES IDX 83 15 82 16 85 17 86 18 87 19 88 20 93 21 89 22 91 23 90 24
REMARK SMILES IDX 92 25 12 26 13 27 14 28 15 29 16 30 17 32 18 33 19 34 80 35
REMARK SMILES IDX 20 36 79 37 21 38 22 39 23 40 73 41 24 42 78 43 72 44 74 45
REMARK SMILES IDX 25 46 77 47 71 48 70 49 26 51 58 52 38 53 57 54 39 55 42 56
REMARK SMILES IDX 56 57 75 58 40 59 41 60 55 62 76 63 43 64 27 65 28 66 36 67
REMARK SMILES IDX 29 68 35 69 37 70 34 71 30 72 31 73 32 74 33 75 59 76 60 77
REMARK SMILES IDX 68 78 61 79 67 80 69 81 66 82 62 83 63 84 64 85 65 86 44 87
REMARK SMILES IDX 45 88 53 89 46 90 52 91 54 92 51 93 47 94 48 95 49 96 50 97
REMARK H PARENT 8 7 15 31 74 50 42 61
REMARK Flexibility Score: inf
ROOT
ATOM      1  C   UNL     1       5.164  -5.276   1.046  1.00  0.00     0.002 C 
ENDROOT
BRANCH   1   2
ATOM      2  C   UNL     1       4.161  -4.123   0.900  1.00  0.00     0.021 C 
BRANCH   2   3
ATOM      3  C   UNL     1       3.204  -4.249  -0.284  1.00  0.00     0.116 C 
BRANCH   3   4
ATOM      4  N   UNL     1       2.113  -5.172  -0.015  1.00  0.00    -0.353 N 
ATOM      5  C   UNL     1       0.768  -4.965  -0.102  1.00  0.00     0.243 C 
ATOM      6  O   UNL     1      -0.029  -5.895  -0.035  1.00  0.00    -0.270 OA
ATOM      7  H   UNL     1       2.384  -6.075   0.269  1.00  0.00     0.163 HD
BRANCH   5   8
ATOM      8  C   UNL     1       0.277  -3.598  -0.372  1.00  0.00     0.072 C 
ATOM      9  C   UNL     1       0.531  -2.589   0.475  1.00  0.00     0.014 C 
BRANCH   9  10
ATOM     10  C   UNL     1       0.105  -1.201   0.223  1.00  0.00    -0.022 A 
ATOM     11  C   UNL     1       2.428  -0.351   0.776  1.00  0.00     0.046 C 
ATOM     12  C   UNL     1       0.999  -0.102   0.361  1.00  0.00    -0.031 A 
ATOM     13  C   UNL     1       0.510   1.204   0.100  1.00  0.00     0.043 A 
ATOM     14  C   UNL     1      -1.245  -0.973  -0.096  1.00  0.00     0.008 A 
ATOM     15  C   UNL     1      -0.844   1.391  -0.239  1.00  0.00     0.014 A 
ATOM     16  C   UNL     1      -1.717   0.313  -0.331  1.00  0.00     0.001 A 
BRANCH  13  17
ATOM     17  C   UNL     1       1.250   2.459   0.427  1.00  0.00     0.254 C 
ATOM     18  O   UNL     1       0.647   3.316   1.075  1.00  0.00    -0.269 OA
BRANCH  17  19
ATOM     19  N   UNL     1       2.576   2.623   0.080  1.00  0.00    -0.338 N 
ATOM     20  C   UNL     1       3.427   3.458   0.906  1.00  0.00     0.123 C 
ATOM     21  C   UNL     1       3.208   2.294  -1.188  1.00  0.00     0.123 C 
ATOM     22  C   UNL     1       4.586   3.873   0.009  1.00  0.00     0.010 C 
ATOM     23  C   UNL     1       4.676   2.733  -1.030  1.00  0.00     0.010 C 
ATOM     24  C   UNL     1       5.843   4.168   0.816  1.00  0.00     0.010 C 
ATOM     25  C   UNL     1       5.575   1.566  -0.631  1.00  0.00     0.010 C 
ENDBRANCH  17  19
ENDBRANCH  13  17
ENDBRANCH   9  10
ENDBRANCH   5   8
ENDBRANCH   3   4
ENDBRANCH   2   3
ENDBRANCH   1   2
BRANCH   1  26
ATOM     26  C   UNL     1       6.022  -5.596  -0.190  1.00  0.00     0.002 C 
BRANCH  26  27
ATOM     27  C   UNL     1       6.736  -4.410  -0.840  1.00  0.00     0.021 C 
BRANCH  27  28
ATOM     28  C   UNL     1       7.868  -3.830   0.006  1.00  0.00     0.116 C 
BRANCH  28  29
ATOM     29  N   UNL     1       9.188  -4.042  -0.580  1.00  0.00    -0.352 N 
ATOM     30  C   UNL     1      10.419  -3.531  -0.186  1.00  0.00     0.251 C 
ATOM     31  H   UNL     1       9.210  -4.632  -1.367  1.00  0.00     0.163 HD
ATOM     32  O   UNL     1      11.433  -3.729  -0.810  1.00  0.00    -0.269 OA
BRANCH  30  33
ATOM     33  C   UNL     1      10.483  -2.849   1.131  1.00  0.00     0.039 A 
ATOM     34  C   UNL     1      11.296  -3.445   2.102  1.00  0.00     0.014 A 
ATOM     35  C   UNL     1       9.571  -1.855   1.470  1.00  0.00     0.014 A 
ATOM     36  C   UNL     1      11.018  -3.223   3.446  1.00  0.00     0.010 A 
ATOM     37  C   UNL     1       9.238  -1.699   2.802  1.00  0.00     0.010 A 
ATOM     38  C   UNL     1       9.911  -2.444   3.780  1.00  0.00    -0.014 A 
BRANCH  38  39
ATOM     39  C   UNL     1       9.283  -2.503   5.096  1.00  0.00     0.031 A 
ATOM     40  C   UNL     1       9.406  -1.385   6.048  1.00  0.00     0.074 A 
ATOM     41  C   UNL     1       8.543  -3.584   5.426  1.00  0.00     0.049 A 
ATOM     42  N   UNL     1       9.264  -1.493   7.326  1.00  0.00    -0.248 NA
ATOM     43  C   UNL     1       9.771  -0.042   5.623  1.00  0.00     0.031 C 
ATOM     44  C   UNL     1       7.638  -3.731   6.561  1.00  0.00     0.029 A 
ATOM     45  N   UNL     1       8.675  -4.873   4.917  1.00  0.00    -0.354 N 
ATOM     46  C   UNL     1       9.209  -0.222   7.851  1.00  0.00     0.074 A 
ATOM     47  C   UNL     1       9.628   0.634   6.766  1.00  0.00     0.031 C 
ATOM     48  C   UNL     1       7.489  -5.038   6.829  1.00  0.00     0.029 A 
ATOM     49  C   UNL     1       8.403  -5.765   5.967  1.00  0.00     0.049 A 
ATOM     50  H   UNL     1       8.914  -5.114   3.993  1.00  0.00     0.167 HD
ATOM     51  C   UNL     1       8.668  -0.039   9.092  1.00  0.00     0.034 A 
ATOM     52  C   UNL     1       9.349  -6.652   6.395  1.00  0.00     0.034 A 
ATOM     53  C   UNL     1       8.390  -1.322   9.749  1.00  0.00     0.049 A 
ATOM     54  C   UNL     1       9.747  -6.458   7.842  1.00  0.00     0.074 A 
ATOM     55  C   UNL     1       7.227  -2.045   9.965  1.00  0.00     0.029 A 
ATOM     56  N   UNL     1       9.443  -2.181  10.057  1.00  0.00    -0.354 N 
ATOM     57  N   UNL     1       9.482  -5.387   8.539  1.00  0.00    -0.248 NA
ATOM     58  C   UNL     1      10.484  -7.454   8.613  1.00  0.00     0.031 C 
ATOM     59  C   UNL     1       7.592  -3.367  10.335  1.00  0.00     0.029 A 
ATOM     60  C   UNL     1       8.973  -3.441  10.380  1.00  0.00     0.049 A 
ATOM     61  H   UNL     1      10.394  -1.925  10.046  1.00  0.00     0.167 HD
ATOM     62  C   UNL     1       9.999  -5.517   9.805  1.00  0.00     0.074 A 
ATOM     63  C   UNL     1      10.593  -6.843   9.806  1.00  0.00     0.031 C 
ATOM     64  C   UNL     1       9.897  -4.515  10.733  1.00  0.00     0.034 A 
BRANCH  51  65
ATOM     65  C   UNL     1       8.089   1.282   9.578  1.00  0.00     0.023 A 
ATOM     66  C   UNL     1       7.046   1.270  10.531  1.00  0.00     0.031 A 
ATOM     67  C   UNL     1       8.441   2.562   9.107  1.00  0.00     0.131 A 
ATOM     68  C   UNL     1       6.340   2.441  10.874  1.00  0.00     0.055 A 
ATOM     69  C   UNL     1       7.706   3.720   9.402  1.00  0.00     0.041 A 
ATOM     70  F   UNL     1       9.550   2.775   8.391  1.00  0.00    -0.206 F 
ATOM     71  C   UNL     1       6.636   3.661  10.278  1.00  0.00     0.022 A 
BRANCH  68  72
ATOM     72  S   UNL     1       5.018   2.350  12.114  1.00  0.00     0.124 S 
ATOM     73  O   UNL     1       4.095   1.394  11.514  1.00  0.00    -0.237 OA
ATOM     74  O   UNL     1       5.739   1.900  13.300  1.00  0.00    -0.237 OA
ATOM     75  O   UNL     1       4.524   3.725  12.182  1.00  0.00    -0.744 OA
ENDBRANCH  68  72
ENDBRANCH  51  65
BRANCH  52  76
ATOM     76  C   UNL     1      10.233  -7.139   5.296  1.00  0.00     0.023 A 
ATOM     77  C   UNL     1       9.603  -7.778   4.205  1.00  0.00     0.031 A 
ATOM     78  C   UNL     1      11.534  -6.655   5.110  1.00  0.00     0.131 A 
ATOM     79  C   UNL     1      10.195  -7.761   2.935  1.00  0.00     0.055 A 
ATOM     80  C   UNL     1      12.155  -6.707   3.854  1.00  0.00     0.041 A 
ATOM     81  F   UNL     1      12.172  -6.011   6.098  1.00  0.00    -0.206 F 
ATOM     82  C   UNL     1      11.468  -7.218   2.750  1.00  0.00     0.022 A 
BRANCH  79  83
ATOM     83  S   UNL     1       9.191  -8.195   1.480  1.00  0.00     0.124 S 
ATOM     84  O   UNL     1       9.636  -9.553   1.195  1.00  0.00    -0.237 OA
ATOM     85  O   UNL     1       7.820  -8.066   1.970  1.00  0.00    -0.237 OA
ATOM     86  O   UNL     1       9.571  -7.182   0.497  1.00  0.00    -0.744 OA
ENDBRANCH  79  83
ENDBRANCH  52  76
BRANCH  64  87
ATOM     87  C   UNL     1      10.579  -4.478  12.090  1.00  0.00     0.023 A 
ATOM     88  C   UNL     1      11.652  -5.309  12.448  1.00  0.00     0.031 A 
ATOM     89  C   UNL     1      10.201  -3.522  13.067  1.00  0.00     0.131 A 
ATOM     90  C   UNL     1      12.237  -5.239  13.727  1.00  0.00     0.055 A 
ATOM     91  C   UNL     1      10.836  -3.401  14.308  1.00  0.00     0.041 A 
ATOM     92  F   UNL     1       9.201  -2.653  12.859  1.00  0.00    -0.206 F 
ATOM     93  C   UNL     1      11.853  -4.274  14.653  1.00  0.00     0.022 A 
BRANCH  90  94
ATOM     94  S   UNL     1      13.478  -6.483  14.175  1.00  0.00     0.124 S 
ATOM     95  O   UNL     1      12.700  -7.718  14.112  1.00  0.00    -0.237 OA
ATOM     96  O   UNL     1      14.483  -6.314  13.131  1.00  0.00    -0.237 OA
ATOM     97  O   UNL     1      13.901  -6.084  15.516  1.00  0.00    -0.744 OA
ENDBRANCH  90  94
ENDBRANCH  64  87
ENDBRANCH  38  39
ENDBRANCH  30  33
ENDBRANCH  28  29
ENDBRANCH  27  28
ENDBRANCH  26  27
ENDBRANCH   1  26
TORSDOF 19
