REMARK SMILES C[C@@H](CCC(=O)NCCCCCCNC(=O)c1ccc(-c2c3nc(c(-c4cc(S(=O)(=O)[O-])ccc4F)c4ccc([nH]4)c(-c4cc(S(=O)(=O)[O-])ccc4F)c4nc(c(-c5cc(S(=O)(=O)[O-])ccc5F)c5ccc2[nH]5)C=C4)C=C3)cc1)NC(=O)Nc1ccc(Cl)c(Br)c1
REMARK SMILES IDX 10 1 9 2 8 3 7 4 5 5 6 6 4 8 3 9 2 10 1 11 80 12 81 13 82 15
REMARK SMILES IDX 83 16 84 18 85 19 91 20 86 21 89 22 87 23 90 24 88 25 11 26
REMARK SMILES IDX 12 27 13 28 14 29 15 30 16 32 17 33 18 34 79 35 19 36 78 37
REMARK SMILES IDX 20 38 21 39 22 40 72 41 23 42 77 43 71 44 73 45 24 46 76 47
REMARK SMILES IDX 70 48 69 49 25 51 57 52 37 53 56 54 38 55 41 56 55 57 74 58
REMARK SMILES IDX 39 59 40 60 54 62 75 63 42 64 26 65 27 66 35 67 28 68 34 69
REMARK SMILES IDX 36 70 33 71 29 72 30 73 31 74 32 75 58 76 59 77 67 78 60 79
REMARK SMILES IDX 66 80 68 81 65 82 61 83 62 84 63 85 64 86 43 87 44 88 52 89
REMARK SMILES IDX 45 90 51 91 53 92 50 93 46 94 47 95 48 96 49 97
REMARK H PARENT 7 7 80 14 83 17 14 31 73 50 41 61
REMARK Flexibility Score: inf
ROOT
ATOM      1  C   UNL     1      -3.294  -0.610   0.481  1.00  0.00     0.002 C 
ENDROOT
BRANCH   1   2
ATOM      2  C   UNL     1      -1.867  -0.507  -0.063  1.00  0.00     0.021 C 
BRANCH   2   3
ATOM      3  C   UNL     1      -1.786   0.015  -1.497  1.00  0.00     0.116 C 
BRANCH   3   4
ATOM      4  N   UNL     1      -2.050   1.443  -1.569  1.00  0.00    -0.356 N 
ATOM      5  C   UNL     1      -1.210   2.498  -1.734  1.00  0.00     0.220 C 
ATOM      6  O   UNL     1      -1.686   3.635  -1.697  1.00  0.00    -0.275 OA
ATOM      7  H   UNL     1      -3.000   1.687  -1.484  1.00  0.00     0.163 HD
BRANCH   5   8
ATOM      8  C   UNL     1       0.278   2.298  -1.907  1.00  0.00     0.102 C 
BRANCH   8   9
ATOM      9  C   UNL     1       1.082   2.891  -0.745  1.00  0.00     0.034 C 
BRANCH   9  10
ATOM     10  C   UNL     1       0.948   2.200   0.629  1.00  0.00     0.081 C 
ATOM     11  C   UNL     1       1.333   0.720   0.570  1.00  0.00     0.031 C 
BRANCH  10  12
ATOM     12  N   UNL     1      -0.357   2.477   1.246  1.00  0.00    -0.335 N 
ATOM     13  C   UNL     1      -0.937   2.166   2.425  1.00  0.00     0.319 C 
ATOM     14  H   UNL     1      -0.944   3.013   0.665  1.00  0.00     0.165 HD
ATOM     15  O   UNL     1      -2.159   2.312   2.518  1.00  0.00    -0.248 OA
ATOM     16  N   UNL     1      -0.275   1.580   3.445  1.00  0.00    -0.308 N 
ATOM     17  H   UNL     1      -0.840   1.019   4.024  1.00  0.00     0.171 HD
BRANCH  16  18
ATOM     18  C   UNL     1       1.068   1.627   3.828  1.00  0.00     0.044 A 
ATOM     19  C   UNL     1       1.610   0.503   4.453  1.00  0.00     0.028 A 
ATOM     20  C   UNL     1       1.870   2.742   3.597  1.00  0.00     0.043 A 
ATOM     21  C   UNL     1       2.985   0.434   4.684  1.00  0.00     0.024 A 
ATOM     22  C   UNL     1       3.249   2.674   3.816  1.00  0.00     0.038 A 
ATOM     23  C   UNL     1       3.813   1.505   4.335  1.00  0.00     0.055 A 
ATOM     24  Br  UNL     1       4.284   4.186   3.313  1.00  0.00    -0.049 Br
ATOM     25  Cl  UNL     1       5.515   1.306   4.543  1.00  0.00    -0.083 Cl
ENDBRANCH  16  18
ENDBRANCH  10  12
ENDBRANCH   9  10
ENDBRANCH   8   9
ENDBRANCH   5   8
ENDBRANCH   3   4
ENDBRANCH   2   3
ENDBRANCH   1   2
BRANCH   1  26
ATOM     26  C   UNL     1      -3.958  -1.963   0.216  1.00  0.00     0.002 C 
BRANCH  26  27
ATOM     27  C   UNL     1      -3.276  -3.169   0.876  1.00  0.00     0.021 C 
BRANCH  27  28
ATOM     28  C   UNL     1      -3.092  -3.061   2.389  1.00  0.00     0.116 C 
BRANCH  28  29
ATOM     29  N   UNL     1      -4.369  -3.081   3.084  1.00  0.00    -0.352 N 
ATOM     30  C   UNL     1      -4.895  -4.066   3.882  1.00  0.00     0.251 C 
ATOM     31  H   UNL     1      -4.932  -2.282   2.966  1.00  0.00     0.163 HD
ATOM     32  O   UNL     1      -6.095  -4.062   4.157  1.00  0.00    -0.269 OA
BRANCH  30  33
ATOM     33  C   UNL     1      -4.015  -5.133   4.404  1.00  0.00     0.039 A 
ATOM     34  C   UNL     1      -4.420  -6.466   4.303  1.00  0.00     0.014 A 
ATOM     35  C   UNL     1      -2.794  -4.811   5.005  1.00  0.00     0.014 A 
ATOM     36  C   UNL     1      -3.575  -7.481   4.759  1.00  0.00     0.010 A 
ATOM     37  C   UNL     1      -1.927  -5.827   5.404  1.00  0.00     0.010 A 
ATOM     38  C   UNL     1      -2.311  -7.172   5.290  1.00  0.00    -0.014 A 
BRANCH  38  39
ATOM     39  C   UNL     1      -1.385  -8.247   5.731  1.00  0.00     0.031 A 
ATOM     40  C   UNL     1      -1.020  -8.387   7.184  1.00  0.00     0.074 A 
ATOM     41  C   UNL     1      -0.830  -9.063   4.814  1.00  0.00     0.049 A 
ATOM     42  N   UNL     1      -0.214  -9.245   7.757  1.00  0.00    -0.248 NA
ATOM     43  C   UNL     1      -1.617  -7.413   8.108  1.00  0.00     0.031 C 
ATOM     44  C   UNL     1      -1.064  -8.992   3.370  1.00  0.00     0.029 A 
ATOM     45  N   UNL     1       0.045 -10.110   4.956  1.00  0.00    -0.354 N 
ATOM     46  C   UNL     1      -0.200  -8.909   9.107  1.00  0.00     0.074 A 
ATOM     47  C   UNL     1      -1.026  -7.728   9.250  1.00  0.00     0.031 C 
ATOM     48  C   UNL     1      -0.375  -9.972   2.764  1.00  0.00     0.029 A 
ATOM     49  C   UNL     1       0.375 -10.719   3.768  1.00  0.00     0.049 A 
ATOM     50  H   UNL     1       0.403 -10.398   5.827  1.00  0.00     0.167 HD
ATOM     51  C   UNL     1       0.424  -9.540  10.134  1.00  0.00     0.034 A 
ATOM     52  C   UNL     1       1.190 -11.762   3.517  1.00  0.00     0.034 A 
ATOM     53  C   UNL     1       1.236 -10.723   9.974  1.00  0.00     0.049 A 
ATOM     54  C   UNL     1       1.880 -12.443   4.669  1.00  0.00     0.074 A 
ATOM     55  C   UNL     1       1.852 -11.488  10.950  1.00  0.00     0.029 A 
ATOM     56  N   UNL     1       1.556 -11.309   8.755  1.00  0.00    -0.354 N 
ATOM     57  N   UNL     1       1.829 -12.157   5.950  1.00  0.00    -0.248 NA
ATOM     58  C   UNL     1       2.728 -13.596   4.341  1.00  0.00     0.031 C 
ATOM     59  C   UNL     1       2.598 -12.491  10.319  1.00  0.00     0.029 A 
ATOM     60  C   UNL     1       2.391 -12.400   8.951  1.00  0.00     0.049 A 
ATOM     61  H   UNL     1       1.237 -10.995   7.878  1.00  0.00     0.167 HD
ATOM     62  C   UNL     1       2.622 -13.110   6.583  1.00  0.00     0.074 A 
ATOM     63  C   UNL     1       3.122 -13.988   5.544  1.00  0.00     0.031 C 
ATOM     64  C   UNL     1       2.908 -13.249   7.903  1.00  0.00     0.034 A 
BRANCH  51  65
ATOM     65  C   UNL     1       0.268  -8.938  11.512  1.00  0.00     0.023 A 
ATOM     66  C   UNL     1      -0.991  -8.818  12.129  1.00  0.00     0.031 A 
ATOM     67  C   UNL     1       1.385  -8.434  12.202  1.00  0.00     0.131 A 
ATOM     68  C   UNL     1      -1.115  -8.128  13.344  1.00  0.00     0.055 A 
ATOM     69  C   UNL     1       1.266  -7.826  13.454  1.00  0.00     0.041 A 
ATOM     70  F   UNL     1       2.611  -8.501  11.660  1.00  0.00    -0.206 F 
ATOM     71  C   UNL     1       0.008  -7.652  14.024  1.00  0.00     0.022 A 
BRANCH  68  72
ATOM     72  S   UNL     1      -2.779  -7.713  13.936  1.00  0.00     0.124 S 
ATOM     73  O   UNL     1      -3.313  -6.956  12.806  1.00  0.00    -0.237 OA
ATOM     74  O   UNL     1      -3.369  -9.026  14.162  1.00  0.00    -0.237 OA
ATOM     75  O   UNL     1      -2.527  -6.923  15.140  1.00  0.00    -0.744 OA
ENDBRANCH  68  72
ENDBRANCH  51  65
BRANCH  52  76
ATOM     76  C   UNL     1       1.393 -12.236   2.119  1.00  0.00     0.023 A 
ATOM     77  C   UNL     1       0.920 -13.491   1.708  1.00  0.00     0.031 A 
ATOM     78  C   UNL     1       2.081 -11.447   1.180  1.00  0.00     0.131 A 
ATOM     79  C   UNL     1       1.172 -13.939   0.403  1.00  0.00     0.055 A 
ATOM     80  C   UNL     1       2.291 -11.879  -0.130  1.00  0.00     0.041 A 
ATOM     81  F   UNL     1       2.544 -10.234   1.522  1.00  0.00    -0.206 F 
ATOM     82  C   UNL     1       1.844 -13.137  -0.523  1.00  0.00     0.022 A 
BRANCH  79  83
ATOM     83  S   UNL     1       0.654 -15.616  -0.056  1.00  0.00     0.124 S 
ATOM     84  O   UNL     1       1.407 -16.430   0.892  1.00  0.00    -0.237 OA
ATOM     85  O   UNL     1      -0.789 -15.555   0.154  1.00  0.00    -0.237 OA
ATOM     86  O   UNL     1       1.073 -15.732  -1.451  1.00  0.00    -0.744 OA
ENDBRANCH  79  83
ENDBRANCH  52  76
BRANCH  64  87
ATOM     87  C   UNL     1       3.788 -14.414   8.287  1.00  0.00     0.023 A 
ATOM     88  C   UNL     1       5.136 -14.479   7.893  1.00  0.00     0.031 A 
ATOM     89  C   UNL     1       3.262 -15.488   9.026  1.00  0.00     0.131 A 
ATOM     90  C   UNL     1       5.896 -15.622   8.185  1.00  0.00     0.055 A 
ATOM     91  C   UNL     1       4.040 -16.596   9.367  1.00  0.00     0.041 A 
ATOM     92  F   UNL     1       1.980 -15.481   9.425  1.00  0.00    -0.206 F 
ATOM     93  C   UNL     1       5.361 -16.674   8.934  1.00  0.00     0.022 A 
BRANCH  90  94
ATOM     94  S   UNL     1       7.563 -15.761   7.484  1.00  0.00     0.124 S 
ATOM     95  O   UNL     1       7.301 -15.647   6.053  1.00  0.00    -0.237 OA
ATOM     96  O   UNL     1       8.255 -14.632   8.097  1.00  0.00    -0.237 OA
ATOM     97  O   UNL     1       8.013 -17.079   7.928  1.00  0.00    -0.744 OA
ENDBRANCH  90  94
ENDBRANCH  64  87
ENDBRANCH  38  39
ENDBRANCH  30  33
ENDBRANCH  28  29
ENDBRANCH  27  28
ENDBRANCH  26  27
ENDBRANCH   1  26
TORSDOF 20
