REMARK SMILES CCCOc1ccc([C@H]([NH3+])CC(=O)NCCCCCCNC(=O)c2ccc(-c3c4nc(c(-c5cc(S(=O)(=O)[O-])ccc5F)c5ccc([nH]5)c(-c5cc(S(=O)(=O)[O-])ccc5F)c5nc(c(-c6cc(S(=O)(=O)[O-])ccc6F)c6ccc3[nH]6)C=C5)C=C4)cc2)cc1
REMARK SMILES IDX 16 1 15 2 14 3 12 4 13 5 11 7 9 8 8 9 5 10 6 11 88 12 7 13
REMARK SMILES IDX 87 14 4 15 3 16 2 17 1 18 10 19 17 23 18 24 19 25 20 26
REMARK SMILES IDX 21 27 22 28 23 30 24 31 25 32 86 33 26 34 85 35 27 36 28 37
REMARK SMILES IDX 29 38 79 39 30 40 84 41 78 42 80 43 31 44 83 45 77 46 76 47
REMARK SMILES IDX 32 49 64 50 44 51 63 52 45 53 48 54 62 55 81 56 46 57 47 58
REMARK SMILES IDX 61 60 82 61 49 62 33 63 34 64 42 65 35 66 41 67 43 68 40 69
REMARK SMILES IDX 36 70 37 71 38 72 39 73 65 74 66 75 74 76 67 77 73 78 75 79
REMARK SMILES IDX 72 80 68 81 69 82 70 83 71 84 50 85 51 86 59 87 52 88 58 89
REMARK SMILES IDX 60 90 57 91 53 92 54 93 55 94 56 95
REMARK H PARENT 14 6 10 20 10 21 10 22 21 29 80 48 48 59
REMARK Flexibility Score: inf
ROOT
ATOM      1  C   UNL     1       2.730   1.712   0.196  1.00  0.00     0.021 C 
ENDROOT
BRANCH   1   2
ATOM      2  C   UNL     1       3.775   2.829   0.101  1.00  0.00     0.116 C 
BRANCH   2   3
ATOM      3  N   UNL     1       4.419   2.821  -1.200  1.00  0.00    -0.356 N 
ATOM      4  C   UNL     1       4.122   3.564  -2.303  1.00  0.00     0.226 C 
ATOM      5  O   UNL     1       4.699   3.295  -3.360  1.00  0.00    -0.275 OA
ATOM      6  H   UNL     1       5.172   2.195  -1.298  1.00  0.00     0.163 HD
BRANCH   4   7
ATOM      7  C   UNL     1       3.153   4.730  -2.225  1.00  0.00     0.170 C 
BRANCH   7   8
ATOM      8  C   UNL     1       1.673   4.330  -2.365  1.00  0.00     0.221 C 
BRANCH   8   9
ATOM      9  C   UNL     1       0.737   5.436  -2.838  1.00  0.00     0.010 A 
ATOM     10  C   UNL     1      -1.157   7.398  -3.467  1.00  0.00     0.119 A 
ATOM     11  C   UNL     1      -1.521   6.058  -3.522  1.00  0.00     0.047 A 
ATOM     12  C   UNL     1       0.118   7.773  -3.057  1.00  0.00     0.047 A 
ATOM     13  C   UNL     1      -0.571   5.082  -3.229  1.00  0.00     0.014 A 
ATOM     14  C   UNL     1       1.066   6.797  -2.753  1.00  0.00     0.014 A 
BRANCH  10  15
ATOM     15  O   UNL     1      -2.049   8.387  -3.762  1.00  0.00    -0.494 OA
BRANCH  15  16
ATOM     16  C   UNL     1      -2.363   8.428  -5.161  1.00  0.00     0.229 C 
BRANCH  16  17
ATOM     17  C   UNL     1      -1.407   9.363  -5.905  1.00  0.00     0.038 C 
ATOM     18  C   UNL     1      -0.206   8.641  -6.503  1.00  0.00     0.007 C 
ENDBRANCH  16  17
ENDBRANCH  15  16
ENDBRANCH  10  15
ENDBRANCH   8   9
BRANCH   8  19
ATOM     19  N   UNL     1       1.135   3.877  -1.075  1.00  0.00    -0.351 N 
ATOM     20  H   UNL     1       1.141   4.652  -0.413  1.00  0.00     0.345 HD
ATOM     21  H   UNL     1       1.710   3.116  -0.715  1.00  0.00     0.345 HD
ATOM     22  H   UNL     1       0.178   3.547  -1.203  1.00  0.00     0.345 HD
ENDBRANCH   8  19
ENDBRANCH   7   8
ENDBRANCH   4   7
ENDBRANCH   2   3
ENDBRANCH   1   2
BRANCH   1  23
ATOM     23  C   UNL     1       3.254   0.412   0.803  1.00  0.00     0.002 C 
BRANCH  23  24
ATOM     24  C   UNL     1       3.615   0.505   2.289  1.00  0.00     0.002 C 
BRANCH  24  25
ATOM     25  C   UNL     1       2.503   1.020   3.212  1.00  0.00     0.021 C 
BRANCH  25  26
ATOM     26  C   UNL     1       1.197   0.229   3.161  1.00  0.00     0.116 C 
BRANCH  26  27
ATOM     27  N   UNL     1       1.394  -1.159   3.546  1.00  0.00    -0.352 N 
ATOM     28  C   UNL     1       0.901  -1.854   4.622  1.00  0.00     0.251 C 
ATOM     29  H   UNL     1       1.970  -1.680   2.942  1.00  0.00     0.163 HD
ATOM     30  O   UNL     1       1.396  -2.939   4.913  1.00  0.00    -0.269 OA
BRANCH  28  31
ATOM     31  C   UNL     1      -0.210  -1.305   5.432  1.00  0.00     0.039 A 
ATOM     32  C   UNL     1      -0.160  -1.441   6.822  1.00  0.00     0.014 A 
ATOM     33  C   UNL     1      -1.321  -0.708   4.830  1.00  0.00     0.014 A 
ATOM     34  C   UNL     1      -1.199  -0.936   7.609  1.00  0.00     0.010 A 
ATOM     35  C   UNL     1      -2.327  -0.149   5.619  1.00  0.00     0.010 A 
ATOM     36  C   UNL     1      -2.280  -0.262   7.017  1.00  0.00    -0.014 A 
BRANCH  36  37
ATOM     37  C   UNL     1      -3.361   0.329   7.850  1.00  0.00     0.031 A 
ATOM     38  C   UNL     1      -4.767  -0.202   7.762  1.00  0.00     0.074 A 
ATOM     39  C   UNL     1      -3.084   1.382   8.645  1.00  0.00     0.049 A 
ATOM     40  N   UNL     1      -5.848   0.213   8.370  1.00  0.00    -0.248 NA
ATOM     41  C   UNL     1      -4.990  -1.332   6.848  1.00  0.00     0.031 C 
ATOM     42  C   UNL     1      -1.770   2.016   8.777  1.00  0.00     0.029 A 
ATOM     43  N   UNL     1      -3.888   2.112   9.485  1.00  0.00    -0.354 N 
ATOM     44  C   UNL     1      -6.883  -0.591   7.902  1.00  0.00     0.074 A 
ATOM     45  C   UNL     1      -6.304  -1.485   6.921  1.00  0.00     0.031 C 
ATOM     46  C   UNL     1      -1.856   3.028   9.655  1.00  0.00     0.029 A 
ATOM     47  C   UNL     1      -3.234   3.142  10.120  1.00  0.00     0.049 A 
ATOM     48  H   UNL     1      -4.844   1.917   9.619  1.00  0.00     0.167 HD
ATOM     49  C   UNL     1      -8.189  -0.593   8.270  1.00  0.00     0.034 A 
ATOM     50  C   UNL     1      -3.694   4.080  10.972  1.00  0.00     0.034 A 
ATOM     51  C   UNL     1      -8.745   0.293   9.264  1.00  0.00     0.049 A 
ATOM     52  C   UNL     1      -5.147   4.051  11.371  1.00  0.00     0.074 A 
ATOM     53  C   UNL     1     -10.035   0.324   9.767  1.00  0.00     0.029 A 
ATOM     54  N   UNL     1      -8.049   1.312   9.902  1.00  0.00    -0.354 N 
ATOM     55  N   UNL     1      -6.097   3.236  10.971  1.00  0.00    -0.248 NA
ATOM     56  C   UNL     1      -5.586   5.055  12.348  1.00  0.00     0.031 C 
ATOM     57  C   UNL     1     -10.136   1.401  10.654  1.00  0.00     0.029 A 
ATOM     58  C   UNL     1      -8.890   1.997  10.767  1.00  0.00     0.049 A 
ATOM     59  H   UNL     1      -7.096   1.518   9.762  1.00  0.00     0.167 HD
ATOM     60  C   UNL     1      -7.240   3.616  11.669  1.00  0.00     0.074 A 
ATOM     61  C   UNL     1      -6.853   4.715  12.530  1.00  0.00     0.031 C 
ATOM     62  C   UNL     1      -8.496   3.103  11.607  1.00  0.00     0.034 A 
BRANCH  49  63
ATOM     63  C   UNL     1      -9.111  -1.566   7.572  1.00  0.00     0.023 A 
ATOM     64  C   UNL     1      -8.950  -2.958   7.691  1.00  0.00     0.031 A 
ATOM     65  C   UNL     1     -10.163  -1.093   6.767  1.00  0.00     0.131 A 
ATOM     66  C   UNL     1      -9.781  -3.825   6.965  1.00  0.00     0.055 A 
ATOM     67  C   UNL     1     -11.036  -1.962   6.108  1.00  0.00     0.041 A 
ATOM     68  F   UNL     1     -10.356   0.225   6.599  1.00  0.00    -0.206 F 
ATOM     69  C   UNL     1     -10.839  -3.337   6.194  1.00  0.00     0.022 A 
BRANCH  66  70
ATOM     70  S   UNL     1      -9.381  -5.593   6.939  1.00  0.00     0.124 S 
ATOM     71  O   UNL     1      -8.035  -5.583   6.370  1.00  0.00    -0.237 OA
ATOM     72  O   UNL     1      -9.477  -5.959   8.348  1.00  0.00    -0.237 OA
ATOM     73  O   UNL     1     -10.411  -6.166   6.075  1.00  0.00    -0.744 OA
ENDBRANCH  66  70
ENDBRANCH  49  63
BRANCH  50  74
ATOM     74  C   UNL     1      -2.781   5.137  11.497  1.00  0.00     0.023 A 
ATOM     75  C   UNL     1      -2.478   5.221  12.865  1.00  0.00     0.031 A 
ATOM     76  C   UNL     1      -2.235   6.109  10.640  1.00  0.00     0.131 A 
ATOM     77  C   UNL     1      -1.695   6.283  13.344  1.00  0.00     0.055 A 
ATOM     78  C   UNL     1      -1.411   7.132  11.113  1.00  0.00     0.041 A 
ATOM     79  F   UNL     1      -2.487   6.071   9.321  1.00  0.00    -0.206 F 
ATOM     80  C   UNL     1      -1.149   7.231  12.476  1.00  0.00     0.022 A 
BRANCH  77  81
ATOM     81  S   UNL     1      -1.474   6.460  15.136  1.00  0.00     0.124 S 
ATOM     82  O   UNL     1      -2.854   6.536  15.600  1.00  0.00    -0.237 OA
ATOM     83  O   UNL     1      -0.749   5.238  15.472  1.00  0.00    -0.237 OA
ATOM     84  O   UNL     1      -0.702   7.694  15.263  1.00  0.00    -0.744 OA
ENDBRANCH  77  81
ENDBRANCH  50  74
BRANCH  62  85
ATOM     85  C   UNL     1      -9.527   3.712  12.526  1.00  0.00     0.023 A 
ATOM     86  C   UNL     1      -9.961   5.040  12.374  1.00  0.00     0.031 A 
ATOM     87  C   UNL     1     -10.063   2.959  13.586  1.00  0.00     0.131 A 
ATOM     88  C   UNL     1     -10.852   5.596  13.304  1.00  0.00     0.055 A 
ATOM     89  C   UNL     1     -10.998   3.497  14.471  1.00  0.00     0.041 A 
ATOM     90  F   UNL     1      -9.683   1.685  13.781  1.00  0.00    -0.206 F 
ATOM     91  C   UNL     1     -11.386   4.828  14.342  1.00  0.00     0.022 A 
BRANCH  88  92
ATOM     92  S   UNL     1     -11.225   7.368  13.201  1.00  0.00     0.124 S 
ATOM     93  O   UNL     1      -9.898   7.964  13.308  1.00  0.00    -0.237 OA
ATOM     94  O   UNL     1     -11.869   7.476  11.896  1.00  0.00    -0.237 OA
ATOM     95  O   UNL     1     -12.104   7.601  14.346  1.00  0.00    -0.744 OA
ENDBRANCH  88  92
ENDBRANCH  62  85
ENDBRANCH  36  37
ENDBRANCH  28  31
ENDBRANCH  26  27
ENDBRANCH  25  26
ENDBRANCH  24  25
ENDBRANCH  23  24
ENDBRANCH   1  23
TORSDOF 22
