REMARK SMILES O=C(NCCCCCCNC(=O)[C@]1(C2CCCC2)CCOc2ccccc21)c1ccc(-c2c3nc(c(-c4cc(S(=O)(=O)[O-])ccc4F)c4ccc([nH]4)c(-c4cc(S(=O)(=O)[O-])ccc4F)c4nc(c(-c5cc(S(=O)(=O)[O-])ccc5F)c5ccc2[nH]5)C=C4)C=C3)cc1
REMARK SMILES IDX 5 1 4 2 3 3 1 4 2 5 28 7 29 8 90 9 30 10 89 11 31 12 32 13
REMARK SMILES IDX 33 14 83 15 34 16 88 17 82 18 84 19 35 20 87 21 81 22 80 23
REMARK SMILES IDX 36 25 68 26 48 27 67 28 49 29 52 30 66 31 85 32 50 33 51 34
REMARK SMILES IDX 65 36 86 37 53 38 37 39 38 40 46 41 39 42 45 43 47 44 44 45
REMARK SMILES IDX 40 46 41 47 42 48 43 49 69 50 70 51 78 52 71 53 77 54 79 55
REMARK SMILES IDX 76 56 72 57 73 58 74 59 75 60 54 61 55 62 63 63 56 64 62 65
REMARK SMILES IDX 64 66 61 67 57 68 58 69 59 70 60 71 6 72 7 73 8 74 9 75
REMARK SMILES IDX 10 76 11 77 12 79 13 80 19 81 27 82 20 83 22 84 26 85 21 86
REMARK SMILES IDX 23 87 25 88 24 89 14 90 15 91 18 92 16 93 17 94
REMARK H PARENT 3 6 84 24 52 35 10 78
REMARK Flexibility Score: inf
ROOT
ATOM      1  C   UNL     1       4.619   2.687   0.368  1.00  0.00     0.021 C 
ENDROOT
BRANCH   1   2
ATOM      2  C   UNL     1       4.437   1.197   0.619  1.00  0.00     0.116 C 
BRANCH   2   3
ATOM      3  N   UNL     1       3.030   0.840   0.691  1.00  0.00    -0.352 N 
ATOM      4  O   UNL     1       1.112  -0.066  -0.081  1.00  0.00    -0.269 OA
ATOM      5  C   UNL     1       2.341  -0.048  -0.094  1.00  0.00     0.251 C 
ATOM      6  H   UNL     1       2.506   1.292   1.392  1.00  0.00     0.163 HD
BRANCH   5   7
ATOM      7  C   UNL     1       3.099  -0.981  -0.951  1.00  0.00     0.039 A 
ATOM      8  C   UNL     1       4.199  -1.669  -0.427  1.00  0.00     0.014 A 
ATOM      9  C   UNL     1       2.700  -1.183  -2.273  1.00  0.00     0.014 A 
ATOM     10  C   UNL     1       4.957  -2.488  -1.251  1.00  0.00     0.010 A 
ATOM     11  C   UNL     1       3.413  -2.077  -3.077  1.00  0.00     0.010 A 
ATOM     12  C   UNL     1       4.543  -2.737  -2.569  1.00  0.00    -0.014 A 
BRANCH  12  13
ATOM     13  C   UNL     1       5.214  -3.811  -3.341  1.00  0.00     0.031 A 
ATOM     14  C   UNL     1       5.993  -3.510  -4.587  1.00  0.00     0.074 A 
ATOM     15  C   UNL     1       5.088  -5.076  -2.891  1.00  0.00     0.049 A 
ATOM     16  N   UNL     1       6.598  -4.343  -5.393  1.00  0.00    -0.248 NA
ATOM     17  C   UNL     1       6.106  -2.099  -4.986  1.00  0.00     0.031 C 
ATOM     18  C   UNL     1       4.342  -5.468  -1.689  1.00  0.00     0.029 A 
ATOM     19  N   UNL     1       5.574  -6.262  -3.375  1.00  0.00    -0.354 N 
ATOM     20  C   UNL     1       7.147  -3.566  -6.407  1.00  0.00     0.074 A 
ATOM     21  C   UNL     1       6.792  -2.191  -6.119  1.00  0.00     0.031 C 
ATOM     22  C   UNL     1       4.441  -6.793  -1.519  1.00  0.00     0.029 A 
ATOM     23  C   UNL     1       5.179  -7.357  -2.641  1.00  0.00     0.049 A 
ATOM     24  H   UNL     1       6.149  -6.325  -4.172  1.00  0.00     0.167 HD
ATOM     25  C   UNL     1       7.873  -3.974  -7.476  1.00  0.00     0.034 A 
ATOM     26  C   UNL     1       5.346  -8.674  -2.869  1.00  0.00     0.034 A 
ATOM     27  C   UNL     1       8.216  -5.354  -7.731  1.00  0.00     0.049 A 
ATOM     28  C   UNL     1       6.106  -9.092  -4.099  1.00  0.00     0.074 A 
ATOM     29  C   UNL     1       9.014  -5.867  -8.739  1.00  0.00     0.029 A 
ATOM     30  N   UNL     1       7.764  -6.440  -6.993  1.00  0.00    -0.354 N 
ATOM     31  N   UNL     1       6.676  -8.337  -5.010  1.00  0.00    -0.248 NA
ATOM     32  C   UNL     1       6.244 -10.533  -4.335  1.00  0.00     0.031 C 
ATOM     33  C   UNL     1       8.972  -7.262  -8.665  1.00  0.00     0.029 A 
ATOM     34  C   UNL     1       8.217  -7.622  -7.560  1.00  0.00     0.049 A 
ATOM     35  H   UNL     1       7.204  -6.380  -6.185  1.00  0.00     0.167 HD
ATOM     36  C   UNL     1       7.250  -9.217  -5.921  1.00  0.00     0.074 A 
ATOM     37  C   UNL     1       6.989 -10.554  -5.429  1.00  0.00     0.031 C 
ATOM     38  C   UNL     1       7.927  -8.947  -7.066  1.00  0.00     0.034 A 
BRANCH  25  39
ATOM     39  C   UNL     1       8.306  -2.941  -8.485  1.00  0.00     0.023 A 
ATOM     40  C   UNL     1       9.257  -1.952  -8.185  1.00  0.00     0.031 A 
ATOM     41  C   UNL     1       7.792  -2.987  -9.795  1.00  0.00     0.131 A 
ATOM     42  C   UNL     1       9.643  -1.032  -9.174  1.00  0.00     0.055 A 
ATOM     43  C   UNL     1       8.225  -2.109 -10.789  1.00  0.00     0.041 A 
ATOM     44  F   UNL     1       6.865  -3.898 -10.132  1.00  0.00    -0.206 F 
ATOM     45  C   UNL     1       9.153  -1.120 -10.479  1.00  0.00     0.022 A 
BRANCH  42  46
ATOM     46  S   UNL     1      10.739   0.338  -8.711  1.00  0.00     0.124 S 
ATOM     47  O   UNL     1       9.950   1.015  -7.684  1.00  0.00    -0.237 OA
ATOM     48  O   UNL     1      11.933  -0.356  -8.243  1.00  0.00    -0.237 OA
ATOM     49  O   UNL     1      10.900   1.086  -9.956  1.00  0.00    -0.744 OA
ENDBRANCH  42  46
ENDBRANCH  25  39
BRANCH  26  50
ATOM     50  C   UNL     1       4.724  -9.686  -1.968  1.00  0.00     0.023 A 
ATOM     51  C   UNL     1       5.506 -10.636  -1.296  1.00  0.00     0.031 A 
ATOM     52  C   UNL     1       3.325  -9.762  -1.820  1.00  0.00     0.131 A 
ATOM     53  C   UNL     1       4.885 -11.658  -0.562  1.00  0.00     0.055 A 
ATOM     54  C   UNL     1       2.717 -10.735  -1.028  1.00  0.00     0.041 A 
ATOM     55  F   UNL     1       2.526  -8.881  -2.442  1.00  0.00    -0.206 F 
ATOM     56  C   UNL     1       3.498 -11.705  -0.409  1.00  0.00     0.022 A 
BRANCH  53  57
ATOM     57  S   UNL     1       5.915 -13.008   0.077  1.00  0.00     0.124 S 
ATOM     58  O   UNL     1       6.604 -13.450  -1.130  1.00  0.00    -0.237 OA
ATOM     59  O   UNL     1       6.734 -12.319   1.068  1.00  0.00    -0.237 OA
ATOM     60  O   UNL     1       4.939 -13.950   0.620  1.00  0.00    -0.744 OA
ENDBRANCH  53  57
ENDBRANCH  26  50
BRANCH  38  61
ATOM     61  C   UNL     1       8.441 -10.131  -7.844  1.00  0.00     0.023 A 
ATOM     62  C   UNL     1       7.562 -11.031  -8.471  1.00  0.00     0.031 A 
ATOM     63  C   UNL     1       9.822 -10.370  -7.947  1.00  0.00     0.131 A 
ATOM     64  C   UNL     1       8.072 -12.159  -9.129  1.00  0.00     0.055 A 
ATOM     65  C   UNL     1      10.325 -11.459  -8.659  1.00  0.00     0.041 A 
ATOM     66  F   UNL     1      10.705  -9.545  -7.362  1.00  0.00    -0.206 F 
ATOM     67  C   UNL     1       9.448 -12.369  -9.243  1.00  0.00     0.022 A 
BRANCH  64  68
ATOM     68  S   UNL     1       6.907 -13.398  -9.760  1.00  0.00     0.124 S 
ATOM     69  O   UNL     1       6.232 -13.827  -8.540  1.00  0.00    -0.237 OA
ATOM     70  O   UNL     1       6.100 -12.622 -10.696  1.00  0.00    -0.237 OA
ATOM     71  O   UNL     1       7.774 -14.401 -10.375  1.00  0.00    -0.744 OA
ENDBRANCH  64  68
ENDBRANCH  38  61
ENDBRANCH  12  13
ENDBRANCH   5   7
ENDBRANCH   2   3
ENDBRANCH   1   2
BRANCH   1  72
ATOM     72  C   UNL     1       4.132   3.569   1.518  1.00  0.00     0.002 C 
BRANCH  72  73
ATOM     73  C   UNL     1       4.801   3.280   2.866  1.00  0.00     0.002 C 
BRANCH  73  74
ATOM     74  C   UNL     1       6.334   3.265   2.828  1.00  0.00     0.021 C 
BRANCH  74  75
ATOM     75  C   UNL     1       6.944   4.570   2.315  1.00  0.00     0.116 C 
BRANCH  75  76
ATOM     76  N   UNL     1       6.779   5.620   3.300  1.00  0.00    -0.355 N 
ATOM     77  C   UNL     1       7.653   6.150   4.199  1.00  0.00     0.231 C 
ATOM     78  H   UNL     1       5.879   6.018   3.324  1.00  0.00     0.163 HD
ATOM     79  O   UNL     1       7.120   6.785   5.116  1.00  0.00    -0.274 OA
BRANCH  77  80
ATOM     80  C   UNL     1       9.213   6.017   4.062  1.00  0.00     0.084 C 
ATOM     81  C   UNL     1       9.617   6.694   2.725  1.00  0.00     0.064 C 
ATOM     82  C   UNL     1       9.616   4.532   4.046  1.00  0.00     0.010 A 
ATOM     83  C   UNL     1      10.864   6.090   2.103  1.00  0.00     0.231 C 
ATOM     84  C   UNL     1      10.327   3.982   2.969  1.00  0.00     0.123 A 
ATOM     85  C   UNL     1       9.191   3.660   5.067  1.00  0.00     0.009 A 
ATOM     86  O   UNL     1      10.734   4.695   1.876  1.00  0.00    -0.493 OA
ATOM     87  C   UNL     1      10.557   2.606   2.887  1.00  0.00     0.047 A 
ATOM     88  C   UNL     1       9.425   2.284   4.984  1.00  0.00     0.001 A 
ATOM     89  C   UNL     1      10.101   1.756   3.889  1.00  0.00     0.004 A 
BRANCH  80  90
ATOM     90  C   UNL     1       9.878   6.712   5.321  1.00  0.00     0.009 C 
ATOM     91  C   UNL     1      11.411   6.731   5.369  1.00  0.00     0.005 C 
ATOM     92  C   UNL     1       9.556   8.202   5.568  1.00  0.00     0.005 C 
ATOM     93  C   UNL     1      11.714   7.628   6.559  1.00  0.00     0.000 C 
ATOM     94  C   UNL     1      10.653   8.719   6.502  1.00  0.00     0.000 C 
ENDBRANCH  80  90
ENDBRANCH  77  80
ENDBRANCH  75  76
ENDBRANCH  74  75
ENDBRANCH  73  74
ENDBRANCH  72  73
ENDBRANCH   1  72
TORSDOF 17
