REMARK SMILES COc1ccc(CSc2ncccc2C(=O)NCCCCCCNC(=O)c2ccc(-c3c4nc(c(-c5cc(S(=O)(=O)[O-])ccc5F)c5ccc([nH]5)c(-c5cc(S(=O)(=O)[O-])ccc5F)c5nc(c(-c6cc(S(=O)(=O)[O-])ccc6F)c6ccc3[nH]6)C=C5)C=C4)cc2)cc1
REMARK SMILES IDX 20 1 19 2 18 3 17 4 15 5 16 6 14 8 9 9 10 10 11 11 13 12
REMARK SMILES IDX 12 13 8 14 7 15 6 16 3 17 4 18 91 19 5 20 90 21 2 22 1 23
REMARK SMILES IDX 21 24 22 25 23 26 24 27 25 28 26 30 27 31 28 32 89 33 29 34
REMARK SMILES IDX 88 35 30 36 31 37 32 38 82 39 33 40 87 41 81 42 83 43 34 44
REMARK SMILES IDX 86 45 80 46 79 47 35 49 67 50 47 51 66 52 48 53 51 54 65 55
REMARK SMILES IDX 84 56 49 57 50 58 64 60 85 61 52 62 36 63 37 64 45 65 38 66
REMARK SMILES IDX 44 67 46 68 43 69 39 70 40 71 41 72 42 73 68 74 69 75 77 76
REMARK SMILES IDX 70 77 76 78 78 79 75 80 71 81 72 82 73 83 74 84 53 85 54 86
REMARK SMILES IDX 62 87 55 88 61 89 63 90 60 91 56 92 57 93 58 94 59 95
REMARK H PARENT 17 7 24 29 83 48 51 59
REMARK Flexibility Score: inf
ROOT
ATOM      1  C   UNL     1       8.606   0.015   4.959  1.00  0.00     0.002 C 
ENDROOT
BRANCH   1   2
ATOM      2  C   UNL     1       7.889   1.364   5.142  1.00  0.00     0.021 C 
BRANCH   2   3
ATOM      3  C   UNL     1       6.481   1.373   4.535  1.00  0.00     0.116 C 
BRANCH   3   4
ATOM      4  N   UNL     1       5.610   0.604   5.409  1.00  0.00    -0.352 N 
ATOM      5  C   UNL     1       4.843   0.995   6.482  1.00  0.00     0.254 C 
ATOM      6  O   UNL     1       4.714   0.194   7.403  1.00  0.00    -0.269 OA
ATOM      7  H   UNL     1       5.560  -0.356   5.197  1.00  0.00     0.163 HD
BRANCH   5   8
ATOM      8  C   UNL     1       4.110   2.279   6.495  1.00  0.00     0.072 A 
ATOM      9  C   UNL     1       2.754   2.351   6.852  1.00  0.00     0.109 A 
ATOM     10  N   UNL     1       2.081   3.540   6.848  1.00  0.00    -0.249 NA
ATOM     11  C   UNL     1       2.744   4.666   6.521  1.00  0.00     0.112 A 
ATOM     12  C   UNL     1       4.778   3.485   6.229  1.00  0.00     0.018 A 
ATOM     13  C   UNL     1       4.087   4.692   6.217  1.00  0.00     0.021 A 
BRANCH   9  14
ATOM     14  S   UNL     1       1.715   1.065   7.530  1.00  0.00    -0.101 SA
BRANCH  14  15
ATOM     15  C   UNL     1       1.844  -0.319   6.364  1.00  0.00     0.112 C 
BRANCH  15  16
ATOM     16  C   UNL     1       1.491  -0.010   4.933  1.00  0.00    -0.037 A 
ATOM     17  C   UNL     1       0.811   0.407   2.234  1.00  0.00     0.118 A 
ATOM     18  C   UNL     1      -0.115   0.666   3.245  1.00  0.00     0.047 A 
ATOM     19  C   UNL     1       2.087  -0.040   2.573  1.00  0.00     0.047 A 
ATOM     20  C   UNL     1       0.216   0.451   4.584  1.00  0.00     0.008 A 
ATOM     21  C   UNL     1       2.421  -0.252   3.913  1.00  0.00     0.008 A 
BRANCH  17  22
ATOM     22  O   UNL     1       0.368   0.649   0.963  1.00  0.00    -0.497 OA
ATOM     23  C   UNL     1       1.038  -0.062  -0.072  1.00  0.00     0.278 C 
ENDBRANCH  17  22
ENDBRANCH  15  16
ENDBRANCH  14  15
ENDBRANCH   9  14
ENDBRANCH   5   8
ENDBRANCH   3   4
ENDBRANCH   2   3
ENDBRANCH   1   2
BRANCH   1  24
ATOM     24  C   UNL     1       8.888  -0.360   3.500  1.00  0.00     0.002 C 
BRANCH  24  25
ATOM     25  C   UNL     1       9.659   0.700   2.712  1.00  0.00     0.021 C 
BRANCH  25  26
ATOM     26  C   UNL     1      11.027   1.026   3.297  1.00  0.00     0.116 C 
BRANCH  26  27
ATOM     27  N   UNL     1      11.929  -0.110   3.203  1.00  0.00    -0.352 N 
ATOM     28  C   UNL     1      13.167  -0.173   2.611  1.00  0.00     0.251 C 
ATOM     29  H   UNL     1      11.610  -0.945   3.618  1.00  0.00     0.163 HD
ATOM     30  O   UNL     1      13.688  -1.256   2.385  1.00  0.00    -0.269 OA
BRANCH  28  31
ATOM     31  C   UNL     1      13.846   1.087   2.238  1.00  0.00     0.039 A 
ATOM     32  C   UNL     1      14.440   1.199   0.980  1.00  0.00     0.014 A 
ATOM     33  C   UNL     1      13.877   2.160   3.134  1.00  0.00     0.014 A 
ATOM     34  C   UNL     1      15.025   2.409   0.601  1.00  0.00     0.010 A 
ATOM     35  C   UNL     1      14.389   3.386   2.725  1.00  0.00     0.010 A 
ATOM     36  C   UNL     1      14.979   3.520   1.458  1.00  0.00    -0.014 A 
BRANCH  36  37
ATOM     37  C   UNL     1      15.573   4.826   1.073  1.00  0.00     0.031 A 
ATOM     38  C   UNL     1      16.719   5.384   1.875  1.00  0.00     0.074 A 
ATOM     39  C   UNL     1      15.044   5.536   0.058  1.00  0.00     0.049 A 
ATOM     40  N   UNL     1      17.301   6.552   1.788  1.00  0.00    -0.248 NA
ATOM     41  C   UNL     1      17.254   4.523   2.941  1.00  0.00     0.031 C 
ATOM     42  C   UNL     1      13.918   5.110  -0.775  1.00  0.00     0.029 A 
ATOM     43  N   UNL     1      15.373   6.772  -0.439  1.00  0.00    -0.354 N 
ATOM     44  C   UNL     1      18.259   6.572   2.797  1.00  0.00     0.074 A 
ATOM     45  C   UNL     1      18.129   5.327   3.523  1.00  0.00     0.031 C 
ATOM     46  C   UNL     1      13.665   6.058  -1.692  1.00  0.00     0.029 A 
ATOM     47  C   UNL     1      14.572   7.182  -1.479  1.00  0.00     0.049 A 
ATOM     48  H   UNL     1      16.114   7.315  -0.084  1.00  0.00     0.167 HD
ATOM     49  C   UNL     1      19.177   7.530   3.076  1.00  0.00     0.034 A 
ATOM     50  C   UNL     1      14.556   8.340  -2.170  1.00  0.00     0.034 A 
ATOM     51  C   UNL     1      19.298   8.759   2.331  1.00  0.00     0.049 A 
ATOM     52  C   UNL     1      15.561   9.410  -1.817  1.00  0.00     0.074 A 
ATOM     53  C   UNL     1      20.218   9.780   2.495  1.00  0.00     0.029 A 
ATOM     54  N   UNL     1      18.468   9.140   1.283  1.00  0.00    -0.354 N 
ATOM     55  N   UNL     1      16.485   9.401  -0.883  1.00  0.00    -0.248 NA
ATOM     56  C   UNL     1      15.528  10.640  -2.618  1.00  0.00     0.031 C 
ATOM     57  C   UNL     1      19.898  10.807   1.601  1.00  0.00     0.029 A 
ATOM     58  C   UNL     1      18.835  10.392   0.815  1.00  0.00     0.049 A 
ATOM     59  H   UNL     1      17.727   8.599   0.925  1.00  0.00     0.167 HD
ATOM     60  C   UNL     1      17.168  10.608  -1.013  1.00  0.00     0.074 A 
ATOM     61  C   UNL     1      16.555  11.313  -2.119  1.00  0.00     0.031 C 
ATOM     62  C   UNL     1      18.213  11.086  -0.289  1.00  0.00     0.034 A 
BRANCH  49  63
ATOM     63  C   UNL     1      20.096   7.293   4.252  1.00  0.00     0.023 A 
ATOM     64  C   UNL     1      20.982   6.201   4.290  1.00  0.00     0.031 A 
ATOM     65  C   UNL     1      20.064   8.150   5.366  1.00  0.00     0.131 A 
ATOM     66  C   UNL     1      21.733   5.947   5.447  1.00  0.00     0.055 A 
ATOM     67  C   UNL     1      20.883   7.944   6.478  1.00  0.00     0.041 A 
ATOM     68  F   UNL     1      19.224   9.196   5.401  1.00  0.00    -0.206 F 
ATOM     69  C   UNL     1      21.711   6.827   6.531  1.00  0.00     0.022 A 
BRANCH  66  70
ATOM     70  S   UNL     1      22.612   4.366   5.577  1.00  0.00     0.124 S 
ATOM     71  O   UNL     1      21.518   3.409   5.425  1.00  0.00    -0.237 OA
ATOM     72  O   UNL     1      23.557   4.439   4.468  1.00  0.00    -0.237 OA
ATOM     73  O   UNL     1      23.207   4.413   6.910  1.00  0.00    -0.744 OA
ENDBRANCH  66  70
ENDBRANCH  49  63
BRANCH  50  74
ATOM     74  C   UNL     1      13.555   8.563  -3.253  1.00  0.00     0.023 A 
ATOM     75  C   UNL     1      13.959   8.749  -4.584  1.00  0.00     0.031 A 
ATOM     76  C   UNL     1      12.180   8.641  -2.966  1.00  0.00     0.131 A 
ATOM     77  C   UNL     1      13.007   9.054  -5.570  1.00  0.00     0.055 A 
ATOM     78  C   UNL     1      11.231   8.886  -3.960  1.00  0.00     0.041 A 
ATOM     79  F   UNL     1      11.737   8.468  -1.711  1.00  0.00    -0.206 F 
ATOM     80  C   UNL     1      11.645   9.109  -5.270  1.00  0.00     0.022 A 
BRANCH  77  81
ATOM     81  S   UNL     1      13.588   9.476  -7.236  1.00  0.00     0.124 S 
ATOM     82  O   UNL     1      14.461  10.612  -6.966  1.00  0.00    -0.237 OA
ATOM     83  O   UNL     1      14.248   8.241  -7.647  1.00  0.00    -0.237 OA
ATOM     84  O   UNL     1      12.355   9.791  -7.955  1.00  0.00    -0.744 OA
ENDBRANCH  77  81
ENDBRANCH  50  74
BRANCH  62  85
ATOM     85  C   UNL     1      18.799  12.411  -0.714  1.00  0.00     0.023 A 
ATOM     86  C   UNL     1      18.078  13.613  -0.614  1.00  0.00     0.031 A 
ATOM     87  C   UNL     1      20.108  12.466  -1.227  1.00  0.00     0.131 A 
ATOM     88  C   UNL     1      18.651  14.810  -1.071  1.00  0.00     0.055 A 
ATOM     89  C   UNL     1      20.696  13.669  -1.617  1.00  0.00     0.041 A 
ATOM     90  F   UNL     1      20.842  11.348  -1.350  1.00  0.00    -0.206 F 
ATOM     91  C   UNL     1      19.962  14.849  -1.552  1.00  0.00     0.022 A 
BRANCH  88  92
ATOM     92  S   UNL     1      17.624  16.305  -1.114  1.00  0.00     0.124 S 
ATOM     93  O   UNL     1      16.520  15.890  -1.973  1.00  0.00    -0.237 OA
ATOM     94  O   UNL     1      17.297  16.500   0.295  1.00  0.00    -0.237 OA
ATOM     95  O   UNL     1      18.512  17.314  -1.689  1.00  0.00    -0.744 OA
ENDBRANCH  88  92
ENDBRANCH  62  85
ENDBRANCH  36  37
ENDBRANCH  28  31
ENDBRANCH  26  27
ENDBRANCH  25  26
ENDBRANCH  24  25
ENDBRANCH   1  24
TORSDOF 20
