REMARK SMILES O=C(NCCCCCCNC(=O)c1ccc(-c2c3nc(c(-c4cc(S(=O)(=O)[O-])ccc4F)c4ccc([nH]4)c(-c4cc(S(=O)(=O)[O-])ccc4F)c4nc(c(-c5cc(S(=O)(=O)[O-])ccc5F)c5ccc2[nH]5)C=C4)C=C3)cc1)c1ccc(N[C@H]2OC[C@@H](O)[C@@H](O)[C@H]2O)cc1
REMARK SMILES IDX 6 1 5 2 4 3 3 4 1 5 2 6 76 8 77 9 91 10 78 11 90 12 79 13
REMARK SMILES IDX 80 14 81 16 82 17 88 18 83 19 86 20 84 21 89 22 87 24 85 26
REMARK SMILES IDX 7 28 8 29 9 30 10 31 11 32 12 34 13 35 14 36 75 37 15 38
REMARK SMILES IDX 74 39 16 40 17 41 18 42 68 43 19 44 73 45 67 46 69 47 20 48
REMARK SMILES IDX 72 49 66 50 65 51 21 53 53 54 33 55 52 56 34 57 37 58 51 59
REMARK SMILES IDX 70 60 35 61 36 62 50 64 71 65 38 66 22 67 23 68 31 69 24 70
REMARK SMILES IDX 30 71 32 72 29 73 25 74 26 75 27 76 28 77 54 78 55 79 63 80
REMARK SMILES IDX 56 81 62 82 64 83 61 84 57 85 58 86 59 87 60 88 39 89 40 90
REMARK SMILES IDX 48 91 41 92 47 93 49 94 46 95 42 96 43 97 44 98 45 99
REMARK H PARENT 3 7 80 15 89 23 87 25 85 27 10 33 69 52 37 63
REMARK Flexibility Score: inf
ROOT
ATOM      1  C   UNL     1       0.335  11.671  -2.813  1.00  0.00     0.002 C 
ENDROOT
BRANCH   1   2
ATOM      2  C   UNL     1       1.259  10.616  -2.202  1.00  0.00     0.021 C 
BRANCH   2   3
ATOM      3  C   UNL     1       2.180   9.916  -3.196  1.00  0.00     0.116 C 
BRANCH   3   4
ATOM      4  N   UNL     1       3.132  10.833  -3.804  1.00  0.00    -0.352 N 
ATOM      5  O   UNL     1       5.167  11.727  -4.212  1.00  0.00    -0.269 OA
ATOM      6  C   UNL     1       4.503  10.777  -3.808  1.00  0.00     0.251 C 
ATOM      7  H   UNL     1       2.737  11.601  -4.279  1.00  0.00     0.163 HD
BRANCH   6   8
ATOM      8  C   UNL     1       5.181   9.569  -3.298  1.00  0.00     0.039 A 
ATOM      9  C   UNL     1       4.814   8.302  -3.749  1.00  0.00     0.016 A 
ATOM     10  C   UNL     1       6.201   9.704  -2.360  1.00  0.00     0.016 A 
ATOM     11  C   UNL     1       5.393   7.167  -3.178  1.00  0.00     0.026 A 
ATOM     12  C   UNL     1       6.796   8.558  -1.820  1.00  0.00     0.026 A 
ATOM     13  C   UNL     1       6.374   7.268  -2.187  1.00  0.00     0.036 A 
BRANCH  13  14
ATOM     14  N   UNL     1       6.987   6.176  -1.594  1.00  0.00    -0.358 N 
ATOM     15  H   UNL     1       7.869   6.315  -1.180  1.00  0.00     0.163 HD
BRANCH  14  16
ATOM     16  C   UNL     1       6.415   4.833  -1.541  1.00  0.00     0.244 C 
ATOM     17  O   UNL     1       6.200   4.344  -2.866  1.00  0.00    -0.353 OA
ATOM     18  C   UNL     1       7.456   3.910  -0.859  1.00  0.00     0.195 C 
ATOM     19  C   UNL     1       5.596   3.044  -2.883  1.00  0.00     0.197 C 
ATOM     20  C   UNL     1       6.944   2.465  -0.854  1.00  0.00     0.178 C 
ATOM     21  C   UNL     1       6.537   2.010  -2.263  1.00  0.00     0.171 C 
BRANCH  18  22
ATOM     22  O   UNL     1       8.702   3.976  -1.604  1.00  0.00    -0.386 OA
ATOM     23  H   UNL     1       8.550   3.685  -2.516  1.00  0.00     0.211 HD
ENDBRANCH  18  22
BRANCH  20  24
ATOM     24  O   UNL     1       7.954   1.599  -0.330  1.00  0.00    -0.387 OA
ATOM     25  H   UNL     1       8.741   1.641  -0.895  1.00  0.00     0.211 HD
ENDBRANCH  20  24
BRANCH  21  26
ATOM     26  O   UNL     1       7.703   1.868  -3.090  1.00  0.00    -0.388 OA
ATOM     27  H   UNL     1       8.159   2.722  -3.156  1.00  0.00     0.211 HD
ENDBRANCH  21  26
ENDBRANCH  14  16
ENDBRANCH  13  14
ENDBRANCH   6   8
ENDBRANCH   3   4
ENDBRANCH   2   3
ENDBRANCH   1   2
BRANCH   1  28
ATOM     28  C   UNL     1      -0.552  11.181  -3.962  1.00  0.00     0.002 C 
BRANCH  28  29
ATOM     29  C   UNL     1      -1.416   9.957  -3.649  1.00  0.00     0.021 C 
BRANCH  29  30
ATOM     30  C   UNL     1      -2.340  10.109  -2.444  1.00  0.00     0.116 C 
BRANCH  30  31
ATOM     31  N   UNL     1      -3.311  11.175  -2.624  1.00  0.00    -0.352 N 
ATOM     32  C   UNL     1      -4.678  11.137  -2.504  1.00  0.00     0.251 C 
ATOM     33  H   UNL     1      -2.934  12.051  -2.867  1.00  0.00     0.163 HD
ATOM     34  O   UNL     1      -5.348  12.096  -2.882  1.00  0.00    -0.269 OA
BRANCH  32  35
ATOM     35  C   UNL     1      -5.342   9.935  -1.951  1.00  0.00     0.039 A 
ATOM     36  C   UNL     1      -6.488   9.445  -2.583  1.00  0.00     0.014 A 
ATOM     37  C   UNL     1      -4.842   9.293  -0.814  1.00  0.00     0.014 A 
ATOM     38  C   UNL     1      -7.093   8.277  -2.113  1.00  0.00     0.010 A 
ATOM     39  C   UNL     1      -5.401   8.088  -0.395  1.00  0.00     0.010 A 
ATOM     40  C   UNL     1      -6.533   7.566  -1.038  1.00  0.00    -0.014 A 
BRANCH  40  41
ATOM     41  C   UNL     1      -7.119   6.278  -0.578  1.00  0.00     0.031 A 
ATOM     42  C   UNL     1      -7.681   6.156   0.813  1.00  0.00     0.074 A 
ATOM     43  C   UNL     1      -7.094   5.205  -1.393  1.00  0.00     0.049 A 
ATOM     44  N   UNL     1      -8.168   5.104   1.420  1.00  0.00    -0.248 NA
ATOM     45  C   UNL     1      -7.666   7.372   1.639  1.00  0.00     0.031 C 
ATOM     46  C   UNL     1      -6.545   5.189  -2.751  1.00  0.00     0.029 A 
ATOM     47  N   UNL     1      -7.533   3.918  -1.200  1.00  0.00    -0.354 N 
ATOM     48  C   UNL     1      -8.509   5.527   2.700  1.00  0.00     0.074 A 
ATOM     49  C   UNL     1      -8.110   6.915   2.800  1.00  0.00     0.031 C 
ATOM     50  C   UNL     1      -6.707   3.964  -3.277  1.00  0.00     0.029 A 
ATOM     51  C   UNL     1      -7.319   3.091  -2.280  1.00  0.00     0.049 A 
ATOM     52  H   UNL     1      -7.961   3.615  -0.367  1.00  0.00     0.167 HD
ATOM     53  C   UNL     1      -9.119   4.830   3.691  1.00  0.00     0.034 A 
ATOM     54  C   UNL     1      -7.573   1.778  -2.445  1.00  0.00     0.034 A 
ATOM     55  C   UNL     1      -9.516   3.448   3.572  1.00  0.00     0.049 A 
ATOM     56  C   UNL     1      -8.214   1.013  -1.314  1.00  0.00     0.074 A 
ATOM     57  C   UNL     1     -10.185   2.661   4.494  1.00  0.00     0.029 A 
ATOM     58  N   UNL     1      -9.273   2.640   2.468  1.00  0.00    -0.354 N 
ATOM     59  N   UNL     1      -8.574   1.442  -0.125  1.00  0.00    -0.248 NA
ATOM     60  C   UNL     1      -8.492  -0.410  -1.550  1.00  0.00     0.031 C 
ATOM     61  C   UNL     1     -10.274   1.363   3.982  1.00  0.00     0.029 A 
ATOM     62  C   UNL     1      -9.743   1.356   2.702  1.00  0.00     0.049 A 
ATOM     63  H   UNL     1      -8.830   2.936   1.639  1.00  0.00     0.167 HD
ATOM     64  C   UNL     1      -9.153   0.347   0.513  1.00  0.00     0.074 A 
ATOM     65  C   UNL     1      -9.106  -0.753  -0.427  1.00  0.00     0.031 C 
ATOM     66  C   UNL     1      -9.681   0.262   1.761  1.00  0.00     0.034 A 
BRANCH  53  67
ATOM     67  C   UNL     1      -9.366   5.549   4.998  1.00  0.00     0.023 A 
ATOM     68  C   UNL     1     -10.191   6.685   5.075  1.00  0.00     0.031 A 
ATOM     69  C   UNL     1      -8.749   5.106   6.183  1.00  0.00     0.131 A 
ATOM     70  C   UNL     1     -10.312   7.384   6.285  1.00  0.00     0.055 A 
ATOM     71  C   UNL     1      -8.946   5.755   7.404  1.00  0.00     0.041 A 
ATOM     72  F   UNL     1      -7.932   4.041   6.172  1.00  0.00    -0.206 F 
ATOM     73  C   UNL     1      -9.718   6.911   7.457  1.00  0.00     0.022 A 
BRANCH  70  74
ATOM     74  S   UNL     1     -11.127   9.004   6.269  1.00  0.00     0.124 S 
ATOM     75  O   UNL     1     -10.314   9.734   5.299  1.00  0.00    -0.237 OA
ATOM     76  O   UNL     1     -12.482   8.672   5.846  1.00  0.00    -0.237 OA
ATOM     77  O   UNL     1     -10.999   9.466   7.650  1.00  0.00    -0.744 OA
ENDBRANCH  70  74
ENDBRANCH  53  67
BRANCH  54  78
ATOM     78  C   UNL     1      -7.211   1.091  -3.719  1.00  0.00     0.023 A 
ATOM     79  C   UNL     1      -8.196   0.521  -4.540  1.00  0.00     0.031 A 
ATOM     80  C   UNL     1      -5.867   0.952  -4.112  1.00  0.00     0.131 A 
ATOM     81  C   UNL     1      -7.823  -0.204  -5.683  1.00  0.00     0.055 A 
ATOM     82  C   UNL     1      -5.504   0.282  -5.282  1.00  0.00     0.041 A 
ATOM     83  F   UNL     1      -4.883   1.479  -3.365  1.00  0.00    -0.206 F 
ATOM     84  C   UNL     1      -6.485  -0.314  -6.067  1.00  0.00     0.022 A 
BRANCH  81  85
ATOM     85  S   UNL     1      -9.108  -1.087  -6.609  1.00  0.00     0.124 S 
ATOM     86  O   UNL     1      -9.668  -1.957  -5.582  1.00  0.00    -0.237 OA
ATOM     87  O   UNL     1      -9.962   0.008  -7.060  1.00  0.00    -0.237 OA
ATOM     88  O   UNL     1      -8.360  -1.766  -7.665  1.00  0.00    -0.744 OA
ENDBRANCH  81  85
ENDBRANCH  54  78
BRANCH  66  89
ATOM     89  C   UNL     1     -10.293  -1.060   2.161  1.00  0.00     0.023 A 
ATOM     90  C   UNL     1      -9.520  -2.225   2.304  1.00  0.00     0.031 A 
ATOM     91  C   UNL     1     -11.678  -1.155   2.393  1.00  0.00     0.131 A 
ATOM     92  C   UNL     1     -10.143  -3.445   2.610  1.00  0.00     0.055 A 
ATOM     93  C   UNL     1     -12.282  -2.357   2.763  1.00  0.00     0.041 A 
ATOM     94  F   UNL     1     -12.467  -0.076   2.267  1.00  0.00    -0.206 F 
ATOM     95  C   UNL     1     -11.516  -3.514   2.859  1.00  0.00     0.022 A 
BRANCH  92  96
ATOM     96  S   UNL     1      -9.149  -4.962   2.577  1.00  0.00     0.124 S 
ATOM     97  O   UNL     1      -8.636  -4.959   1.211  1.00  0.00    -0.237 OA
ATOM     98  O   UNL     1      -8.167  -4.715   3.628  1.00  0.00    -0.237 OA
ATOM     99  O   UNL     1     -10.120  -6.015   2.873  1.00  0.00    -0.744 OA
ENDBRANCH  92  96
ENDBRANCH  66  89
ENDBRANCH  40  41
ENDBRANCH  32  35
ENDBRANCH  30  31
ENDBRANCH  29  30
ENDBRANCH  28  29
ENDBRANCH   1  28
TORSDOF 21
