REMARK SMILES Cc1cccc(NS(=O)(=O)c2ccc(Br)c(C(=O)NCCCCCCNC(=O)c3ccc(-c4c5nc(c(-c6cc(S(=O)(=O)[O-])ccc6F)c6ccc([nH]6)c(-c6cc(S(=O)(=O)[O-])ccc6F)c6nc(c(-c7cc(S(=O)(=O)[O-])ccc7F)c7ccc4[nH]7)C=C6)C=C5)cc3)c2)c1
REMARK SMILES IDX 22 1 21 2 20 3 19 4 17 5 18 6 16 8 11 9 12 10 92 11 13 12
REMARK SMILES IDX 14 13 15 14 8 15 9 16 10 17 7 18 6 20 1 21 2 22 3 23 93 24
REMARK SMILES IDX 4 25 5 26 23 27 24 28 25 29 26 30 27 31 28 33 29 34 30 35
REMARK SMILES IDX 91 36 31 37 90 38 32 39 33 40 34 41 84 42 35 43 89 44 83 45
REMARK SMILES IDX 85 46 36 47 88 48 82 49 81 50 37 52 69 53 49 54 68 55 50 56
REMARK SMILES IDX 53 57 67 58 86 59 51 60 52 61 66 63 87 64 54 65 38 66 39 67
REMARK SMILES IDX 47 68 40 69 46 70 48 71 45 72 41 73 42 74 43 75 44 76 70 77
REMARK SMILES IDX 71 78 79 79 72 80 78 81 80 82 77 83 73 84 74 85 75 86 76 87
REMARK SMILES IDX 55 88 56 89 64 90 57 91 63 92 65 93 62 94 58 95 59 96 60 97
REMARK SMILES IDX 61 98
REMARK H PARENT 19 7 7 19 26 32 85 51 53 62
REMARK Flexibility Score: inf
ROOT
ATOM      1  C   UNL     1      -9.682  -4.775   0.979  1.00  0.00     0.002 C 
ENDROOT
BRANCH   1   2
ATOM      2  C   UNL     1      -8.359  -4.230   1.521  1.00  0.00     0.021 C 
BRANCH   2   3
ATOM      3  C   UNL     1      -7.427  -3.476   0.583  1.00  0.00     0.116 C 
BRANCH   3   4
ATOM      4  N   UNL     1      -7.924  -2.280  -0.066  1.00  0.00    -0.352 N 
ATOM      5  C   UNL     1      -7.214  -1.214  -0.589  1.00  0.00     0.252 C 
ATOM      6  O   UNL     1      -7.805  -0.382  -1.277  1.00  0.00    -0.269 OA
ATOM      7  H   UNL     1      -8.903  -2.218  -0.147  1.00  0.00     0.163 HD
BRANCH   5   8
ATOM      8  C   UNL     1      -5.789  -0.953  -0.223  1.00  0.00     0.055 A 
ATOM      9  C   UNL     1      -4.165   0.707   0.521  1.00  0.00     0.088 A 
ATOM     10  C   UNL     1      -3.338  -0.303   0.999  1.00  0.00     0.023 A 
ATOM     11  C   UNL     1      -5.431   0.388   0.005  1.00  0.00     0.037 A 
ATOM     12  C   UNL     1      -3.613  -1.613   0.614  1.00  0.00     0.018 A 
ATOM     13  C   UNL     1      -4.775  -1.906  -0.111  1.00  0.00     0.030 A 
ATOM     14  Br  UNL     1      -4.686  -3.455  -1.218  1.00  0.00    -0.050 Br
BRANCH   9  15
ATOM     15  S   UNL     1      -3.535   2.345   0.203  1.00  0.00     0.261 S 
ATOM     16  O   UNL     1      -3.878   3.155   1.356  1.00  0.00    -0.201 OA
ATOM     17  O   UNL     1      -3.962   2.717  -1.126  1.00  0.00    -0.201 OA
BRANCH  15  18
ATOM     18  N   UNL     1      -1.859   2.303   0.192  1.00  0.00    -0.280 N 
ATOM     19  H   UNL     1      -1.410   3.061   0.630  1.00  0.00     0.180 HD
BRANCH  18  20
ATOM     20  C   UNL     1      -0.999   1.313  -0.368  1.00  0.00     0.049 A 
ATOM     21  C   UNL     1       2.610   0.303   0.346  1.00  0.00     0.044 C 
ATOM     22  C   UNL     1       1.210   0.282  -0.192  1.00  0.00    -0.049 A 
ATOM     23  C   UNL     1       0.738  -0.816  -0.913  1.00  0.00     0.003 A 
ATOM     24  C   UNL     1       0.327   1.333   0.088  1.00  0.00     0.030 A 
ATOM     25  C   UNL     1      -0.546  -0.793  -1.460  1.00  0.00     0.002 A 
ATOM     26  C   UNL     1      -1.393   0.302  -1.240  1.00  0.00     0.027 A 
ENDBRANCH  18  20
ENDBRANCH  15  18
ENDBRANCH   9  15
ENDBRANCH   5   8
ENDBRANCH   3   4
ENDBRANCH   2   3
ENDBRANCH   1   2
BRANCH   1  27
ATOM     27  C   UNL     1      -9.724  -5.436  -0.405  1.00  0.00     0.002 C 
BRANCH  27  28
ATOM     28  C   UNL     1      -8.683  -6.504  -0.735  1.00  0.00     0.021 C 
BRANCH  28  29
ATOM     29  C   UNL     1      -8.678  -7.735   0.163  1.00  0.00     0.116 C 
BRANCH  29  30
ATOM     30  N   UNL     1      -9.322  -8.905  -0.426  1.00  0.00    -0.352 N 
ATOM     31  C   UNL     1      -9.314 -10.217   0.022  1.00  0.00     0.251 C 
ATOM     32  H   UNL     1      -9.829  -8.741  -1.254  1.00  0.00     0.163 HD
ATOM     33  O   UNL     1      -9.846 -11.118  -0.611  1.00  0.00    -0.269 OA
BRANCH  31  34
ATOM     34  C   UNL     1      -8.742 -10.499   1.359  1.00  0.00     0.039 A 
ATOM     35  C   UNL     1      -9.589 -11.071   2.315  1.00  0.00     0.014 A 
ATOM     36  C   UNL     1      -7.502  -9.986   1.726  1.00  0.00     0.014 A 
ATOM     37  C   UNL     1      -9.303 -10.899   3.666  1.00  0.00     0.010 A 
ATOM     38  C   UNL     1      -7.267  -9.726   3.061  1.00  0.00     0.010 A 
ATOM     39  C   UNL     1      -8.206 -10.119   4.023  1.00  0.00    -0.014 A 
BRANCH  39  40
ATOM     40  C   UNL     1      -8.029  -9.547   5.353  1.00  0.00     0.031 A 
ATOM     41  C   UNL     1      -6.989 -10.068   6.260  1.00  0.00     0.074 A 
ATOM     42  C   UNL     1      -8.784  -8.491   5.726  1.00  0.00     0.049 A 
ATOM     43  N   UNL     1      -6.946  -9.837   7.527  1.00  0.00    -0.248 NA
ATOM     44  C   UNL     1      -5.951 -10.989   5.812  1.00  0.00     0.031 C 
ATOM     45  C   UNL     1      -8.572  -7.598   6.861  1.00  0.00     0.029 A 
ATOM     46  N   UNL     1     -10.069  -8.190   5.284  1.00  0.00    -0.354 N 
ATOM     47  C   UNL     1      -5.750 -10.316   8.005  1.00  0.00     0.074 A 
ATOM     48  C   UNL     1      -5.240 -11.133   6.934  1.00  0.00     0.031 C 
ATOM     49  C   UNL     1      -9.742  -7.032   7.193  1.00  0.00     0.029 A 
ATOM     50  C   UNL     1     -10.768  -7.661   6.383  1.00  0.00     0.049 A 
ATOM     51  H   UNL     1     -10.422  -8.322   4.374  1.00  0.00     0.167 HD
ATOM     52  C   UNL     1      -5.287  -9.841   9.197  1.00  0.00     0.034 A 
ATOM     53  C   UNL     1     -11.879  -8.285   6.874  1.00  0.00     0.034 A 
ATOM     54  C   UNL     1      -6.352  -9.137   9.924  1.00  0.00     0.049 A 
ATOM     55  C   UNL     1     -11.744  -8.712   8.318  1.00  0.00     0.074 A 
ATOM     56  C   UNL     1      -6.621  -7.802  10.178  1.00  0.00     0.029 A 
ATOM     57  N   UNL     1      -7.499  -9.840  10.292  1.00  0.00    -0.354 N 
ATOM     58  N   UNL     1     -10.608  -8.822   8.953  1.00  0.00    -0.248 NA
ATOM     59  C   UNL     1     -12.886  -9.051   9.158  1.00  0.00     0.031 C 
ATOM     60  C   UNL     1      -7.968  -7.703  10.627  1.00  0.00     0.029 A 
ATOM     61  C   UNL     1      -8.505  -8.979  10.688  1.00  0.00     0.049 A 
ATOM     62  H   UNL     1      -7.582 -10.821  10.272  1.00  0.00     0.167 HD
ATOM     63  C   UNL     1     -10.834  -9.250  10.238  1.00  0.00     0.074 A 
ATOM     64  C   UNL     1     -12.283  -9.349  10.321  1.00  0.00     0.031 C 
ATOM     65  C   UNL     1      -9.806  -9.496  11.110  1.00  0.00     0.034 A 
BRANCH  52  66
ATOM     66  C   UNL     1      -3.820  -9.787   9.613  1.00  0.00     0.023 A 
ATOM     67  C   UNL     1      -3.453  -8.963  10.704  1.00  0.00     0.031 A 
ATOM     68  C   UNL     1      -2.731 -10.390   8.945  1.00  0.00     0.131 A 
ATOM     69  C   UNL     1      -2.101  -8.731  11.040  1.00  0.00     0.055 A 
ATOM     70  C   UNL     1      -1.389 -10.172   9.289  1.00  0.00     0.041 A 
ATOM     71  F   UNL     1      -2.877 -11.218   7.912  1.00  0.00    -0.206 F 
ATOM     72  C   UNL     1      -1.065  -9.330  10.333  1.00  0.00     0.022 A 
BRANCH  69  73
ATOM     73  S   UNL     1      -1.695  -7.583  12.385  1.00  0.00     0.124 S 
ATOM     74  O   UNL     1      -2.270  -6.331  11.904  1.00  0.00    -0.237 OA
ATOM     75  O   UNL     1      -2.351  -8.203  13.531  1.00  0.00    -0.237 OA
ATOM     76  O   UNL     1      -0.233  -7.611  12.424  1.00  0.00    -0.744 OA
ENDBRANCH  69  73
ENDBRANCH  52  66
BRANCH  53  77
ATOM     77  C   UNL     1     -12.666  -8.992   5.822  1.00  0.00     0.023 A 
ATOM     78  C   UNL     1     -13.117  -8.212   4.734  1.00  0.00     0.031 A 
ATOM     79  C   UNL     1     -12.608 -10.382   5.654  1.00  0.00     0.131 A 
ATOM     80  C   UNL     1     -13.305  -8.797   3.475  1.00  0.00     0.055 A 
ATOM     81  C   UNL     1     -12.881 -10.973   4.412  1.00  0.00     0.041 A 
ATOM     82  F   UNL     1     -12.160 -11.173   6.639  1.00  0.00    -0.206 F 
ATOM     83  C   UNL     1     -13.181 -10.177   3.305  1.00  0.00     0.022 A 
BRANCH  80  84
ATOM     84  S   UNL     1     -13.411  -7.712   2.017  1.00  0.00     0.124 S 
ATOM     85  O   UNL     1     -14.852  -7.559   1.857  1.00  0.00    -0.237 OA
ATOM     86  O   UNL     1     -12.687  -6.516   2.444  1.00  0.00    -0.237 OA
ATOM     87  O   UNL     1     -12.734  -8.481   0.976  1.00  0.00    -0.744 OA
ENDBRANCH  80  84
ENDBRANCH  53  77
BRANCH  65  88
ATOM     88  C   UNL     1      -9.924 -10.176  12.468  1.00  0.00     0.023 A 
ATOM     89  C   UNL     1     -11.078 -10.834  12.919  1.00  0.00     0.031 A 
ATOM     90  C   UNL     1      -8.815 -10.240  13.351  1.00  0.00     0.131 A 
ATOM     91  C   UNL     1     -11.138 -11.429  14.195  1.00  0.00     0.055 A 
ATOM     92  C   UNL     1      -8.851 -10.899  14.585  1.00  0.00     0.041 A 
ATOM     93  F   UNL     1      -7.635  -9.677  13.050  1.00  0.00    -0.206 F 
ATOM     94  C   UNL     1     -10.025 -11.486  15.025  1.00  0.00     0.022 A 
BRANCH  91  95
ATOM     95  S   UNL     1     -12.733 -12.077  14.765  1.00  0.00     0.124 S 
ATOM     96  O   UNL     1     -13.555 -10.871  14.792  1.00  0.00    -0.237 OA
ATOM     97  O   UNL     1     -13.067 -13.047  13.726  1.00  0.00    -0.237 OA
ATOM     98  O   UNL     1     -12.427 -12.649  16.074  1.00  0.00    -0.744 OA
ENDBRANCH  91  95
ENDBRANCH  65  88
ENDBRANCH  39  40
ENDBRANCH  31  34
ENDBRANCH  29  30
ENDBRANCH  28  29
ENDBRANCH  27  28
ENDBRANCH   1  27
TORSDOF 19
