REMARK SMILES C[N@H+]1CCO[C@H](c2noc(-c3ccccc3C(=O)NCCCCCCNC(=O)c3ccc(-c4c5nc(c(-c6cc(S(=O)(=O)[O-])ccc6F)c6ccc([nH]6)c(-c6cc(S(=O)(=O)[O-])ccc6F)c6nc(c(-c7cc(S(=O)(=O)[O-])ccc7F)c7ccc4[nH]7)C=C6)C=C5)cc3)n2)C1
REMARK SMILES IDX 23 1 22 2 21 3 20 4 19 5 17 6 18 7 16 9 11 10 12 11 13 12
REMARK SMILES IDX 15 13 14 14 10 15 7 16 8 17 92 18 9 19 6 20 1 21 2 22 3 23
REMARK SMILES IDX 93 24 4 26 5 27 24 28 25 29 26 30 27 31 28 33 29 34 30 35
REMARK SMILES IDX 91 36 31 37 90 38 32 39 33 40 34 41 84 42 35 43 89 44 83 45
REMARK SMILES IDX 85 46 36 47 88 48 82 49 81 50 37 52 69 53 49 54 68 55 50 56
REMARK SMILES IDX 53 57 67 58 86 59 51 60 52 61 66 63 87 64 54 65 38 66 39 67
REMARK SMILES IDX 47 68 40 69 46 70 48 71 45 72 41 73 42 74 43 75 44 76 70 77
REMARK SMILES IDX 71 78 79 79 72 80 78 81 80 82 77 83 73 84 74 85 75 86 76 87
REMARK SMILES IDX 55 88 56 89 64 90 57 91 63 92 65 93 62 94 58 95 59 96 60 97
REMARK SMILES IDX 61 98
REMARK H PARENT 19 8 2 25 26 32 85 51 53 62
REMARK Flexibility Score: inf
ROOT
ATOM      1  C   UNL     1      -0.455  -2.698   1.114  1.00  0.00     0.002 C 
ENDROOT
BRANCH   1   2
ATOM      2  C   UNL     1      -1.424  -4.151   1.586  1.00  0.00     0.002 C 
BRANCH   2   3
ATOM      3  C   UNL     1      -1.859  -4.435   3.037  1.00  0.00     0.021 C 
BRANCH   3   4
ATOM      4  C   UNL     1      -2.626  -3.330   3.699  1.00  0.00     0.116 C 
BRANCH   4   5
ATOM      5  N   UNL     1      -3.999  -3.092   3.465  1.00  0.00    -0.352 N 
ATOM      6  C   UNL     1      -4.659  -1.991   3.978  1.00  0.00     0.252 C 
ATOM      7  O   UNL     1      -5.690  -1.648   3.391  1.00  0.00    -0.269 OA
ATOM      8  H   UNL     1      -4.505  -3.735   2.917  1.00  0.00     0.163 HD
BRANCH   6   9
ATOM      9  C   UNL     1      -4.294  -1.275   5.271  1.00  0.00     0.052 A 
ATOM     10  C   UNL     1      -3.053  -0.843   5.822  1.00  0.00     0.053 A 
ATOM     11  C   UNL     1      -3.067  -0.162   7.067  1.00  0.00     0.015 A 
ATOM     12  C   UNL     1      -4.246   0.081   7.771  1.00  0.00     0.001 A 
ATOM     13  C   UNL     1      -5.471  -1.007   6.019  1.00  0.00     0.014 A 
ATOM     14  C   UNL     1      -5.452  -0.350   7.249  1.00  0.00     0.001 A 
BRANCH  10  15
ATOM     15  C   UNL     1      -1.715  -1.081   5.278  1.00  0.00     0.258 A 
ATOM     16  C   UNL     1      -0.121  -1.757   4.066  1.00  0.00     0.206 A 
ATOM     17  N   UNL     1       0.153  -2.308   5.255  1.00  0.00    -0.059 NA
ATOM     18  N   UNL     1      -1.183  -0.856   4.098  1.00  0.00    -0.189 NA
ATOM     19  O   UNL     1      -0.900  -1.860   6.066  1.00  0.00    -0.334 OA
BRANCH  16  20
ATOM     20  C   UNL     1       0.667  -2.045   2.798  1.00  0.00     0.245 C 
ATOM     21  C   UNL     1       1.185   0.077  -0.853  1.00  0.00     0.332 C 
ATOM     22  N   UNL     1       0.290  -0.889  -0.213  1.00  0.00    -0.333 N 
ATOM     23  C   UNL     1       0.528  -2.477  -0.911  1.00  0.00     0.290 C 
ATOM     24  C   UNL     1       0.321  -0.632   1.516  1.00  0.00     0.303 C 
ATOM     25  H   UNL     1      -0.702  -0.759  -0.413  1.00  0.00     0.348 HD
ATOM     26  C   UNL     1       0.779  -4.039   0.193  1.00  0.00     0.222 C 
ATOM     27  O   UNL     1       0.791  -3.793   2.084  1.00  0.00    -0.358 OA
ENDBRANCH  16  20
ENDBRANCH  10  15
ENDBRANCH   6   9
ENDBRANCH   4   5
ENDBRANCH   3   4
ENDBRANCH   2   3
ENDBRANCH   1   2
BRANCH   1  28
ATOM     28  C   UNL     1       1.650  -2.396   1.015  1.00  0.00     0.021 C 
BRANCH  28  29
ATOM     29  C   UNL     1       2.963  -3.259   1.835  1.00  0.00     0.116 C 
BRANCH  29  30
ATOM     30  N   UNL     1       3.216  -4.620   1.371  1.00  0.00    -0.352 N 
ATOM     31  C   UNL     1       4.332  -5.048   0.700  1.00  0.00     0.251 C 
ATOM     32  H   UNL     1       2.522  -5.293   1.557  1.00  0.00     0.163 HD
ATOM     33  O   UNL     1       4.302  -5.871  -0.201  1.00  0.00    -0.269 OA
BRANCH  31  34
ATOM     34  C   UNL     1       5.580  -4.519   1.255  1.00  0.00     0.039 A 
ATOM     35  C   UNL     1       6.517  -3.851   0.472  1.00  0.00     0.014 A 
ATOM     36  C   UNL     1       5.694  -4.605   2.647  1.00  0.00     0.014 A 
ATOM     37  C   UNL     1       7.579  -3.224   1.118  1.00  0.00     0.010 A 
ATOM     38  C   UNL     1       6.693  -3.911   3.285  1.00  0.00     0.010 A 
ATOM     39  C   UNL     1       7.655  -3.237   2.523  1.00  0.00    -0.014 A 
BRANCH  39  40
ATOM     40  C   UNL     1       8.754  -2.589   3.259  1.00  0.00     0.031 A 
ATOM     41  C   UNL     1       9.668  -3.448   4.085  1.00  0.00     0.074 A 
ATOM     42  C   UNL     1       8.834  -1.247   3.273  1.00  0.00     0.049 A 
ATOM     43  N   UNL     1      10.607  -3.092   4.918  1.00  0.00    -0.248 NA
ATOM     44  C   UNL     1       9.455  -4.904   3.999  1.00  0.00     0.031 C 
ATOM     45  C   UNL     1       7.943  -0.339   2.546  1.00  0.00     0.029 A 
ATOM     46  N   UNL     1       9.697  -0.414   3.930  1.00  0.00    -0.354 N 
ATOM     47  C   UNL     1      11.087  -4.278   5.463  1.00  0.00     0.074 A 
ATOM     48  C   UNL     1      10.271  -5.349   4.939  1.00  0.00     0.031 C 
ATOM     49  C   UNL     1       8.334   0.926   2.767  1.00  0.00     0.029 A 
ATOM     50  C   UNL     1       9.463   0.919   3.690  1.00  0.00     0.049 A 
ATOM     51  H   UNL     1      10.416  -0.738   4.519  1.00  0.00     0.167 HD
ATOM     52  C   UNL     1      12.141  -4.452   6.295  1.00  0.00     0.034 A 
ATOM     53  C   UNL     1      10.095   2.005   4.174  1.00  0.00     0.034 A 
ATOM     54  C   UNL     1      12.932  -3.356   6.790  1.00  0.00     0.049 A 
ATOM     55  C   UNL     1      11.246   1.789   5.125  1.00  0.00     0.074 A 
ATOM     56  C   UNL     1      14.052  -3.394   7.598  1.00  0.00     0.029 A 
ATOM     57  N   UNL     1      12.677  -2.014   6.523  1.00  0.00    -0.354 N 
ATOM     58  N   UNL     1      11.736   0.660   5.587  1.00  0.00    -0.248 NA
ATOM     59  C   UNL     1      11.934   2.990   5.610  1.00  0.00     0.031 C 
ATOM     60  C   UNL     1      14.426  -2.077   7.883  1.00  0.00     0.029 A 
ATOM     61  C   UNL     1      13.598  -1.216   7.178  1.00  0.00     0.049 A 
ATOM     62  H   UNL     1      11.947  -1.682   5.952  1.00  0.00     0.167 HD
ATOM     63  C   UNL     1      12.816   1.016   6.390  1.00  0.00     0.074 A 
ATOM     64  C   UNL     1      12.909   2.462   6.334  1.00  0.00     0.031 C 
ATOM     65  C   UNL     1      13.658   0.227   7.106  1.00  0.00     0.034 A 
BRANCH  52  66
ATOM     66  C   UNL     1      12.464  -5.865   6.717  1.00  0.00     0.023 A 
ATOM     67  C   UNL     1      12.783  -6.861   5.774  1.00  0.00     0.031 A 
ATOM     68  C   UNL     1      12.401  -6.242   8.069  1.00  0.00     0.131 A 
ATOM     69  C   UNL     1      12.931  -8.194   6.183  1.00  0.00     0.055 A 
ATOM     70  C   UNL     1      12.646  -7.554   8.480  1.00  0.00     0.041 A 
ATOM     71  F   UNL     1      12.075  -5.347   9.015  1.00  0.00    -0.206 F 
ATOM     72  C   UNL     1      12.894  -8.544   7.533  1.00  0.00     0.022 A 
BRANCH  69  73
ATOM     73  S   UNL     1      12.998  -9.484   4.909  1.00  0.00     0.124 S 
ATOM     74  O   UNL     1      11.730  -9.277   4.213  1.00  0.00    -0.237 OA
ATOM     75  O   UNL     1      14.200  -9.130   4.163  1.00  0.00    -0.237 OA
ATOM     76  O   UNL     1      13.083 -10.723   5.680  1.00  0.00    -0.744 OA
ENDBRANCH  69  73
ENDBRANCH  52  66
BRANCH  53  77
ATOM     77  C   UNL     1       9.676   3.373   3.760  1.00  0.00     0.023 A 
ATOM     78  C   UNL     1      10.554   4.205   3.048  1.00  0.00     0.031 A 
ATOM     79  C   UNL     1       8.409   3.884   4.092  1.00  0.00     0.131 A 
ATOM     80  C   UNL     1      10.177   5.520   2.739  1.00  0.00     0.055 A 
ATOM     81  C   UNL     1       8.015   5.173   3.728  1.00  0.00     0.041 A 
ATOM     82  F   UNL     1       7.525   3.129   4.764  1.00  0.00    -0.206 F 
ATOM     83  C   UNL     1       8.908   6.005   3.060  1.00  0.00     0.022 A 
BRANCH  80  84
ATOM     84  S   UNL     1      11.411   6.620   1.995  1.00  0.00     0.124 S 
ATOM     85  O   UNL     1      12.483   6.573   2.983  1.00  0.00    -0.237 OA
ATOM     86  O   UNL     1      11.680   5.957   0.723  1.00  0.00    -0.237 OA
ATOM     87  O   UNL     1      10.710   7.898   1.894  1.00  0.00    -0.744 OA
ENDBRANCH  80  84
ENDBRANCH  53  77
BRANCH  65  88
ATOM     88  C   UNL     1      14.777   0.916   7.844  1.00  0.00     0.023 A 
ATOM     89  C   UNL     1      14.530   1.786   8.919  1.00  0.00     0.031 A 
ATOM     90  C   UNL     1      16.113   0.693   7.464  1.00  0.00     0.131 A 
ATOM     91  C   UNL     1      15.599   2.447   9.539  1.00  0.00     0.055 A 
ATOM     92  C   UNL     1      17.177   1.296   8.134  1.00  0.00     0.041 A 
ATOM     93  F   UNL     1      16.406  -0.127   6.441  1.00  0.00    -0.206 F 
ATOM     94  C   UNL     1      16.922   2.190   9.169  1.00  0.00     0.022 A 
BRANCH  91  95
ATOM     95  S   UNL     1      15.230   3.725  10.770  1.00  0.00     0.124 S 
ATOM     96  O   UNL     1      14.416   4.660  10.000  1.00  0.00    -0.237 OA
ATOM     97  O   UNL     1      14.528   2.972  11.804  1.00  0.00    -0.237 OA
ATOM     98  O   UNL     1      16.550   4.222  11.154  1.00  0.00    -0.744 OA
ENDBRANCH  91  95
ENDBRANCH  65  88
ENDBRANCH  39  40
ENDBRANCH  31  34
ENDBRANCH  29  30
ENDBRANCH  28  29
ENDBRANCH   1  28
TORSDOF 18
