REMARK SMILES O=C(NCCCCCCNC(=O)[C@H]1CCCN(c2cc(-c3ccccn3)nc(-c3ccccc3F)n2)C1)c1ccc(-c2c3nc(c(-c4cc(S(=O)(=O)[O-])ccc4F)c4ccc([nH]4)c(-c4cc(S(=O)(=O)[O-])ccc4F)c4nc(c(-c5cc(S(=O)(=O)[O-])ccc5F)c5ccc2[nH]5)C=C4)C=C3)cc1
REMARK SMILES IDX 6 1 5 2 4 3 3 4 1 5 2 6 38 8 39 9 100 10 40 11 99 12 41 13
REMARK SMILES IDX 42 14 43 15 93 16 44 17 98 18 92 19 94 20 45 21 97 22 91 23
REMARK SMILES IDX 90 24 46 26 78 27 58 28 77 29 59 30 62 31 76 32 95 33 60 34
REMARK SMILES IDX 61 35 75 37 96 38 63 39 47 40 48 41 56 42 49 43 55 44 57 45
REMARK SMILES IDX 54 46 50 47 51 48 52 49 53 50 79 51 80 52 88 53 81 54 87 55
REMARK SMILES IDX 89 56 86 57 82 58 83 59 84 60 85 61 64 62 65 63 73 64 66 65
REMARK SMILES IDX 72 66 74 67 71 68 67 69 68 70 69 71 70 72 7 73 8 74 9 75
REMARK SMILES IDX 10 76 11 77 12 79 13 80 14 81 37 82 15 83 17 84 16 85 18 86
REMARK SMILES IDX 19 87 36 88 20 89 28 90 27 91 21 92 22 93 26 94 23 95 25 96
REMARK SMILES IDX 24 97 29 98 30 99 34 100 31 101 33 102 35 103 32 104
REMARK H PARENT 3 7 94 25 62 36 10 78
REMARK Flexibility Score: inf
ROOT
ATOM      1  C   UNL     1      13.771   6.019  -8.717  1.00  0.00     0.002 C 
ENDROOT
BRANCH   1   2
ATOM      2  C   UNL     1      14.045   7.029  -7.602  1.00  0.00     0.021 C 
BRANCH   2   3
ATOM      3  C   UNL     1      15.316   6.755  -6.809  1.00  0.00     0.116 C 
BRANCH   3   4
ATOM      4  N   UNL     1      16.513   6.953  -7.611  1.00  0.00    -0.352 N 
ATOM      5  O   UNL     1      18.435   7.962  -8.224  1.00  0.00    -0.269 OA
ATOM      6  C   UNL     1      17.601   7.756  -7.354  1.00  0.00     0.251 C 
ATOM      7  H   UNL     1      16.549   6.444  -8.453  1.00  0.00     0.163 HD
BRANCH   6   8
ATOM      8  C   UNL     1      17.743   8.374  -6.017  1.00  0.00     0.039 A 
ATOM      9  C   UNL     1      17.508   7.620  -4.866  1.00  0.00     0.014 A 
ATOM     10  C   UNL     1      18.120   9.717  -5.913  1.00  0.00     0.014 A 
ATOM     11  C   UNL     1      17.514   8.238  -3.624  1.00  0.00     0.010 A 
ATOM     12  C   UNL     1      18.218  10.315  -4.652  1.00  0.00     0.010 A 
ATOM     13  C   UNL     1      17.895   9.585  -3.499  1.00  0.00    -0.014 A 
BRANCH  13  14
ATOM     14  C   UNL     1      18.025  10.159  -2.135  1.00  0.00     0.031 A 
ATOM     15  C   UNL     1      17.128  11.263  -1.656  1.00  0.00     0.074 A 
ATOM     16  C   UNL     1      18.932   9.609  -1.303  1.00  0.00     0.049 A 
ATOM     17  N   UNL     1      17.058  11.802  -0.465  1.00  0.00    -0.248 NA
ATOM     18  C   UNL     1      16.195  11.844  -2.633  1.00  0.00     0.031 C 
ATOM     19  C   UNL     1      19.863   8.538  -1.673  1.00  0.00     0.029 A 
ATOM     20  N   UNL     1      19.192   9.829   0.024  1.00  0.00    -0.354 N 
ATOM     21  C   UNL     1      16.093  12.798  -0.551  1.00  0.00     0.074 A 
ATOM     22  C   UNL     1      15.618  12.802  -1.919  1.00  0.00     0.031 C 
ATOM     23  C   UNL     1      20.525   8.135  -0.580  1.00  0.00     0.029 A 
ATOM     24  C   UNL     1      20.124   8.966   0.549  1.00  0.00     0.049 A 
ATOM     25  H   UNL     1      18.754  10.537   0.550  1.00  0.00     0.167 HD
ATOM     26  C   UNL     1      15.645  13.624   0.426  1.00  0.00     0.034 A 
ATOM     27  C   UNL     1      20.613   8.852   1.798  1.00  0.00     0.034 A 
ATOM     28  C   UNL     1      16.118  13.592   1.788  1.00  0.00     0.049 A 
ATOM     29  C   UNL     1      20.116   9.791   2.857  1.00  0.00     0.074 A 
ATOM     30  C   UNL     1      15.695  14.354   2.864  1.00  0.00     0.029 A 
ATOM     31  N   UNL     1      17.126  12.761   2.262  1.00  0.00    -0.354 N 
ATOM     32  N   UNL     1      19.203  10.728   2.756  1.00  0.00    -0.248 NA
ATOM     33  C   UNL     1      20.722   9.673   4.188  1.00  0.00     0.031 C 
ATOM     34  C   UNL     1      16.488  14.029   3.970  1.00  0.00     0.029 A 
ATOM     35  C   UNL     1      17.360  13.017   3.604  1.00  0.00     0.049 A 
ATOM     36  H   UNL     1      17.603  12.090   1.724  1.00  0.00     0.167 HD
ATOM     37  C   UNL     1      19.124  11.315   4.012  1.00  0.00     0.074 A 
ATOM     38  C   UNL     1      20.074  10.618   4.858  1.00  0.00     0.031 C 
ATOM     39  C   UNL     1      18.332  12.334   4.426  1.00  0.00     0.034 A 
BRANCH  26  40
ATOM     40  C   UNL     1      14.615  14.659   0.051  1.00  0.00     0.023 A 
ATOM     41  C   UNL     1      13.306  14.303  -0.313  1.00  0.00     0.031 A 
ATOM     42  C   UNL     1      14.946  16.026   0.075  1.00  0.00     0.131 A 
ATOM     43  C   UNL     1      12.389  15.298  -0.685  1.00  0.00     0.055 A 
ATOM     44  C   UNL     1      14.011  17.015  -0.235  1.00  0.00     0.041 A 
ATOM     45  F   UNL     1      16.186  16.422   0.401  1.00  0.00    -0.206 F 
ATOM     46  C   UNL     1      12.725  16.653  -0.628  1.00  0.00     0.022 A 
BRANCH  43  47
ATOM     47  S   UNL     1      10.776  14.788  -1.335  1.00  0.00     0.124 S 
ATOM     48  O   UNL     1      11.163  14.052  -2.536  1.00  0.00    -0.237 OA
ATOM     49  O   UNL     1      10.236  13.986  -0.242  1.00  0.00    -0.237 OA
ATOM     50  O   UNL     1      10.089  16.054  -1.579  1.00  0.00    -0.744 OA
ENDBRANCH  43  47
ENDBRANCH  26  40
BRANCH  27  51
ATOM     51  C   UNL     1      21.641   7.817   2.083  1.00  0.00     0.023 A 
ATOM     52  C   UNL     1      21.326   6.668   2.823  1.00  0.00     0.031 A 
ATOM     53  C   UNL     1      22.935   7.930   1.544  1.00  0.00     0.131 A 
ATOM     54  C   UNL     1      22.297   5.670   3.001  1.00  0.00     0.055 A 
ATOM     55  C   UNL     1      23.885   6.921   1.695  1.00  0.00     0.041 A 
ATOM     56  F   UNL     1      23.272   9.004   0.812  1.00  0.00    -0.206 F 
ATOM     57  C   UNL     1      23.568   5.782   2.428  1.00  0.00     0.022 A 
BRANCH  54  58
ATOM     58  S   UNL     1      21.873   4.203   3.979  1.00  0.00     0.124 S 
ATOM     59  O   UNL     1      21.725   4.769   5.314  1.00  0.00    -0.237 OA
ATOM     60  O   UNL     1      20.645   3.747   3.334  1.00  0.00    -0.237 OA
ATOM     61  O   UNL     1      23.028   3.327   3.795  1.00  0.00    -0.744 OA
ENDBRANCH  54  58
ENDBRANCH  27  51
BRANCH  39  62
ATOM     62  C   UNL     1      18.448  12.755   5.864  1.00  0.00     0.023 A 
ATOM     63  C   UNL     1      19.547  13.498   6.322  1.00  0.00     0.031 A 
ATOM     64  C   UNL     1      17.419  12.451   6.772  1.00  0.00     0.131 A 
ATOM     65  C   UNL     1      19.604  13.898   7.665  1.00  0.00     0.055 A 
ATOM     66  C   UNL     1      17.461  12.886   8.097  1.00  0.00     0.041 A 
ATOM     67  F   UNL     1      16.348  11.744   6.378  1.00  0.00    -0.206 F 
ATOM     68  C   UNL     1      18.560  13.612   8.550  1.00  0.00     0.022 A 
BRANCH  65  69
ATOM     69  S   UNL     1      21.069  14.790   8.252  1.00  0.00     0.124 S 
ATOM     70  O   UNL     1      22.098  13.758   8.178  1.00  0.00    -0.237 OA
ATOM     71  O   UNL     1      21.188  15.879   7.288  1.00  0.00    -0.237 OA
ATOM     72  O   UNL     1      20.700  15.202   9.605  1.00  0.00    -0.744 OA
ENDBRANCH  65  69
ENDBRANCH  39  62
ENDBRANCH  13  14
ENDBRANCH   6   8
ENDBRANCH   3   4
ENDBRANCH   2   3
ENDBRANCH   1   2
BRANCH   1  73
ATOM     73  C   UNL     1      13.584   4.565  -8.257  1.00  0.00     0.002 C 
BRANCH  73  74
ATOM     74  C   UNL     1      12.592   4.362  -7.103  1.00  0.00     0.021 C 
BRANCH  74  75
ATOM     75  C   UNL     1      11.186   4.872  -7.414  1.00  0.00     0.116 C 
BRANCH  75  76
ATOM     76  N   UNL     1      10.421   3.896  -8.167  1.00  0.00    -0.356 N 
ATOM     77  C   UNL     1       9.461   2.991  -7.864  1.00  0.00     0.224 C 
ATOM     78  H   UNL     1      10.655   3.890  -9.123  1.00  0.00     0.163 HD
ATOM     79  O   UNL     1       9.075   2.295  -8.815  1.00  0.00    -0.275 OA
BRANCH  77  80
ATOM     80  C   UNL     1       8.873   2.726  -6.481  1.00  0.00     0.098 C 
ATOM     81  C   UNL     1       9.373   1.387  -5.913  1.00  0.00     0.017 C 
ATOM     82  C   UNL     1       9.016   3.807  -5.430  1.00  0.00     0.131 C 
ATOM     83  C   UNL     1       8.681   1.051  -4.580  1.00  0.00     0.022 C 
ATOM     84  N   UNL     1       8.310   3.413  -4.216  1.00  0.00    -0.356 N 
ATOM     85  C   UNL     1       8.754   2.198  -3.561  1.00  0.00     0.118 C 
BRANCH  84  86
ATOM     86  C   UNL     1       7.602   4.413  -3.599  1.00  0.00     0.133 A 
ATOM     87  C   UNL     1       7.937   4.912  -2.360  1.00  0.00     0.077 A 
ATOM     88  N   UNL     1       6.600   4.942  -4.316  1.00  0.00    -0.211 NA
ATOM     89  C   UNL     1       7.219   6.007  -1.909  1.00  0.00     0.095 A 
ATOM     90  C   UNL     1       5.932   5.981  -3.794  1.00  0.00     0.165 A 
ATOM     91  N   UNL     1       6.201   6.547  -2.615  1.00  0.00    -0.226 NA
BRANCH  89  92
ATOM     92  C   UNL     1       7.562   6.686  -0.652  1.00  0.00     0.089 A 
ATOM     93  C   UNL     1       8.745   7.415  -0.520  1.00  0.00     0.030 A 
ATOM     94  N   UNL     1       6.662   6.573   0.361  1.00  0.00    -0.255 NA
ATOM     95  C   UNL     1       9.007   8.068   0.681  1.00  0.00     0.004 A 
ATOM     96  C   UNL     1       6.937   7.236   1.506  1.00  0.00     0.112 A 
ATOM     97  C   UNL     1       8.083   7.984   1.714  1.00  0.00     0.020 A 
ENDBRANCH  89  92
BRANCH  90  98
ATOM     98  C   UNL     1       4.790   6.466  -4.561  1.00  0.00     0.055 A 
ATOM     99  C   UNL     1       3.800   5.570  -5.011  1.00  0.00     0.015 A 
ATOM    100  C   UNL     1       4.649   7.814  -4.901  1.00  0.00     0.134 A 
ATOM    101  C   UNL     1       2.705   6.015  -5.756  1.00  0.00     0.001 A 
ATOM    102  C   UNL     1       3.561   8.265  -5.651  1.00  0.00     0.040 A 
ATOM    103  F   UNL     1       5.584   8.708  -4.549  1.00  0.00    -0.206 F 
ATOM    104  C   UNL     1       2.585   7.365  -6.076  1.00  0.00     0.003 A 
ENDBRANCH  90  98
ENDBRANCH  84  86
ENDBRANCH  77  80
ENDBRANCH  75  76
ENDBRANCH  74  75
ENDBRANCH  73  74
ENDBRANCH   1  73
TORSDOF 19
