REMARK SMILES CC[C@@](C)(NC(=O)[C@@H](C)NC(=O)c1ccco1)C(=O)NCCCCCCNC(=O)c1ccc(-c2c3nc(c(-c4cc(S(=O)(=O)[O-])ccc4F)c4ccc([nH]4)c(-c4cc(S(=O)(=O)[O-])ccc4F)c4nc(c(-c5cc(S(=O)(=O)[O-])ccc5F)c5ccc2[nH]5)C=C4)C=C3)cc1
REMARK SMILES IDX 23 1 22 2 21 3 20 4 18 5 19 6 3 8 4 9 2 10 1 11 5 12 6 13
REMARK SMILES IDX 7 15 8 16 9 17 10 18 11 19 12 21 13 22 14 23 17 24 15 25
REMARK SMILES IDX 16 26 24 27 25 28 26 29 27 30 28 31 29 33 30 34 31 35 92 36
REMARK SMILES IDX 32 37 91 38 33 39 34 40 35 41 85 42 36 43 90 44 84 45 86 46
REMARK SMILES IDX 37 47 89 48 83 49 82 50 38 52 70 53 50 54 69 55 51 56 54 57
REMARK SMILES IDX 68 58 87 59 52 60 53 61 67 63 88 64 55 65 39 66 40 67 48 68
REMARK SMILES IDX 41 69 47 70 49 71 46 72 42 73 43 74 44 75 45 76 71 77 72 78
REMARK SMILES IDX 80 79 73 80 79 81 81 82 78 83 74 84 75 85 76 86 77 87 56 88
REMARK SMILES IDX 57 89 65 90 58 91 64 92 66 93 63 94 59 95 60 96 61 97 62 98
REMARK H PARENT 20 7 5 14 10 20 27 32 86 51 54 62
REMARK Flexibility Score: inf
ROOT
ATOM      1  C   UNL     1       4.143   5.253  -3.583  1.00  0.00     0.002 C 
ENDROOT
BRANCH   1   2
ATOM      2  C   UNL     1       2.659   5.163  -3.230  1.00  0.00     0.021 C 
BRANCH   2   3
ATOM      3  C   UNL     1       2.025   3.804  -3.513  1.00  0.00     0.116 C 
BRANCH   3   4
ATOM      4  N   UNL     1       2.666   2.720  -2.783  1.00  0.00    -0.354 N 
ATOM      5  C   UNL     1       2.344   2.078  -1.625  1.00  0.00     0.245 C 
ATOM      6  O   UNL     1       3.208   1.335  -1.147  1.00  0.00    -0.272 OA
ATOM      7  H   UNL     1       3.490   2.387  -3.206  1.00  0.00     0.163 HD
BRANCH   5   8
ATOM      8  C   UNL     1       1.001   2.298  -0.893  1.00  0.00     0.116 C 
ATOM      9  C   UNL     1      -0.159   1.883  -1.833  1.00  0.00     0.045 C 
BRANCH   8  10
ATOM     10  C   UNL     1       0.853   1.448   0.401  1.00  0.00     0.035 C 
ATOM     11  C   UNL     1       0.888  -0.071   0.245  1.00  0.00     0.007 C 
ENDBRANCH   8  10
BRANCH   8  12
ATOM     12  N   UNL     1       0.856   3.729  -0.533  1.00  0.00    -0.340 N 
ATOM     13  C   UNL     1       1.537   4.598   0.256  1.00  0.00     0.243 C 
ATOM     14  H   UNL     1       0.081   4.149  -0.970  1.00  0.00     0.164 HD
ATOM     15  O   UNL     1       0.848   5.549   0.660  1.00  0.00    -0.273 OA
BRANCH  13  16
ATOM     16  C   UNL     1       2.998   4.480   0.795  1.00  0.00     0.168 C 
ATOM     17  C   UNL     1       3.039   3.873   2.193  1.00  0.00     0.041 C 
BRANCH  16  18
ATOM     18  N   UNL     1       4.065   3.886  -0.002  1.00  0.00    -0.338 N 
ATOM     19  C   UNL     1       5.251   4.438  -0.442  1.00  0.00     0.287 C 
ATOM     20  H   UNL     1       3.917   2.949  -0.265  1.00  0.00     0.164 HD
ATOM     21  O   UNL     1       5.985   3.713  -1.116  1.00  0.00    -0.266 OA
BRANCH  19  22
ATOM     22  C   UNL     1       5.592   5.811  -0.127  1.00  0.00     0.191 A 
ATOM     23  C   UNL     1       5.665   6.528   1.054  1.00  0.00     0.056 A 
ATOM     24  O   UNL     1       6.002   6.618  -1.158  1.00  0.00    -0.459 OA
ATOM     25  C   UNL     1       6.101   7.835   0.720  1.00  0.00     0.043 A 
ATOM     26  C   UNL     1       6.282   7.840  -0.642  1.00  0.00     0.196 A 
ENDBRANCH  19  22
ENDBRANCH  16  18
ENDBRANCH  13  16
ENDBRANCH   8  12
ENDBRANCH   5   8
ENDBRANCH   3   4
ENDBRANCH   2   3
ENDBRANCH   1   2
BRANCH   1  27
ATOM     27  C   UNL     1       4.482   5.225  -5.070  1.00  0.00     0.002 C 
BRANCH  27  28
ATOM     28  C   UNL     1       3.877   6.362  -5.888  1.00  0.00     0.021 C 
BRANCH  28  29
ATOM     29  C   UNL     1       4.081   7.756  -5.303  1.00  0.00     0.116 C 
BRANCH  29  30
ATOM     30  N   UNL     1       5.487   8.125  -5.176  1.00  0.00    -0.352 N 
ATOM     31  C   UNL     1       6.176   9.133  -5.809  1.00  0.00     0.251 C 
ATOM     32  H   UNL     1       6.015   7.577  -4.552  1.00  0.00     0.163 HD
ATOM     33  O   UNL     1       7.388   9.247  -5.688  1.00  0.00    -0.269 OA
BRANCH  31  34
ATOM     34  C   UNL     1       5.416  10.057  -6.676  1.00  0.00     0.039 A 
ATOM     35  C   UNL     1       5.749  10.151  -8.028  1.00  0.00     0.014 A 
ATOM     36  C   UNL     1       4.300  10.722  -6.164  1.00  0.00     0.014 A 
ATOM     37  C   UNL     1       4.892  10.831  -8.895  1.00  0.00     0.010 A 
ATOM     38  C   UNL     1       3.407  11.323  -7.043  1.00  0.00     0.010 A 
ATOM     39  C   UNL     1       3.684  11.367  -8.419  1.00  0.00    -0.014 A 
BRANCH  39  40
ATOM     40  C   UNL     1       2.675  11.951  -9.342  1.00  0.00     0.031 A 
ATOM     41  C   UNL     1       2.271  13.390  -9.195  1.00  0.00     0.074 A 
ATOM     42  C   UNL     1       2.046  11.157 -10.232  1.00  0.00     0.049 A 
ATOM     43  N   UNL     1       1.323  14.053  -9.806  1.00  0.00    -0.248 NA
ATOM     44  C   UNL     1       3.006  14.174  -8.192  1.00  0.00     0.031 C 
ATOM     45  C   UNL     1       2.299   9.726 -10.419  1.00  0.00     0.029 A 
ATOM     46  N   UNL     1       1.048  11.435 -11.133  1.00  0.00    -0.354 N 
ATOM     47  C   UNL     1       1.334  15.326  -9.248  1.00  0.00     0.074 A 
ATOM     48  C   UNL     1       2.333  15.313  -8.199  1.00  0.00     0.031 C 
ATOM     49  C   UNL     1       1.487   9.256 -11.379  1.00  0.00     0.029 A 
ATOM     50  C   UNL     1       0.628  10.338 -11.849  1.00  0.00     0.049 A 
ATOM     51  H   UNL     1       0.668  12.335 -11.254  1.00  0.00     0.167 HD
ATOM     52  C   UNL     1       0.602  16.414  -9.597  1.00  0.00     0.034 A 
ATOM     53  C   UNL     1      -0.350  10.213 -12.768  1.00  0.00     0.034 A 
ATOM     54  C   UNL     1      -0.380  16.410 -10.654  1.00  0.00     0.049 A 
ATOM     55  C   UNL     1      -1.153  11.430 -13.146  1.00  0.00     0.074 A 
ATOM     56  C   UNL     1      -1.131  17.465 -11.141  1.00  0.00     0.029 A 
ATOM     57  N   UNL     1      -0.755  15.287 -11.383  1.00  0.00    -0.354 N 
ATOM     58  N   UNL     1      -1.086  12.646 -12.656  1.00  0.00    -0.248 NA
ATOM     59  C   UNL     1      -2.155  11.260 -14.206  1.00  0.00     0.031 C 
ATOM     60  C   UNL     1      -1.999  16.970 -12.122  1.00  0.00     0.029 A 
ATOM     61  C   UNL     1      -1.746  15.618 -12.295  1.00  0.00     0.049 A 
ATOM     62  H   UNL     1      -0.373  14.387 -11.269  1.00  0.00     0.167 HD
ATOM     63  C   UNL     1      -2.027  13.390 -13.360  1.00  0.00     0.074 A 
ATOM     64  C   UNL     1      -2.635  12.490 -14.319  1.00  0.00     0.031 C 
ATOM     65  C   UNL     1      -2.358  14.701 -13.228  1.00  0.00     0.034 A 
BRANCH  52  66
ATOM     66  C   UNL     1       0.835  17.679  -8.805  1.00  0.00     0.023 A 
ATOM     67  C   UNL     1       2.097  18.301  -8.771  1.00  0.00     0.031 A 
ATOM     68  C   UNL     1      -0.190  18.234  -8.020  1.00  0.00     0.131 A 
ATOM     69  C   UNL     1       2.331  19.367  -7.890  1.00  0.00     0.055 A 
ATOM     70  C   UNL     1       0.025  19.357  -7.215  1.00  0.00     0.041 A 
ATOM     71  F   UNL     1      -1.411  17.678  -7.995  1.00  0.00    -0.206 F 
ATOM     72  C   UNL     1       1.297  19.916  -7.130  1.00  0.00     0.022 A 
BRANCH  69  73
ATOM     73  S   UNL     1       4.044  19.900  -7.620  1.00  0.00     0.124 S 
ATOM     74  O   UNL     1       4.668  18.660  -7.163  1.00  0.00    -0.237 OA
ATOM     75  O   UNL     1       4.441  20.366  -8.943  1.00  0.00    -0.237 OA
ATOM     76  O   UNL     1       3.922  20.940  -6.600  1.00  0.00    -0.744 OA
ENDBRANCH  69  73
ENDBRANCH  52  66
BRANCH  53  77
ATOM     77  C   UNL     1      -0.638   8.884 -13.377  1.00  0.00     0.023 A 
ATOM     78  C   UNL     1      -0.371   8.633 -14.732  1.00  0.00     0.031 A 
ATOM     79  C   UNL     1      -1.200   7.848 -12.611  1.00  0.00     0.131 A 
ATOM     80  C   UNL     1      -0.695   7.386 -15.289  1.00  0.00     0.055 A 
ATOM     81  C   UNL     1      -1.482   6.595 -13.159  1.00  0.00     0.041 A 
ATOM     82  F   UNL     1      -1.464   8.034 -11.307  1.00  0.00    -0.206 F 
ATOM     83  C   UNL     1      -1.238   6.362 -14.509  1.00  0.00     0.022 A 
BRANCH  80  84
ATOM     84  S   UNL     1      -0.445   7.135 -17.068  1.00  0.00     0.124 S 
ATOM     85  O   UNL     1      -1.307   8.164 -17.638  1.00  0.00    -0.237 OA
ATOM     86  O   UNL     1       0.992   7.352 -17.205  1.00  0.00    -0.237 OA
ATOM     87  O   UNL     1      -0.888   5.759 -17.283  1.00  0.00    -0.744 OA
ENDBRANCH  80  84
ENDBRANCH  53  77
BRANCH  65  88
ATOM     88  C   UNL     1      -3.410  15.235 -14.165  1.00  0.00     0.023 A 
ATOM     89  C   UNL     1      -4.756  14.841 -14.063  1.00  0.00     0.031 A 
ATOM     90  C   UNL     1      -3.060  16.146 -15.177  1.00  0.00     0.131 A 
ATOM     91  C   UNL     1      -5.696  15.322 -14.986  1.00  0.00     0.055 A 
ATOM     92  C   UNL     1      -4.009  16.663 -16.060  1.00  0.00     0.041 A 
ATOM     93  F   UNL     1      -1.789  16.553 -15.319  1.00  0.00    -0.206 F 
ATOM     94  C   UNL     1      -5.334  16.243 -15.974  1.00  0.00     0.022 A 
BRANCH  91  95
ATOM     95  S   UNL     1      -7.389  14.675 -14.925  1.00  0.00     0.124 S 
ATOM     96  O   UNL     1      -7.177  13.251 -15.160  1.00  0.00    -0.237 OA
ATOM     97  O   UNL     1      -7.817  15.043 -13.580  1.00  0.00    -0.237 OA
ATOM     98  O   UNL     1      -8.068  15.387 -16.007  1.00  0.00    -0.744 OA
ENDBRANCH  91  95
ENDBRANCH  65  88
ENDBRANCH  39  40
ENDBRANCH  31  34
ENDBRANCH  29  30
ENDBRANCH  28  29
ENDBRANCH  27  28
ENDBRANCH   1  27
TORSDOF 21
