REMARK SMILES CC[NH2+][C@]1(C(=O)NCCCCCCNC(=O)c2ccc(-c3c4nc(c(-c5cc(S(=O)(=O)[O-])ccc5F)c5ccc([nH]5)c(-c5cc(S(=O)(=O)[O-])ccc5F)c5nc(c(-c6cc(S(=O)(=O)[O-])ccc6F)c6ccc3[nH]6)C=C5)C=C4)cc2)CCC[C@H]1CC[N@@H+]1CCC[C@@H](CC)C1
REMARK SMILES IDX 10 1 9 2 8 3 7 4 5 5 6 6 4 8 80 9 83 10 81 11 82 12 3 13
REMARK SMILES IDX 2 16 1 17 84 18 85 19 86 20 87 21 93 22 88 24 90 25 89 26
REMARK SMILES IDX 91 27 92 28 11 29 12 30 13 31 14 32 15 33 16 35 17 36 18 37
REMARK SMILES IDX 79 38 19 39 78 40 20 41 21 42 22 43 72 44 23 45 77 46 71 47
REMARK SMILES IDX 73 48 24 49 76 50 70 51 69 52 25 54 57 55 37 56 56 57 38 58
REMARK SMILES IDX 41 59 55 60 74 61 39 62 40 63 54 65 75 66 42 67 26 68 27 69
REMARK SMILES IDX 35 70 28 71 34 72 36 73 33 74 29 75 30 76 31 77 32 78 58 79
REMARK SMILES IDX 59 80 67 81 60 82 66 83 68 84 65 85 61 86 62 87 63 88 64 89
REMARK SMILES IDX 43 90 44 91 52 92 45 93 51 94 53 95 50 96 46 97 47 98 48 99
REMARK SMILES IDX 49 100
REMARK H PARENT 7 7 3 14 3 15 86 23 14 34 73 53 41 64
REMARK Flexibility Score: inf
ROOT
ATOM      1  C   UNL     1       3.981  -2.738   0.192  1.00  0.00     0.002 C 
ENDROOT
BRANCH   1   2
ATOM      2  C   UNL     1       3.269  -2.133   2.091  1.00  0.00     0.021 C 
BRANCH   2   3
ATOM      3  C   UNL     1       2.872  -0.659   2.933  1.00  0.00     0.116 C 
BRANCH   3   4
ATOM      4  N   UNL     1       1.855   0.327   2.615  1.00  0.00    -0.351 N 
ATOM      5  C   UNL     1       0.665   0.601   3.222  1.00  0.00     0.281 C 
ATOM      6  O   UNL     1       0.080   1.634   2.888  1.00  0.00    -0.268 OA
ATOM      7  H   UNL     1       2.057   0.890   1.833  1.00  0.00     0.163 HD
BRANCH   5   8
ATOM      8  C   UNL     1       0.120  -0.372   4.270  1.00  0.00     0.178 C 
ATOM      9  C   UNL     1      -1.407  -0.148   4.434  1.00  0.00     0.079 C 
ATOM     10  C   UNL     1       0.123  -1.856   3.770  1.00  0.00     0.066 C 
ATOM     11  C   UNL     1      -1.925  -1.427   5.085  1.00  0.00     0.008 C 
ATOM     12  C   UNL     1      -0.923  -2.517   4.705  1.00  0.00     0.011 C 
BRANCH   8  13
ATOM     13  N   UNL     1       0.657  -0.053   5.642  1.00  0.00    -0.334 N 
ATOM     14  H   UNL     1       0.282   0.859   5.902  1.00  0.00     0.347 HD
ATOM     15  H   UNL     1       0.366  -0.854   6.202  1.00  0.00     0.347 HD
BRANCH  13  16
ATOM     16  C   UNL     1       2.095   0.006   5.862  1.00  0.00     0.257 C 
ATOM     17  C   UNL     1       2.478   0.643   7.189  1.00  0.00     0.071 C 
ENDBRANCH  13  16
ENDBRANCH   8  13
BRANCH  10  18
ATOM     18  C   UNL     1      -0.293  -2.129   2.263  1.00  0.00     0.072 C 
BRANCH  18  19
ATOM     19  C   UNL     1       0.456  -1.619   0.966  1.00  0.00     0.262 C 
BRANCH  19  20
ATOM     20  N   UNL     1       1.789  -2.077   0.526  1.00  0.00    -0.335 N 
ATOM     21  C   UNL     1       2.183  -3.787   0.965  1.00  0.00     0.262 C 
ATOM     22  C   UNL     1       3.143  -0.826   0.416  1.00  0.00     0.265 C 
ATOM     23  H   UNL     1       1.688  -2.165  -0.485  1.00  0.00     0.348 HD
ATOM     24  C   UNL     1       3.826  -4.244   1.865  1.00  0.00     0.062 C 
ATOM     25  C   UNL     1       4.915  -1.136   1.264  1.00  0.00     0.044 C 
ATOM     26  C   UNL     1       5.303  -2.970   1.846  1.00  0.00     0.015 C 
BRANCH  25  27
ATOM     27  C   UNL     1       6.026  -0.091   0.948  1.00  0.00     0.006 C 
ATOM     28  C   UNL     1       5.456   1.235   0.469  1.00  0.00     0.004 C 
ENDBRANCH  25  27
ENDBRANCH  19  20
ENDBRANCH  18  19
ENDBRANCH  10  18
ENDBRANCH   5   8
ENDBRANCH   3   4
ENDBRANCH   2   3
ENDBRANCH   1   2
BRANCH   1  29
ATOM     29  C   UNL     1       5.148  -2.215  -0.950  1.00  0.00     0.002 C 
BRANCH  29  30
ATOM     30  C   UNL     1       6.647  -2.561  -0.862  1.00  0.00     0.021 C 
BRANCH  30  31
ATOM     31  C   UNL     1       6.985  -4.020  -1.082  1.00  0.00     0.116 C 
BRANCH  31  32
ATOM     32  N   UNL     1       7.769  -4.191  -2.288  1.00  0.00    -0.352 N 
ATOM     33  C   UNL     1       8.972  -4.850  -2.426  1.00  0.00     0.251 C 
ATOM     34  H   UNL     1       7.399  -3.790  -3.107  1.00  0.00     0.163 HD
ATOM     35  O   UNL     1       9.639  -4.704  -3.434  1.00  0.00    -0.269 OA
BRANCH  33  36
ATOM     36  C   UNL     1       9.442  -5.712  -1.314  1.00  0.00     0.039 A 
ATOM     37  C   UNL     1      10.789  -5.677  -0.949  1.00  0.00     0.014 A 
ATOM     38  C   UNL     1       8.550  -6.550  -0.636  1.00  0.00     0.014 A 
ATOM     39  C   UNL     1      11.238  -6.484   0.099  1.00  0.00     0.010 A 
ATOM     40  C   UNL     1       8.977  -7.275   0.470  1.00  0.00     0.010 A 
ATOM     41  C   UNL     1      10.335  -7.292   0.811  1.00  0.00    -0.014 A 
BRANCH  41  42
ATOM     42  C   UNL     1      10.825  -8.271   1.811  1.00  0.00     0.031 A 
ATOM     43  C   UNL     1      10.697  -9.743   1.510  1.00  0.00     0.074 A 
ATOM     44  C   UNL     1      11.373  -7.850   2.966  1.00  0.00     0.049 A 
ATOM     45  N   UNL     1      11.071 -10.773   2.223  1.00  0.00    -0.248 NA
ATOM     46  C   UNL     1      10.023 -10.103   0.251  1.00  0.00     0.031 C 
ATOM     47  C   UNL     1      11.501  -6.452   3.382  1.00  0.00     0.029 A 
ATOM     48  N   UNL     1      11.935  -8.557   3.998  1.00  0.00    -0.354 N 
ATOM     49  C   UNL     1      10.669 -11.895   1.504  1.00  0.00     0.074 A 
ATOM     50  C   UNL     1       9.943 -11.419   0.350  1.00  0.00     0.031 C 
ATOM     51  C   UNL     1      12.141  -6.403   4.563  1.00  0.00     0.029 A 
ATOM     52  C   UNL     1      12.447  -7.763   4.998  1.00  0.00     0.049 A 
ATOM     53  H   UNL     1      11.970  -9.540   4.021  1.00  0.00     0.167 HD
ATOM     54  C   UNL     1      10.920 -13.203   1.758  1.00  0.00     0.034 A 
ATOM     55  C   UNL     1      13.100  -8.101   6.128  1.00  0.00     0.034 A 
ATOM     56  C   UNL     1      11.673 -13.653   2.900  1.00  0.00     0.049 A 
ATOM     57  C   UNL     1      13.377  -9.561   6.390  1.00  0.00     0.074 A 
ATOM     58  C   UNL     1      12.035 -14.943   3.243  1.00  0.00     0.029 A 
ATOM     59  N   UNL     1      12.183 -12.819   3.887  1.00  0.00    -0.354 N 
ATOM     60  N   UNL     1      13.044 -10.608   5.669  1.00  0.00    -0.248 NA
ATOM     61  C   UNL     1      14.136  -9.883   7.605  1.00  0.00     0.031 C 
ATOM     62  C   UNL     1      12.714 -14.894   4.466  1.00  0.00     0.029 A 
ATOM     63  C   UNL     1      12.836 -13.568   4.851  1.00  0.00     0.049 A 
ATOM     64  H   UNL     1      12.093 -11.839   3.899  1.00  0.00     0.167 HD
ATOM     65  C   UNL     1      13.579 -11.710   6.331  1.00  0.00     0.074 A 
ATOM     66  C   UNL     1      14.271 -11.196   7.496  1.00  0.00     0.031 C 
ATOM     67  C   UNL     1      13.511 -13.027   6.008  1.00  0.00     0.034 A 
BRANCH  54  68
ATOM     68  C   UNL     1      10.357 -14.215   0.789  1.00  0.00     0.023 A 
ATOM     69  C   UNL     1      10.738 -14.231  -0.566  1.00  0.00     0.031 A 
ATOM     70  C   UNL     1       9.381 -15.137   1.206  1.00  0.00     0.131 A 
ATOM     71  C   UNL     1      10.081 -15.079  -1.470  1.00  0.00     0.055 A 
ATOM     72  C   UNL     1       8.796 -16.042   0.317  1.00  0.00     0.041 A 
ATOM     73  F   UNL     1       8.960 -15.157   2.480  1.00  0.00    -0.206 F 
ATOM     74  C   UNL     1       9.131 -16.004  -1.034  1.00  0.00     0.022 A 
BRANCH  71  75
ATOM     75  S   UNL     1      10.369 -14.840  -3.246  1.00  0.00     0.124 S 
ATOM     76  O   UNL     1       9.922 -13.461  -3.432  1.00  0.00    -0.237 OA
ATOM     77  O   UNL     1      11.804 -15.069  -3.367  1.00  0.00    -0.237 OA
ATOM     78  O   UNL     1       9.520 -15.852  -3.870  1.00  0.00    -0.744 OA
ENDBRANCH  71  75
ENDBRANCH  54  68
BRANCH  55  79
ATOM     79  C   UNL     1      13.554  -7.050   7.085  1.00  0.00     0.023 A 
ATOM     80  C   UNL     1      14.920  -6.826   7.322  1.00  0.00     0.031 A 
ATOM     81  C   UNL     1      12.626  -6.279   7.806  1.00  0.00     0.131 A 
ATOM     82  C   UNL     1      15.319  -5.890   8.289  1.00  0.00     0.055 A 
ATOM     83  C   UNL     1      13.028  -5.314   8.732  1.00  0.00     0.041 A 
ATOM     84  F   UNL     1      11.307  -6.446   7.611  1.00  0.00    -0.206 F 
ATOM     85  C   UNL     1      14.382  -5.125   8.988  1.00  0.00     0.022 A 
BRANCH  82  86
ATOM     86  S   UNL     1      17.084  -5.741   8.681  1.00  0.00     0.124 S 
ATOM     87  O   UNL     1      17.418  -7.104   9.076  1.00  0.00    -0.237 OA
ATOM     88  O   UNL     1      17.638  -5.286   7.410  1.00  0.00    -0.237 OA
ATOM     89  O   UNL     1      17.111  -4.754   9.759  1.00  0.00    -0.744 OA
ENDBRANCH  82  86
ENDBRANCH  55  79
BRANCH  67  90
ATOM     90  C   UNL     1      14.236 -13.990   6.913  1.00  0.00     0.023 A 
ATOM     91  C   UNL     1      13.807 -14.227   8.229  1.00  0.00     0.031 A 
ATOM     92  C   UNL     1      15.370 -14.679   6.448  1.00  0.00     0.131 A 
ATOM     93  C   UNL     1      14.540 -15.090   9.056  1.00  0.00     0.055 A 
ATOM     94  C   UNL     1      16.062 -15.581   7.257  1.00  0.00     0.041 A 
ATOM     95  F   UNL     1      15.820 -14.489   5.197  1.00  0.00    -0.206 F 
ATOM     96  C   UNL     1      15.655 -15.781   8.573  1.00  0.00     0.022 A 
BRANCH  93  97
ATOM     97  S   UNL     1      14.065 -15.234  10.800  1.00  0.00     0.124 S 
ATOM     98  O   UNL     1      14.188 -13.855  11.262  1.00  0.00    -0.237 OA
ATOM     99  O   UNL     1      12.706 -15.758  10.711  1.00  0.00    -0.237 OA
ATOM    100  O   UNL     1      15.051 -16.163  11.348  1.00  0.00    -0.744 OA
ENDBRANCH  93  97
ENDBRANCH  67  90
ENDBRANCH  41  42
ENDBRANCH  33  36
ENDBRANCH  31  32
ENDBRANCH  30  31
ENDBRANCH  29  30
ENDBRANCH   1  29
TORSDOF 22
