REMARK SMILES C[C@@H](C(=O)NCCCCCCNC(=O)c1ccc(-c2c3nc(c(-c4cc(S(=O)(=O)[O-])ccc4F)c4ccc([nH]4)c(-c4cc(S(=O)(=O)[O-])ccc4F)c4nc(c(-c5cc(S(=O)(=O)[O-])ccc5F)c5ccc2[nH]5)C=C4)C=C3)cc1)c1ccc(OC2CCCC2)cc1F
REMARK SMILES IDX 8 1 7 2 6 3 5 4 3 5 4 6 2 8 1 9 78 10 79 11 89 12 80 13
REMARK SMILES IDX 88 14 90 15 81 16 82 17 83 18 84 19 87 20 85 21 86 22 9 23
REMARK SMILES IDX 10 24 11 25 12 26 13 27 14 29 15 30 16 31 77 32 17 33 76 34
REMARK SMILES IDX 18 35 19 36 20 37 70 38 21 39 75 40 69 41 71 42 22 43 74 44
REMARK SMILES IDX 68 45 67 46 23 48 55 49 35 50 54 51 36 52 39 53 53 54 72 55
REMARK SMILES IDX 37 56 38 57 52 59 73 60 40 61 24 62 25 63 33 64 26 65 32 66
REMARK SMILES IDX 34 67 31 68 27 69 28 70 29 71 30 72 56 73 57 74 65 75 58 76
REMARK SMILES IDX 64 77 66 78 63 79 59 80 60 81 61 82 62 83 41 84 42 85 50 86
REMARK SMILES IDX 43 87 49 88 51 89 48 90 44 91 45 92 46 93 47 94
REMARK H PARENT 5 7 12 28 71 47 39 58
REMARK Flexibility Score: inf
ROOT
ATOM      1  C   UNL     1       4.947   1.183  -2.659  1.00  0.00     0.002 C 
ENDROOT
BRANCH   1   2
ATOM      2  C   UNL     1       4.192   0.804  -1.380  1.00  0.00     0.021 C 
BRANCH   2   3
ATOM      3  C   UNL     1       3.367   1.952  -0.788  1.00  0.00     0.116 C 
BRANCH   3   4
ATOM      4  N   UNL     1       2.209   2.214  -1.618  1.00  0.00    -0.356 N 
ATOM      5  C   UNL     1       0.925   1.771  -1.487  1.00  0.00     0.227 C 
ATOM      6  O   UNL     1       0.168   1.980  -2.438  1.00  0.00    -0.274 OA
ATOM      7  H   UNL     1       2.374   2.799  -2.392  1.00  0.00     0.163 HD
BRANCH   5   8
ATOM      8  C   UNL     1       0.462   1.116  -0.169  1.00  0.00     0.108 C 
ATOM      9  C   UNL     1       1.122  -0.253   0.041  1.00  0.00     0.023 C 
BRANCH   8  10
ATOM     10  C   UNL     1      -1.064   1.082  -0.078  1.00  0.00     0.000 A 
ATOM     11  C   UNL     1      -1.782   2.289   0.007  1.00  0.00     0.011 A 
ATOM     12  C   UNL     1      -1.809  -0.099  -0.100  1.00  0.00     0.130 A 
ATOM     13  C   UNL     1      -3.183   2.291   0.048  1.00  0.00     0.047 A 
ATOM     14  C   UNL     1      -3.198  -0.098  -0.022  1.00  0.00     0.086 A 
ATOM     15  F   UNL     1      -1.221  -1.298  -0.205  1.00  0.00    -0.207 F 
ATOM     16  C   UNL     1      -3.903   1.095   0.023  1.00  0.00     0.122 A 
BRANCH  16  17
ATOM     17  O   UNL     1      -5.260   1.231   0.036  1.00  0.00    -0.490 OA
BRANCH  17  18
ATOM     18  C   UNL     1      -6.131   0.116  -0.141  1.00  0.00     0.173 C 
ATOM     19  C   UNL     1      -5.974  -0.679  -1.437  1.00  0.00     0.045 C 
ATOM     20  C   UNL     1      -6.152  -0.885   1.016  1.00  0.00     0.045 C 
ATOM     21  C   UNL     1      -6.568  -2.041  -1.112  1.00  0.00     0.004 C 
ATOM     22  C   UNL     1      -6.340  -2.260   0.380  1.00  0.00     0.004 C 
ENDBRANCH  17  18
ENDBRANCH  16  17
ENDBRANCH   8  10
ENDBRANCH   5   8
ENDBRANCH   3   4
ENDBRANCH   2   3
ENDBRANCH   1   2
BRANCH   1  23
ATOM     23  C   UNL     1       5.954   2.326  -2.494  1.00  0.00     0.002 C 
BRANCH  23  24
ATOM     24  C   UNL     1       6.989   2.116  -1.385  1.00  0.00     0.021 C 
BRANCH  24  25
ATOM     25  C   UNL     1       7.860   0.875  -1.558  1.00  0.00     0.116 C 
BRANCH  25  26
ATOM     26  N   UNL     1       8.666   0.949  -2.765  1.00  0.00    -0.352 N 
ATOM     27  C   UNL     1      10.024   0.832  -2.913  1.00  0.00     0.251 C 
ATOM     28  H   UNL     1       8.165   1.106  -3.597  1.00  0.00     0.163 HD
ATOM     29  O   UNL     1      10.545   1.161  -3.979  1.00  0.00    -0.269 OA
BRANCH  27  30
ATOM     30  C   UNL     1      10.858   0.332  -1.799  1.00  0.00     0.039 A 
ATOM     31  C   UNL     1      12.082   0.955  -1.542  1.00  0.00     0.014 A 
ATOM     32  C   UNL     1      10.456  -0.764  -1.028  1.00  0.00     0.014 A 
ATOM     33  C   UNL     1      12.878   0.510  -0.484  1.00  0.00     0.010 A 
ATOM     34  C   UNL     1      11.219  -1.163   0.068  1.00  0.00     0.010 A 
ATOM     35  C   UNL     1      12.441  -0.535   0.347  1.00  0.00    -0.014 A 
BRANCH  35  36
ATOM     36  C   UNL     1      13.264  -0.980   1.502  1.00  0.00     0.031 A 
ATOM     37  C   UNL     1      13.855  -2.365   1.525  1.00  0.00     0.074 A 
ATOM     38  C   UNL     1      13.453  -0.146   2.545  1.00  0.00     0.049 A 
ATOM     39  N   UNL     1      14.572  -2.944   2.454  1.00  0.00    -0.248 NA
ATOM     40  C   UNL     1      13.582  -3.218   0.358  1.00  0.00     0.031 C 
ATOM     41  C   UNL     1      12.893   1.202   2.657  1.00  0.00     0.029 A 
ATOM     42  N   UNL     1      14.162  -0.307   3.708  1.00  0.00    -0.354 N 
ATOM     43  C   UNL     1      14.841  -4.225   1.984  1.00  0.00     0.074 A 
ATOM     44  C   UNL     1      14.146  -4.360   0.721  1.00  0.00     0.031 C 
ATOM     45  C   UNL     1      13.298   1.752   3.813  1.00  0.00     0.029 A 
ATOM     46  C   UNL     1      14.113   0.786   4.543  1.00  0.00     0.049 A 
ATOM     47  H   UNL     1      14.660  -1.128   3.926  1.00  0.00     0.167 HD
ATOM     48  C   UNL     1      15.619  -5.189   2.538  1.00  0.00     0.034 A 
ATOM     49  C   UNL     1      14.655   0.984   5.760  1.00  0.00     0.034 A 
ATOM     50  C   UNL     1      16.305  -5.040   3.799  1.00  0.00     0.049 A 
ATOM     51  C   UNL     1      15.500  -0.109   6.365  1.00  0.00     0.074 A 
ATOM     52  C   UNL     1      17.132  -5.943   4.444  1.00  0.00     0.029 A 
ATOM     53  N   UNL     1      16.242  -3.914   4.611  1.00  0.00    -0.354 N 
ATOM     54  N   UNL     1      15.778  -1.300   5.885  1.00  0.00    -0.248 NA
ATOM     55  C   UNL     1      16.120   0.176   7.665  1.00  0.00     0.031 C 
ATOM     56  C   UNL     1      17.522  -5.388   5.668  1.00  0.00     0.029 A 
ATOM     57  C   UNL     1      16.999  -4.108   5.756  1.00  0.00     0.049 A 
ATOM     58  H   UNL     1      15.733  -3.097   4.403  1.00  0.00     0.167 HD
ATOM     59  C   UNL     1      16.630  -1.893   6.814  1.00  0.00     0.074 A 
ATOM     60  C   UNL     1      16.838  -0.918   7.865  1.00  0.00     0.031 C 
ATOM     61  C   UNL     1      17.189  -3.130   6.801  1.00  0.00     0.034 A 
BRANCH  48  62
ATOM     62  C   UNL     1      15.756  -6.488   1.780  1.00  0.00     0.023 A 
ATOM     63  C   UNL     1      16.351  -6.535   0.507  1.00  0.00     0.031 A 
ATOM     64  C   UNL     1      15.271  -7.691   2.323  1.00  0.00     0.131 A 
ATOM     65  C   UNL     1      16.381  -7.740  -0.211  1.00  0.00     0.055 A 
ATOM     66  C   UNL     1      15.377  -8.904   1.637  1.00  0.00     0.041 A 
ATOM     67  F   UNL     1      14.675  -7.708   3.525  1.00  0.00    -0.206 F 
ATOM     68  C   UNL     1      15.922  -8.931   0.356  1.00  0.00     0.022 A 
BRANCH  65  69
ATOM     69  S   UNL     1      16.905  -7.701  -1.947  1.00  0.00     0.124 S 
ATOM     70  O   UNL     1      15.915  -6.800  -2.532  1.00  0.00    -0.237 OA
ATOM     71  O   UNL     1      18.265  -7.184  -1.855  1.00  0.00    -0.237 OA
ATOM     72  O   UNL     1      16.795  -9.096  -2.369  1.00  0.00    -0.744 OA
ENDBRANCH  65  69
ENDBRANCH  48  62
BRANCH  49  73
ATOM     73  C   UNL     1      14.413   2.257   6.501  1.00  0.00     0.023 A 
ATOM     74  C   UNL     1      15.470   3.123   6.823  1.00  0.00     0.031 A 
ATOM     75  C   UNL     1      13.124   2.596   6.949  1.00  0.00     0.131 A 
ATOM     76  C   UNL     1      15.230   4.252   7.622  1.00  0.00     0.055 A 
ATOM     77  C   UNL     1      12.881   3.752   7.693  1.00  0.00     0.041 A 
ATOM     78  F   UNL     1      12.075   1.807   6.664  1.00  0.00    -0.206 F 
ATOM     79  C   UNL     1      13.942   4.579   8.049  1.00  0.00     0.022 A 
BRANCH  76  80
ATOM     80  S   UNL     1      16.649   5.230   8.189  1.00  0.00     0.124 S 
ATOM     81  O   UNL     1      17.466   4.215   8.846  1.00  0.00    -0.237 OA
ATOM     82  O   UNL     1      17.170   5.760   6.934  1.00  0.00    -0.237 OA
ATOM     83  O   UNL     1      16.046   6.219   9.079  1.00  0.00    -0.744 OA
ENDBRANCH  76  80
ENDBRANCH  49  73
BRANCH  61  84
ATOM     84  C   UNL     1      18.113  -3.471   7.946  1.00  0.00     0.023 A 
ATOM     85  C   UNL     1      17.642  -3.586   9.266  1.00  0.00     0.031 A 
ATOM     86  C   UNL     1      19.488  -3.654   7.716  1.00  0.00     0.131 A 
ATOM     87  C   UNL     1      18.548  -3.806  10.314  1.00  0.00     0.055 A 
ATOM     88  C   UNL     1      20.375  -3.937   8.755  1.00  0.00     0.041 A 
ATOM     89  F   UNL     1      19.992  -3.555   6.476  1.00  0.00    -0.206 F 
ATOM     90  C   UNL     1      19.909  -3.998  10.065  1.00  0.00     0.022 A 
BRANCH  87  91
ATOM     91  S   UNL     1      17.938  -3.731  12.021  1.00  0.00     0.124 S 
ATOM     92  O   UNL     1      17.358  -2.393  12.077  1.00  0.00    -0.237 OA
ATOM     93  O   UNL     1      16.990  -4.839  12.062  1.00  0.00    -0.237 OA
ATOM     94  O   UNL     1      19.144  -3.918  12.825  1.00  0.00    -0.744 OA
ENDBRANCH  87  91
ENDBRANCH  61  84
ENDBRANCH  35  36
ENDBRANCH  27  30
ENDBRANCH  25  26
ENDBRANCH  24  25
ENDBRANCH  23  24
ENDBRANCH   1  23
TORSDOF 19
