REMARK SMILES Cc1nc(C[N@@H+]2CCC[C@H]2C(=O)NCCCCCCNC(=O)c2ccc(-c3c4nc(c(-c5cc(S(=O)(=O)[O-])ccc5F)c5ccc([nH]5)c(-c5cc(S(=O)(=O)[O-])ccc5F)c5nc(c(-c6cc(S(=O)(=O)[O-])ccc6F)c6ccc3[nH]6)C=C5)C=C4)cc2)cs1
REMARK SMILES IDX 17 1 16 2 15 3 14 4 13 5 11 6 12 7 10 9 6 10 7 11 8 13 9 14
REMARK SMILES IDX 5 15 4 16 1 17 2 18 3 19 87 20 86 21 18 22 19 23 20 24 21 25
REMARK SMILES IDX 22 27 23 28 24 29 85 30 25 31 84 32 26 33 27 34 28 35 78 36
REMARK SMILES IDX 29 37 83 38 77 39 79 40 30 41 82 42 76 43 75 44 31 46 63 47
REMARK SMILES IDX 43 48 62 49 44 50 47 51 61 52 80 53 45 54 46 55 60 57 81 58
REMARK SMILES IDX 48 59 32 60 33 61 41 62 34 63 40 64 42 65 39 66 35 67 36 68
REMARK SMILES IDX 37 69 38 70 64 71 65 72 73 73 66 74 72 75 74 76 71 77 67 78
REMARK SMILES IDX 68 79 69 80 70 81 49 82 50 83 58 84 51 85 57 86 59 87 56 88
REMARK SMILES IDX 52 89 53 90 54 91 55 92
REMARK H PARENT 13 8 6 12 20 26 79 45 47 56
REMARK Flexibility Score: inf
ROOT
ATOM      1  C   UNL     1       5.802  -7.046  -2.658  1.00  0.00     0.002 C 
ENDROOT
BRANCH   1   2
ATOM      2  C   UNL     1       4.279  -7.120  -2.511  1.00  0.00     0.002 C 
BRANCH   2   3
ATOM      3  C   UNL     1       3.667  -6.091  -1.558  1.00  0.00     0.021 C 
BRANCH   3   4
ATOM      4  C   UNL     1       4.012  -4.642  -1.885  1.00  0.00     0.116 C 
BRANCH   4   5
ATOM      5  N   UNL     1       3.422  -4.227  -3.143  1.00  0.00    -0.351 N 
ATOM      6  C   UNL     1       2.569  -3.225  -3.480  1.00  0.00     0.278 C 
ATOM      7  O   UNL     1       2.216  -3.212  -4.669  1.00  0.00    -0.268 OA
ATOM      8  H   UNL     1       3.695  -4.785  -3.907  1.00  0.00     0.163 HD
BRANCH   6   9
ATOM      9  C   UNL     1       1.991  -2.183  -2.491  1.00  0.00     0.274 C 
ATOM     10  N   UNL     1       2.774  -2.035  -1.257  1.00  0.00    -0.320 N 
ATOM     11  C   UNL     1       3.656  -0.891  -1.399  1.00  0.00     0.263 C 
ATOM     12  H   UNL     1       3.374  -2.851  -1.136  1.00  0.00     0.349 HD
ATOM     13  C   UNL     1       2.920   0.076  -2.298  1.00  0.00     0.068 C 
ATOM     14  C   UNL     1       2.011  -0.795  -3.152  1.00  0.00     0.081 C 
BRANCH  10  15
ATOM     15  C   UNL     1       2.001  -2.138  -0.016  1.00  0.00     0.321 C 
BRANCH  15  16
ATOM     16  C   UNL     1       1.025  -1.026   0.223  1.00  0.00     0.106 A 
ATOM     17  C   UNL     1      -2.470   0.006  -0.046  1.00  0.00     0.079 C 
ATOM     18  C   UNL     1      -1.007  -0.136   0.183  1.00  0.00     0.090 A 
ATOM     19  N   UNL     1      -0.299  -1.188  -0.168  1.00  0.00    -0.241 NA
ATOM     20  S   UNL     1      -0.128   1.125   0.948  1.00  0.00    -0.127 S 
ATOM     21  C   UNL     1       1.288   0.171   0.866  1.00  0.00     0.096 A 
ENDBRANCH  15  16
ENDBRANCH  10  15
ENDBRANCH   6   9
ENDBRANCH   4   5
ENDBRANCH   3   4
ENDBRANCH   2   3
ENDBRANCH   1   2
BRANCH   1  22
ATOM     22  C   UNL     1       6.587  -7.080  -1.345  1.00  0.00     0.021 C 
BRANCH  22  23
ATOM     23  C   UNL     1       6.311  -8.297  -0.469  1.00  0.00     0.116 C 
BRANCH  23  24
ATOM     24  N   UNL     1       6.694  -9.536  -1.123  1.00  0.00    -0.352 N 
ATOM     25  C   UNL     1       7.489 -10.553  -0.655  1.00  0.00     0.251 C 
ATOM     26  H   UNL     1       6.334  -9.664  -2.030  1.00  0.00     0.163 HD
ATOM     27  O   UNL     1       7.878 -11.423  -1.425  1.00  0.00    -0.269 OA
BRANCH  25  28
ATOM     28  C   UNL     1       7.887 -10.579   0.771  1.00  0.00     0.039 A 
ATOM     29  C   UNL     1       9.203 -10.914   1.099  1.00  0.00     0.014 A 
ATOM     30  C   UNL     1       6.964 -10.294   1.781  1.00  0.00     0.014 A 
ATOM     31  C   UNL     1       9.602 -10.921   2.438  1.00  0.00     0.010 A 
ATOM     32  C   UNL     1       7.383 -10.226   3.107  1.00  0.00     0.010 A 
ATOM     33  C   UNL     1       8.703 -10.554   3.453  1.00  0.00    -0.014 A 
BRANCH  33  34
ATOM     34  C   UNL     1       9.109 -10.557   4.884  1.00  0.00     0.031 A 
ATOM     35  C   UNL     1       8.440 -11.504   5.846  1.00  0.00     0.074 A 
ATOM     36  C   UNL     1      10.046  -9.694   5.323  1.00  0.00     0.049 A 
ATOM     37  N   UNL     1       8.585 -11.609   7.142  1.00  0.00    -0.248 NA
ATOM     38  C   UNL     1       7.455 -12.438   5.276  1.00  0.00     0.031 C 
ATOM     39  C   UNL     1      10.755  -8.718   4.492  1.00  0.00     0.029 A 
ATOM     40  N   UNL     1      10.565  -9.494   6.579  1.00  0.00    -0.354 N 
ATOM     41  C   UNL     1       7.712 -12.616   7.541  1.00  0.00     0.074 A 
ATOM     42  C   UNL     1       6.987 -13.035   6.361  1.00  0.00     0.031 C 
ATOM     43  C   UNL     1      11.634  -8.047   5.254  1.00  0.00     0.029 A 
ATOM     44  C   UNL     1      11.519  -8.504   6.635  1.00  0.00     0.049 A 
ATOM     45  H   UNL     1      10.280 -10.012   7.367  1.00  0.00     0.167 HD
ATOM     46  C   UNL     1       7.552 -13.165   8.771  1.00  0.00     0.034 A 
ATOM     47  C   UNL     1      12.213  -8.014   7.683  1.00  0.00     0.034 A 
ATOM     48  C   UNL     1       8.287 -12.746   9.938  1.00  0.00     0.049 A 
ATOM     49  C   UNL     1      11.974  -8.607   9.053  1.00  0.00     0.074 A 
ATOM     50  C   UNL     1       8.209 -13.238  11.229  1.00  0.00     0.029 A 
ATOM     51  N   UNL     1       9.241 -11.736   9.956  1.00  0.00    -0.354 N 
ATOM     52  N   UNL     1      11.157  -9.572   9.408  1.00  0.00    -0.248 NA
ATOM     53  C   UNL     1      12.763  -8.053  10.161  1.00  0.00     0.031 C 
ATOM     54  C   UNL     1       9.069 -12.487  12.038  1.00  0.00     0.029 A 
ATOM     55  C   UNL     1       9.746 -11.582  11.238  1.00  0.00     0.049 A 
ATOM     56  H   UNL     1       9.518 -11.207   9.173  1.00  0.00     0.167 HD
ATOM     57  C   UNL     1      11.379  -9.775  10.768  1.00  0.00     0.074 A 
ATOM     58  C   UNL     1      12.410  -8.841  11.164  1.00  0.00     0.031 C 
ATOM     59  C   UNL     1      10.787 -10.657  11.614  1.00  0.00     0.034 A 
BRANCH  46  60
ATOM     60  C   UNL     1       6.535 -14.273   8.911  1.00  0.00     0.023 A 
ATOM     61  C   UNL     1       6.682 -15.494   8.230  1.00  0.00     0.031 A 
ATOM     62  C   UNL     1       5.400 -14.106   9.724  1.00  0.00     0.131 A 
ATOM     63  C   UNL     1       5.681 -16.473   8.320  1.00  0.00     0.055 A 
ATOM     64  C   UNL     1       4.449 -15.117   9.876  1.00  0.00     0.041 A 
ATOM     65  F   UNL     1       5.192 -12.954  10.380  1.00  0.00    -0.206 F 
ATOM     66  C   UNL     1       4.579 -16.304   9.161  1.00  0.00     0.022 A 
BRANCH  63  67
ATOM     67  S   UNL     1       5.776 -17.911   7.220  1.00  0.00     0.124 S 
ATOM     68  O   UNL     1       5.727 -17.278   5.904  1.00  0.00    -0.237 OA
ATOM     69  O   UNL     1       7.051 -18.512   7.594  1.00  0.00    -0.237 OA
ATOM     70  O   UNL     1       4.591 -18.691   7.573  1.00  0.00    -0.744 OA
ENDBRANCH  63  67
ENDBRANCH  46  60
BRANCH  47  71
ATOM     71  C   UNL     1      13.195  -6.904   7.505  1.00  0.00     0.023 A 
ATOM     72  C   UNL     1      14.548  -7.081   7.836  1.00  0.00     0.031 A 
ATOM     73  C   UNL     1      12.783  -5.623   7.094  1.00  0.00     0.131 A 
ATOM     74  C   UNL     1      15.422  -5.983   7.830  1.00  0.00     0.055 A 
ATOM     75  C   UNL     1      13.673  -4.550   7.019  1.00  0.00     0.041 A 
ATOM     76  F   UNL     1      11.502  -5.394   6.764  1.00  0.00    -0.206 F 
ATOM     77  C   UNL     1      14.998  -4.722   7.410  1.00  0.00     0.022 A 
BRANCH  74  78
ATOM     78  S   UNL     1      17.087  -6.199   8.519  1.00  0.00     0.124 S 
ATOM     79  O   UNL     1      16.789  -6.707   9.853  1.00  0.00    -0.237 OA
ATOM     80  O   UNL     1      17.678  -7.152   7.586  1.00  0.00    -0.237 OA
ATOM     81  O   UNL     1      17.650  -4.851   8.473  1.00  0.00    -0.744 OA
ENDBRANCH  74  78
ENDBRANCH  47  71
BRANCH  59  82
ATOM     82  C   UNL     1      11.307 -10.708  13.032  1.00  0.00     0.023 A 
ATOM     83  C   UNL     1      11.175  -9.624  13.916  1.00  0.00     0.031 A 
ATOM     84  C   UNL     1      11.963 -11.863  13.496  1.00  0.00     0.131 A 
ATOM     85  C   UNL     1      11.749  -9.692  15.195  1.00  0.00     0.055 A 
ATOM     86  C   UNL     1      12.472 -11.950  14.792  1.00  0.00     0.041 A 
ATOM     87  F   UNL     1      12.120 -12.929  12.694  1.00  0.00    -0.206 F 
ATOM     88  C   UNL     1      12.381 -10.854  15.645  1.00  0.00     0.022 A 
BRANCH  85  89
ATOM     89  S   UNL     1      11.755  -8.199  16.226  1.00  0.00     0.124 S 
ATOM     90  O   UNL     1      12.439  -7.238  15.367  1.00  0.00    -0.237 OA
ATOM     91  O   UNL     1      10.331  -7.962  16.439  1.00  0.00    -0.237 OA
ATOM     92  O   UNL     1      12.498  -8.608  17.417  1.00  0.00    -0.744 OA
ENDBRANCH  85  89
ENDBRANCH  59  82
ENDBRANCH  33  34
ENDBRANCH  25  28
ENDBRANCH  23  24
ENDBRANCH  22  23
ENDBRANCH   1  22
TORSDOF 18
