REMARK SMILES CC(C)n1c2c(c3ccccc31)[C@@H](c1ccccc1)N(CC(=O)NCCCCCCNC(=O)c1ccc(-c3c4nc(c(-c5cc(S(=O)(=O)[O-])ccc5F)c5ccc([nH]5)c(-c5cc(S(=O)(=O)[O-])ccc5F)c5nc(c(-c6cc(S(=O)(=O)[O-])ccc6F)c6ccc3[nH]6)C=C5)C=C4)cc1)C2=O
REMARK SMILES IDX 28 1 27 2 26 3 25 4 24 5 22 6 23 7 21 9 20 10 4 11 5 12
REMARK SMILES IDX 12 13 6 14 97 15 7 16 11 17 13 18 98 19 8 20 10 21 9 22 2 23
REMARK SMILES IDX 1 24 3 25 14 26 15 27 19 28 16 29 18 30 17 31 29 32 30 33
REMARK SMILES IDX 31 34 32 35 33 37 34 38 35 39 96 40 36 41 95 42 37 43 38 44
REMARK SMILES IDX 39 45 89 46 40 47 94 48 88 49 90 50 41 51 93 52 87 53 86 54
REMARK SMILES IDX 42 56 74 57 54 58 73 59 55 60 58 61 72 62 91 63 56 64 57 65
REMARK SMILES IDX 71 67 92 68 59 69 43 70 44 71 52 72 45 73 51 74 53 75 50 76
REMARK SMILES IDX 46 77 47 78 48 79 49 80 75 81 76 82 84 83 77 84 83 85 85 86
REMARK SMILES IDX 82 87 78 88 79 89 80 90 81 91 60 92 61 93 69 94 62 95 68 96
REMARK SMILES IDX 70 97 67 98 63 99 64 100 65 101 66 102
REMARK H PARENT 24 8 31 36 90 55 58 66
REMARK Flexibility Score: inf
ROOT
ATOM      1  C   UNL     1      -1.735  -3.139   5.403  1.00  0.00     0.002 C 
ENDROOT
BRANCH   1   2
ATOM      2  C   UNL     1      -2.682  -2.610   4.320  1.00  0.00     0.002 C 
BRANCH   2   3
ATOM      3  C   UNL     1      -2.378  -3.098   2.901  1.00  0.00     0.021 C 
BRANCH   3   4
ATOM      4  C   UNL     1      -2.501  -4.610   2.713  1.00  0.00     0.116 C 
BRANCH   4   5
ATOM      5  N   UNL     1      -3.890  -5.000   2.557  1.00  0.00    -0.355 N 
ATOM      6  C   UNL     1      -4.551  -5.362   1.418  1.00  0.00     0.239 C 
ATOM      7  O   UNL     1      -5.773  -5.523   1.467  1.00  0.00    -0.273 OA
ATOM      8  H   UNL     1      -4.428  -5.004   3.382  1.00  0.00     0.163 HD
BRANCH   6   9
ATOM      9  C   UNL     1      -3.791  -5.508   0.093  1.00  0.00     0.220 C 
BRANCH   9  10
ATOM     10  N   UNL     1      -3.403  -4.216  -0.448  1.00  0.00    -0.317 N 
ATOM     11  N   UNL     1      -1.282  -1.311  -0.524  1.00  0.00    -0.334 N 
ATOM     12  C   UNL     1      -2.120  -2.397  -0.618  1.00  0.00     0.114 A 
ATOM     13  C   UNL     1      -2.111  -0.165  -0.500  1.00  0.00     0.049 A 
ATOM     14  C   UNL     1      -3.426  -1.984  -0.635  1.00  0.00     0.018 A 
ATOM     15  C   UNL     1      -2.072  -3.829  -0.597  1.00  0.00     0.272 C 
ATOM     16  C   UNL     1      -3.459  -0.593  -0.537  1.00  0.00     0.006 A 
ATOM     17  C   UNL     1      -1.852   1.221  -0.445  1.00  0.00     0.027 A 
ATOM     18  C   UNL     1      -4.374  -3.127  -0.681  1.00  0.00     0.150 C 
ATOM     19  O   UNL     1      -1.109  -4.577  -0.613  1.00  0.00    -0.267 OA
ATOM     20  C   UNL     1      -4.514   0.340  -0.492  1.00  0.00     0.011 A 
ATOM     21  C   UNL     1      -2.916   2.133  -0.416  1.00  0.00     0.002 A 
ATOM     22  C   UNL     1      -4.232   1.701  -0.434  1.00  0.00     0.001 A 
BRANCH  11  23
ATOM     23  C   UNL     1       0.191  -1.390  -0.540  1.00  0.00     0.082 C 
ATOM     24  C   UNL     1       0.950  -0.083  -0.277  1.00  0.00     0.031 C 
ATOM     25  C   UNL     1       0.794  -2.413   0.438  1.00  0.00     0.031 C 
ENDBRANCH  11  23
BRANCH  18  26
ATOM     26  C   UNL     1      -5.003  -3.241  -2.065  1.00  0.00    -0.021 A 
ATOM     27  C   UNL     1      -5.984  -4.233  -2.263  1.00  0.00     0.006 A 
ATOM     28  C   UNL     1      -4.632  -2.473  -3.185  1.00  0.00     0.006 A 
ATOM     29  C   UNL     1      -6.531  -4.476  -3.526  1.00  0.00     0.000 A 
ATOM     30  C   UNL     1      -5.196  -2.700  -4.444  1.00  0.00     0.000 A 
ATOM     31  C   UNL     1      -6.134  -3.711  -4.617  1.00  0.00     0.000 A 
ENDBRANCH  18  26
ENDBRANCH   9  10
ENDBRANCH   6   9
ENDBRANCH   4   5
ENDBRANCH   3   4
ENDBRANCH   2   3
ENDBRANCH   1   2
BRANCH   1  32
ATOM     32  C   UNL     1      -0.241  -2.900   5.147  1.00  0.00     0.021 C 
BRANCH  32  33
ATOM     33  C   UNL     1       0.136  -1.436   4.915  1.00  0.00     0.116 C 
BRANCH  33  34
ATOM     34  N   UNL     1      -0.226  -0.563   6.011  1.00  0.00    -0.352 N 
ATOM     35  C   UNL     1       0.360  -0.204   7.193  1.00  0.00     0.251 C 
ATOM     36  H   UNL     1      -1.097  -0.126   5.874  1.00  0.00     0.163 HD
ATOM     37  O   UNL     1      -0.228   0.670   7.837  1.00  0.00    -0.269 OA
BRANCH  35  38
ATOM     38  C   UNL     1       1.580  -0.831   7.773  1.00  0.00     0.039 A 
ATOM     39  C   UNL     1       2.394  -1.768   7.138  1.00  0.00     0.014 A 
ATOM     40  C   UNL     1       1.878  -0.475   9.104  1.00  0.00     0.014 A 
ATOM     41  C   UNL     1       3.391  -2.428   7.848  1.00  0.00     0.010 A 
ATOM     42  C   UNL     1       2.890  -1.113   9.811  1.00  0.00     0.010 A 
ATOM     43  C   UNL     1       3.605  -2.133   9.197  1.00  0.00    -0.014 A 
BRANCH  43  44
ATOM     44  C   UNL     1       4.651  -2.874   9.896  1.00  0.00     0.031 A 
ATOM     45  C   UNL     1       6.020  -2.671   9.345  1.00  0.00     0.074 A 
ATOM     46  C   UNL     1       4.421  -3.618  10.997  1.00  0.00     0.049 A 
ATOM     47  N   UNL     1       6.779  -3.531   8.749  1.00  0.00    -0.248 NA
ATOM     48  C   UNL     1       6.540  -1.296   9.318  1.00  0.00     0.031 C 
ATOM     49  C   UNL     1       3.203  -3.661  11.812  1.00  0.00     0.029 A 
ATOM     50  N   UNL     1       5.276  -4.426  11.685  1.00  0.00    -0.354 N 
ATOM     51  C   UNL     1       7.962  -2.855   8.444  1.00  0.00     0.074 A 
ATOM     52  C   UNL     1       7.690  -1.458   8.664  1.00  0.00     0.031 C 
ATOM     53  C   UNL     1       3.479  -4.252  12.997  1.00  0.00     0.029 A 
ATOM     54  C   UNL     1       4.837  -4.767  12.957  1.00  0.00     0.049 A 
ATOM     55  H   UNL     1       6.130  -4.742  11.312  1.00  0.00     0.167 HD
ATOM     56  C   UNL     1       9.136  -3.516   8.231  1.00  0.00     0.034 A 
ATOM     57  C   UNL     1       5.558  -5.363  13.939  1.00  0.00     0.034 A 
ATOM     58  C   UNL     1       8.908  -4.919   8.028  1.00  0.00     0.049 A 
ATOM     59  C   UNL     1       6.736  -6.008  13.318  1.00  0.00     0.074 A 
ATOM     60  C   UNL     1       8.319  -5.687   7.049  1.00  0.00     0.029 A 
ATOM     61  N   UNL     1       9.037  -5.723   9.133  1.00  0.00    -0.354 N 
ATOM     62  N   UNL     1       6.673  -7.048  12.536  1.00  0.00    -0.248 NA
ATOM     63  C   UNL     1       7.967  -5.238  13.236  1.00  0.00     0.031 C 
ATOM     64  C   UNL     1       7.740  -6.788   7.741  1.00  0.00     0.029 A 
ATOM     65  C   UNL     1       8.053  -6.672   9.099  1.00  0.00     0.049 A 
ATOM     66  H   UNL     1       9.723  -5.631   9.833  1.00  0.00     0.167 HD
ATOM     67  C   UNL     1       7.618  -6.796  11.554  1.00  0.00     0.074 A 
ATOM     68  C   UNL     1       8.468  -5.745  12.108  1.00  0.00     0.031 C 
ATOM     69  C   UNL     1       7.447  -7.258  10.281  1.00  0.00     0.034 A 
BRANCH  56  70
ATOM     70  C   UNL     1      10.506  -2.970   8.575  1.00  0.00     0.023 A 
ATOM     71  C   UNL     1      10.699  -1.790   9.316  1.00  0.00     0.031 A 
ATOM     72  C   UNL     1      11.660  -3.760   8.376  1.00  0.00     0.131 A 
ATOM     73  C   UNL     1      11.955  -1.435   9.824  1.00  0.00     0.055 A 
ATOM     74  C   UNL     1      12.902  -3.440   8.939  1.00  0.00     0.041 A 
ATOM     75  F   UNL     1      11.603  -4.907   7.680  1.00  0.00    -0.206 F 
ATOM     76  C   UNL     1      13.055  -2.272   9.673  1.00  0.00     0.022 A 
BRANCH  73  77
ATOM     77  S   UNL     1      12.170   0.128  10.720  1.00  0.00     0.124 S 
ATOM     78  O   UNL     1      12.638  -0.333  12.023  1.00  0.00    -0.237 OA
ATOM     79  O   UNL     1      13.164   0.807   9.893  1.00  0.00    -0.237 OA
ATOM     80  O   UNL     1      10.836   0.722  10.695  1.00  0.00    -0.744 OA
ENDBRANCH  73  77
ENDBRANCH  56  70
BRANCH  57  81
ATOM     81  C   UNL     1       5.557  -4.974  15.370  1.00  0.00     0.023 A 
ATOM     82  C   UNL     1       5.321  -3.630  15.715  1.00  0.00     0.031 A 
ATOM     83  C   UNL     1       6.094  -5.812  16.362  1.00  0.00     0.131 A 
ATOM     84  C   UNL     1       5.659  -3.150  16.986  1.00  0.00     0.055 A 
ATOM     85  C   UNL     1       6.414  -5.334  17.640  1.00  0.00     0.041 A 
ATOM     86  F   UNL     1       6.385  -7.093  16.087  1.00  0.00    -0.206 F 
ATOM     87  C   UNL     1       6.210  -3.992  17.952  1.00  0.00     0.022 A 
BRANCH  84  88
ATOM     88  S   UNL     1       5.488  -1.386  17.373  1.00  0.00     0.124 S 
ATOM     89  O   UNL     1       4.708  -1.419  18.607  1.00  0.00    -0.237 OA
ATOM     90  O   UNL     1       6.881  -0.978  17.520  1.00  0.00    -0.237 OA
ATOM     91  O   UNL     1       4.787  -0.846  16.212  1.00  0.00    -0.744 OA
ENDBRANCH  84  88
ENDBRANCH  57  81
BRANCH  69  92
ATOM     92  C   UNL     1       6.386  -8.304  10.023  1.00  0.00     0.023 A 
ATOM     93  C   UNL     1       6.786  -9.438   9.295  1.00  0.00     0.031 A 
ATOM     94  C   UNL     1       5.007  -8.123  10.241  1.00  0.00     0.131 A 
ATOM     95  C   UNL     1       5.833 -10.305   8.755  1.00  0.00     0.055 A 
ATOM     96  C   UNL     1       4.060  -9.039   9.769  1.00  0.00     0.041 A 
ATOM     97  F   UNL     1       4.527  -7.022  10.834  1.00  0.00    -0.206 F 
ATOM     98  C   UNL     1       4.470 -10.125   9.002  1.00  0.00     0.022 A 
BRANCH  95  99
ATOM     99  S   UNL     1       6.336 -11.575   7.566  1.00  0.00     0.124 S 
ATOM    100  O   UNL     1       5.997 -12.808   8.270  1.00  0.00    -0.237 OA
ATOM    101  O   UNL     1       5.499 -11.264   6.408  1.00  0.00    -0.237 OA
ATOM    102  O   UNL     1       7.763 -11.336   7.375  1.00  0.00    -0.744 OA
ENDBRANCH  95  99
ENDBRANCH  69  92
ENDBRANCH  43  44
ENDBRANCH  35  38
ENDBRANCH  33  34
ENDBRANCH  32  33
ENDBRANCH   1  32
TORSDOF 19
