REMARK SMILES O=C(NCCCCCCNC(=O)[C@@H]1C[C@H]1C(=O)N[C@@H]1CONC1=O)c1ccc(-c2c3nc(c(-c4cc(S(=O)(=O)[O-])ccc4F)c4ccc([nH]4)c(-c4cc(S(=O)(=O)[O-])ccc4F)c4nc(c(-c5cc(S(=O)(=O)[O-])ccc5F)c5ccc2[nH]5)C=C4)C=C3)cc1
REMARK SMILES IDX 6 1 5 2 4 3 3 4 1 5 2 6 25 8 26 9 87 10 27 11 86 12 28 13
REMARK SMILES IDX 29 14 30 15 80 16 31 17 85 18 79 19 81 20 32 21 84 22 78 23
REMARK SMILES IDX 77 24 33 26 65 27 45 28 64 29 46 30 49 31 63 32 82 33 47 34
REMARK SMILES IDX 48 35 62 37 83 38 50 39 34 40 35 41 43 42 36 43 42 44 44 45
REMARK SMILES IDX 41 46 37 47 38 48 39 49 40 50 66 51 67 52 75 53 68 54 74 55
REMARK SMILES IDX 76 56 73 57 69 58 70 59 71 60 72 61 51 62 52 63 60 64 53 65
REMARK SMILES IDX 59 66 61 67 58 68 54 69 55 70 56 71 57 72 7 73 8 74 9 75
REMARK SMILES IDX 10 76 11 77 12 79 13 80 14 81 15 82 16 83 17 84 18 85 19 87
REMARK SMILES IDX 20 88 23 89 21 90 22 91 24 92
REMARK H PARENT 3 7 81 25 49 36 10 78 18 86 22 93
REMARK Flexibility Score: inf
ROOT
ATOM      1  C   UNL     1       4.066  -2.670   2.687  1.00  0.00     0.002 C 
ENDROOT
BRANCH   1   2
ATOM      2  C   UNL     1       4.452  -1.229   2.345  1.00  0.00     0.021 C 
BRANCH   2   3
ATOM      3  C   UNL     1       4.402  -0.900   0.857  1.00  0.00     0.116 C 
BRANCH   3   4
ATOM      4  N   UNL     1       3.046  -0.977   0.338  1.00  0.00    -0.352 N 
ATOM      5  O   UNL     1       1.114  -0.151  -0.479  1.00  0.00    -0.269 OA
ATOM      6  C   UNL     1       2.322  -0.009  -0.311  1.00  0.00     0.251 C 
ATOM      7  H   UNL     1       2.587  -1.838   0.469  1.00  0.00     0.163 HD
BRANCH   6   8
ATOM      8  C   UNL     1       3.007   1.205  -0.799  1.00  0.00     0.039 A 
ATOM      9  C   UNL     1       4.196   1.103  -1.528  1.00  0.00     0.014 A 
ATOM     10  C   UNL     1       2.440   2.455  -0.541  1.00  0.00     0.014 A 
ATOM     11  C   UNL     1       4.867   2.256  -1.923  1.00  0.00     0.010 A 
ATOM     12  C   UNL     1       3.086   3.610  -0.987  1.00  0.00     0.010 A 
ATOM     13  C   UNL     1       4.311   3.519  -1.668  1.00  0.00    -0.014 A 
BRANCH  13  14
ATOM     14  C   UNL     1       4.991   4.742  -2.159  1.00  0.00     0.031 A 
ATOM     15  C   UNL     1       5.585   5.728  -1.195  1.00  0.00     0.074 A 
ATOM     16  C   UNL     1       5.051   4.964  -3.486  1.00  0.00     0.049 A 
ATOM     17  N   UNL     1       6.149   6.883  -1.436  1.00  0.00    -0.248 NA
ATOM     18  C   UNL     1       5.523   5.370   0.229  1.00  0.00     0.031 C 
ATOM     19  C   UNL     1       4.507   4.072  -4.513  1.00  0.00     0.029 A 
ATOM     20  N   UNL     1       5.585   6.006  -4.198  1.00  0.00    -0.354 N 
ATOM     21  C   UNL     1       6.498   7.403  -0.194  1.00  0.00     0.074 A 
ATOM     22  C   UNL     1       6.048   6.446   0.797  1.00  0.00     0.031 C 
ATOM     23  C   UNL     1       4.745   4.600  -5.722  1.00  0.00     0.029 A 
ATOM     24  C   UNL     1       5.403   5.891  -5.556  1.00  0.00     0.049 A 
ATOM     25  H   UNL     1       6.054   6.763  -3.779  1.00  0.00     0.167 HD
ATOM     26  C   UNL     1       7.137   8.567   0.087  1.00  0.00     0.034 A 
ATOM     27  C   UNL     1       5.702   6.743  -6.554  1.00  0.00     0.034 A 
ATOM     28  C   UNL     1       7.567   9.509  -0.920  1.00  0.00     0.049 A 
ATOM     29  C   UNL     1       6.368   8.048  -6.218  1.00  0.00     0.074 A 
ATOM     30  C   UNL     1       8.241  10.707  -0.753  1.00  0.00     0.029 A 
ATOM     31  N   UNL     1       7.351   9.366  -2.287  1.00  0.00    -0.354 N 
ATOM     32  N   UNL     1       6.699   8.524  -5.041  1.00  0.00    -0.248 NA
ATOM     33  C   UNL     1       6.705   8.926  -7.344  1.00  0.00     0.031 C 
ATOM     34  C   UNL     1       8.380  11.314  -2.008  1.00  0.00     0.029 A 
ATOM     35  C   UNL     1       7.854  10.464  -2.969  1.00  0.00     0.049 A 
ATOM     36  H   UNL     1       6.906   8.597  -2.709  1.00  0.00     0.167 HD
ATOM     37  C   UNL     1       7.303   9.752  -5.286  1.00  0.00     0.074 A 
ATOM     38  C   UNL     1       7.297   9.938  -6.724  1.00  0.00     0.031 C 
ATOM     39  C   UNL     1       7.824  10.641  -4.402  1.00  0.00     0.034 A 
BRANCH  26  40
ATOM     40  C   UNL     1       7.356   8.898   1.545  1.00  0.00     0.023 A 
ATOM     41  C   UNL     1       8.163   8.097   2.373  1.00  0.00     0.031 A 
ATOM     42  C   UNL     1       6.709  10.002   2.128  1.00  0.00     0.131 A 
ATOM     43  C   UNL     1       8.235   8.360   3.750  1.00  0.00     0.055 A 
ATOM     44  C   UNL     1       6.849  10.306   3.484  1.00  0.00     0.041 A 
ATOM     45  F   UNL     1       5.910  10.792   1.395  1.00  0.00    -0.206 F 
ATOM     46  C   UNL     1       7.601   9.473   4.308  1.00  0.00     0.022 A 
BRANCH  43  47
ATOM     47  S   UNL     1       9.031   7.135   4.826  1.00  0.00     0.124 S 
ATOM     48  O   UNL     1       8.284   5.922   4.502  1.00  0.00    -0.237 OA
ATOM     49  O   UNL     1      10.417   7.170   4.373  1.00  0.00    -0.237 OA
ATOM     50  O   UNL     1       8.800   7.657   6.171  1.00  0.00    -0.744 OA
ENDBRANCH  43  47
ENDBRANCH  26  40
BRANCH  27  51
ATOM     51  C   UNL     1       5.332   6.398  -7.953  1.00  0.00     0.023 A 
ATOM     52  C   UNL     1       6.313   6.107  -8.912  1.00  0.00     0.031 A 
ATOM     53  C   UNL     1       3.982   6.339  -8.343  1.00  0.00     0.131 A 
ATOM     54  C   UNL     1       5.929   5.790 -10.225  1.00  0.00     0.055 A 
ATOM     55  C   UNL     1       3.604   5.983  -9.637  1.00  0.00     0.041 A 
ATOM     56  F   UNL     1       3.008   6.598  -7.456  1.00  0.00    -0.206 F 
ATOM     57  C   UNL     1       4.582   5.713 -10.590  1.00  0.00     0.022 A 
BRANCH  54  58
ATOM     58  S   UNL     1       7.222   5.514 -11.465  1.00  0.00     0.124 S 
ATOM     59  O   UNL     1       7.909   6.801 -11.471  1.00  0.00    -0.237 OA
ATOM     60  O   UNL     1       7.961   4.395 -10.889  1.00  0.00    -0.237 OA
ATOM     61  O   UNL     1       6.470   5.202 -12.678  1.00  0.00    -0.744 OA
ENDBRANCH  54  58
ENDBRANCH  27  51
BRANCH  39  62
ATOM     62  C   UNL     1       8.469  11.873  -4.982  1.00  0.00     0.023 A 
ATOM     63  C   UNL     1       7.712  12.890  -5.590  1.00  0.00     0.031 A 
ATOM     64  C   UNL     1       9.866  12.023  -4.934  1.00  0.00     0.131 A 
ATOM     65  C   UNL     1       8.362  13.992  -6.167  1.00  0.00     0.055 A 
ATOM     66  C   UNL     1      10.503  13.144  -5.466  1.00  0.00     0.041 A 
ATOM     67  F   UNL     1      10.634  11.079  -4.366  1.00  0.00    -0.206 F 
ATOM     68  C   UNL     1       9.751  14.132  -6.096  1.00  0.00     0.022 A 
BRANCH  65  69
ATOM     69  S   UNL     1       7.373  15.212  -7.074  1.00  0.00     0.124 S 
ATOM     70  O   UNL     1       6.787  14.398  -8.135  1.00  0.00    -0.237 OA
ATOM     71  O   UNL     1       6.448  15.689  -6.052  1.00  0.00    -0.237 OA
ATOM     72  O   UNL     1       8.362  16.192  -7.520  1.00  0.00    -0.744 OA
ENDBRANCH  65  69
ENDBRANCH  39  62
ENDBRANCH  13  14
ENDBRANCH   6   8
ENDBRANCH   3   4
ENDBRANCH   2   3
ENDBRANCH   1   2
BRANCH   1  73
ATOM     73  C   UNL     1       4.917  -3.744   2.000  1.00  0.00     0.002 C 
BRANCH  73  74
ATOM     74  C   UNL     1       6.428  -3.617   2.245  1.00  0.00     0.021 C 
BRANCH  74  75
ATOM     75  C   UNL     1       6.819  -3.837   3.708  1.00  0.00     0.116 C 
BRANCH  75  76
ATOM     76  N   UNL     1       6.654  -5.236   4.043  1.00  0.00    -0.356 N 
ATOM     77  C   UNL     1       7.557  -6.258   3.991  1.00  0.00     0.223 C 
ATOM     78  H   UNL     1       5.755  -5.488   4.355  1.00  0.00     0.163 HD
ATOM     79  O   UNL     1       7.171  -7.415   4.097  1.00  0.00    -0.275 OA
BRANCH  77  80
ATOM     80  C   UNL     1       9.012  -5.988   3.970  1.00  0.00     0.091 C 
ATOM     81  C   UNL     1       9.754  -4.967   3.133  1.00  0.00     0.028 C 
ATOM     82  C   UNL     1       9.821  -6.409   2.766  1.00  0.00     0.091 C 
BRANCH  82  83
ATOM     83  C   UNL     1      11.004  -7.286   2.862  1.00  0.00     0.224 C 
ATOM     84  O   UNL     1      11.040  -8.262   2.113  1.00  0.00    -0.275 OA
ATOM     85  N   UNL     1      12.079  -7.134   3.682  1.00  0.00    -0.342 N 
ATOM     86  H   UNL     1      12.704  -7.882   3.545  1.00  0.00     0.164 HD
BRANCH  85  87
ATOM     87  C   UNL     1      12.615  -6.232   4.696  1.00  0.00     0.202 C 
ATOM     88  C   UNL     1      11.818  -5.800   5.912  1.00  0.00     0.228 C 
ATOM     89  C   UNL     1      13.204  -4.903   4.288  1.00  0.00     0.268 C 
ATOM     90  O   UNL     1      12.641  -4.791   6.531  1.00  0.00    -0.271 OA
ATOM     91  N   UNL     1      13.276  -4.147   5.440  1.00  0.00    -0.233 N 
ATOM     92  O   UNL     1      13.625  -4.585   3.189  1.00  0.00    -0.270 OA
ATOM     93  H   UNL     1      13.715  -3.267   5.497  1.00  0.00     0.199 HD
ENDBRANCH  85  87
ENDBRANCH  82  83
ENDBRANCH  77  80
ENDBRANCH  75  76
ENDBRANCH  74  75
ENDBRANCH  73  74
ENDBRANCH   1  73
TORSDOF 18
