REMARK SMILES O=C(NC1(C(=O)NCCCCCCNC(=O)c2ccc(-c3c4nc(c(-c5cc(S(=O)(=O)[O-])ccc5F)c5ccc([nH]5)c(-c5cc(S(=O)(=O)[O-])ccc5F)c5nc(c(-c6cc(S(=O)(=O)[O-])ccc6F)c6ccc3[nH]6)C=C5)C=C4)cc2)Cc2ccccc2C1)OCC1c2ccccc2-c2ccccc21
REMARK SMILES IDX 10 1 9 2 8 3 7 4 5 5 6 6 4 8 80 9 87 10 81 11 86 12 82 13
REMARK SMILES IDX 85 14 83 15 84 16 3 17 1 18 2 19 88 21 89 22 90 23 91 24
REMARK SMILES IDX 102 25 92 26 96 27 97 28 101 29 93 30 95 31 98 32 100 33
REMARK SMILES IDX 94 34 99 35 11 36 12 37 13 38 14 39 15 40 16 42 17 43 18 44
REMARK SMILES IDX 79 45 19 46 78 47 20 48 21 49 22 50 72 51 23 52 77 53 71 54
REMARK SMILES IDX 73 55 24 56 76 57 70 58 69 59 25 61 57 62 37 63 56 64 38 65
REMARK SMILES IDX 41 66 55 67 74 68 39 69 40 70 54 72 75 73 42 74 26 75 27 76
REMARK SMILES IDX 35 77 28 78 34 79 36 80 33 81 29 82 30 83 31 84 32 85 58 86
REMARK SMILES IDX 59 87 67 88 60 89 66 90 68 91 65 92 61 93 62 94 63 95 64 96
REMARK SMILES IDX 43 97 44 98 52 99 45 100 51 101 53 102 50 103 46 104 47 105
REMARK SMILES IDX 48 106 49 107
REMARK H PARENT 7 7 3 20 14 41 73 60 41 71
REMARK Flexibility Score: inf
ROOT
ATOM      1  C   UNL     1       9.175  -1.346   2.492  1.00  0.00     0.002 C 
ENDROOT
BRANCH   1   2
ATOM      2  C   UNL     1       8.421  -0.030   2.274  1.00  0.00     0.021 C 
BRANCH   2   3
ATOM      3  C   UNL     1       7.473  -0.098   1.085  1.00  0.00     0.116 C 
BRANCH   3   4
ATOM      4  N   UNL     1       6.206  -0.656   1.485  1.00  0.00    -0.354 N 
ATOM      5  C   UNL     1       5.004  -0.099   1.734  1.00  0.00     0.246 C 
ATOM      6  O   UNL     1       4.194  -0.877   2.271  1.00  0.00    -0.272 OA
ATOM      7  H   UNL     1       6.221  -1.633   1.598  1.00  0.00     0.163 HD
BRANCH   5   8
ATOM      8  C   UNL     1       4.593   1.395   1.483  1.00  0.00     0.130 C 
ATOM      9  C   UNL     1       5.219   2.231   0.349  1.00  0.00     0.075 C 
ATOM     10  C   UNL     1       4.942   2.188   2.782  1.00  0.00     0.075 C 
ATOM     11  C   UNL     1       6.305   3.002   1.009  1.00  0.00    -0.042 A 
ATOM     12  C   UNL     1       6.203   2.913   2.393  1.00  0.00    -0.042 A 
ATOM     13  C   UNL     1       7.367   3.624   0.373  1.00  0.00     0.004 A 
ATOM     14  C   UNL     1       7.216   3.426   3.182  1.00  0.00     0.004 A 
ATOM     15  C   UNL     1       8.397   4.122   1.157  1.00  0.00     0.000 A 
ATOM     16  C   UNL     1       8.326   4.014   2.554  1.00  0.00     0.000 A 
BRANCH   8  17
ATOM     17  N   UNL     1       3.133   1.219   1.247  1.00  0.00    -0.306 N 
ATOM     18  O   UNL     1       1.495   0.171   0.058  1.00  0.00    -0.225 OA
ATOM     19  C   UNL     1       2.588   0.716   0.086  1.00  0.00     0.408 C 
ATOM     20  H   UNL     1       2.517   1.480   1.969  1.00  0.00     0.168 HD
BRANCH  19  21
ATOM     21  O   UNL     1       3.308   0.978  -1.030  1.00  0.00    -0.449 OA
BRANCH  21  22
ATOM     22  C   UNL     1       4.059  -0.101  -1.616  1.00  0.00     0.248 C 
BRANCH  22  23
ATOM     23  C   UNL     1       4.921   0.373  -2.822  1.00  0.00     0.088 C 
ATOM     24  C   UNL     1       6.386  -0.101  -2.758  1.00  0.00    -0.029 A 
ATOM     25  C   UNL     1       5.115   1.881  -3.034  1.00  0.00    -0.029 A 
ATOM     26  C   UNL     1       6.894  -1.361  -2.477  1.00  0.00     0.005 A 
ATOM     27  C   UNL     1       7.260   0.979  -3.021  1.00  0.00    -0.014 A 
ATOM     28  C   UNL     1       6.483   2.181  -3.215  1.00  0.00    -0.014 A 
ATOM     29  C   UNL     1       4.171   2.899  -3.044  1.00  0.00     0.005 A 
ATOM     30  C   UNL     1       8.285  -1.525  -2.436  1.00  0.00     0.000 A 
ATOM     31  C   UNL     1       8.637   0.817  -2.980  1.00  0.00     0.009 A 
ATOM     32  C   UNL     1       6.909   3.481  -3.450  1.00  0.00     0.009 A 
ATOM     33  C   UNL     1       4.607   4.217  -3.212  1.00  0.00     0.000 A 
ATOM     34  C   UNL     1       9.149  -0.446  -2.679  1.00  0.00     0.001 A 
ATOM     35  C   UNL     1       5.961   4.505  -3.433  1.00  0.00     0.001 A 
ENDBRANCH  22  23
ENDBRANCH  21  22
ENDBRANCH  19  21
ENDBRANCH   8  17
ENDBRANCH   5   8
ENDBRANCH   3   4
ENDBRANCH   2   3
ENDBRANCH   1   2
BRANCH   1  36
ATOM     36  C   UNL     1      10.060  -1.771   1.312  1.00  0.00     0.002 C 
BRANCH  36  37
ATOM     37  C   UNL     1      11.029  -0.694   0.816  1.00  0.00     0.021 C 
BRANCH  37  38
ATOM     38  C   UNL     1      11.985  -0.183   1.888  1.00  0.00     0.116 C 
BRANCH  38  39
ATOM     39  N   UNL     1      12.815  -1.258   2.407  1.00  0.00    -0.352 N 
ATOM     40  C   UNL     1      14.181  -1.342   2.466  1.00  0.00     0.251 C 
ATOM     41  H   UNL     1      12.327  -2.034   2.765  1.00  0.00     0.163 HD
ATOM     42  O   UNL     1      14.718  -2.426   2.675  1.00  0.00    -0.269 OA
BRANCH  40  43
ATOM     43  C   UNL     1      14.994  -0.124   2.270  1.00  0.00     0.039 A 
ATOM     44  C   UNL     1      16.151  -0.198   1.492  1.00  0.00     0.014 A 
ATOM     45  C   UNL     1      14.622   1.082   2.871  1.00  0.00     0.014 A 
ATOM     46  C   UNL     1      16.916   0.951   1.285  1.00  0.00     0.010 A 
ATOM     47  C   UNL     1      15.343   2.240   2.602  1.00  0.00     0.010 A 
ATOM     48  C   UNL     1      16.505   2.183   1.819  1.00  0.00    -0.014 A 
BRANCH  48  49
ATOM     49  C   UNL     1      17.294   3.421   1.597  1.00  0.00     0.031 A 
ATOM     50  C   UNL     1      17.928   4.121   2.768  1.00  0.00     0.074 A 
ATOM     51  C   UNL     1      17.386   3.941   0.358  1.00  0.00     0.049 A 
ATOM     52  N   UNL     1      18.579   5.255   2.803  1.00  0.00    -0.248 NA
ATOM     53  C   UNL     1      17.778   3.474   4.081  1.00  0.00     0.031 C 
ATOM     54  C   UNL     1      16.781   3.366  -0.846  1.00  0.00     0.029 A 
ATOM     55  N   UNL     1      18.015   5.072  -0.095  1.00  0.00    -0.354 N 
ATOM     56  C   UNL     1      18.903   5.465   4.140  1.00  0.00     0.074 A 
ATOM     57  C   UNL     1      18.317   4.374   4.889  1.00  0.00     0.031 C 
ATOM     58  C   UNL     1      17.089   4.136  -1.902  1.00  0.00     0.029 A 
ATOM     59  C   UNL     1      17.871   5.281  -1.447  1.00  0.00     0.049 A 
ATOM     60  H   UNL     1      18.523   5.678   0.492  1.00  0.00     0.167 HD
ATOM     61  C   UNL     1      19.641   6.463   4.686  1.00  0.00     0.034 A 
ATOM     62  C   UNL     1      18.308   6.289  -2.227  1.00  0.00     0.034 A 
ATOM     63  C   UNL     1      20.230   7.532   3.917  1.00  0.00     0.049 A 
ATOM     64  C   UNL     1      19.111   7.398  -1.595  1.00  0.00     0.074 A 
ATOM     65  C   UNL     1      21.040   8.565   4.354  1.00  0.00     0.029 A 
ATOM     66  N   UNL     1      20.067   7.709   2.548  1.00  0.00    -0.354 N 
ATOM     67  N   UNL     1      19.448   7.559  -0.335  1.00  0.00    -0.248 NA
ATOM     68  C   UNL     1      19.602   8.453  -2.490  1.00  0.00     0.031 C 
ATOM     69  C   UNL     1      21.309   9.402   3.266  1.00  0.00     0.029 A 
ATOM     70  C   UNL     1      20.736   8.850   2.132  1.00  0.00     0.049 A 
ATOM     71  H   UNL     1      19.552   7.111   1.960  1.00  0.00     0.167 HD
ATOM     72  C   UNL     1      20.218   8.718  -0.295  1.00  0.00     0.074 A 
ATOM     73  C   UNL     1      20.306   9.204  -1.657  1.00  0.00     0.031 C 
ATOM     74  C   UNL     1      20.804   9.325   0.769  1.00  0.00     0.034 A 
BRANCH  61  75
ATOM     75  C   UNL     1      19.825   6.450   6.186  1.00  0.00     0.023 A 
ATOM     76  C   UNL     1      20.480   5.392   6.842  1.00  0.00     0.031 A 
ATOM     77  C   UNL     1      19.311   7.493   6.977  1.00  0.00     0.131 A 
ATOM     78  C   UNL     1      20.529   5.358   8.244  1.00  0.00     0.055 A 
ATOM     79  C   UNL     1      19.441   7.497   8.368  1.00  0.00     0.041 A 
ATOM     80  F   UNL     1      18.657   8.521   6.413  1.00  0.00    -0.206 F 
ATOM     81  C   UNL     1      20.038   6.416   9.011  1.00  0.00     0.022 A 
BRANCH  78  82
ATOM     82  S   UNL     1      21.104   3.840   9.053  1.00  0.00     0.124 S 
ATOM     83  O   UNL     1      20.157   2.854   8.534  1.00  0.00    -0.237 OA
ATOM     84  O   UNL     1      22.475   3.724   8.570  1.00  0.00    -0.237 OA
ATOM     85  O   UNL     1      20.965   4.136  10.477  1.00  0.00    -0.744 OA
ENDBRANCH  78  82
ENDBRANCH  61  75
BRANCH  62  86
ATOM     86  C   UNL     1      17.997   6.306  -3.685  1.00  0.00     0.023 A 
ATOM     87  C   UNL     1      19.018   6.213  -4.643  1.00  0.00     0.031 A 
ATOM     88  C   UNL     1      16.675   6.453  -4.143  1.00  0.00     0.131 A 
ATOM     89  C   UNL     1      18.709   6.317  -6.008  1.00  0.00     0.055 A 
ATOM     90  C   UNL     1      16.366   6.501  -5.503  1.00  0.00     0.041 A 
ATOM     91  F   UNL     1      15.659   6.538  -3.269  1.00  0.00    -0.206 F 
ATOM     92  C   UNL     1      17.389   6.447  -6.445  1.00  0.00     0.022 A 
BRANCH  89  93
ATOM     93  S   UNL     1      20.071   6.367  -7.205  1.00  0.00     0.124 S 
ATOM     94  O   UNL     1      20.833   7.519  -6.739  1.00  0.00    -0.237 OA
ATOM     95  O   UNL     1      20.694   5.062  -7.008  1.00  0.00    -0.237 OA
ATOM     96  O   UNL     1      19.391   6.543  -8.486  1.00  0.00    -0.744 OA
ENDBRANCH  89  93
ENDBRANCH  62  86
BRANCH  74  97
ATOM     97  C   UNL     1      21.630  10.556   0.486  1.00  0.00     0.023 A 
ATOM     98  C   UNL     1      21.046  11.749   0.025  1.00  0.00     0.031 A 
ATOM     99  C   UNL     1      23.023  10.529   0.672  1.00  0.00     0.131 A 
ATOM    100  C   UNL     1      21.860  12.848  -0.289  1.00  0.00     0.055 A 
ATOM    101  C   UNL     1      23.820  11.646   0.419  1.00  0.00     0.041 A 
ATOM    102  F   UNL     1      23.633   9.415   1.109  1.00  0.00    -0.206 F 
ATOM    103  C   UNL     1      23.241  12.810  -0.077  1.00  0.00     0.022 A 
BRANCH 100 104
ATOM    104  S   UNL     1      21.100  14.299  -1.067  1.00  0.00     0.124 S 
ATOM    105  O   UNL     1      20.515  13.724  -2.274  1.00  0.00    -0.237 OA
ATOM    106  O   UNL     1      20.154  14.740  -0.047  1.00  0.00    -0.237 OA
ATOM    107  O   UNL     1      22.230  15.198  -1.293  1.00  0.00    -0.744 OA
ENDBRANCH 100 104
ENDBRANCH  74  97
ENDBRANCH  48  49
ENDBRANCH  40  43
ENDBRANCH  38  39
ENDBRANCH  37  38
ENDBRANCH  36  37
ENDBRANCH   1  36
TORSDOF 20
