REMARK SMILES COc1cc2c(CC(=O)NCCCCCCNC(=O)c3ccc(-c4c5nc(c(-c6cc(S(=O)(=O)[O-])ccc6F)c6ccc([nH]6)c(-c6cc(S(=O)(=O)[O-])ccc6F)c6nc(c(-c7cc(S(=O)(=O)[O-])ccc7F)c7ccc4[nH]7)C=C6)C=C5)cc3)c(C)n(C(=O)c3ccc(Cl)cc3)c2cc1Cl
REMARK SMILES IDX 13 1 12 2 11 3 10 4 8 5 9 6 7 8 6 9 3 10 4 11 97 12 5 13
REMARK SMILES IDX 96 14 98 15 95 16 83 17 85 18 84 19 2 20 1 21 86 22 87 23
REMARK SMILES IDX 88 24 89 25 94 26 90 27 93 28 91 29 92 30 14 31 15 32 16 33
REMARK SMILES IDX 17 34 18 35 19 37 20 38 21 39 82 40 22 41 81 42 23 43 24 44
REMARK SMILES IDX 25 45 75 46 26 47 80 48 74 49 76 50 27 51 79 52 73 53 72 54
REMARK SMILES IDX 28 56 60 57 40 58 59 59 41 60 44 61 58 62 77 63 42 64 43 65
REMARK SMILES IDX 57 67 78 68 45 69 29 70 30 71 38 72 31 73 37 74 39 75 36 76
REMARK SMILES IDX 32 77 33 78 34 79 35 80 61 81 62 82 70 83 63 84 69 85 71 86
REMARK SMILES IDX 68 87 64 88 65 89 66 90 67 91 46 92 47 93 55 94 48 95 54 96
REMARK SMILES IDX 56 97 53 98 49 99 50 100 51 101 52 102
REMARK H PARENT 10 7 17 36 76 55 44 66
REMARK Flexibility Score: inf
ROOT
ATOM      1  C   UNL     1       0.851   8.074   2.036  1.00  0.00     0.002 C 
ENDROOT
BRANCH   1   2
ATOM      2  C   UNL     1       0.826   7.049   3.175  1.00  0.00     0.021 C 
BRANCH   2   3
ATOM      3  C   UNL     1      -0.508   7.002   3.918  1.00  0.00     0.116 C 
BRANCH   3   4
ATOM      4  N   UNL     1      -1.517   6.316   3.134  1.00  0.00    -0.356 N 
ATOM      5  C   UNL     1      -2.020   5.059   3.307  1.00  0.00     0.224 C 
ATOM      6  O   UNL     1      -2.819   4.623   2.474  1.00  0.00    -0.275 OA
ATOM      7  H   UNL     1      -1.887   6.824   2.377  1.00  0.00     0.163 HD
BRANCH   5   8
ATOM      8  C   UNL     1      -1.645   4.250   4.537  1.00  0.00     0.138 C 
BRANCH   8   9
ATOM      9  C   UNL     1      -0.211   3.792   4.565  1.00  0.00    -0.009 A 
ATOM     10  C   UNL     1       0.946   1.769   1.515  1.00  0.00     0.138 A 
ATOM     11  C   UNL     1       0.067   2.538   2.293  1.00  0.00     0.058 A 
ATOM     12  C   UNL     1       2.208   1.467   2.015  1.00  0.00     0.085 A 
ATOM     13  C   UNL     1       0.457   3.038   3.559  1.00  0.00     0.008 A 
ATOM     14  C   UNL     1       2.591   1.912   3.287  1.00  0.00     0.051 A 
ATOM     15  Cl  UNL     1       3.429   0.636   1.115  1.00  0.00    -0.080 Cl
ATOM     16  C   UNL     1       1.745   2.764   4.025  1.00  0.00     0.058 A 
ATOM     17  C   UNL     1       0.691   3.973   5.610  1.00  0.00     0.028 A 
ATOM     18  N   UNL     1       1.946   3.506   5.202  1.00  0.00    -0.280 N 
ATOM     19  C   UNL     1       0.420   4.608   6.941  1.00  0.00     0.065 C 
BRANCH  10  20
ATOM     20  O   UNL     1       0.471   1.456   0.268  1.00  0.00    -0.495 OA
ATOM     21  C   UNL     1       0.611   0.092  -0.114  1.00  0.00     0.278 C 
ENDBRANCH  10  20
BRANCH  18  22
ATOM     22  C   UNL     1       3.196   3.760   5.841  1.00  0.00     0.262 C 
ATOM     23  O   UNL     1       3.224   4.464   6.850  1.00  0.00    -0.268 OA
BRANCH  22  24
ATOM     24  C   UNL     1       4.496   3.240   5.386  1.00  0.00     0.040 A 
ATOM     25  C   UNL     1       5.074   3.692   4.193  1.00  0.00     0.015 A 
ATOM     26  C   UNL     1       5.100   2.225   6.137  1.00  0.00     0.015 A 
ATOM     27  C   UNL     1       6.216   3.052   3.704  1.00  0.00     0.021 A 
ATOM     28  C   UNL     1       6.247   1.599   5.648  1.00  0.00     0.021 A 
ATOM     29  C   UNL     1       6.786   1.999   4.424  1.00  0.00     0.041 A 
ATOM     30  Cl  UNL     1       8.147   1.164   3.783  1.00  0.00    -0.084 Cl
ENDBRANCH  22  24
ENDBRANCH  18  22
ENDBRANCH   8   9
ENDBRANCH   5   8
ENDBRANCH   3   4
ENDBRANCH   2   3
ENDBRANCH   1   2
BRANCH   1  31
ATOM     31  C   UNL     1       0.699   9.534   2.481  1.00  0.00     0.002 C 
BRANCH  31  32
ATOM     32  C   UNL     1       1.728  10.010   3.513  1.00  0.00     0.021 C 
BRANCH  32  33
ATOM     33  C   UNL     1       3.182   9.802   3.088  1.00  0.00     0.116 C 
BRANCH  33  34
ATOM     34  N   UNL     1       3.524  10.464   1.847  1.00  0.00    -0.352 N 
ATOM     35  C   UNL     1       3.867  11.743   1.503  1.00  0.00     0.251 C 
ATOM     36  H   UNL     1       3.506   9.855   1.074  1.00  0.00     0.163 HD
ATOM     37  O   UNL     1       4.156  11.920   0.317  1.00  0.00    -0.269 OA
BRANCH  35  38
ATOM     38  C   UNL     1       3.849  12.910   2.428  1.00  0.00     0.039 A 
ATOM     39  C   UNL     1       3.685  12.844   3.812  1.00  0.00     0.014 A 
ATOM     40  C   UNL     1       3.966  14.177   1.826  1.00  0.00     0.014 A 
ATOM     41  C   UNL     1       3.520  14.003   4.560  1.00  0.00     0.010 A 
ATOM     42  C   UNL     1       3.835  15.341   2.574  1.00  0.00     0.010 A 
ATOM     43  C   UNL     1       3.554  15.248   3.934  1.00  0.00    -0.014 A 
BRANCH  43  44
ATOM     44  C   UNL     1       3.352  16.427   4.770  1.00  0.00     0.031 A 
ATOM     45  C   UNL     1       4.389  16.662   5.818  1.00  0.00     0.074 A 
ATOM     46  C   UNL     1       2.361  17.311   4.543  1.00  0.00     0.049 A 
ATOM     47  N   UNL     1       4.244  16.762   7.101  1.00  0.00    -0.248 NA
ATOM     48  C   UNL     1       5.790  16.682   5.372  1.00  0.00     0.031 C 
ATOM     49  C   UNL     1       1.476  17.385   3.377  1.00  0.00     0.029 A 
ATOM     50  N   UNL     1       2.026  18.421   5.256  1.00  0.00    -0.354 N 
ATOM     51  C   UNL     1       5.515  17.030   7.615  1.00  0.00     0.074 A 
ATOM     52  C   UNL     1       6.438  16.825   6.527  1.00  0.00     0.031 C 
ATOM     53  C   UNL     1       0.900  18.607   3.340  1.00  0.00     0.029 A 
ATOM     54  C   UNL     1       1.264  19.334   4.544  1.00  0.00     0.049 A 
ATOM     55  H   UNL     1       2.300  18.561   6.191  1.00  0.00     0.167 HD
ATOM     56  C   UNL     1       5.712  17.571   8.853  1.00  0.00     0.034 A 
ATOM     57  C   UNL     1       1.063  20.638   4.861  1.00  0.00     0.034 A 
ATOM     58  C   UNL     1       4.544  17.445   9.678  1.00  0.00     0.049 A 
ATOM     59  C   UNL     1       1.387  20.824   6.296  1.00  0.00     0.074 A 
ATOM     60  C   UNL     1       3.832  16.382  10.197  1.00  0.00     0.029 A 
ATOM     61  N   UNL     1       3.735  18.544   9.827  1.00  0.00    -0.354 N 
ATOM     62  N   UNL     1       0.682  20.341   7.280  1.00  0.00    -0.248 NA
ATOM     63  C   UNL     1       2.752  21.203   6.632  1.00  0.00     0.031 C 
ATOM     64  C   UNL     1       2.473  16.804  10.174  1.00  0.00     0.029 A 
ATOM     65  C   UNL     1       2.441  18.113   9.688  1.00  0.00     0.049 A 
ATOM     66  H   UNL     1       4.029  19.467  10.002  1.00  0.00     0.167 HD
ATOM     67  C   UNL     1       1.624  19.934   8.214  1.00  0.00     0.074 A 
ATOM     68  C   UNL     1       2.867  20.589   7.811  1.00  0.00     0.031 C 
ATOM     69  C   UNL     1       1.390  18.885   9.056  1.00  0.00     0.034 A 
BRANCH  56  70
ATOM     70  C   UNL     1       6.869  18.478   9.213  1.00  0.00     0.023 A 
ATOM     71  C   UNL     1       7.736  19.025   8.250  1.00  0.00     0.031 A 
ATOM     72  C   UNL     1       6.997  19.005  10.516  1.00  0.00     0.131 A 
ATOM     73  C   UNL     1       8.670  20.018   8.573  1.00  0.00     0.055 A 
ATOM     74  C   UNL     1       7.883  20.046  10.827  1.00  0.00     0.041 A 
ATOM     75  F   UNL     1       6.220  18.568  11.520  1.00  0.00    -0.206 F 
ATOM     76  C   UNL     1       8.727  20.560   9.851  1.00  0.00     0.022 A 
BRANCH  73  77
ATOM     77  S   UNL     1       9.826  20.628   7.315  1.00  0.00     0.124 S 
ATOM     78  O   UNL     1       9.433  22.027   7.200  1.00  0.00    -0.237 OA
ATOM     79  O   UNL     1      11.117  20.382   7.953  1.00  0.00    -0.237 OA
ATOM     80  O   UNL     1       9.542  19.786   6.156  1.00  0.00    -0.744 OA
ENDBRANCH  73  77
ENDBRANCH  56  70
BRANCH  57  81
ATOM     81  C   UNL     1       1.148  21.762   3.896  1.00  0.00     0.023 A 
ATOM     82  C   UNL     1       1.923  21.625   2.729  1.00  0.00     0.031 A 
ATOM     83  C   UNL     1       0.744  23.058   4.253  1.00  0.00     0.131 A 
ATOM     84  C   UNL     1       2.316  22.749   1.994  1.00  0.00     0.055 A 
ATOM     85  C   UNL     1       1.125  24.182   3.509  1.00  0.00     0.041 A 
ATOM     86  F   UNL     1       0.034  23.266   5.373  1.00  0.00    -0.206 F 
ATOM     87  C   UNL     1       1.928  24.031   2.380  1.00  0.00     0.022 A 
BRANCH  84  88
ATOM     88  S   UNL     1       3.413  22.553   0.563  1.00  0.00     0.124 S 
ATOM     89  O   UNL     1       2.813  23.457  -0.416  1.00  0.00    -0.237 OA
ATOM     90  O   UNL     1       4.694  22.980   1.113  1.00  0.00    -0.237 OA
ATOM     91  O   UNL     1       3.300  21.134   0.239  1.00  0.00    -0.744 OA
ENDBRANCH  84  88
ENDBRANCH  57  81
BRANCH  69  92
ATOM     92  C   UNL     1      -0.001  18.290   9.133  1.00  0.00     0.023 A 
ATOM     93  C   UNL     1      -0.522  18.030  10.413  1.00  0.00     0.031 A 
ATOM     94  C   UNL     1      -0.697  17.758   8.030  1.00  0.00     0.131 A 
ATOM     95  C   UNL     1      -1.660  17.228  10.566  1.00  0.00     0.055 A 
ATOM     96  C   UNL     1      -1.876  17.021   8.183  1.00  0.00     0.041 A 
ATOM     97  F   UNL     1      -0.216  17.850   6.785  1.00  0.00    -0.206 F 
ATOM     98  C   UNL     1      -2.352  16.736   9.457  1.00  0.00     0.022 A 
BRANCH  95  99
ATOM     99  S   UNL     1      -2.164  16.660  12.210  1.00  0.00     0.124 S 
ATOM    100  O   UNL     1      -3.467  17.299  12.370  1.00  0.00    -0.237 OA
ATOM    101  O   UNL     1      -2.196  15.208  12.040  1.00  0.00    -0.237 OA
ATOM    102  O   UNL     1      -1.112  17.153  13.094  1.00  0.00    -0.744 OA
ENDBRANCH  95  99
ENDBRANCH  69  92
ENDBRANCH  43  44
ENDBRANCH  35  38
ENDBRANCH  33  34
ENDBRANCH  32  33
ENDBRANCH  31  32
ENDBRANCH   1  31
TORSDOF 20
