REMARK SMILES Cc1ccc(NC(=O)NC2(C(=O)NCCCCCCNC(=O)c3ccc(-c4c5nc(c(-c6cc(S(=O)(=O)[O-])ccc6F)c6ccc([nH]6)c(-c6cc(S(=O)(=O)[O-])ccc6F)c6nc(c(-c7cc(S(=O)(=O)[O-])ccc7F)c7ccc4[nH]7)C=C6)C=C5)cc3)CC2)c(C)n1
REMARK SMILES IDX 17 1 16 2 15 3 14 4 13 5 11 6 12 7 10 9 86 10 87 11 9 12
REMARK SMILES IDX 6 13 7 14 8 16 5 18 1 19 2 20 3 21 90 22 4 23 88 24 89 25
REMARK SMILES IDX 18 26 19 27 20 28 21 29 22 31 23 32 24 33 85 34 25 35 84 36
REMARK SMILES IDX 26 37 27 38 28 39 78 40 29 41 83 42 77 43 79 44 30 45 82 46
REMARK SMILES IDX 76 47 75 48 31 50 63 51 43 52 62 53 44 54 47 55 61 56 80 57
REMARK SMILES IDX 45 58 46 59 60 61 81 62 48 63 32 64 33 65 41 66 34 67 40 68
REMARK SMILES IDX 42 69 39 70 35 71 36 72 37 73 38 74 64 75 65 76 73 77 66 78
REMARK SMILES IDX 72 79 74 80 71 81 67 82 68 83 69 84 70 85 49 86 50 87 58 88
REMARK SMILES IDX 51 89 57 90 59 91 56 92 52 93 53 94 54 95 55 96
REMARK H PARENT 13 8 6 15 9 17 20 30 79 49 47 60
REMARK Flexibility Score: inf
ROOT
ATOM      1  C   UNL     1      -1.387   2.546   4.545  1.00  0.00     0.002 C 
ENDROOT
BRANCH   1   2
ATOM      2  C   UNL     1      -0.973   1.116   4.183  1.00  0.00     0.002 C 
BRANCH   2   3
ATOM      3  C   UNL     1      -0.172   0.928   2.885  1.00  0.00     0.021 C 
BRANCH   3   4
ATOM      4  C   UNL     1       1.232   1.581   2.834  1.00  0.00     0.116 C 
BRANCH   4   5
ATOM      5  N   UNL     1       2.140   0.902   1.894  1.00  0.00    -0.354 N 
ATOM      6  C   UNL     1       3.138   1.542   1.171  1.00  0.00     0.245 C 
ATOM      7  O   UNL     1       3.670   2.589   1.560  1.00  0.00    -0.272 OA
ATOM      8  H   UNL     1       2.033  -0.069   1.770  1.00  0.00     0.163 HD
BRANCH   6   9
ATOM      9  C   UNL     1       3.570   0.909  -0.189  1.00  0.00     0.120 C 
ATOM     10  C   UNL     1       4.261   1.928  -1.115  1.00  0.00     0.041 C 
ATOM     11  C   UNL     1       3.149   1.149  -1.668  1.00  0.00     0.041 C 
BRANCH   9  12
ATOM     12  N   UNL     1       3.888  -0.454  -0.076  1.00  0.00    -0.323 N 
ATOM     13  N   UNL     1       1.665  -1.331  -0.181  1.00  0.00    -0.306 N 
ATOM     14  C   UNL     1       3.002  -1.445  -0.096  1.00  0.00     0.320 C 
ATOM     15  H   UNL     1       1.342  -2.257  -0.097  1.00  0.00     0.171 HD
ATOM     16  O   UNL     1       3.444  -2.598  -0.002  1.00  0.00    -0.248 OA
ATOM     17  H   UNL     1       4.837  -0.694   0.025  1.00  0.00     0.166 HD
BRANCH  13  18
ATOM     18  C   UNL     1       0.458  -0.553  -0.332  1.00  0.00     0.064 A 
ATOM     19  C   UNL     1      -3.631   0.787  -0.692  1.00  0.00     0.067 C 
ATOM     20  C   UNL     1      -2.263   0.215  -0.586  1.00  0.00     0.038 A 
ATOM     21  C   UNL     1      -1.982  -1.105  -0.404  1.00  0.00     0.025 A 
ATOM     22  N   UNL     1      -1.282   1.111  -0.634  1.00  0.00    -0.256 NA
ATOM     23  C   UNL     1      -0.639  -1.468  -0.296  1.00  0.00     0.030 A 
ATOM     24  C   UNL     1       0.042   0.795  -0.475  1.00  0.00     0.061 A 
ATOM     25  C   UNL     1       0.642   2.163  -0.466  1.00  0.00     0.069 C 
ENDBRANCH  13  18
ENDBRANCH   9  12
ENDBRANCH   6   9
ENDBRANCH   4   5
ENDBRANCH   3   4
ENDBRANCH   2   3
ENDBRANCH   1   2
BRANCH   1  26
ATOM     26  C   UNL     1      -2.477   3.200   3.684  1.00  0.00     0.021 C 
BRANCH  26  27
ATOM     27  C   UNL     1      -3.844   2.506   3.634  1.00  0.00     0.116 C 
BRANCH  27  28
ATOM     28  N   UNL     1      -4.427   2.278   4.949  1.00  0.00    -0.352 N 
ATOM     29  C   UNL     1      -5.594   2.736   5.515  1.00  0.00     0.251 C 
ATOM     30  H   UNL     1      -3.893   1.694   5.535  1.00  0.00     0.163 HD
ATOM     31  O   UNL     1      -5.796   2.535   6.712  1.00  0.00    -0.269 OA
BRANCH  29  32
ATOM     32  C   UNL     1      -6.600   3.478   4.720  1.00  0.00     0.039 A 
ATOM     33  C   UNL     1      -7.199   4.613   5.279  1.00  0.00     0.014 A 
ATOM     34  C   UNL     1      -6.992   3.047   3.450  1.00  0.00     0.014 A 
ATOM     35  C   UNL     1      -8.117   5.362   4.534  1.00  0.00     0.010 A 
ATOM     36  C   UNL     1      -7.862   3.826   2.685  1.00  0.00     0.010 A 
ATOM     37  C   UNL     1      -8.420   5.003   3.210  1.00  0.00    -0.014 A 
BRANCH  37  38
ATOM     38  C   UNL     1      -9.270   5.872   2.349  1.00  0.00     0.031 A 
ATOM     39  C   UNL     1     -10.589   5.377   1.822  1.00  0.00     0.074 A 
ATOM     40  C   UNL     1      -8.812   7.086   1.982  1.00  0.00     0.049 A 
ATOM     41  N   UNL     1     -11.416   5.954   0.986  1.00  0.00    -0.248 NA
ATOM     42  C   UNL     1     -11.025   4.049   2.278  1.00  0.00     0.031 C 
ATOM     43  C   UNL     1      -7.536   7.667   2.405  1.00  0.00     0.029 A 
ATOM     44  N   UNL     1      -9.354   8.046   1.163  1.00  0.00    -0.354 N 
ATOM     45  C   UNL     1     -12.467   5.060   0.809  1.00  0.00     0.074 A 
ATOM     46  C   UNL     1     -12.142   3.879   1.584  1.00  0.00     0.031 C 
ATOM     47  C   UNL     1      -7.404   8.887   1.862  1.00  0.00     0.029 A 
ATOM     48  C   UNL     1      -8.553   9.155   1.004  1.00  0.00     0.049 A 
ATOM     49  H   UNL     1     -10.233   7.951   0.730  1.00  0.00     0.167 HD
ATOM     50  C   UNL     1     -13.603   5.217   0.084  1.00  0.00     0.034 A 
ATOM     51  C   UNL     1      -8.711  10.253   0.236  1.00  0.00     0.034 A 
ATOM     52  C   UNL     1     -13.909   6.402  -0.683  1.00  0.00     0.049 A 
ATOM     53  C   UNL     1      -9.950  10.375  -0.614  1.00  0.00     0.074 A 
ATOM     54  C   UNL     1     -15.055   6.688  -1.406  1.00  0.00     0.029 A 
ATOM     55  N   UNL     1     -13.061   7.491  -0.844  1.00  0.00    -0.354 N 
ATOM     56  N   UNL     1     -10.960   9.542  -0.726  1.00  0.00    -0.248 NA
ATOM     57  C   UNL     1     -10.072  11.583  -1.440  1.00  0.00     0.031 C 
ATOM     58  C   UNL     1     -14.866   7.905  -2.069  1.00  0.00     0.029 A 
ATOM     59  C   UNL     1     -13.638   8.424  -1.693  1.00  0.00     0.049 A 
ATOM     60  H   UNL     1     -12.178   7.586  -0.418  1.00  0.00     0.167 HD
ATOM     61  C   UNL     1     -11.847  10.139  -1.618  1.00  0.00     0.074 A 
ATOM     62  C   UNL     1     -11.263  11.410  -1.996  1.00  0.00     0.031 C 
ATOM     63  C   UNL     1     -13.037   9.679  -2.081  1.00  0.00     0.034 A 
BRANCH  50  64
ATOM     64  C   UNL     1     -14.584   4.068   0.061  1.00  0.00     0.023 A 
ATOM     65  C   UNL     1     -15.223   3.619   1.230  1.00  0.00     0.031 A 
ATOM     66  C   UNL     1     -14.879   3.405  -1.144  1.00  0.00     0.131 A 
ATOM     67  C   UNL     1     -16.064   2.496   1.183  1.00  0.00     0.055 A 
ATOM     68  C   UNL     1     -15.782   2.341  -1.199  1.00  0.00     0.041 A 
ATOM     69  F   UNL     1     -14.286   3.773  -2.290  1.00  0.00    -0.206 F 
ATOM     70  C   UNL     1     -16.369   1.871  -0.028  1.00  0.00     0.022 A 
BRANCH  67  71
ATOM     71  S   UNL     1     -16.634   1.776   2.746  1.00  0.00     0.124 S 
ATOM     72  O   UNL     1     -15.369   1.483   3.415  1.00  0.00    -0.237 OA
ATOM     73  O   UNL     1     -17.425   2.857   3.321  1.00  0.00    -0.237 OA
ATOM     74  O   UNL     1     -17.394   0.601   2.325  1.00  0.00    -0.744 OA
ENDBRANCH  67  71
ENDBRANCH  50  64
BRANCH  51  75
ATOM     75  C   UNL     1      -7.660  11.312   0.205  1.00  0.00     0.023 A 
ATOM     76  C   UNL     1      -7.937  12.619   0.637  1.00  0.00     0.031 A 
ATOM     77  C   UNL     1      -6.374  11.046  -0.300  1.00  0.00     0.131 A 
ATOM     78  C   UNL     1      -6.961  13.619   0.512  1.00  0.00     0.055 A 
ATOM     79  C   UNL     1      -5.387  12.030  -0.365  1.00  0.00     0.041 A 
ATOM     80  F   UNL     1      -6.054   9.814  -0.730  1.00  0.00    -0.206 F 
ATOM     81  C   UNL     1      -5.682  13.330   0.030  1.00  0.00     0.022 A 
BRANCH  78  82
ATOM     82  S   UNL     1      -7.419  15.331   0.900  1.00  0.00     0.124 S 
ATOM     83  O   UNL     1      -8.534  15.553  -0.013  1.00  0.00    -0.237 OA
ATOM     84  O   UNL     1      -7.757  15.241   2.317  1.00  0.00    -0.237 OA
ATOM     85  O   UNL     1      -6.204  16.085   0.598  1.00  0.00    -0.744 OA
ENDBRANCH  78  82
ENDBRANCH  51  75
BRANCH  63  86
ATOM     86  C   UNL     1     -13.797  10.573  -3.031  1.00  0.00     0.023 A 
ATOM     87  C   UNL     1     -13.314  10.858  -4.321  1.00  0.00     0.031 A 
ATOM     88  C   UNL     1     -15.022  11.145  -2.643  1.00  0.00     0.131 A 
ATOM     89  C   UNL     1     -14.027  11.730  -5.157  1.00  0.00     0.055 A 
ATOM     90  C   UNL     1     -15.758  11.960  -3.503  1.00  0.00     0.041 A 
ATOM     91  F   UNL     1     -15.528  10.911  -1.422  1.00  0.00    -0.206 F 
ATOM     92  C   UNL     1     -15.256  12.266  -4.764  1.00  0.00     0.022 A 
BRANCH  89  93
ATOM     93  S   UNL     1     -13.286  12.221  -6.739  1.00  0.00     0.124 S 
ATOM     94  O   UNL     1     -12.049  12.863  -6.307  1.00  0.00    -0.237 OA
ATOM     95  O   UNL     1     -13.134  10.941  -7.424  1.00  0.00    -0.237 OA
ATOM     96  O   UNL     1     -14.282  13.119  -7.320  1.00  0.00    -0.744 OA
ENDBRANCH  89  93
ENDBRANCH  63  86
ENDBRANCH  37  38
ENDBRANCH  29  32
ENDBRANCH  27  28
ENDBRANCH  26  27
ENDBRANCH   1  26
TORSDOF 18
