REMARK SMILES C[NH+]1CC[NH+]([C@]2(C(=O)NCCCCCCNC(=O)c3ccc(-c4c5nc(c(-c6cc(S(=O)(=O)[O-])ccc6F)c6ccc([nH]6)c(-c6cc(S(=O)(=O)[O-])ccc6F)c6nc(c(-c7cc(S(=O)(=O)[O-])ccc7F)c7ccc4[nH]7)C=C6)C=C5)cc3)CCCC2(C)C)CC1
REMARK SMILES IDX 13 1 12 2 11 3 10 4 9 5 7 6 8 7 6 9 82 10 85 11 83 12 84 13
REMARK SMILES IDX 86 14 87 15 5 16 1 17 2 18 3 19 89 20 4 22 88 23 14 25 15 26
REMARK SMILES IDX 16 27 17 28 18 30 19 31 20 32 81 33 21 34 80 35 22 36 23 37
REMARK SMILES IDX 24 38 74 39 25 40 79 41 73 42 75 43 26 44 78 45 72 46 71 47
REMARK SMILES IDX 27 49 59 50 39 51 58 52 40 53 43 54 57 55 76 56 41 57 42 58
REMARK SMILES IDX 56 60 77 61 44 62 28 63 29 64 37 65 30 66 36 67 38 68 35 69
REMARK SMILES IDX 31 70 32 71 33 72 34 73 60 74 61 75 69 76 62 77 68 78 70 79
REMARK SMILES IDX 67 80 63 81 64 82 65 83 66 84 45 85 46 86 54 87 47 88 53 89
REMARK SMILES IDX 55 90 52 91 48 92 49 93 50 94 51 95
REMARK H PARENT 9 8 2 21 5 24 16 29 75 48 43 59
REMARK Flexibility Score: inf
ROOT
ATOM      1  C   UNL     1       3.007   0.766  -2.116  1.00  0.00     0.002 C 
ENDROOT
BRANCH   1   2
ATOM      2  C   UNL     1       2.250  -0.565  -2.047  1.00  0.00     0.002 C 
BRANCH   2   3
ATOM      3  C   UNL     1       1.668  -0.938  -0.684  1.00  0.00     0.021 C 
BRANCH   3   4
ATOM      4  C   UNL     1       0.819   0.144  -0.011  1.00  0.00     0.116 C 
BRANCH   4   5
ATOM      5  N   UNL     1      -0.598  -0.012  -0.279  1.00  0.00    -0.351 N 
ATOM      6  C   UNL     1      -1.755  -0.130   0.414  1.00  0.00     0.281 C 
ATOM      7  O   UNL     1      -2.696  -0.399  -0.362  1.00  0.00    -0.268 OA
ATOM      8  H   UNL     1      -0.768  -0.041  -1.248  1.00  0.00     0.163 HD
BRANCH   6   9
ATOM      9  C   UNL     1      -2.062  -0.005   2.024  1.00  0.00     0.182 C 
ATOM     10  C   UNL     1      -2.763  -1.376   2.310  1.00  0.00     0.080 C 
ATOM     11  C   UNL     1      -0.825  -0.130   3.020  1.00  0.00     0.029 C 
ATOM     12  C   UNL     1      -1.617  -2.380   2.530  1.00  0.00     0.008 C 
ATOM     13  C   UNL     1      -0.328  -1.552   2.651  1.00  0.00     0.014 C 
ATOM     14  C   UNL     1       0.140   1.062   2.912  1.00  0.00     0.018 C 
ATOM     15  C   UNL     1      -1.094  -0.265   4.563  1.00  0.00     0.018 C 
BRANCH   9  16
ATOM     16  N   UNL     1      -2.954   1.219   2.222  1.00  0.00    -0.313 N 
ATOM     17  C   UNL     1      -6.617   3.351   3.391  1.00  0.00     0.333 C 
ATOM     18  N   UNL     1      -5.615   2.327   3.114  1.00  0.00    -0.328 N 
ATOM     19  C   UNL     1      -4.398   2.568   3.893  1.00  0.00     0.324 C 
ATOM     20  C   UNL     1      -5.229   2.318   1.696  1.00  0.00     0.324 C 
ATOM     21  H   UNL     1      -6.038   1.434   3.366  1.00  0.00     0.348 HD
ATOM     22  C   UNL     1      -3.319   1.495   3.626  1.00  0.00     0.325 C 
ATOM     23  C   UNL     1      -4.186   1.210   1.388  1.00  0.00     0.325 C 
ATOM     24  H   UNL     1      -2.353   1.978   1.903  1.00  0.00     0.349 HD
ENDBRANCH   9  16
ENDBRANCH   6   9
ENDBRANCH   4   5
ENDBRANCH   3   4
ENDBRANCH   2   3
ENDBRANCH   1   2
BRANCH   1  25
ATOM     25  C   UNL     1       4.040   1.028  -1.013  1.00  0.00     0.021 C 
BRANCH  25  26
ATOM     26  C   UNL     1       5.133  -0.026  -0.847  1.00  0.00     0.116 C 
BRANCH  26  27
ATOM     27  N   UNL     1       5.828  -0.306  -2.087  1.00  0.00    -0.352 N 
ATOM     28  C   UNL     1       7.167  -0.323  -2.377  1.00  0.00     0.251 C 
ATOM     29  H   UNL     1       5.240  -0.519  -2.848  1.00  0.00     0.163 HD
ATOM     30  O   UNL     1       7.513  -0.422  -3.551  1.00  0.00    -0.269 OA
BRANCH  28  31
ATOM     31  C   UNL     1       8.191  -0.203  -1.312  1.00  0.00     0.039 A 
ATOM     32  C   UNL     1       9.343   0.538  -1.591  1.00  0.00     0.014 A 
ATOM     33  C   UNL     1       8.070  -0.856  -0.081  1.00  0.00     0.014 A 
ATOM     34  C   UNL     1      10.351   0.654  -0.632  1.00  0.00     0.010 A 
ATOM     35  C   UNL     1       9.049  -0.686   0.902  1.00  0.00     0.010 A 
ATOM     36  C   UNL     1      10.205   0.060   0.632  1.00  0.00    -0.014 A 
BRANCH  36  37
ATOM     37  C   UNL     1      11.268   0.223   1.658  1.00  0.00     0.031 A 
ATOM     38  C   UNL     1      12.090  -0.955   2.107  1.00  0.00     0.074 A 
ATOM     39  C   UNL     1      11.487   1.442   2.189  1.00  0.00     0.049 A 
ATOM     40  N   UNL     1      13.096  -0.991   2.944  1.00  0.00    -0.248 NA
ATOM     41  C   UNL     1      11.716  -2.268   1.563  1.00  0.00     0.031 C 
ATOM     42  C   UNL     1      10.714   2.647   1.877  1.00  0.00     0.029 A 
ATOM     43  N   UNL     1      12.425   1.875   3.091  1.00  0.00    -0.354 N 
ATOM     44  C   UNL     1      13.474  -2.327   3.031  1.00  0.00     0.074 A 
ATOM     45  C   UNL     1      12.545  -3.075   2.208  1.00  0.00     0.031 C 
ATOM     46  C   UNL     1      11.232   3.688   2.548  1.00  0.00     0.029 A 
ATOM     47  C   UNL     1      12.355   3.223   3.355  1.00  0.00     0.049 A 
ATOM     48  H   UNL     1      13.085   1.277   3.511  1.00  0.00     0.167 HD
ATOM     49  C   UNL     1      14.511  -2.876   3.713  1.00  0.00     0.034 A 
ATOM     50  C   UNL     1      13.118   4.000   4.149  1.00  0.00     0.034 A 
ATOM     51  C   UNL     1      15.430  -2.112   4.525  1.00  0.00     0.049 A 
ATOM     52  C   UNL     1      14.282   3.376   4.873  1.00  0.00     0.074 A 
ATOM     53  C   UNL     1      16.542  -2.555   5.222  1.00  0.00     0.029 A 
ATOM     54  N   UNL     1      15.341  -0.745   4.756  1.00  0.00    -0.354 N 
ATOM     55  N   UNL     1      14.667   2.120   4.890  1.00  0.00    -0.248 NA
ATOM     56  C   UNL     1      15.127   4.279   5.661  1.00  0.00     0.031 C 
ATOM     57  C   UNL     1      17.088  -1.469   5.919  1.00  0.00     0.029 A 
ATOM     58  C   UNL     1      16.361  -0.333   5.601  1.00  0.00     0.049 A 
ATOM     59  H   UNL     1      14.652  -0.153   4.375  1.00  0.00     0.167 HD
ATOM     60  C   UNL     1      15.818   2.089   5.673  1.00  0.00     0.074 A 
ATOM     61  C   UNL     1      16.075   3.456   6.083  1.00  0.00     0.031 C 
ATOM     62  C   UNL     1      16.593   1.030   6.021  1.00  0.00     0.034 A 
BRANCH  49  63
ATOM     63  C   UNL     1      14.683  -4.376   3.626  1.00  0.00     0.023 A 
ATOM     64  C   UNL     1      14.954  -5.019   2.404  1.00  0.00     0.031 A 
ATOM     65  C   UNL     1      14.545  -5.178   4.772  1.00  0.00     0.131 A 
ATOM     66  C   UNL     1      14.999  -6.421   2.343  1.00  0.00     0.055 A 
ATOM     67  C   UNL     1      14.673  -6.569   4.719  1.00  0.00     0.041 A 
ATOM     68  F   UNL     1      14.268  -4.627   5.964  1.00  0.00    -0.206 F 
ATOM     69  C   UNL     1      14.885  -7.199   3.496  1.00  0.00     0.022 A 
BRANCH  66  70
ATOM     70  S   UNL     1      15.062  -7.216   0.714  1.00  0.00     0.124 S 
ATOM     71  O   UNL     1      13.843  -6.705   0.089  1.00  0.00    -0.237 OA
ATOM     72  O   UNL     1      16.318  -6.718   0.167  1.00  0.00    -0.237 OA
ATOM     73  O   UNL     1      15.040  -8.643   1.028  1.00  0.00    -0.744 OA
ENDBRANCH  66  70
ENDBRANCH  49  63
BRANCH  50  74
ATOM     74  C   UNL     1      12.822   5.454   4.287  1.00  0.00     0.023 A 
ATOM     75  C   UNL     1      13.716   6.425   3.809  1.00  0.00     0.031 A 
ATOM     76  C   UNL     1      11.650   5.893   4.928  1.00  0.00     0.131 A 
ATOM     77  C   UNL     1      13.447   7.787   4.020  1.00  0.00     0.055 A 
ATOM     78  C   UNL     1      11.363   7.249   5.092  1.00  0.00     0.041 A 
ATOM     79  F   UNL     1      10.757   5.004   5.392  1.00  0.00    -0.206 F 
ATOM     80  C   UNL     1      12.271   8.205   4.648  1.00  0.00     0.022 A 
BRANCH  77  81
ATOM     81  S   UNL     1      14.695   9.006   3.525  1.00  0.00     0.124 S 
ATOM     82  O   UNL     1      15.858   8.569   4.288  1.00  0.00    -0.237 OA
ATOM     83  O   UNL     1      14.761   8.801   2.081  1.00  0.00    -0.237 OA
ATOM     84  O   UNL     1      14.113  10.278   3.945  1.00  0.00    -0.744 OA
ENDBRANCH  77  81
ENDBRANCH  50  74
BRANCH  62  85
ATOM     85  C   UNL     1      17.808   1.330   6.866  1.00  0.00     0.023 A 
ATOM     86  C   UNL     1      17.691   1.830   8.175  1.00  0.00     0.031 A 
ATOM     87  C   UNL     1      19.100   1.163   6.336  1.00  0.00     0.131 A 
ATOM     88  C   UNL     1      18.839   2.220   8.881  1.00  0.00     0.055 A 
ATOM     89  C   UNL     1      20.242   1.490   7.069  1.00  0.00     0.041 A 
ATOM     90  F   UNL     1      19.273   0.691   5.092  1.00  0.00    -0.206 F 
ATOM     91  C   UNL     1      20.114   2.041   8.341  1.00  0.00     0.022 A 
BRANCH  88  92
ATOM     92  S   UNL     1      18.634   3.087  10.461  1.00  0.00     0.124 S 
ATOM     93  O   UNL     1      17.763   4.198  10.089  1.00  0.00    -0.237 OA
ATOM     94  O   UNL     1      18.032   2.059  11.304  1.00  0.00    -0.237 OA
ATOM     95  O   UNL     1      19.999   3.465  10.824  1.00  0.00    -0.744 OA
ENDBRANCH  88  92
ENDBRANCH  62  85
ENDBRANCH  36  37
ENDBRANCH  28  31
ENDBRANCH  26  27
ENDBRANCH  25  26
ENDBRANCH   1  25
TORSDOF 17
