REMARK SMILES Cc1cc(F)ccc1CCNc1ccc(Cl)c(C(=O)NCCCCCCNC(=O)c2ccc(-c3c4nc(c(-c5cc(S(=O)(=O)[O-])ccc5F)c5ccc([nH]5)c(-c5cc(S(=O)(=O)[O-])ccc5F)c5nc(c(-c6cc(S(=O)(=O)[O-])ccc6F)c6ccc3[nH]6)C=C5)C=C4)cc2)n1
REMARK SMILES IDX 23 1 22 2 21 3 20 4 18 5 19 6 17 8 12 9 13 10 93 11 14 12
REMARK SMILES IDX 15 13 16 14 11 15 10 17 9 18 8 19 1 20 2 21 3 22 4 23 7 24
REMARK SMILES IDX 5 25 6 26 24 27 25 28 26 29 27 30 28 31 29 33 30 34 31 35
REMARK SMILES IDX 92 36 32 37 91 38 33 39 34 40 35 41 85 42 36 43 90 44 84 45
REMARK SMILES IDX 86 46 37 47 89 48 83 49 82 50 38 52 70 53 50 54 69 55 51 56
REMARK SMILES IDX 54 57 68 58 87 59 52 60 53 61 67 63 88 64 55 65 39 66 40 67
REMARK SMILES IDX 48 68 41 69 47 70 49 71 46 72 42 73 43 74 44 75 45 76 71 77
REMARK SMILES IDX 72 78 80 79 73 80 79 81 81 82 78 83 74 84 75 85 76 86 77 87
REMARK SMILES IDX 56 88 57 89 65 90 58 91 64 92 66 93 63 94 59 95 60 96 61 97
REMARK SMILES IDX 62 98
REMARK H PARENT 20 7 11 16 27 32 86 51 54 62
REMARK Flexibility Score: inf
ROOT
ATOM      1  C   UNL     1       1.055 -12.404  -0.374  1.00  0.00     0.002 C 
ENDROOT
BRANCH   1   2
ATOM      2  C   UNL     1       1.373 -11.372   0.714  1.00  0.00     0.021 C 
BRANCH   2   3
ATOM      3  C   UNL     1       2.194 -10.159   0.291  1.00  0.00     0.116 C 
BRANCH   3   4
ATOM      4  N   UNL     1       1.507  -9.215  -0.567  1.00  0.00    -0.351 N 
ATOM      5  C   UNL     1       1.623  -7.839  -0.667  1.00  0.00     0.271 C 
ATOM      6  O   UNL     1       0.962  -7.286  -1.552  1.00  0.00    -0.267 OA
ATOM      7  H   UNL     1       0.849  -9.618  -1.179  1.00  0.00     0.163 HD
BRANCH   5   8
ATOM      8  C   UNL     1       2.434  -6.991   0.280  1.00  0.00     0.149 A 
ATOM      9  C   UNL     1       2.453  -4.944   1.413  1.00  0.00     0.126 A 
ATOM     10  C   UNL     1       3.633  -5.283   2.054  1.00  0.00     0.048 A 
ATOM     11  N   UNL     1       1.809  -5.814   0.615  1.00  0.00    -0.224 NA
ATOM     12  C   UNL     1       4.277  -6.461   1.702  1.00  0.00     0.027 A 
ATOM     13  C   UNL     1       3.721  -7.282   0.723  1.00  0.00     0.072 A 
ATOM     14  Cl  UNL     1       4.781  -8.447   0.025  1.00  0.00    -0.082 Cl
BRANCH   9  15
ATOM     15  N   UNL     1       1.923  -3.670   1.507  1.00  0.00    -0.370 N 
ATOM     16  H   UNL     1       0.985  -3.535   1.774  1.00  0.00     0.162 HD
BRANCH  15  17
ATOM     17  C   UNL     1       2.786  -2.522   1.200  1.00  0.00     0.119 C 
BRANCH  17  18
ATOM     18  C   UNL     1       2.488  -1.913  -0.186  1.00  0.00     0.057 C 
BRANCH  18  19
ATOM     19  C   UNL     1       1.243  -1.044  -0.194  1.00  0.00    -0.043 A 
ATOM     20  C   UNL     1       2.513   1.179   0.153  1.00  0.00     0.045 C 
ATOM     21  C   UNL     1       1.261   0.352   0.029  1.00  0.00    -0.045 A 
ATOM     22  C   UNL     1       0.038   1.046   0.090  1.00  0.00     0.043 A 
ATOM     23  C   UNL     1      -1.169   0.373  -0.058  1.00  0.00     0.123 A 
ATOM     24  C   UNL     1       0.004  -1.689  -0.387  1.00  0.00     0.007 A 
ATOM     25  F   UNL     1      -2.320   1.054   0.028  1.00  0.00    -0.207 F 
ATOM     26  C   UNL     1      -1.197  -0.988  -0.304  1.00  0.00     0.039 A 
ENDBRANCH  18  19
ENDBRANCH  17  18
ENDBRANCH  15  17
ENDBRANCH   9  15
ENDBRANCH   5   8
ENDBRANCH   3   4
ENDBRANCH   2   3
ENDBRANCH   1   2
BRANCH   1  27
ATOM     27  C   UNL     1       2.226 -12.922  -1.217  1.00  0.00     0.002 C 
BRANCH  27  28
ATOM     28  C   UNL     1       3.459 -13.424  -0.461  1.00  0.00     0.021 C 
BRANCH  28  29
ATOM     29  C   UNL     1       3.209 -14.494   0.597  1.00  0.00     0.116 C 
BRANCH  29  30
ATOM     30  N   UNL     1       2.605 -15.697   0.050  1.00  0.00    -0.352 N 
ATOM     31  C   UNL     1       3.010 -17.004   0.147  1.00  0.00     0.251 C 
ATOM     32  H   UNL     1       1.781 -15.552  -0.469  1.00  0.00     0.163 HD
ATOM     33  O   UNL     1       2.448 -17.861  -0.536  1.00  0.00    -0.269 OA
BRANCH  31  34
ATOM     34  C   UNL     1       4.129 -17.385   1.039  1.00  0.00     0.039 A 
ATOM     35  C   UNL     1       5.076 -18.304   0.577  1.00  0.00     0.014 A 
ATOM     36  C   UNL     1       4.242 -16.861   2.330  1.00  0.00     0.014 A 
ATOM     37  C   UNL     1       6.163 -18.649   1.383  1.00  0.00     0.010 A 
ATOM     38  C   UNL     1       5.367 -17.146   3.103  1.00  0.00     0.010 A 
ATOM     39  C   UNL     1       6.339 -18.046   2.640  1.00  0.00    -0.014 A 
BRANCH  39  40
ATOM     40  C   UNL     1       7.534 -18.348   3.475  1.00  0.00     0.031 A 
ATOM     41  C   UNL     1       7.377 -19.003   4.820  1.00  0.00     0.074 A 
ATOM     42  C   UNL     1       8.757 -17.980   3.043  1.00  0.00     0.049 A 
ATOM     43  N   UNL     1       8.290 -19.298   5.710  1.00  0.00    -0.248 NA
ATOM     44  C   UNL     1       6.007 -19.343   5.230  1.00  0.00     0.031 C 
ATOM     45  C   UNL     1       9.033 -17.298   1.777  1.00  0.00     0.029 A 
ATOM     46  N   UNL     1       9.995 -18.120   3.619  1.00  0.00    -0.354 N 
ATOM     47  C   UNL     1       7.605 -19.846   6.791  1.00  0.00     0.074 A 
ATOM     48  C   UNL     1       6.196 -19.778   6.466  1.00  0.00     0.031 C 
ATOM     49  C   UNL     1      10.355 -17.104   1.661  1.00  0.00     0.029 A 
ATOM     50  C   UNL     1      11.019 -17.599   2.862  1.00  0.00     0.049 A 
ATOM     51  H   UNL     1      10.137 -18.553   4.492  1.00  0.00     0.167 HD
ATOM     52  C   UNL     1       8.107 -20.374   7.936  1.00  0.00     0.034 A 
ATOM     53  C   UNL     1      12.341 -17.513   3.112  1.00  0.00     0.034 A 
ATOM     54  C   UNL     1       9.518 -20.434   8.238  1.00  0.00     0.049 A 
ATOM     55  C   UNL     1      12.876 -18.081   4.401  1.00  0.00     0.074 A 
ATOM     56  C   UNL     1      10.142 -21.004   9.334  1.00  0.00     0.029 A 
ATOM     57  N   UNL     1      10.527 -19.889   7.451  1.00  0.00    -0.354 N 
ATOM     58  N   UNL     1      12.223 -18.654   5.386  1.00  0.00    -0.248 NA
ATOM     59  C   UNL     1      14.327 -18.003   4.606  1.00  0.00     0.031 C 
ATOM     60  C   UNL     1      11.511 -20.729   9.254  1.00  0.00     0.029 A 
ATOM     61  C   UNL     1      11.761 -20.071   8.060  1.00  0.00     0.049 A 
ATOM     62  H   UNL     1      10.387 -19.440   6.586  1.00  0.00     0.167 HD
ATOM     63  C   UNL     1      13.189 -19.029   6.316  1.00  0.00     0.074 A 
ATOM     64  C   UNL     1      14.469 -18.632   5.764  1.00  0.00     0.031 C 
ATOM     65  C   UNL     1      13.032 -19.651   7.513  1.00  0.00     0.034 A 
BRANCH  52  66
ATOM     66  C   UNL     1       7.117 -20.890   8.957  1.00  0.00     0.023 A 
ATOM     67  C   UNL     1       6.218 -21.930   8.660  1.00  0.00     0.031 A 
ATOM     68  C   UNL     1       7.042 -20.307  10.235  1.00  0.00     0.131 A 
ATOM     69  C   UNL     1       5.227 -22.288   9.587  1.00  0.00     0.055 A 
ATOM     70  C   UNL     1       6.115 -20.735  11.188  1.00  0.00     0.041 A 
ATOM     71  F   UNL     1       7.857 -19.296  10.575  1.00  0.00    -0.206 F 
ATOM     72  C   UNL     1       5.187 -21.717  10.860  1.00  0.00     0.022 A 
BRANCH  69  73
ATOM     73  S   UNL     1       3.885 -23.381   9.039  1.00  0.00     0.124 S 
ATOM     74  O   UNL     1       3.357 -22.645   7.892  1.00  0.00    -0.237 OA
ATOM     75  O   UNL     1       4.592 -24.619   8.735  1.00  0.00    -0.237 OA
ATOM     76  O   UNL     1       2.995 -23.436  10.196  1.00  0.00    -0.744 OA
ENDBRANCH  69  73
ENDBRANCH  52  66
BRANCH  53  77
ATOM     77  C   UNL     1      13.247 -16.849   2.130  1.00  0.00     0.023 A 
ATOM     78  C   UNL     1      14.246 -17.570   1.456  1.00  0.00     0.031 A 
ATOM     79  C   UNL     1      13.134 -15.473   1.863  1.00  0.00     0.131 A 
ATOM     80  C   UNL     1      15.116 -16.905   0.578  1.00  0.00     0.055 A 
ATOM     81  C   UNL     1      13.966 -14.827   0.947  1.00  0.00     0.041 A 
ATOM     82  F   UNL     1      12.194 -14.737   2.477  1.00  0.00    -0.206 F 
ATOM     83  C   UNL     1      14.972 -15.542   0.306  1.00  0.00     0.022 A 
BRANCH  80  84
ATOM     84  S   UNL     1      16.491 -17.834  -0.155  1.00  0.00     0.124 S 
ATOM     85  O   UNL     1      17.213 -18.279   1.030  1.00  0.00    -0.237 OA
ATOM     86  O   UNL     1      15.791 -18.869  -0.908  1.00  0.00    -0.237 OA
ATOM     87  O   UNL     1      17.181 -16.834  -0.969  1.00  0.00    -0.744 OA
ENDBRANCH  80  84
ENDBRANCH  53  77
BRANCH  65  88
ATOM     88  C   UNL     1      14.287 -19.973   8.290  1.00  0.00     0.023 A 
ATOM     89  C   UNL     1      15.125 -18.965   8.800  1.00  0.00     0.031 A 
ATOM     90  C   UNL     1      14.658 -21.312   8.512  1.00  0.00     0.131 A 
ATOM     91  C   UNL     1      16.321 -19.311   9.449  1.00  0.00     0.055 A 
ATOM     92  C   UNL     1      15.812 -21.650   9.220  1.00  0.00     0.041 A 
ATOM     93  F   UNL     1      13.901 -22.317   8.043  1.00  0.00    -0.206 F 
ATOM     94  C   UNL     1      16.659 -20.646   9.681  1.00  0.00     0.022 A 
BRANCH  91  95
ATOM     95  S   UNL     1      17.485 -17.991   9.890  1.00  0.00     0.124 S 
ATOM     96  O   UNL     1      17.736 -17.364   8.596  1.00  0.00    -0.237 OA
ATOM     97  O   UNL     1      16.715 -17.200  10.843  1.00  0.00    -0.237 OA
ATOM     98  O   UNL     1      18.622 -18.713  10.459  1.00  0.00    -0.744 OA
ENDBRANCH  91  95
ENDBRANCH  65  88
ENDBRANCH  39  40
ENDBRANCH  31  34
ENDBRANCH  29  30
ENDBRANCH  28  29
ENDBRANCH  27  28
ENDBRANCH   1  27
TORSDOF 20
