REMARK SMILES C[C@@H](O)[C@@H](NC(=O)CN(C)C(=O)c1cccs1)C(=O)NCCCCCCNC(=O)c1ccc(-c2c3nc(c(-c4cc(S(=O)(=O)[O-])ccc4F)c4ccc([nH]4)c(-c4cc(S(=O)(=O)[O-])ccc4F)c4nc(c(-c5cc(S(=O)(=O)[O-])ccc5F)c5ccc2[nH]5)C=C4)C=C3)cc1
REMARK SMILES IDX 22 1 21 2 20 3 18 4 19 5 4 7 2 8 1 9 3 10 5 12 6 13 7 15
REMARK SMILES IDX 8 16 9 17 10 18 11 19 12 20 13 21 14 22 17 23 15 24 16 25
REMARK SMILES IDX 23 26 24 27 25 28 26 29 27 30 28 31 29 33 30 34 31 35 92 36
REMARK SMILES IDX 32 37 91 38 33 39 34 40 35 41 85 42 36 43 90 44 84 45 86 46
REMARK SMILES IDX 37 47 89 48 83 49 82 50 38 52 70 53 50 54 69 55 51 56 54 57
REMARK SMILES IDX 68 58 87 59 52 60 53 61 67 63 88 64 55 65 39 66 40 67 48 68
REMARK SMILES IDX 41 69 47 70 49 71 46 72 42 73 43 74 44 75 45 76 71 77 72 78
REMARK SMILES IDX 80 79 73 80 79 81 81 82 78 83 74 84 75 85 76 86 77 87 56 88
REMARK SMILES IDX 57 89 65 90 58 91 64 92 66 93 63 94 59 95 60 96 61 97 62 98
REMARK H PARENT 20 6 3 11 5 14 27 32 86 51 54 62
REMARK Flexibility Score: inf
ROOT
ATOM      1  C   UNL     1       0.751  -2.409  -5.215  1.00  0.00     0.021 C 
ENDROOT
BRANCH   1   2
ATOM      2  C   UNL     1       0.394  -1.877  -3.779  1.00  0.00     0.116 C 
BRANCH   2   3
ATOM      3  N   UNL     1      -0.894  -2.193  -3.189  1.00  0.00    -0.354 N 
ATOM      4  C   UNL     1      -1.554  -1.639  -2.115  1.00  0.00     0.245 C 
ATOM      5  O   UNL     1      -2.734  -2.001  -1.983  1.00  0.00    -0.273 OA
ATOM      6  H   UNL     1      -1.378  -2.927  -3.632  1.00  0.00     0.163 HD
BRANCH   4   7
ATOM      7  C   UNL     1      -0.978  -0.564  -1.115  1.00  0.00     0.200 C 
BRANCH   7   8
ATOM      8  C   UNL     1       0.509  -0.675  -0.696  1.00  0.00     0.143 C 
ATOM      9  C   UNL     1       0.856   0.214   0.512  1.00  0.00     0.041 C 
BRANCH   8  10
ATOM     10  O   UNL     1       0.774  -2.026  -0.295  1.00  0.00    -0.391 OA
ATOM     11  H   UNL     1       0.219  -2.252   0.468  1.00  0.00     0.211 HD
ENDBRANCH   8  10
ENDBRANCH   7   8
BRANCH   7  12
ATOM     12  N   UNL     1      -1.493   0.824  -1.073  1.00  0.00    -0.341 N 
ATOM     13  C   UNL     1      -1.815   1.782  -1.976  1.00  0.00     0.240 C 
ATOM     14  H   UNL     1      -1.640   1.130  -0.149  1.00  0.00     0.164 HD
ATOM     15  O   UNL     1      -1.950   2.929  -1.543  1.00  0.00    -0.273 OA
BRANCH  13  16
ATOM     16  C   UNL     1      -2.286   1.423  -3.364  1.00  0.00     0.219 C 
BRANCH  16  17
ATOM     17  N   UNL     1      -1.319   0.757  -4.218  1.00  0.00    -0.332 N 
ATOM     18  C   UNL     1      -2.017  -0.150  -5.117  1.00  0.00     0.147 C 
BRANCH  17  19
ATOM     19  C   UNL     1      -0.318   1.629  -4.750  1.00  0.00     0.264 C 
ATOM     20  O   UNL     1      -0.638   2.766  -5.093  1.00  0.00    -0.268 OA
BRANCH  19  21
ATOM     21  C   UNL     1       1.091   1.199  -4.818  1.00  0.00     0.092 A 
ATOM     22  C   UNL     1       1.779   0.420  -5.731  1.00  0.00     0.025 A 
ATOM     23  S   UNL     1       2.222   1.848  -3.692  1.00  0.00    -0.139 S 
ATOM     24  C   UNL     1       3.190   0.382  -5.566  1.00  0.00     0.012 A 
ATOM     25  C   UNL     1       3.567   1.115  -4.472  1.00  0.00     0.065 A 
ENDBRANCH  19  21
ENDBRANCH  17  19
ENDBRANCH  16  17
ENDBRANCH  13  16
ENDBRANCH   7  12
ENDBRANCH   4   7
ENDBRANCH   2   3
ENDBRANCH   1   2
BRANCH   1  26
ATOM     26  C   UNL     1       0.054  -2.337  -6.643  1.00  0.00     0.002 C 
BRANCH  26  27
ATOM     27  C   UNL     1      -0.483  -1.302  -7.753  1.00  0.00     0.002 C 
BRANCH  27  28
ATOM     28  C   UNL     1      -0.461   0.245  -8.015  1.00  0.00     0.021 C 
BRANCH  28  29
ATOM     29  C   UNL     1       0.661   1.040  -8.742  1.00  0.00     0.116 C 
BRANCH  29  30
ATOM     30  N   UNL     1       1.160   0.458  -9.962  1.00  0.00    -0.352 N 
ATOM     31  C   UNL     1       2.051   0.998 -10.868  1.00  0.00     0.251 C 
ATOM     32  H   UNL     1       0.821  -0.441 -10.178  1.00  0.00     0.163 HD
ATOM     33  O   UNL     1       2.185   0.438 -11.955  1.00  0.00    -0.269 OA
BRANCH  31  34
ATOM     34  C   UNL     1       2.830   2.243 -10.599  1.00  0.00     0.039 A 
ATOM     35  C   UNL     1       2.824   3.253 -11.573  1.00  0.00     0.014 A 
ATOM     36  C   UNL     1       3.694   2.372  -9.507  1.00  0.00     0.014 A 
ATOM     37  C   UNL     1       3.648   4.384 -11.444  1.00  0.00     0.010 A 
ATOM     38  C   UNL     1       4.510   3.517  -9.371  1.00  0.00     0.010 A 
ATOM     39  C   UNL     1       4.502   4.537 -10.339  1.00  0.00    -0.014 A 
BRANCH  39  40
ATOM     40  C   UNL     1       5.355   5.764 -10.203  1.00  0.00     0.031 A 
ATOM     41  C   UNL     1       6.855   5.707 -10.374  1.00  0.00     0.074 A 
ATOM     42  C   UNL     1       4.782   6.953  -9.925  1.00  0.00     0.049 A 
ATOM     43  N   UNL     1       7.738   6.676 -10.306  1.00  0.00    -0.248 NA
ATOM     44  C   UNL     1       7.438   4.387 -10.647  1.00  0.00     0.031 C 
ATOM     45  C   UNL     1       3.348   7.164  -9.721  1.00  0.00     0.029 A 
ATOM     46  N   UNL     1       5.326   8.207  -9.764  1.00  0.00    -0.354 N 
ATOM     47  C   UNL     1       8.980   6.088 -10.531  1.00  0.00     0.074 A 
ATOM     48  C   UNL     1       8.734   4.667 -10.688  1.00  0.00     0.031 C 
ATOM     49  C   UNL     1       3.125   8.466  -9.479  1.00  0.00     0.029 A 
ATOM     50  C   UNL     1       4.399   9.184  -9.473  1.00  0.00     0.049 A 
ATOM     51  H   UNL     1       6.290   8.390  -9.850  1.00  0.00     0.167 HD
ATOM     52  C   UNL     1      10.205   6.672 -10.616  1.00  0.00     0.034 A 
ATOM     53  C   UNL     1       4.546  10.501  -9.220  1.00  0.00     0.034 A 
ATOM     54  C   UNL     1      10.450   8.088 -10.451  1.00  0.00     0.049 A 
ATOM     55  C   UNL     1       5.923  11.119  -9.264  1.00  0.00     0.074 A 
ATOM     56  C   UNL     1      11.650   8.776 -10.564  1.00  0.00     0.029 A 
ATOM     57  N   UNL     1       9.489   9.036 -10.124  1.00  0.00    -0.354 N 
ATOM     58  N   UNL     1       7.076  10.551  -9.528  1.00  0.00    -0.248 NA
ATOM     59  C   UNL     1       6.014  12.560  -8.987  1.00  0.00     0.031 C 
ATOM     60  C   UNL     1      11.427  10.118 -10.233  1.00  0.00     0.029 A 
ATOM     61  C   UNL     1      10.075  10.289  -9.993  1.00  0.00     0.049 A 
ATOM     62  H   UNL     1       8.531   8.847 -10.002  1.00  0.00     0.167 HD
ATOM     63  C   UNL     1       8.022  11.573  -9.480  1.00  0.00     0.074 A 
ATOM     64  C   UNL     1       7.304  12.793  -9.177  1.00  0.00     0.031 C 
ATOM     65  C   UNL     1       9.364  11.507  -9.676  1.00  0.00     0.034 A 
BRANCH  52  66
ATOM     66  C   UNL     1      11.393   5.769 -10.871  1.00  0.00     0.023 A 
ATOM     67  C   UNL     1      11.521   5.035 -12.063  1.00  0.00     0.031 A 
ATOM     68  C   UNL     1      12.412   5.638  -9.909  1.00  0.00     0.131 A 
ATOM     69  C   UNL     1      12.599   4.150 -12.232  1.00  0.00     0.055 A 
ATOM     70  C   UNL     1      13.524   4.817 -10.117  1.00  0.00     0.041 A 
ATOM     71  F   UNL     1      12.343   6.302  -8.745  1.00  0.00    -0.206 F 
ATOM     72  C   UNL     1      13.614   4.055 -11.278  1.00  0.00     0.022 A 
BRANCH  69  73
ATOM     73  S   UNL     1      12.578   3.022 -13.652  1.00  0.00     0.124 S 
ATOM     74  O   UNL     1      11.319   2.312 -13.447  1.00  0.00    -0.237 OA
ATOM     75  O   UNL     1      12.622   3.937 -14.784  1.00  0.00    -0.237 OA
ATOM     76  O   UNL     1      13.780   2.208 -13.459  1.00  0.00    -0.744 OA
ENDBRANCH  69  73
ENDBRANCH  52  66
BRANCH  53  77
ATOM     77  C   UNL     1       3.360  11.341  -8.878  1.00  0.00     0.023 A 
ATOM     78  C   UNL     1       2.953  12.398  -9.708  1.00  0.00     0.031 A 
ATOM     79  C   UNL     1       2.650  11.132  -7.682  1.00  0.00     0.131 A 
ATOM     80  C   UNL     1       1.897  13.234  -9.311  1.00  0.00     0.055 A 
ATOM     81  C   UNL     1       1.565  11.931  -7.318  1.00  0.00     0.041 A 
ATOM     82  F   UNL     1       3.000  10.138  -6.850  1.00  0.00    -0.206 F 
ATOM     83  C   UNL     1       1.191  12.998  -8.128  1.00  0.00     0.022 A 
BRANCH  80  84
ATOM     84  S   UNL     1       1.514  14.693 -10.319  1.00  0.00     0.124 S 
ATOM     85  O   UNL     1       2.786  15.407 -10.303  1.00  0.00    -0.237 OA
ATOM     86  O   UNL     1       1.134  14.090 -11.592  1.00  0.00    -0.237 OA
ATOM     87  O   UNL     1       0.426  15.337  -9.588  1.00  0.00    -0.744 OA
ENDBRANCH  80  84
ENDBRANCH  53  77
BRANCH  65  88
ATOM     88  C   UNL     1      10.138  12.804  -9.611  1.00  0.00     0.023 A 
ATOM     89  C   UNL     1      10.268  13.536  -8.417  1.00  0.00     0.031 A 
ATOM     90  C   UNL     1      10.741  13.326 -10.771  1.00  0.00     0.131 A 
ATOM     91  C   UNL     1      10.934  14.772  -8.420  1.00  0.00     0.055 A 
ATOM     92  C   UNL     1      11.453  14.527 -10.755  1.00  0.00     0.041 A 
ATOM     93  F   UNL     1      10.648  12.675 -11.941  1.00  0.00    -0.206 F 
ATOM     94  C   UNL     1      11.541  15.264  -9.578  1.00  0.00     0.022 A 
BRANCH  91  95
ATOM     95  S   UNL     1      10.923  15.776  -6.908  1.00  0.00     0.124 S 
ATOM     96  O   UNL     1       9.494  15.963  -6.677  1.00  0.00    -0.237 OA
ATOM     97  O   UNL     1      11.615  14.914  -5.955  1.00  0.00    -0.237 OA
ATOM     98  O   UNL     1      11.652  16.984  -7.291  1.00  0.00    -0.744 OA
ENDBRANCH  91  95
ENDBRANCH  65  88
ENDBRANCH  39  40
ENDBRANCH  31  34
ENDBRANCH  29  30
ENDBRANCH  28  29
ENDBRANCH  27  28
ENDBRANCH  26  27
ENDBRANCH   1  26
TORSDOF 23
