REMARK SMILES CCC(CC)(NC(=O)C[C@@H]1CCC[NH2+]C1)C(=O)NCCCCCCNC(=O)c1ccc(-c2c3nc(c(-c4cc(S(=O)(=O)[O-])ccc4F)c4ccc([nH]4)c(-c4cc(S(=O)(=O)[O-])ccc4F)c4nc(c(-c5cc(S(=O)(=O)[O-])ccc5F)c5ccc2[nH]5)C=C4)C=C3)cc1
REMARK SMILES IDX 21 1 20 2 19 3 18 4 16 5 17 6 3 8 2 9 1 10 4 11 5 12 6 13
REMARK SMILES IDX 7 14 8 16 9 17 10 18 11 19 15 20 12 21 14 22 13 23 22 26
REMARK SMILES IDX 23 27 24 28 25 29 26 30 27 32 28 33 29 34 90 35 30 36 89 37
REMARK SMILES IDX 31 38 32 39 33 40 83 41 34 42 88 43 82 44 84 45 35 46 87 47
REMARK SMILES IDX 81 48 80 49 36 51 68 52 48 53 67 54 49 55 52 56 66 57 85 58
REMARK SMILES IDX 50 59 51 60 65 62 86 63 53 64 37 65 38 66 46 67 39 68 45 69
REMARK SMILES IDX 47 70 44 71 40 72 41 73 42 74 43 75 69 76 70 77 78 78 71 79
REMARK SMILES IDX 77 80 79 81 76 82 72 83 73 84 74 85 75 86 54 87 55 88 63 89
REMARK SMILES IDX 56 90 62 91 64 92 61 93 57 94 58 95 59 96 60 97
REMARK H PARENT 18 7 6 15 14 24 14 25 25 31 84 50 52 61
REMARK Flexibility Score: inf
ROOT
ATOM      1  C   UNL     1       4.390   5.420  -2.884  1.00  0.00     0.002 C 
ENDROOT
BRANCH   1   2
ATOM      2  C   UNL     1       2.864   5.498  -2.823  1.00  0.00     0.021 C 
BRANCH   2   3
ATOM      3  C   UNL     1       2.092   4.276  -3.323  1.00  0.00     0.116 C 
BRANCH   3   4
ATOM      4  N   UNL     1       2.547   3.001  -2.788  1.00  0.00    -0.354 N 
ATOM      5  C   UNL     1       1.958   2.098  -1.940  1.00  0.00     0.245 C 
ATOM      6  O   UNL     1       2.606   1.077  -1.695  1.00  0.00    -0.272 OA
ATOM      7  H   UNL     1       3.445   2.737  -3.092  1.00  0.00     0.163 HD
BRANCH   5   8
ATOM      8  C   UNL     1       0.519   2.326  -1.373  1.00  0.00     0.118 C 
BRANCH   8   9
ATOM      9  C   UNL     1       0.060   1.269  -0.326  1.00  0.00     0.035 C 
ATOM     10  C   UNL     1       0.033  -0.195  -0.740  1.00  0.00     0.007 C 
ENDBRANCH   8   9
BRANCH   8  11
ATOM     11  C   UNL     1      -0.440   2.255  -2.611  1.00  0.00     0.035 C 
ATOM     12  C   UNL     1      -1.938   2.294  -2.336  1.00  0.00     0.007 C 
ENDBRANCH   8  11
BRANCH   8  13
ATOM     13  N   UNL     1       0.467   3.646  -0.670  1.00  0.00    -0.342 N 
ATOM     14  C   UNL     1       1.183   3.945   0.481  1.00  0.00     0.221 C 
ATOM     15  H   UNL     1      -0.112   4.348  -1.047  1.00  0.00     0.164 HD
ATOM     16  O   UNL     1       0.556   4.299   1.479  1.00  0.00    -0.275 OA
BRANCH  14  17
ATOM     17  C   UNL     1       2.702   4.069   0.405  1.00  0.00     0.109 C 
BRANCH  17  18
ATOM     18  C   UNL     1       3.667   3.482   1.458  1.00  0.00     0.054 C 
ATOM     19  C   UNL     1       4.647   2.453   0.847  1.00  0.00     0.016 C 
ATOM     20  C   UNL     1       3.082   2.969   2.770  1.00  0.00     0.264 C 
ATOM     21  C   UNL     1       4.483   1.030   1.375  1.00  0.00     0.062 C 
ATOM     22  N   UNL     1       2.434   1.669   2.699  1.00  0.00    -0.346 N 
ATOM     23  C   UNL     1       3.060   0.707   1.798  1.00  0.00     0.260 C 
ATOM     24  H   UNL     1       2.431   1.267   3.636  1.00  0.00     0.346 HD
ATOM     25  H   UNL     1       1.501   1.840   2.324  1.00  0.00     0.346 HD
ENDBRANCH  17  18
ENDBRANCH  14  17
ENDBRANCH   8  13
ENDBRANCH   5   8
ENDBRANCH   3   4
ENDBRANCH   2   3
ENDBRANCH   1   2
BRANCH   1  26
ATOM     26  C   UNL     1       4.992   5.110  -4.255  1.00  0.00     0.002 C 
BRANCH  26  27
ATOM     27  C   UNL     1       4.468   5.950  -5.419  1.00  0.00     0.021 C 
BRANCH  27  28
ATOM     28  C   UNL     1       4.551   7.459  -5.227  1.00  0.00     0.116 C 
BRANCH  28  29
ATOM     29  N   UNL     1       5.916   7.952  -5.241  1.00  0.00    -0.352 N 
ATOM     30  C   UNL     1       6.463   8.945  -6.026  1.00  0.00     0.251 C 
ATOM     31  H   UNL     1       6.533   7.521  -4.607  1.00  0.00     0.163 HD
ATOM     32  O   UNL     1       7.666   9.142  -6.021  1.00  0.00    -0.269 OA
BRANCH  30  33
ATOM     33  C   UNL     1       5.571   9.738  -6.906  1.00  0.00     0.039 A 
ATOM     34  C   UNL     1       5.892   9.858  -8.259  1.00  0.00     0.014 A 
ATOM     35  C   UNL     1       4.401  10.316  -6.404  1.00  0.00     0.014 A 
ATOM     36  C   UNL     1       4.998  10.490  -9.127  1.00  0.00     0.010 A 
ATOM     37  C   UNL     1       3.482  10.886  -7.281  1.00  0.00     0.010 A 
ATOM     38  C   UNL     1       3.766  10.971  -8.653  1.00  0.00    -0.014 A 
BRANCH  38  39
ATOM     39  C   UNL     1       2.757  11.552  -9.577  1.00  0.00     0.031 A 
ATOM     40  C   UNL     1       2.360  12.996  -9.451  1.00  0.00     0.074 A 
ATOM     41  C   UNL     1       2.140  10.759 -10.475  1.00  0.00     0.049 A 
ATOM     42  N   UNL     1       1.437  13.662 -10.096  1.00  0.00    -0.248 NA
ATOM     43  C   UNL     1       3.077  13.784  -8.438  1.00  0.00     0.031 C 
ATOM     44  C   UNL     1       2.399   9.329 -10.658  1.00  0.00     0.029 A 
ATOM     45  N   UNL     1       1.153  11.035 -11.388  1.00  0.00    -0.354 N 
ATOM     46  C   UNL     1       1.457  14.947  -9.564  1.00  0.00     0.074 A 
ATOM     47  C   UNL     1       2.435  14.940  -8.496  1.00  0.00     0.031 C 
ATOM     48  C   UNL     1       1.595   8.856 -11.624  1.00  0.00     0.029 A 
ATOM     49  C   UNL     1       0.738   9.936 -12.103  1.00  0.00     0.049 A 
ATOM     50  H   UNL     1       0.777  11.936 -11.519  1.00  0.00     0.167 HD
ATOM     51  C   UNL     1       0.744  16.037  -9.947  1.00  0.00     0.034 A 
ATOM     52  C   UNL     1      -0.236   9.805 -13.025  1.00  0.00     0.034 A 
ATOM     53  C   UNL     1      -0.228  16.025 -11.014  1.00  0.00     0.049 A 
ATOM     54  C   UNL     1      -1.036  11.018 -13.421  1.00  0.00     0.074 A 
ATOM     55  C   UNL     1      -0.961  17.082 -11.527  1.00  0.00     0.029 A 
ATOM     56  N   UNL     1      -0.615  14.895 -11.725  1.00  0.00    -0.354 N 
ATOM     57  N   UNL     1      -0.963  12.243 -12.953  1.00  0.00    -0.248 NA
ATOM     58  C   UNL     1      -2.040  10.835 -14.476  1.00  0.00     0.031 C 
ATOM     59  C   UNL     1      -1.835  16.580 -12.499  1.00  0.00     0.029 A 
ATOM     60  C   UNL     1      -1.601  15.222 -12.645  1.00  0.00     0.049 A 
ATOM     61  H   UNL     1      -0.243  13.993 -11.594  1.00  0.00     0.167 HD
ATOM     62  C   UNL     1      -1.902  12.979 -13.668  1.00  0.00     0.074 A 
ATOM     63  C   UNL     1      -2.515  12.065 -14.611  1.00  0.00     0.031 C 
ATOM     64  C   UNL     1      -2.224  14.294 -13.559  1.00  0.00     0.034 A 
BRANCH  51  65
ATOM     65  C   UNL     1       0.983  17.318  -9.181  1.00  0.00     0.023 A 
ATOM     66  C   UNL     1       2.248  17.933  -9.155  1.00  0.00     0.031 A 
ATOM     67  C   UNL     1      -0.046  17.903  -8.424  1.00  0.00     0.131 A 
ATOM     68  C   UNL     1       2.476  19.033  -8.315  1.00  0.00     0.055 A 
ATOM     69  C   UNL     1       0.165  19.053  -7.659  1.00  0.00     0.041 A 
ATOM     70  F   UNL     1      -1.271  17.354  -8.393  1.00  0.00    -0.206 F 
ATOM     71  C   UNL     1       1.437  19.613  -7.585  1.00  0.00     0.022 A 
BRANCH  68  72
ATOM     72  S   UNL     1       4.186  19.582  -8.059  1.00  0.00     0.124 S 
ATOM     73  O   UNL     1       4.818  18.358  -7.570  1.00  0.00    -0.237 OA
ATOM     74  O   UNL     1       4.581  20.015  -9.394  1.00  0.00    -0.237 OA
ATOM     75  O   UNL     1       4.059  20.647  -7.067  1.00  0.00    -0.744 OA
ENDBRANCH  68  72
ENDBRANCH  51  65
BRANCH  52  76
ATOM     76  C   UNL     1      -0.529   8.469 -13.615  1.00  0.00     0.023 A 
ATOM     77  C   UNL     1      -0.268   8.195 -14.966  1.00  0.00     0.031 A 
ATOM     78  C   UNL     1      -1.088   7.445 -12.829  1.00  0.00     0.131 A 
ATOM     79  C   UNL     1      -0.596   6.939 -15.500  1.00  0.00     0.055 A 
ATOM     80  C   UNL     1      -1.372   6.183 -13.353  1.00  0.00     0.041 A 
ATOM     81  F   UNL     1      -1.347   7.653 -11.527  1.00  0.00    -0.206 F 
ATOM     82  C   UNL     1      -1.134   5.928 -14.700  1.00  0.00     0.022 A 
BRANCH  79  83
ATOM     83  S   UNL     1      -0.354   6.657 -17.276  1.00  0.00     0.124 S 
ATOM     84  O   UNL     1      -1.219   7.677 -17.858  1.00  0.00    -0.237 OA
ATOM     85  O   UNL     1       1.081   6.872 -17.423  1.00  0.00    -0.237 OA
ATOM     86  O   UNL     1      -0.798   5.278 -17.465  1.00  0.00    -0.744 OA
ENDBRANCH  79  83
ENDBRANCH  52  76
BRANCH  64  87
ATOM     87  C   UNL     1      -3.277  14.818 -14.503  1.00  0.00     0.023 A 
ATOM     88  C   UNL     1      -4.623  14.424 -14.399  1.00  0.00     0.031 A 
ATOM     89  C   UNL     1      -2.927  15.718 -15.526  1.00  0.00     0.131 A 
ATOM     90  C   UNL     1      -5.562  14.892 -15.331  1.00  0.00     0.055 A 
ATOM     91  C   UNL     1      -3.876  16.222 -16.417  1.00  0.00     0.041 A 
ATOM     92  F   UNL     1      -1.656  16.125 -15.672  1.00  0.00    -0.206 F 
ATOM     93  C   UNL     1      -5.200  15.800 -16.329  1.00  0.00     0.022 A 
BRANCH  90  94
ATOM     94  S   UNL     1      -7.252  14.237 -15.270  1.00  0.00     0.124 S 
ATOM     95  O   UNL     1      -7.032  12.810 -15.480  1.00  0.00    -0.237 OA
ATOM     96  O   UNL     1      -7.690  14.625 -13.933  1.00  0.00    -0.237 OA
ATOM     97  O   UNL     1      -7.928  14.928 -16.367  1.00  0.00    -0.744 OA
ENDBRANCH  90  94
ENDBRANCH  64  87
ENDBRANCH  38  39
ENDBRANCH  30  33
ENDBRANCH  28  29
ENDBRANCH  27  28
ENDBRANCH  26  27
ENDBRANCH   1  26
TORSDOF 21
