REMARK SMILES CCN(CC(=O)NCCCCCCNC(=O)c1ccc(-c2c3nc(c(-c4cc(S(=O)(=O)[O-])ccc4F)c4ccc([nH]4)c(-c4cc(S(=O)(=O)[O-])ccc4F)c4nc(c(-c5cc(S(=O)(=O)[O-])ccc5F)c5ccc2[nH]5)C=C4)C=C3)cc1)C(=O)[C@@H]1CC[NH2+][C@@H]1C
REMARK SMILES IDX 10 1 9 2 8 3 7 4 5 5 6 6 4 8 3 9 2 10 1 11 80 12 81 13 82 14
REMARK SMILES IDX 83 15 86 16 84 17 85 18 87 19 11 22 12 23 13 24 14 25 15 26
REMARK SMILES IDX 16 28 17 29 18 30 79 31 19 32 78 33 20 34 21 35 22 36 72 37
REMARK SMILES IDX 23 38 77 39 71 40 73 41 24 42 76 43 70 44 69 45 25 47 57 48
REMARK SMILES IDX 37 49 56 50 38 51 41 52 55 53 74 54 39 55 40 56 54 58 75 59
REMARK SMILES IDX 42 60 26 61 27 62 35 63 28 64 34 65 36 66 33 67 29 68 30 69
REMARK SMILES IDX 31 70 32 71 58 72 59 73 67 74 60 75 66 76 68 77 65 78 61 79
REMARK SMILES IDX 62 80 63 81 64 82 43 83 44 84 52 85 45 86 51 87 53 88 50 89
REMARK SMILES IDX 46 90 47 91 48 92 49 93
REMARK H PARENT 7 7 85 20 85 21 14 27 73 46 41 57
REMARK Flexibility Score: inf
ROOT
ATOM      1  C   UNL     1       6.798  -0.503  -3.792  1.00  0.00     0.002 C 
ENDROOT
BRANCH   1   2
ATOM      2  C   UNL     1       6.994   1.006  -3.992  1.00  0.00     0.021 C 
BRANCH   2   3
ATOM      3  C   UNL     1       6.900   1.478  -5.443  1.00  0.00     0.116 C 
BRANCH   3   4
ATOM      4  N   UNL     1       5.628   1.170  -6.058  1.00  0.00    -0.355 N 
ATOM      5  C   UNL     1       4.532   1.961  -6.223  1.00  0.00     0.239 C 
ATOM      6  O   UNL     1       3.579   1.502  -6.857  1.00  0.00    -0.273 OA
ATOM      7  H   UNL     1       5.541   0.254  -6.407  1.00  0.00     0.163 HD
BRANCH   5   8
ATOM      8  C   UNL     1       4.520   3.407  -5.725  1.00  0.00     0.219 C 
BRANCH   8   9
ATOM      9  N   UNL     1       4.707   3.674  -4.295  1.00  0.00    -0.333 N 
BRANCH   9  10
ATOM     10  C   UNL     1       5.829   4.567  -3.955  1.00  0.00     0.116 C 
ATOM     11  C   UNL     1       5.453   6.042  -3.903  1.00  0.00     0.027 C 
ENDBRANCH   9  10
BRANCH   9  12
ATOM     12  C   UNL     1       3.774   3.450  -3.290  1.00  0.00     0.232 C 
ATOM     13  O   UNL     1       3.869   4.084  -2.227  1.00  0.00    -0.274 OA
BRANCH  12  14
ATOM     14  C   UNL     1       2.693   2.361  -3.322  1.00  0.00     0.142 C 
ATOM     15  C   UNL     1       3.240   0.941  -3.361  1.00  0.00     0.081 C 
ATOM     16  C   UNL     1       1.457   2.349  -4.226  1.00  0.00     0.192 C 
ATOM     17  C   UNL     1       2.138   0.122  -4.000  1.00  0.00     0.261 C 
ATOM     18  N   UNL     1       1.465   1.045  -4.918  1.00  0.00    -0.343 N 
ATOM     19  C   UNL     1       1.185   3.503  -5.172  1.00  0.00     0.076 C 
ATOM     20  H   UNL     1       0.512   0.733  -5.103  1.00  0.00     0.346 HD
ATOM     21  H   UNL     1       1.940   1.097  -5.819  1.00  0.00     0.346 HD
ENDBRANCH  12  14
ENDBRANCH   9  12
ENDBRANCH   8   9
ENDBRANCH   5   8
ENDBRANCH   3   4
ENDBRANCH   2   3
ENDBRANCH   1   2
BRANCH   1  22
ATOM     22  C   UNL     1       7.710  -1.403  -4.630  1.00  0.00     0.002 C 
BRANCH  22  23
ATOM     23  C   UNL     1       9.201  -1.074  -4.550  1.00  0.00     0.021 C 
BRANCH  23  24
ATOM     24  C   UNL     1       9.787  -1.118  -3.145  1.00  0.00     0.116 C 
BRANCH  24  25
ATOM     25  N   UNL     1       9.821  -2.469  -2.616  1.00  0.00    -0.352 N 
ATOM     26  C   UNL     1      10.887  -3.168  -2.106  1.00  0.00     0.251 C 
ATOM     27  H   UNL     1       8.962  -2.950  -2.624  1.00  0.00     0.163 HD
ATOM     28  O   UNL     1      10.783  -4.375  -1.913  1.00  0.00    -0.269 OA
BRANCH  26  29
ATOM     29  C   UNL     1      12.160  -2.468  -1.813  1.00  0.00     0.039 A 
ATOM     30  C   UNL     1      13.363  -3.088  -2.157  1.00  0.00     0.014 A 
ATOM     31  C   UNL     1      12.172  -1.221  -1.179  1.00  0.00     0.014 A 
ATOM     32  C   UNL     1      14.575  -2.443  -1.897  1.00  0.00     0.010 A 
ATOM     33  C   UNL     1      13.377  -0.548  -0.986  1.00  0.00     0.010 A 
ATOM     34  C   UNL     1      14.593  -1.161  -1.325  1.00  0.00    -0.014 A 
BRANCH  34  35
ATOM     35  C   UNL     1      15.879  -0.474  -1.035  1.00  0.00     0.031 A 
ATOM     36  C   UNL     1      16.278  -0.196   0.390  1.00  0.00     0.074 A 
ATOM     37  C   UNL     1      16.670  -0.076  -2.050  1.00  0.00     0.049 A 
ATOM     38  N   UNL     1      17.347   0.404   0.850  1.00  0.00    -0.248 NA
ATOM     39  C   UNL     1      15.335  -0.623   1.434  1.00  0.00     0.031 C 
ATOM     40  C   UNL     1      16.368  -0.246  -3.473  1.00  0.00     0.029 A 
ATOM     41  N   UNL     1      17.889   0.553  -2.044  1.00  0.00    -0.354 N 
ATOM     42  C   UNL     1      17.199   0.436   2.233  1.00  0.00     0.074 A 
ATOM     43  C   UNL     1      15.905  -0.143   2.528  1.00  0.00     0.031 C 
ATOM     44  C   UNL     1      17.388   0.239  -4.200  1.00  0.00     0.029 A 
ATOM     45  C   UNL     1      18.400   0.784  -3.300  1.00  0.00     0.049 A 
ATOM     46  H   UNL     1      18.355   0.815  -1.217  1.00  0.00     0.167 HD
ATOM     47  C   UNL     1      18.071   0.882   3.173  1.00  0.00     0.034 A 
ATOM     48  C   UNL     1      19.553   1.366  -3.682  1.00  0.00     0.034 A 
ATOM     49  C   UNL     1      19.364   1.442   2.863  1.00  0.00     0.049 A 
ATOM     50  C   UNL     1      20.511   1.848  -2.622  1.00  0.00     0.074 A 
ATOM     51  C   UNL     1      20.347   1.879   3.733  1.00  0.00     0.029 A 
ATOM     52  N   UNL     1      19.854   1.647   1.578  1.00  0.00    -0.354 N 
ATOM     53  N   UNL     1      20.380   1.821  -1.315  1.00  0.00    -0.248 NA
ATOM     54  C   UNL     1      21.780   2.419  -3.089  1.00  0.00     0.031 C 
ATOM     55  C   UNL     1      21.404   2.401   2.977  1.00  0.00     0.029 A 
ATOM     56  C   UNL     1      21.113   2.225   1.634  1.00  0.00     0.049 A 
ATOM     57  H   UNL     1      19.376   1.415   0.749  1.00  0.00     0.167 HD
ATOM     58  C   UNL     1      21.565   2.345  -0.805  1.00  0.00     0.074 A 
ATOM     59  C   UNL     1      22.402   2.660  -1.945  1.00  0.00     0.031 C 
ATOM     60  C   UNL     1      21.931   2.546   0.487  1.00  0.00     0.034 A 
BRANCH  47  61
ATOM     61  C   UNL     1      17.635   0.797   4.617  1.00  0.00     0.023 A 
ATOM     62  C   UNL     1      17.363  -0.437   5.235  1.00  0.00     0.031 A 
ATOM     63  C   UNL     1      17.452   1.965   5.378  1.00  0.00     0.131 A 
ATOM     64  C   UNL     1      16.843  -0.471   6.538  1.00  0.00     0.055 A 
ATOM     65  C   UNL     1      17.016   1.920   6.704  1.00  0.00     0.041 A 
ATOM     66  F   UNL     1      17.677   3.174   4.840  1.00  0.00    -0.206 F 
ATOM     67  C   UNL     1      16.692   0.698   7.287  1.00  0.00     0.022 A 
BRANCH  64  68
ATOM     68  S   UNL     1      16.226  -2.050   7.183  1.00  0.00     0.124 S 
ATOM     69  O   UNL     1      15.192  -2.382   6.205  1.00  0.00    -0.237 OA
ATOM     70  O   UNL     1      17.419  -2.888   7.162  1.00  0.00    -0.237 OA
ATOM     71  O   UNL     1      15.727  -1.705   8.513  1.00  0.00    -0.744 OA
ENDBRANCH  64  68
ENDBRANCH  47  61
BRANCH  48  72
ATOM     72  C   UNL     1      19.877   1.524  -5.128  1.00  0.00     0.023 A 
ATOM     73  C   UNL     1      20.960   0.842  -5.706  1.00  0.00     0.031 A 
ATOM     74  C   UNL     1      19.131   2.390  -5.946  1.00  0.00     0.131 A 
ATOM     75  C   UNL     1      21.297   1.074  -7.049  1.00  0.00     0.055 A 
ATOM     76  C   UNL     1      19.439   2.580  -7.294  1.00  0.00     0.041 A 
ATOM     77  F   UNL     1      18.079   3.059  -5.445  1.00  0.00    -0.206 F 
ATOM     78  C   UNL     1      20.537   1.930  -7.849  1.00  0.00     0.022 A 
BRANCH  75  79
ATOM     79  S   UNL     1      22.796   0.299  -7.715  1.00  0.00     0.124 S 
ATOM     80  O   UNL     1      23.822   0.811  -6.813  1.00  0.00    -0.237 OA
ATOM     81  O   UNL     1      22.482  -1.120  -7.591  1.00  0.00    -0.237 OA
ATOM     82  O   UNL     1      22.859   0.804  -9.085  1.00  0.00    -0.744 OA
ENDBRANCH  75  79
ENDBRANCH  48  72
BRANCH  60  83
ATOM     83  C   UNL     1      23.316   3.095   0.725  1.00  0.00     0.023 A 
ATOM     84  C   UNL     1      23.674   4.395   0.325  1.00  0.00     0.031 A 
ATOM     85  C   UNL     1      24.299   2.296   1.335  1.00  0.00     0.131 A 
ATOM     86  C   UNL     1      24.998   4.832   0.479  1.00  0.00     0.055 A 
ATOM     87  C   UNL     1      25.599   2.759   1.541  1.00  0.00     0.041 A 
ATOM     88  F   UNL     1      24.012   1.046   1.735  1.00  0.00    -0.206 F 
ATOM     89  C   UNL     1      25.959   4.029   1.098  1.00  0.00     0.022 A 
BRANCH  86  90
ATOM     90  S   UNL     1      25.476   6.428  -0.241  1.00  0.00     0.124 S 
ATOM     91  O   UNL     1      25.110   6.250  -1.643  1.00  0.00    -0.237 OA
ATOM     92  O   UNL     1      24.657   7.368   0.517  1.00  0.00    -0.237 OA
ATOM     93  O   UNL     1      26.912   6.506   0.020  1.00  0.00    -0.744 OA
ENDBRANCH  86  90
ENDBRANCH  60  83
ENDBRANCH  34  35
ENDBRANCH  26  29
ENDBRANCH  24  25
ENDBRANCH  23  24
ENDBRANCH  22  23
ENDBRANCH   1  22
TORSDOF 20
