REMARK SMILES NC(=O)c1cc(NC(=O)/C=C\C(=O)NCCCCCCNC(=O)c2ccc(-c3c4nc(c(-c5cc(S(=O)(=O)[O-])ccc5F)c5ccc([nH]5)c(-c5cc(S(=O)(=O)[O-])ccc5F)c5nc(c(-c6cc(S(=O)(=O)[O-])ccc6F)c6ccc3[nH]6)C=C5)C=C4)cc2)ccc1N1CCOCC1
REMARK SMILES IDX 17 1 16 2 15 3 14 4 12 5 13 6 11 8 10 9 8 10 7 11 9 13 6 14
REMARK SMILES IDX 4 15 5 16 89 17 88 18 87 19 2 20 1 21 3 24 90 25 91 26 95 27
REMARK SMILES IDX 92 28 94 29 93 30 18 31 19 32 20 33 21 34 22 35 23 37 24 38
REMARK SMILES IDX 25 39 86 40 26 41 85 42 27 43 28 44 29 45 79 46 30 47 84 48
REMARK SMILES IDX 78 49 80 50 31 51 83 52 77 53 76 54 32 56 64 57 44 58 63 59
REMARK SMILES IDX 45 60 48 61 62 62 81 63 46 64 47 65 61 67 82 68 49 69 33 70
REMARK SMILES IDX 34 71 42 72 35 73 41 74 43 75 40 76 36 77 37 78 38 79 39 80
REMARK SMILES IDX 65 81 66 82 74 83 67 84 73 85 75 86 72 87 68 88 69 89 70 90
REMARK SMILES IDX 71 91 50 92 51 93 59 94 52 95 58 96 60 97 57 98 53 99 54 100
REMARK SMILES IDX 55 101 56 102
REMARK H PARENT 14 7 7 12 1 22 1 23 21 36 80 55 48 66
REMARK Flexibility Score: inf
ROOT
ATOM      1  C   UNL     1       2.213   7.591  -1.444  1.00  0.00     0.002 C 
ENDROOT
BRANCH   1   2
ATOM      2  C   UNL     1       0.839   7.852  -0.823  1.00  0.00     0.021 C 
BRANCH   2   3
ATOM      3  C   UNL     1      -0.334   7.119  -1.466  1.00  0.00     0.116 C 
BRANCH   3   4
ATOM      4  N   UNL     1      -0.132   5.701  -1.674  1.00  0.00    -0.353 N 
ATOM      5  C   UNL     1      -0.762   4.666  -1.069  1.00  0.00     0.244 C 
ATOM      6  O   UNL     1      -0.941   3.615  -1.679  1.00  0.00    -0.270 OA
ATOM      7  H   UNL     1       0.551   5.458  -2.341  1.00  0.00     0.163 HD
BRANCH   5   8
ATOM      8  C   UNL     1      -1.278   4.788   0.305  1.00  0.00     0.077 C 
ATOM      9  C   UNL     1      -0.594   5.037   1.431  1.00  0.00     0.077 C 
BRANCH   9  10
ATOM     10  C   UNL     1       0.815   5.430   1.663  1.00  0.00     0.248 C 
ATOM     11  N   UNL     1       1.865   4.980   0.931  1.00  0.00    -0.322 N 
ATOM     12  H   UNL     1       2.662   5.554   0.989  1.00  0.00     0.170 HD
ATOM     13  O   UNL     1       1.028   6.266   2.546  1.00  0.00    -0.270 OA
BRANCH  11  14
ATOM     14  C   UNL     1       2.039   3.862   0.110  1.00  0.00     0.042 A 
ATOM     15  C   UNL     1       1.504   1.624  -0.665  1.00  0.00     0.064 A 
ATOM     16  C   UNL     1       1.295   2.697   0.226  1.00  0.00     0.042 A 
ATOM     17  C   UNL     1       2.484   1.681  -1.674  1.00  0.00     0.050 A 
ATOM     18  C   UNL     1       3.220   2.878  -1.754  1.00  0.00     0.029 A 
ATOM     19  C   UNL     1       3.039   3.928  -0.856  1.00  0.00     0.028 A 
BRANCH  15  20
ATOM     20  C   UNL     1       0.697   0.426  -0.362  1.00  0.00     0.250 C 
ATOM     21  N   UNL     1       1.072  -0.247   0.768  1.00  0.00    -0.366 N 
ATOM     22  H   UNL     1       0.586  -1.058   1.043  1.00  0.00     0.159 HD
ATOM     23  H   UNL     1       1.829   0.080   1.307  1.00  0.00     0.159 HD
ATOM     24  O   UNL     1      -0.255   0.058  -1.035  1.00  0.00    -0.269 OA
ENDBRANCH  15  20
BRANCH  17  25
ATOM     25  N   UNL     1       2.863   0.668  -2.538  1.00  0.00    -0.366 N 
ATOM     26  C   UNL     1       1.947  -0.310  -3.141  1.00  0.00     0.145 C 
ATOM     27  C   UNL     1       4.253   0.191  -2.446  1.00  0.00     0.145 C 
ATOM     28  C   UNL     1       2.096  -1.694  -2.477  1.00  0.00     0.181 C 
ATOM     29  C   UNL     1       4.258  -1.139  -1.683  1.00  0.00     0.181 C 
ATOM     30  O   UNL     1       3.473  -2.121  -2.380  1.00  0.00    -0.378 OA
ENDBRANCH  17  25
ENDBRANCH  11  14
ENDBRANCH   9  10
ENDBRANCH   5   8
ENDBRANCH   3   4
ENDBRANCH   2   3
ENDBRANCH   1   2
BRANCH   1  31
ATOM     31  C   UNL     1       2.370   7.940  -2.922  1.00  0.00     0.002 C 
BRANCH  31  32
ATOM     32  C   UNL     1       1.970   9.366  -3.285  1.00  0.00     0.021 C 
BRANCH  32  33
ATOM     33  C   UNL     1       2.722  10.439  -2.511  1.00  0.00     0.116 C 
BRANCH  33  34
ATOM     34  N   UNL     1       4.108  10.554  -2.937  1.00  0.00    -0.352 N 
ATOM     35  C   UNL     1       4.794  11.714  -3.212  1.00  0.00     0.251 C 
ATOM     36  H   UNL     1       4.609   9.712  -3.038  1.00  0.00     0.163 HD
ATOM     37  O   UNL     1       5.897  11.687  -3.745  1.00  0.00    -0.269 OA
BRANCH  35  38
ATOM     38  C   UNL     1       4.142  12.995  -2.869  1.00  0.00     0.039 A 
ATOM     39  C   UNL     1       3.914  13.938  -3.871  1.00  0.00     0.014 A 
ATOM     40  C   UNL     1       3.663  13.196  -1.571  1.00  0.00     0.014 A 
ATOM     41  C   UNL     1       3.156  15.073  -3.578  1.00  0.00     0.010 A 
ATOM     42  C   UNL     1       2.848  14.290  -1.303  1.00  0.00     0.010 A 
ATOM     43  C   UNL     1       2.592  15.244  -2.301  1.00  0.00    -0.014 A 
BRANCH  43  44
ATOM     44  C   UNL     1       1.750  16.427  -1.984  1.00  0.00     0.031 A 
ATOM     45  C   UNL     1       2.216  17.415  -0.949  1.00  0.00     0.074 A 
ATOM     46  C   UNL     1       0.554  16.584  -2.586  1.00  0.00     0.049 A 
ATOM     47  N   UNL     1       1.611  18.478  -0.487  1.00  0.00    -0.248 NA
ATOM     48  C   UNL     1       3.524  17.152  -0.330  1.00  0.00     0.031 C 
ATOM     49  C   UNL     1      -0.020  15.671  -3.577  1.00  0.00     0.029 A 
ATOM     50  N   UNL     1      -0.397  17.565  -2.453  1.00  0.00    -0.354 N 
ATOM     51  C   UNL     1       2.459  19.005   0.481  1.00  0.00     0.074 A 
ATOM     52  C   UNL     1       3.585  18.104   0.588  1.00  0.00     0.031 C 
ATOM     53  C   UNL     1      -1.208  16.150  -3.981  1.00  0.00     0.029 A 
ATOM     54  C   UNL     1      -1.505  17.377  -3.247  1.00  0.00     0.049 A 
ATOM     55  H   UNL     1      -0.296  18.333  -1.844  1.00  0.00     0.167 HD
ATOM     56  C   UNL     1       2.323  20.150   1.195  1.00  0.00     0.034 A 
ATOM     57  C   UNL     1      -2.635  18.104  -3.363  1.00  0.00     0.034 A 
ATOM     58  C   UNL     1       1.196  21.041   1.067  1.00  0.00     0.049 A 
ATOM     59  C   UNL     1      -2.778  19.358  -2.535  1.00  0.00     0.074 A 
ATOM     60  C   UNL     1       0.978  22.250   1.703  1.00  0.00     0.029 A 
ATOM     61  N   UNL     1       0.091  20.815   0.255  1.00  0.00    -0.354 N 
ATOM     62  N   UNL     1      -1.941  19.872  -1.662  1.00  0.00    -0.248 NA
ATOM     63  C   UNL     1      -4.009  20.137  -2.716  1.00  0.00     0.031 C 
ATOM     64  C   UNL     1      -0.287  22.717   1.335  1.00  0.00     0.029 A 
ATOM     65  C   UNL     1      -0.824  21.846   0.400  1.00  0.00     0.049 A 
ATOM     66  H   UNL     1      -0.025  20.037  -0.337  1.00  0.00     0.167 HD
ATOM     67  C   UNL     1      -2.531  21.054  -1.221  1.00  0.00     0.074 A 
ATOM     68  C   UNL     1      -3.786  21.181  -1.933  1.00  0.00     0.031 C 
ATOM     69  C   UNL     1      -2.075  21.957  -0.315  1.00  0.00     0.034 A 
BRANCH  56  70
ATOM     70  C   UNL     1       3.409  20.482   2.192  1.00  0.00     0.023 A 
ATOM     71  C   UNL     1       4.737  20.709   1.790  1.00  0.00     0.031 A 
ATOM     72  C   UNL     1       3.118  20.551   3.565  1.00  0.00     0.131 A 
ATOM     73  C   UNL     1       5.736  20.916   2.753  1.00  0.00     0.055 A 
ATOM     74  C   UNL     1       4.101  20.844   4.513  1.00  0.00     0.041 A 
ATOM     75  F   UNL     1       1.873  20.321   4.013  1.00  0.00    -0.206 F 
ATOM     76  C   UNL     1       5.422  21.013   4.111  1.00  0.00     0.022 A 
BRANCH  73  77
ATOM     77  S   UNL     1       7.469  20.909   2.219  1.00  0.00     0.124 S 
ATOM     78  O   UNL     1       7.586  19.582   1.618  1.00  0.00    -0.237 OA
ATOM     79  O   UNL     1       7.520  22.036   1.296  1.00  0.00    -0.237 OA
ATOM     80  O   UNL     1       8.212  21.087   3.465  1.00  0.00    -0.744 OA
ENDBRANCH  73  77
ENDBRANCH  56  70
BRANCH  57  81
ATOM     81  C   UNL     1      -3.726  17.673  -4.286  1.00  0.00     0.023 A 
ATOM     82  C   UNL     1      -4.112  18.469  -5.376  1.00  0.00     0.031 A 
ATOM     83  C   UNL     1      -4.436  16.480  -4.060  1.00  0.00     0.131 A 
ATOM     84  C   UNL     1      -5.209  18.092  -6.166  1.00  0.00     0.055 A 
ATOM     85  C   UNL     1      -5.489  16.079  -4.885  1.00  0.00     0.041 A 
ATOM     86  F   UNL     1      -4.110  15.678  -3.033  1.00  0.00    -0.206 F 
ATOM     87  C   UNL     1      -5.891  16.895  -5.937  1.00  0.00     0.022 A 
BRANCH  84  88
ATOM     88  S   UNL     1      -5.799  19.242  -7.440  1.00  0.00     0.124 S 
ATOM     89  O   UNL     1      -6.077  20.438  -6.652  1.00  0.00    -0.237 OA
ATOM     90  O   UNL     1      -4.650  19.315  -8.336  1.00  0.00    -0.237 OA
ATOM     91  O   UNL     1      -6.974  18.568  -7.988  1.00  0.00    -0.744 OA
ENDBRANCH  84  88
ENDBRANCH  57  81
BRANCH  69  92
ATOM     92  C   UNL     1      -2.914  23.192  -0.087  1.00  0.00     0.023 A 
ATOM     93  C   UNL     1      -4.190  23.128   0.498  1.00  0.00     0.031 A 
ATOM     94  C   UNL     1      -2.422  24.455  -0.465  1.00  0.00     0.131 A 
ATOM     95  C   UNL     1      -4.953  24.297   0.638  1.00  0.00     0.055 A 
ATOM     96  C   UNL     1      -3.159  25.622  -0.261  1.00  0.00     0.041 A 
ATOM     97  F   UNL     1      -1.210  24.575  -1.031  1.00  0.00    -0.206 F 
ATOM     98  C   UNL     1      -4.438  25.545   0.281  1.00  0.00     0.022 A 
BRANCH  95  99
ATOM     99  S   UNL     1      -6.669  24.154   1.209  1.00  0.00     0.124 S 
ATOM    100  O   UNL     1      -7.249  23.267   0.205  1.00  0.00    -0.237 OA
ATOM    101  O   UNL     1      -6.508  23.586   2.544  1.00  0.00    -0.237 OA
ATOM    102  O   UNL     1      -7.157  25.531   1.177  1.00  0.00    -0.744 OA
ENDBRANCH  95  99
ENDBRANCH  69  92
ENDBRANCH  43  44
ENDBRANCH  35  38
ENDBRANCH  33  34
ENDBRANCH  32  33
ENDBRANCH  31  32
ENDBRANCH   1  31
TORSDOF 20
