REMARK SMILES CC[C@@](C)([NH2+]CC(=O)N[C@]1(C)CCS(=O)(=O)C1)C(=O)NCCCCCCNC(=O)c1ccc(-c2c3nc(c(-c4cc(S(=O)(=O)[O-])ccc4F)c4ccc([nH]4)c(-c4cc(S(=O)(=O)[O-])ccc4F)c4nc(c(-c5cc(S(=O)(=O)[O-])ccc5F)c5ccc2[nH]5)C=C4)C=C3)cc1
REMARK SMILES IDX 23 1 22 2 21 3 20 4 18 5 19 6 3 8 4 9 2 10 1 11 5 12 6 15
REMARK SMILES IDX 7 16 8 17 9 18 10 20 12 21 17 22 11 23 13 24 14 25 15 26
REMARK SMILES IDX 16 27 24 28 25 29 26 30 27 31 28 32 29 34 30 35 31 36 92 37
REMARK SMILES IDX 32 38 91 39 33 40 34 41 35 42 85 43 36 44 90 45 84 46 86 47
REMARK SMILES IDX 37 48 89 49 83 50 82 51 38 53 70 54 50 55 69 56 51 57 54 58
REMARK SMILES IDX 68 59 87 60 52 61 53 62 67 64 88 65 55 66 39 67 40 68 48 69
REMARK SMILES IDX 41 70 47 71 49 72 46 73 42 74 43 75 44 76 45 77 71 78 72 79
REMARK SMILES IDX 80 80 73 81 79 82 81 83 78 84 74 85 75 86 76 87 77 88 56 89
REMARK SMILES IDX 57 90 65 91 58 92 64 93 66 94 63 95 59 96 60 97 61 98 62 99
REMARK H PARENT 20 7 5 13 5 14 9 19 27 33 86 52 54 63
REMARK Flexibility Score: inf
ROOT
ATOM      1  C   UNL     1       2.351  -4.338  -4.711  1.00  0.00     0.002 C 
ENDROOT
BRANCH   1   2
ATOM      2  C   UNL     1       2.601  -3.724  -3.336  1.00  0.00     0.021 C 
BRANCH   2   3
ATOM      3  C   UNL     1       2.470  -2.222  -3.227  1.00  0.00     0.116 C 
BRANCH   3   4
ATOM      4  N   UNL     1       1.174  -1.405  -2.930  1.00  0.00    -0.351 N 
ATOM      5  C   UNL     1       0.821  -0.005  -2.351  1.00  0.00     0.281 C 
ATOM      6  O   UNL     1      -0.347  -0.020  -2.848  1.00  0.00    -0.268 OA
ATOM      7  H   UNL     1       0.364  -1.910  -3.175  1.00  0.00     0.163 HD
BRANCH   5   8
ATOM      8  C   UNL     1       1.817   1.445  -1.046  1.00  0.00     0.172 C 
ATOM      9  C   UNL     1       1.966   3.267  -1.181  1.00  0.00     0.090 C 
BRANCH   8  10
ATOM     10  C   UNL     1       1.385   1.810   0.691  1.00  0.00     0.075 C 
ATOM     11  C   UNL     1       0.139   2.709   1.073  1.00  0.00     0.011 C 
ENDBRANCH   8  10
BRANCH   8  12
ATOM     12  N   UNL     1       3.361   1.314  -0.804  1.00  0.00    -0.326 N 
ATOM     13  H   UNL     1       3.541   0.310  -0.825  1.00  0.00     0.347 HD
ATOM     14  H   UNL     1       3.434   1.902   0.026  1.00  0.00     0.347 HD
BRANCH  12  15
ATOM     15  C   UNL     1       4.461   1.905  -1.588  1.00  0.00     0.362 C 
BRANCH  15  16
ATOM     16  C   UNL     1       4.092   2.530  -2.969  1.00  0.00     0.275 C 
ATOM     17  O   UNL     1       4.977   2.961  -3.710  1.00  0.00    -0.268 OA
ATOM     18  N   UNL     1       2.775   2.658  -3.389  1.00  0.00    -0.345 N 
ATOM     19  H   UNL     1       2.556   3.462  -3.914  1.00  0.00     0.164 HD
BRANCH  18  20
ATOM     20  C   UNL     1       1.639   1.693  -3.123  1.00  0.00     0.052 C 
ATOM     21  C   UNL     1       0.038   1.848  -1.899  1.00  0.00     0.045 C 
ATOM     22  C   UNL     1       2.755   0.168  -2.605  1.00  0.00     0.165 C 
ATOM     23  C   UNL     1       0.948   1.717  -4.534  1.00  0.00     0.036 C 
ATOM     24  C   UNL     1      -0.072   0.344  -0.574  1.00  0.00     0.139 C 
ATOM     25  S   UNL     1       1.889  -0.839  -0.639  1.00  0.00     0.152 S 
ATOM     26  O   UNL     1       1.509  -2.244  -0.708  1.00  0.00    -0.229 OA
ATOM     27  O   UNL     1       2.720  -0.591   0.532  1.00  0.00    -0.229 OA
ENDBRANCH  18  20
ENDBRANCH  15  16
ENDBRANCH  12  15
ENDBRANCH   8  12
ENDBRANCH   5   8
ENDBRANCH   3   4
ENDBRANCH   2   3
ENDBRANCH   1   2
BRANCH   1  28
ATOM     28  C   UNL     1       2.606  -3.484  -5.969  1.00  0.00     0.002 C 
BRANCH  28  29
ATOM     29  C   UNL     1       3.995  -2.858  -6.205  1.00  0.00     0.021 C 
BRANCH  29  30
ATOM     30  C   UNL     1       5.190  -3.785  -6.047  1.00  0.00     0.116 C 
BRANCH  30  31
ATOM     31  N   UNL     1       4.984  -5.039  -6.746  1.00  0.00    -0.352 N 
ATOM     32  C   UNL     1       5.701  -5.598  -7.768  1.00  0.00     0.251 C 
ATOM     33  H   UNL     1       4.212  -5.567  -6.439  1.00  0.00     0.163 HD
ATOM     34  O   UNL     1       5.210  -6.505  -8.431  1.00  0.00    -0.269 OA
BRANCH  32  35
ATOM     35  C   UNL     1       7.055  -5.095  -8.062  1.00  0.00     0.039 A 
ATOM     36  C   UNL     1       7.435  -4.921  -9.393  1.00  0.00     0.014 A 
ATOM     37  C   UNL     1       7.946  -4.809  -7.022  1.00  0.00     0.014 A 
ATOM     38  C   UNL     1       8.701  -4.415  -9.681  1.00  0.00     0.010 A 
ATOM     39  C   UNL     1       9.172  -4.226  -7.309  1.00  0.00     0.010 A 
ATOM     40  C   UNL     1       9.565  -4.034  -8.641  1.00  0.00    -0.014 A 
BRANCH  40  41
ATOM     41  C   UNL     1      10.889  -3.438  -8.934  1.00  0.00     0.031 A 
ATOM     42  C   UNL     1      12.141  -4.150  -8.513  1.00  0.00     0.074 A 
ATOM     43  C   UNL     1      10.949  -2.235  -9.537  1.00  0.00     0.049 A 
ATOM     44  N   UNL     1      13.386  -3.768  -8.627  1.00  0.00    -0.248 NA
ATOM     45  C   UNL     1      11.969  -5.451  -7.847  1.00  0.00     0.031 C 
ATOM     46  C   UNL     1       9.788  -1.442  -9.950  1.00  0.00     0.029 A 
ATOM     47  N   UNL     1      12.023  -1.465  -9.901  1.00  0.00    -0.354 N 
ATOM     48  C   UNL     1      14.145  -4.777  -8.043  1.00  0.00     0.074 A 
ATOM     49  C   UNL     1      13.214  -5.749  -7.512  1.00  0.00     0.031 C 
ATOM     50  C   UNL     1      10.214  -0.313 -10.537  1.00  0.00     0.029 A 
ATOM     51  C   UNL     1      11.671  -0.271 -10.487  1.00  0.00     0.049 A 
ATOM     52  H   UNL     1      12.957  -1.741  -9.758  1.00  0.00     0.167 HD
ATOM     53  C   UNL     1      15.494  -4.889  -7.981  1.00  0.00     0.034 A 
ATOM     54  C   UNL     1      12.438   0.752 -10.912  1.00  0.00     0.034 A 
ATOM     55  C   UNL     1      16.397  -3.899  -8.514  1.00  0.00     0.049 A 
ATOM     56  C   UNL     1      13.934   0.630 -10.785  1.00  0.00     0.074 A 
ATOM     57  C   UNL     1      17.780  -3.926  -8.552  1.00  0.00     0.029 A 
ATOM     58  N   UNL     1      16.008  -2.693  -9.086  1.00  0.00    -0.354 N 
ATOM     59  N   UNL     1      14.642  -0.358 -10.286  1.00  0.00    -0.248 NA
ATOM     60  C   UNL     1      14.735   1.752 -11.286  1.00  0.00     0.031 C 
ATOM     61  C   UNL     1      18.227  -2.702  -9.059  1.00  0.00     0.029 A 
ATOM     62  C   UNL     1      17.125  -1.949  -9.435  1.00  0.00     0.049 A 
ATOM     63  H   UNL     1      15.076  -2.408  -9.223  1.00  0.00     0.167 HD
ATOM     64  C   UNL     1      15.975   0.015 -10.437  1.00  0.00     0.074 A 
ATOM     65  C   UNL     1      15.968   1.308 -11.092  1.00  0.00     0.031 C 
ATOM     66  C   UNL     1      17.101  -0.652 -10.073  1.00  0.00     0.034 A 
BRANCH  53  67
ATOM     67  C   UNL     1      16.060  -6.104  -7.282  1.00  0.00     0.023 A 
ATOM     68  C   UNL     1      15.790  -7.409  -7.732  1.00  0.00     0.031 A 
ATOM     69  C   UNL     1      16.848  -5.960  -6.127  1.00  0.00     0.131 A 
ATOM     70  C   UNL     1      16.225  -8.513  -6.984  1.00  0.00     0.055 A 
ATOM     71  C   UNL     1      17.360  -7.063  -5.441  1.00  0.00     0.041 A 
ATOM     72  F   UNL     1      17.120  -4.742  -5.632  1.00  0.00    -0.206 F 
ATOM     73  C   UNL     1      17.033  -8.350  -5.857  1.00  0.00     0.022 A 
BRANCH  70  74
ATOM     74  S   UNL     1      15.571 -10.153  -7.403  1.00  0.00     0.124 S 
ATOM     75  O   UNL     1      14.130  -9.932  -7.295  1.00  0.00    -0.237 OA
ATOM     76  O   UNL     1      16.086 -10.362  -8.751  1.00  0.00    -0.237 OA
ATOM     77  O   UNL     1      16.139 -11.022  -6.374  1.00  0.00    -0.744 OA
ENDBRANCH  70  74
ENDBRANCH  53  67
BRANCH  54  78
ATOM     78  C   UNL     1      11.805   1.985 -11.463  1.00  0.00     0.023 A 
ATOM     79  C   UNL     1      12.023   2.388 -12.789  1.00  0.00     0.031 A 
ATOM     80  C   UNL     1      10.990   2.798 -10.654  1.00  0.00     0.131 A 
ATOM     81  C   UNL     1      11.472   3.593 -13.253  1.00  0.00     0.055 A 
ATOM     82  C   UNL     1      10.392   3.962 -11.139  1.00  0.00     0.041 A 
ATOM     83  F   UNL     1      10.747   2.460  -9.377  1.00  0.00    -0.206 F 
ATOM     84  C   UNL     1      10.643   4.372 -12.443  1.00  0.00     0.022 A 
BRANCH  81  85
ATOM     85  S   UNL     1      11.935   4.181 -14.906  1.00  0.00     0.124 S 
ATOM     86  O   UNL     1      13.388   4.256 -14.797  1.00  0.00    -0.237 OA
ATOM     87  O   UNL     1      11.409   3.123 -15.762  1.00  0.00    -0.237 OA
ATOM     88  O   UNL     1      11.249   5.467 -15.014  1.00  0.00    -0.744 OA
ENDBRANCH  81  85
ENDBRANCH  54  78
BRANCH  66  89
ATOM     89  C   UNL     1      18.422  -0.007 -10.416  1.00  0.00     0.023 A 
ATOM     90  C   UNL     1      18.831   1.205  -9.834  1.00  0.00     0.031 A 
ATOM     91  C   UNL     1      19.288  -0.622 -11.339  1.00  0.00     0.131 A 
ATOM     92  C   UNL     1      20.043   1.793 -10.224  1.00  0.00     0.055 A 
ATOM     93  C   UNL     1      20.527  -0.070 -11.666  1.00  0.00     0.041 A 
ATOM     94  F   UNL     1      18.948  -1.777 -11.932  1.00  0.00    -0.206 F 
ATOM     95  C   UNL     1      20.905   1.151 -11.117  1.00  0.00     0.022 A 
BRANCH  92  96
ATOM     96  S   UNL     1      20.433   3.461  -9.627  1.00  0.00     0.124 S 
ATOM     97  O   UNL     1      19.296   4.231 -10.118  1.00  0.00    -0.237 OA
ATOM     98  O   UNL     1      20.498   3.269  -8.182  1.00  0.00    -0.237 OA
ATOM     99  O   UNL     1      21.711   3.764 -10.269  1.00  0.00    -0.744 OA
ENDBRANCH  92  96
ENDBRANCH  66  89
ENDBRANCH  40  41
ENDBRANCH  32  35
ENDBRANCH  30  31
ENDBRANCH  29  30
ENDBRANCH  28  29
ENDBRANCH   1  28
TORSDOF 21
