REMARK SMILES CCn1cc(C(=O)NCCCCCCNC(=O)c2ccc(-c3c4nc(c(-c5cc(S(=O)(=O)[O-])ccc5F)c5ccc([nH]5)c(-c5cc(S(=O)(=O)[O-])ccc5F)c5nc(c(-c6cc(S(=O)(=O)[O-])ccc6F)c6ccc3[nH]6)C=C5)C=C4)cc2)c(=O)c2cc(F)c(NC3CCCCC3)cc21
REMARK SMILES IDX 12 1 11 2 10 3 9 4 8 5 6 6 7 7 5 9 3 10 4 11 96 12 83 13
REMARK SMILES IDX 95 14 81 15 84 16 87 17 82 18 85 19 86 20 2 21 1 22 88 23
REMARK SMILES IDX 89 25 90 26 94 27 91 28 93 29 92 30 13 31 14 32 15 33 16 34
REMARK SMILES IDX 17 36 18 37 19 38 80 39 20 40 79 41 21 42 22 43 23 44 73 45
REMARK SMILES IDX 24 46 78 47 72 48 74 49 25 50 77 51 71 52 70 53 26 55 58 56
REMARK SMILES IDX 38 57 57 58 39 59 42 60 56 61 75 62 40 63 41 64 55 66 76 67
REMARK SMILES IDX 43 68 27 69 28 70 36 71 29 72 35 73 37 74 34 75 30 76 31 77
REMARK SMILES IDX 32 78 33 79 59 80 60 81 68 82 61 83 67 84 69 85 66 86 62 87
REMARK SMILES IDX 63 88 64 89 65 90 44 91 45 92 53 93 46 94 52 95 54 96 51 97
REMARK SMILES IDX 47 98 48 99 49 100 50 101
REMARK H PARENT 8 8 88 24 15 35 74 54 42 65
REMARK Flexibility Score: inf
ROOT
ATOM      1  C   UNL     1      -1.616   7.662   3.562  1.00  0.00     0.002 C 
ENDROOT
BRANCH   1   2
ATOM      2  C   UNL     1      -0.186   7.387   3.082  1.00  0.00     0.002 C 
BRANCH   2   3
ATOM      3  C   UNL     1      -0.005   6.063   2.329  1.00  0.00     0.021 C 
BRANCH   3   4
ATOM      4  C   UNL     1      -0.754   6.018   0.992  1.00  0.00     0.116 C 
BRANCH   4   5
ATOM      5  N   UNL     1       0.003   6.734  -0.025  1.00  0.00    -0.352 N 
ATOM      6  C   UNL     1       0.878   6.330  -0.994  1.00  0.00     0.256 C 
ATOM      7  O   UNL     1       1.454   7.213  -1.629  1.00  0.00    -0.269 OA
ATOM      8  H   UNL     1      -0.147   7.707  -0.012  1.00  0.00     0.163 HD
BRANCH   6   9
ATOM      9  C   UNL     1       1.100   4.891  -1.306  1.00  0.00     0.104 A 
ATOM     10  N   UNL     1       1.111   2.548  -0.569  1.00  0.00    -0.347 N 
ATOM     11  C   UNL     1       1.086   3.929  -0.375  1.00  0.00     0.104 A 
ATOM     12  C   UNL     1       1.594   2.097  -1.813  1.00  0.00     0.054 A 
ATOM     13  C   UNL     1       1.812   3.015  -2.859  1.00  0.00     0.050 A 
ATOM     14  C   UNL     1       2.015   0.783  -2.050  1.00  0.00     0.055 A 
ATOM     15  C   UNL     1       1.382   4.426  -2.691  1.00  0.00     0.202 A 
ATOM     16  C   UNL     1       2.430   2.636  -4.057  1.00  0.00     0.055 A 
ATOM     17  C   UNL     1       2.671   0.360  -3.216  1.00  0.00     0.073 A 
ATOM     18  O   UNL     1       1.273   5.146  -3.677  1.00  0.00    -0.288 OA
ATOM     19  C   UNL     1       2.865   1.326  -4.211  1.00  0.00     0.147 A 
ATOM     20  F   UNL     1       3.499   0.986  -5.346  1.00  0.00    -0.205 F 
BRANCH  10  21
ATOM     21  C   UNL     1       0.209   1.760   0.326  1.00  0.00     0.119 C 
ATOM     22  C   UNL     1       0.510   0.310   0.621  1.00  0.00     0.027 C 
ENDBRANCH  10  21
BRANCH  17  23
ATOM     23  N   UNL     1       3.156  -0.928  -3.391  1.00  0.00    -0.380 N 
ATOM     24  H   UNL     1       3.707  -1.070  -4.195  1.00  0.00     0.160 HD
BRANCH  23  25
ATOM     25  C   UNL     1       2.960  -2.107  -2.542  1.00  0.00     0.079 C 
ATOM     26  C   UNL     1       3.647  -1.970  -1.171  1.00  0.00     0.025 C 
ATOM     27  C   UNL     1       1.479  -2.515  -2.506  1.00  0.00     0.025 C 
ATOM     28  C   UNL     1       3.238  -3.045  -0.165  1.00  0.00     0.002 C 
ATOM     29  C   UNL     1       1.202  -3.634  -1.511  1.00  0.00     0.002 C 
ATOM     30  C   UNL     1       1.734  -3.286  -0.129  1.00  0.00     0.000 C 
ENDBRANCH  23  25
ENDBRANCH  17  23
ENDBRANCH   6   9
ENDBRANCH   4   5
ENDBRANCH   3   4
ENDBRANCH   2   3
ENDBRANCH   1   2
BRANCH   1  31
ATOM     31  C   UNL     1      -2.214   6.585   4.470  1.00  0.00     0.021 C 
BRANCH  31  32
ATOM     32  C   UNL     1      -1.470   6.382   5.785  1.00  0.00     0.116 C 
BRANCH  32  33
ATOM     33  N   UNL     1      -1.567   7.542   6.658  1.00  0.00    -0.352 N 
ATOM     34  C   UNL     1      -1.898   7.594   7.995  1.00  0.00     0.251 C 
ATOM     35  H   UNL     1      -1.370   8.409   6.236  1.00  0.00     0.163 HD
ATOM     36  O   UNL     1      -2.111   8.670   8.535  1.00  0.00    -0.269 OA
BRANCH  34  37
ATOM     37  C   UNL     1      -2.026   6.329   8.754  1.00  0.00     0.039 A 
ATOM     38  C   UNL     1      -1.066   5.326   8.617  1.00  0.00     0.014 A 
ATOM     39  C   UNL     1      -3.137   6.133   9.579  1.00  0.00     0.014 A 
ATOM     40  C   UNL     1      -1.304   4.069   9.161  1.00  0.00     0.010 A 
ATOM     41  C   UNL     1      -3.328   4.893  10.199  1.00  0.00     0.010 A 
ATOM     42  C   UNL     1      -2.442   3.833   9.951  1.00  0.00    -0.014 A 
BRANCH  42  43
ATOM     43  C   UNL     1      -2.670   2.469  10.498  1.00  0.00     0.031 A 
ATOM     44  C   UNL     1      -3.853   1.647  10.062  1.00  0.00     0.074 A 
ATOM     45  C   UNL     1      -1.756   1.943  11.337  1.00  0.00     0.049 A 
ATOM     46  N   UNL     1      -4.146   0.407  10.362  1.00  0.00    -0.248 NA
ATOM     47  C   UNL     1      -4.838   2.293   9.180  1.00  0.00     0.031 C 
ATOM     48  C   UNL     1      -0.576   2.653  11.830  1.00  0.00     0.029 A 
ATOM     49  N   UNL     1      -1.647   0.692  11.893  1.00  0.00    -0.354 N 
ATOM     50  C   UNL     1      -5.348   0.130   9.720  1.00  0.00     0.074 A 
ATOM     51  C   UNL     1      -5.752   1.342   9.044  1.00  0.00     0.031 C 
ATOM     52  C   UNL     1       0.172   1.811  12.555  1.00  0.00     0.029 A 
ATOM     53  C   UNL     1      -0.504   0.519  12.639  1.00  0.00     0.049 A 
ATOM     54  H   UNL     1      -2.323  -0.013  11.769  1.00  0.00     0.167 HD
ATOM     55  C   UNL     1      -6.040  -1.035   9.685  1.00  0.00     0.034 A 
ATOM     56  C   UNL     1      -0.046  -0.555  13.315  1.00  0.00     0.034 A 
ATOM     57  C   UNL     1      -5.615  -2.240  10.352  1.00  0.00     0.049 A 
ATOM     58  C   UNL     1      -0.837  -1.835  13.265  1.00  0.00     0.074 A 
ATOM     59  C   UNL     1      -6.238  -3.476  10.359  1.00  0.00     0.029 A 
ATOM     60  N   UNL     1      -4.466  -2.368  11.120  1.00  0.00    -0.354 N 
ATOM     61  N   UNL     1      -1.945  -2.093  12.610  1.00  0.00    -0.248 NA
ATOM     62  C   UNL     1      -0.321  -2.974  14.037  1.00  0.00     0.031 C 
ATOM     63  C   UNL     1      -5.500  -4.332  11.177  1.00  0.00     0.029 A 
ATOM     64  C   UNL     1      -4.374  -3.657  11.620  1.00  0.00     0.049 A 
ATOM     65  H   UNL     1      -3.813  -1.650  11.285  1.00  0.00     0.167 HD
ATOM     66  C   UNL     1      -2.244  -3.426  12.871  1.00  0.00     0.074 A 
ATOM     67  C   UNL     1      -1.187  -3.929  13.723  1.00  0.00     0.031 C 
ATOM     68  C   UNL     1      -3.304  -4.161  12.448  1.00  0.00     0.034 A 
BRANCH  55  69
ATOM     69  C   UNL     1      -7.324  -1.093   8.893  1.00  0.00     0.023 A 
ATOM     70  C   UNL     1      -8.542  -1.364   9.546  1.00  0.00     0.031 A 
ATOM     71  C   UNL     1      -7.325  -1.019   7.489  1.00  0.00     0.131 A 
ATOM     72  C   UNL     1      -9.702  -1.588   8.792  1.00  0.00     0.055 A 
ATOM     73  C   UNL     1      -8.492  -1.201   6.745  1.00  0.00     0.041 A 
ATOM     74  F   UNL     1      -6.189  -0.763   6.819  1.00  0.00    -0.206 F 
ATOM     75  C   UNL     1      -9.685  -1.500   7.397  1.00  0.00     0.022 A 
BRANCH  72  76
ATOM     76  S   UNL     1     -11.260  -2.068   9.586  1.00  0.00     0.124 S 
ATOM     77  O   UNL     1     -12.153  -0.990   9.168  1.00  0.00    -0.237 OA
ATOM     78  O   UNL     1     -11.525  -3.368   8.976  1.00  0.00    -0.237 OA
ATOM     79  O   UNL     1     -10.937  -2.092  11.008  1.00  0.00    -0.744 OA
ENDBRANCH  72  76
ENDBRANCH  55  69
BRANCH  56  80
ATOM     80  C   UNL     1       1.259  -0.455  14.034  1.00  0.00     0.023 A 
ATOM     81  C   UNL     1       1.445   0.486  15.064  1.00  0.00     0.031 A 
ATOM     82  C   UNL     1       2.370  -1.209  13.621  1.00  0.00     0.131 A 
ATOM     83  C   UNL     1       2.726   0.706  15.585  1.00  0.00     0.055 A 
ATOM     84  C   UNL     1       3.630  -1.043  14.200  1.00  0.00     0.041 A 
ATOM     85  F   UNL     1       2.248  -2.109  12.633  1.00  0.00    -0.206 F 
ATOM     86  C   UNL     1       3.817  -0.066  15.173  1.00  0.00     0.022 A 
BRANCH  83  87
ATOM     87  S   UNL     1       3.047   2.103  16.697  1.00  0.00     0.124 S 
ATOM     88  O   UNL     1       3.507   1.429  17.907  1.00  0.00    -0.237 OA
ATOM     89  O   UNL     1       4.067   2.844  15.959  1.00  0.00    -0.237 OA
ATOM     90  O   UNL     1       1.751   2.767  16.797  1.00  0.00    -0.744 OA
ENDBRANCH  83  87
ENDBRANCH  56  80
BRANCH  68  91
ATOM     91  C   UNL     1      -3.397  -5.608  12.868  1.00  0.00     0.023 A 
ATOM     92  C   UNL     1      -3.381  -6.622  11.890  1.00  0.00     0.031 A 
ATOM     93  C   UNL     1      -3.668  -5.971  14.198  1.00  0.00     0.131 A 
ATOM     94  C   UNL     1      -3.676  -7.942  12.249  1.00  0.00     0.055 A 
ATOM     95  C   UNL     1      -3.914  -7.297  14.559  1.00  0.00     0.041 A 
ATOM     96  F   UNL     1      -3.707  -5.040  15.164  1.00  0.00    -0.206 F 
ATOM     97  C   UNL     1      -3.935  -8.286  13.580  1.00  0.00     0.022 A 
BRANCH  94  98
ATOM     98  S   UNL     1      -3.833  -9.240  10.991  1.00  0.00     0.124 S 
ATOM     99  O   UNL     1      -2.783 -10.175  11.390  1.00  0.00    -0.237 OA
ATOM    100  O   UNL     1      -5.199  -9.710  11.202  1.00  0.00    -0.237 OA
ATOM    101  O   UNL     1      -3.597  -8.542   9.732  1.00  0.00    -0.744 OA
ENDBRANCH  94  98
ENDBRANCH  68  91
ENDBRANCH  42  43
ENDBRANCH  34  37
ENDBRANCH  32  33
ENDBRANCH  31  32
ENDBRANCH   1  31
TORSDOF 19
