REMARK SMILES O=C(NCCCCCCNC(=O)c1cc(F)ccc1N1CCCc2ccccc21)c1ccc(-c2c3nc(c(-c4cc(S(=O)(=O)[O-])ccc4F)c4ccc([nH]4)c(-c4cc(S(=O)(=O)[O-])ccc4F)c4nc(c(-c5cc(S(=O)(=O)[O-])ccc5F)c5ccc2[nH]5)C=C4)C=C3)cc1
REMARK SMILES IDX 5 1 4 2 3 3 1 4 2 5 30 7 31 8 92 9 32 10 91 11 33 12 34 13
REMARK SMILES IDX 35 14 85 15 36 16 90 17 84 18 86 19 37 20 89 21 83 22 82 23
REMARK SMILES IDX 38 25 70 26 50 27 69 28 51 29 54 30 68 31 87 32 52 33 53 34
REMARK SMILES IDX 67 36 88 37 55 38 39 39 40 40 48 41 41 42 47 43 49 44 46 45
REMARK SMILES IDX 42 46 43 47 44 48 45 49 71 50 72 51 80 52 73 53 79 54 81 55
REMARK SMILES IDX 78 56 74 57 75 58 76 59 77 60 56 61 57 62 65 63 58 64 64 65
REMARK SMILES IDX 66 66 63 67 59 68 60 69 61 70 62 71 6 72 7 73 8 74 9 75
REMARK SMILES IDX 10 76 11 77 12 79 13 80 14 81 19 82 15 83 18 84 16 85 17 86
REMARK SMILES IDX 20 87 21 88 29 89 22 90 24 91 28 92 23 93 25 94 27 95 26 96
REMARK H PARENT 3 6 86 24 54 35 10 78
REMARK Flexibility Score: inf
ROOT
ATOM      1  C   UNL     1       4.644   0.263   2.543  1.00  0.00     0.021 C 
ENDROOT
BRANCH   1   2
ATOM      2  C   UNL     1       4.388  -0.362   1.176  1.00  0.00     0.116 C 
BRANCH   2   3
ATOM      3  N   UNL     1       2.971  -0.531   0.903  1.00  0.00    -0.352 N 
ATOM      4  O   UNL     1       1.001  -0.148  -0.119  1.00  0.00    -0.269 OA
ATOM      5  C   UNL     1       2.228  -0.053  -0.147  1.00  0.00     0.251 C 
ATOM      6  H   UNL     1       2.474  -1.064   1.565  1.00  0.00     0.163 HD
BRANCH   5   7
ATOM      7  C   UNL     1       2.896   0.585  -1.302  1.00  0.00     0.039 A 
ATOM      8  C   UNL     1       4.014  -0.004  -1.900  1.00  0.00     0.014 A 
ATOM      9  C   UNL     1       2.371   1.774  -1.816  1.00  0.00     0.014 A 
ATOM     10  C   UNL     1       4.663   0.645  -2.949  1.00  0.00     0.010 A 
ATOM     11  C   UNL     1       2.987   2.392  -2.909  1.00  0.00     0.010 A 
ATOM     12  C   UNL     1       4.145   1.837  -3.477  1.00  0.00    -0.014 A 
BRANCH  12  13
ATOM     13  C   UNL     1       4.773   2.460  -4.670  1.00  0.00     0.031 A 
ATOM     14  C   UNL     1       5.457   3.795  -4.574  1.00  0.00     0.074 A 
ATOM     15  C   UNL     1       4.730   1.803  -5.847  1.00  0.00     0.049 A 
ATOM     16  N   UNL     1       5.969   4.527  -5.531  1.00  0.00    -0.248 NA
ATOM     17  C   UNL     1       5.588   4.385  -3.232  1.00  0.00     0.031 C 
ATOM     18  C   UNL     1       4.127   0.483  -6.054  1.00  0.00     0.029 A 
ATOM     19  N   UNL     1       5.207   2.145  -7.086  1.00  0.00    -0.354 N 
ATOM     20  C   UNL     1       6.480   5.662  -4.913  1.00  0.00     0.074 A 
ATOM     21  C   UNL     1       6.196   5.534  -3.498  1.00  0.00     0.031 C 
ATOM     22  C   UNL     1       4.302   0.115  -7.332  1.00  0.00     0.029 A 
ATOM     23  C   UNL     1       4.960   1.198  -8.052  1.00  0.00     0.049 A 
ATOM     24  H   UNL     1       5.681   2.989  -7.267  1.00  0.00     0.167 HD
ATOM     25  C   UNL     1       7.131   6.709  -5.476  1.00  0.00     0.034 A 
ATOM     26  C   UNL     1       5.207   1.211  -9.376  1.00  0.00     0.034 A 
ATOM     27  C   UNL     1       7.406   6.828  -6.887  1.00  0.00     0.049 A 
ATOM     28  C   UNL     1       5.849   2.428  -9.984  1.00  0.00     0.074 A 
ATOM     29  C   UNL     1       8.034   7.865  -7.557  1.00  0.00     0.029 A 
ATOM     30  N   UNL     1       7.080   5.878  -7.845  1.00  0.00    -0.354 N 
ATOM     31  N   UNL     1       6.261   3.524  -9.393  1.00  0.00    -0.248 NA
ATOM     32  C   UNL     1       6.049   2.412 -11.439  1.00  0.00     0.031 C 
ATOM     33  C   UNL     1       8.046   7.564  -8.923  1.00  0.00     0.029 A 
ATOM     34  C   UNL     1       7.482   6.311  -9.099  1.00  0.00     0.049 A 
ATOM     35  H   UNL     1       6.630   5.023  -7.661  1.00  0.00     0.167 HD
ATOM     36  C   UNL     1       6.788   4.321 -10.404  1.00  0.00     0.074 A 
ATOM     37  C   UNL     1       6.656   3.573 -11.637  1.00  0.00     0.031 C 
ATOM     38  C   UNL     1       7.331   5.561 -10.321  1.00  0.00     0.034 A 
BRANCH  25  39
ATOM     39  C   UNL     1       7.575   7.831  -4.576  1.00  0.00     0.023 A 
ATOM     40  C   UNL     1       8.663   7.679  -3.702  1.00  0.00     0.031 A 
ATOM     41  C   UNL     1       6.944   9.086  -4.643  1.00  0.00     0.131 A 
ATOM     42  C   UNL     1       9.078   8.763  -2.912  1.00  0.00     0.055 A 
ATOM     43  C   UNL     1       7.393  10.174  -3.893  1.00  0.00     0.041 A 
ATOM     44  F   UNL     1       5.891   9.277  -5.454  1.00  0.00    -0.206 F 
ATOM     45  C   UNL     1       8.466  10.015  -3.021  1.00  0.00     0.022 A 
BRANCH  42  46
ATOM     46  S   UNL     1      10.412   8.509  -1.710  1.00  0.00     0.124 S 
ATOM     47  O   UNL     1       9.771   7.622  -0.744  1.00  0.00    -0.237 OA
ATOM     48  O   UNL     1      11.466   7.913  -2.522  1.00  0.00    -0.237 OA
ATOM     49  O   UNL     1      10.692   9.858  -1.221  1.00  0.00    -0.744 OA
ENDBRANCH  42  46
ENDBRANCH  25  39
BRANCH  26  50
ATOM     50  C   UNL     1       4.809   0.058 -10.230  1.00  0.00     0.023 A 
ATOM     51  C   UNL     1       5.777  -0.717 -10.886  1.00  0.00     0.031 A 
ATOM     52  C   UNL     1       3.455  -0.261 -10.435  1.00  0.00     0.131 A 
ATOM     53  C   UNL     1       5.378  -1.748 -11.749  1.00  0.00     0.055 A 
ATOM     54  C   UNL     1       3.064  -1.320 -11.255  1.00  0.00     0.041 A 
ATOM     55  F   UNL     1       2.490   0.449  -9.828  1.00  0.00    -0.206 F 
ATOM     56  C   UNL     1       4.029  -2.063 -11.928  1.00  0.00     0.022 A 
BRANCH  53  57
ATOM     57  S   UNL     1       6.651  -2.632 -12.689  1.00  0.00     0.124 S 
ATOM     58  O   UNL     1       7.234  -1.556 -13.483  1.00  0.00    -0.237 OA
ATOM     59  O   UNL     1       7.492  -3.175 -11.627  1.00  0.00    -0.237 OA
ATOM     60  O   UNL     1       5.888  -3.624 -13.444  1.00  0.00    -0.744 OA
ENDBRANCH  53  57
ENDBRANCH  26  50
BRANCH  38  61
ATOM     61  C   UNL     1       7.854   6.162 -11.598  1.00  0.00     0.023 A 
ATOM     62  C   UNL     1       6.987   6.571 -12.625  1.00  0.00     0.031 A 
ATOM     63  C   UNL     1       9.237   6.318 -11.792  1.00  0.00     0.131 A 
ATOM     64  C   UNL     1       7.515   7.069 -13.824  1.00  0.00     0.055 A 
ATOM     65  C   UNL     1       9.755   6.864 -12.967  1.00  0.00     0.041 A 
ATOM     66  F   UNL     1      10.107   5.942 -10.841  1.00  0.00    -0.206 F 
ATOM     67  C   UNL     1       8.892   7.232 -13.996  1.00  0.00     0.022 A 
BRANCH  64  68
ATOM     68  S   UNL     1       6.378   7.436 -15.188  1.00  0.00     0.124 S 
ATOM     69  O   UNL     1       5.802   6.124 -15.464  1.00  0.00    -0.237 OA
ATOM     70  O   UNL     1       5.476   8.415 -14.590  1.00  0.00    -0.237 OA
ATOM     71  O   UNL     1       7.255   7.962 -16.234  1.00  0.00    -0.744 OA
ENDBRANCH  64  68
ENDBRANCH  38  61
ENDBRANCH  12  13
ENDBRANCH   5   7
ENDBRANCH   2   3
ENDBRANCH   1   2
BRANCH   1  72
ATOM     72  C   UNL     1       4.165  -0.563   3.739  1.00  0.00     0.002 C 
BRANCH  72  73
ATOM     73  C   UNL     1       4.692  -1.998   3.809  1.00  0.00     0.002 C 
BRANCH  73  74
ATOM     74  C   UNL     1       6.214  -2.155   3.733  1.00  0.00     0.021 C 
BRANCH  74  75
ATOM     75  C   UNL     1       7.007  -1.348   4.757  1.00  0.00     0.116 C 
BRANCH  75  76
ATOM     76  N   UNL     1       6.678  -1.717   6.125  1.00  0.00    -0.352 N 
ATOM     77  C   UNL     1       7.513  -2.086   7.148  1.00  0.00     0.253 C 
ATOM     78  H   UNL     1       5.719  -1.700   6.347  1.00  0.00     0.163 HD
ATOM     79  O   UNL     1       7.037  -2.403   8.241  1.00  0.00    -0.269 OA
BRANCH  77  80
ATOM     80  C   UNL     1       8.974  -2.067   6.935  1.00  0.00     0.066 A 
ATOM     81  C   UNL     1       9.557  -0.833   6.603  1.00  0.00     0.055 A 
ATOM     82  C   UNL     1       9.774  -3.211   7.130  1.00  0.00     0.054 A 
ATOM     83  C   UNL     1      10.925  -0.754   6.390  1.00  0.00     0.124 A 
ATOM     84  C   UNL     1      11.161  -3.086   6.906  1.00  0.00     0.030 A 
ATOM     85  F   UNL     1      11.473   0.419   6.050  1.00  0.00    -0.207 F 
ATOM     86  C   UNL     1      11.733  -1.872   6.525  1.00  0.00     0.041 A 
BRANCH  82  87
ATOM     87  N   UNL     1       9.289  -4.463   7.554  1.00  0.00    -0.341 N 
ATOM     88  C   UNL     1       8.302  -5.134   6.703  1.00  0.00     0.123 C 
ATOM     89  C   UNL     1       9.656  -5.139   8.740  1.00  0.00     0.044 A 
ATOM     90  C   UNL     1       8.741  -6.574   6.462  1.00  0.00     0.027 C 
ATOM     91  C   UNL     1       9.459  -6.527   8.879  1.00  0.00    -0.024 A 
ATOM     92  C   UNL     1      10.230  -4.442   9.818  1.00  0.00     0.026 A 
ATOM     93  C   UNL     1       8.805  -7.331   7.783  1.00  0.00     0.039 C 
ATOM     94  C   UNL     1       9.835  -7.178  10.067  1.00  0.00     0.006 A 
ATOM     95  C   UNL     1      10.600  -5.094  10.996  1.00  0.00     0.002 A 
ATOM     96  C   UNL     1      10.406  -6.464  11.118  1.00  0.00     0.000 A 
ENDBRANCH  82  87
ENDBRANCH  77  80
ENDBRANCH  75  76
ENDBRANCH  74  75
ENDBRANCH  73  74
ENDBRANCH  72  73
ENDBRANCH   1  72
TORSDOF 17
