REMARK SMILES CCn1ccc2cc(S(=O)(=O)N3CCC[C@@H](C(=O)NCCCCCCNC(=O)c4ccc(-c5c6nc(c(-c7cc(S(=O)(=O)[O-])ccc7F)c7ccc([nH]7)c(-c7cc(S(=O)(=O)[O-])ccc7F)c7nc(c(-c8cc(S(=O)(=O)[O-])ccc8F)c8ccc5[nH]8)C=C7)C=C6)cc4)C3)ccc21
REMARK SMILES IDX 22 1 21 2 20 3 19 4 17 5 18 6 16 8 12 9 13 10 92 11 14 12
REMARK SMILES IDX 15 13 9 14 10 15 11 16 8 17 3 18 4 19 95 20 5 21 6 22 94 23
REMARK SMILES IDX 7 24 93 25 2 26 1 27 23 28 24 29 25 30 26 31 27 32 28 34
REMARK SMILES IDX 29 35 30 36 91 37 31 38 90 39 32 40 33 41 34 42 84 43 35 44
REMARK SMILES IDX 89 45 83 46 85 47 36 48 88 49 82 50 81 51 37 53 69 54 49 55
REMARK SMILES IDX 68 56 50 57 53 58 67 59 86 60 51 61 52 62 66 64 87 65 54 66
REMARK SMILES IDX 38 67 39 68 47 69 40 70 46 71 48 72 45 73 41 74 42 75 43 76
REMARK SMILES IDX 44 77 70 78 71 79 79 80 72 81 78 82 80 83 77 84 73 85 74 86
REMARK SMILES IDX 75 87 76 88 55 89 56 90 64 91 57 92 63 93 65 94 62 95 58 96
REMARK SMILES IDX 59 97 60 98 61 99
REMARK H PARENT 19 7 26 33 85 52 53 63
REMARK Flexibility Score: inf
ROOT
ATOM      1  C   UNL     1      10.485  -1.711   6.873  1.00  0.00     0.002 C 
ENDROOT
BRANCH   1   2
ATOM      2  C   UNL     1       9.444  -1.598   7.989  1.00  0.00     0.021 C 
BRANCH   2   3
ATOM      3  C   UNL     1       8.008  -1.499   7.501  1.00  0.00     0.116 C 
BRANCH   3   4
ATOM      4  N   UNL     1       7.579  -2.720   6.841  1.00  0.00    -0.356 N 
ATOM      5  C   UNL     1       6.431  -3.433   7.012  1.00  0.00     0.224 C 
ATOM      6  O   UNL     1       6.278  -4.467   6.361  1.00  0.00    -0.275 OA
ATOM      7  H   UNL     1       8.208  -3.084   6.176  1.00  0.00     0.163 HD
BRANCH   5   8
ATOM      8  C   UNL     1       5.376  -2.912   7.976  1.00  0.00     0.093 C 
ATOM      9  N   UNL     1       3.630  -1.141   8.187  1.00  0.00    -0.197 NA
ATOM     10  C   UNL     1       2.593  -2.115   8.590  1.00  0.00     0.102 C 
ATOM     11  C   UNL     1       4.768  -1.647   7.380  1.00  0.00     0.116 C 
ATOM     12  C   UNL     1       3.216  -3.392   9.141  1.00  0.00     0.018 C 
ATOM     13  C   UNL     1       4.275  -3.954   8.202  1.00  0.00     0.016 C 
BRANCH   9  14
ATOM     14  S   UNL     1       3.099   0.440   7.789  1.00  0.00     0.243 S 
ATOM     15  O   UNL     1       4.277   1.267   7.724  1.00  0.00    -0.207 OA
ATOM     16  O   UNL     1       1.996   0.759   8.682  1.00  0.00    -0.207 OA
BRANCH  14  17
ATOM     17  C   UNL     1       2.418   0.372   6.141  1.00  0.00     0.083 A 
ATOM     18  N   UNL     1       0.783   0.682   2.350  1.00  0.00    -0.348 N 
ATOM     19  C   UNL     1       0.561   2.031   2.252  1.00  0.00     0.087 A 
ATOM     20  C   UNL     1       1.349   0.389   3.575  1.00  0.00     0.048 A 
ATOM     21  C   UNL     1       1.034   2.627   3.399  1.00  0.00     0.028 A 
ATOM     22  C   UNL     1       1.517   1.601   4.253  1.00  0.00     0.001 A 
ATOM     23  C   UNL     1       1.718  -0.833   4.148  1.00  0.00     0.028 A 
ATOM     24  C   UNL     1       2.078   1.597   5.547  1.00  0.00     0.032 A 
ATOM     25  C   UNL     1       2.233  -0.820   5.444  1.00  0.00     0.024 A 
BRANCH  18  26
ATOM     26  C   UNL     1       0.389  -0.290   1.344  1.00  0.00     0.119 C 
ATOM     27  C   UNL     1       1.012  -0.050  -0.021  1.00  0.00     0.027 C 
ENDBRANCH  18  26
ENDBRANCH  14  17
ENDBRANCH   9  14
ENDBRANCH   5   8
ENDBRANCH   3   4
ENDBRANCH   2   3
ENDBRANCH   1   2
BRANCH   1  28
ATOM     28  C   UNL     1      10.540  -0.526   5.904  1.00  0.00     0.002 C 
BRANCH  28  29
ATOM     29  C   UNL     1      10.716   0.853   6.552  1.00  0.00     0.021 C 
BRANCH  29  30
ATOM     30  C   UNL     1      11.820   0.929   7.609  1.00  0.00     0.116 C 
BRANCH  30  31
ATOM     31  N   UNL     1      13.121   0.519   7.131  1.00  0.00    -0.352 N 
ATOM     32  C   UNL     1      14.164   1.157   6.524  1.00  0.00     0.251 C 
ATOM     33  H   UNL     1      13.295  -0.439   7.277  1.00  0.00     0.163 HD
ATOM     34  O   UNL     1      15.194   0.491   6.386  1.00  0.00    -0.269 OA
BRANCH  32  35
ATOM     35  C   UNL     1      14.108   2.534   5.964  1.00  0.00     0.039 A 
ATOM     36  C   UNL     1      13.040   3.421   6.099  1.00  0.00     0.014 A 
ATOM     37  C   UNL     1      15.204   2.914   5.166  1.00  0.00     0.014 A 
ATOM     38  C   UNL     1      13.002   4.590   5.354  1.00  0.00     0.010 A 
ATOM     39  C   UNL     1      15.184   4.096   4.438  1.00  0.00     0.010 A 
ATOM     40  C   UNL     1      14.050   4.898   4.486  1.00  0.00    -0.014 A 
BRANCH  40  41
ATOM     41  C   UNL     1      13.920   6.109   3.686  1.00  0.00     0.031 A 
ATOM     42  C   UNL     1      13.850   7.369   4.474  1.00  0.00     0.074 A 
ATOM     43  C   UNL     1      13.922   6.098   2.340  1.00  0.00     0.049 A 
ATOM     44  N   UNL     1      12.847   8.172   4.617  1.00  0.00    -0.248 NA
ATOM     45  C   UNL     1      14.999   7.688   5.332  1.00  0.00     0.031 C 
ATOM     46  C   UNL     1      14.283   4.990   1.449  1.00  0.00     0.029 A 
ATOM     47  N   UNL     1      13.695   7.126   1.476  1.00  0.00    -0.354 N 
ATOM     48  C   UNL     1      13.298   9.210   5.435  1.00  0.00     0.074 A 
ATOM     49  C   UNL     1      14.562   8.773   5.970  1.00  0.00     0.031 C 
ATOM     50  C   UNL     1      14.486   5.471   0.201  1.00  0.00     0.029 A 
ATOM     51  C   UNL     1      14.106   6.872   0.176  1.00  0.00     0.049 A 
ATOM     52  H   UNL     1      13.277   7.973   1.750  1.00  0.00     0.167 HD
ATOM     53  C   UNL     1      12.697  10.434   5.447  1.00  0.00     0.034 A 
ATOM     54  C   UNL     1      14.193   7.772  -0.832  1.00  0.00     0.034 A 
ATOM     55  C   UNL     1      11.423  10.389   4.785  1.00  0.00     0.049 A 
ATOM     56  C   UNL     1      13.353   8.938  -0.482  1.00  0.00     0.074 A 
ATOM     57  C   UNL     1      10.176   9.878   5.061  1.00  0.00     0.029 A 
ATOM     58  N   UNL     1      11.449  10.687   3.447  1.00  0.00    -0.354 N 
ATOM     59  N   UNL     1      12.051   8.914  -0.427  1.00  0.00    -0.248 NA
ATOM     60  C   UNL     1      13.984  10.075   0.172  1.00  0.00     0.031 C 
ATOM     61  C   UNL     1       9.606   9.569   3.794  1.00  0.00     0.029 A 
ATOM     62  C   UNL     1      10.511   9.937   2.794  1.00  0.00     0.049 A 
ATOM     63  H   UNL     1      12.051  11.341   3.022  1.00  0.00     0.167 HD
ATOM     64  C   UNL     1      11.736   9.756   0.625  1.00  0.00     0.074 A 
ATOM     65  C   UNL     1      12.934  10.561   0.836  1.00  0.00     0.031 C 
ATOM     66  C   UNL     1      10.644   9.520   1.409  1.00  0.00     0.034 A 
BRANCH  53  67
ATOM     67  C   UNL     1      13.414  11.748   5.685  1.00  0.00     0.023 A 
ATOM     68  C   UNL     1      14.814  11.858   5.761  1.00  0.00     0.031 A 
ATOM     69  C   UNL     1      12.712  12.971   5.587  1.00  0.00     0.131 A 
ATOM     70  C   UNL     1      15.461  13.101   5.728  1.00  0.00     0.055 A 
ATOM     71  C   UNL     1      13.360  14.210   5.490  1.00  0.00     0.041 A 
ATOM     72  F   UNL     1      11.372  12.998   5.516  1.00  0.00    -0.206 F 
ATOM     73  C   UNL     1      14.745  14.280   5.555  1.00  0.00     0.022 A 
BRANCH  70  74
ATOM     74  S   UNL     1      17.266  13.196   5.883  1.00  0.00     0.124 S 
ATOM     75  O   UNL     1      17.644  13.826   4.623  1.00  0.00    -0.237 OA
ATOM     76  O   UNL     1      17.415  14.024   7.077  1.00  0.00    -0.237 OA
ATOM     77  O   UNL     1      17.668  11.802   6.045  1.00  0.00    -0.744 OA
ENDBRANCH  70  74
ENDBRANCH  53  67
BRANCH  54  78
ATOM     78  C   UNL     1      15.292   7.883  -1.816  1.00  0.00     0.023 A 
ATOM     79  C   UNL     1      16.601   7.541  -1.428  1.00  0.00     0.031 A 
ATOM     80  C   UNL     1      15.137   8.627  -2.998  1.00  0.00     0.131 A 
ATOM     81  C   UNL     1      17.700   7.990  -2.171  1.00  0.00     0.055 A 
ATOM     82  C   UNL     1      16.236   9.056  -3.750  1.00  0.00     0.041 A 
ATOM     83  F   UNL     1      13.917   9.013  -3.403  1.00  0.00    -0.206 F 
ATOM     84  C   UNL     1      17.527   8.753  -3.327  1.00  0.00     0.022 A 
BRANCH  81  85
ATOM     85  S   UNL     1      19.390   7.680  -1.590  1.00  0.00     0.124 S 
ATOM     86  O   UNL     1      20.035   7.153  -2.791  1.00  0.00    -0.237 OA
ATOM     87  O   UNL     1      19.813   9.016  -1.184  1.00  0.00    -0.237 OA
ATOM     88  O   UNL     1      19.209   6.713  -0.512  1.00  0.00    -0.744 OA
ENDBRANCH  81  85
ENDBRANCH  54  78
BRANCH  66  89
ATOM     89  C   UNL     1       9.581   8.577   0.898  1.00  0.00     0.023 A 
ATOM     90  C   UNL     1       8.260   9.058   0.899  1.00  0.00     0.031 A 
ATOM     91  C   UNL     1       9.780   7.212   0.625  1.00  0.00     0.131 A 
ATOM     92  C   UNL     1       7.189   8.183   0.696  1.00  0.00     0.055 A 
ATOM     93  C   UNL     1       8.710   6.355   0.344  1.00  0.00     0.041 A 
ATOM     94  F   UNL     1      10.993   6.650   0.703  1.00  0.00    -0.206 F 
ATOM     95  C   UNL     1       7.405   6.835   0.399  1.00  0.00     0.022 A 
BRANCH  92  96
ATOM     96  S   UNL     1       5.492   8.745   0.983  1.00  0.00     0.124 S 
ATOM     97  O   UNL     1       4.898   8.628  -0.346  1.00  0.00    -0.237 OA
ATOM     98  O   UNL     1       5.010   7.781   1.971  1.00  0.00    -0.237 OA
ATOM     99  O   UNL     1       5.649  10.109   1.480  1.00  0.00    -0.744 OA
ENDBRANCH  92  96
ENDBRANCH  66  89
ENDBRANCH  40  41
ENDBRANCH  32  35
ENDBRANCH  30  31
ENDBRANCH  29  30
ENDBRANCH  28  29
ENDBRANCH   1  28
TORSDOF 19
