REMARK SMILES Cc1oc2c(c1C(=O)NCCCC(=O)NCCCCCCNC(=O)c1ccc(-c3c4nc(c(-c5cc(S(=O)(=O)[O-])ccc5F)c5ccc([nH]5)c(-c5cc(S(=O)(=O)[O-])ccc5F)c5nc(c(-c6cc(S(=O)(=O)[O-])ccc6F)c6ccc3[nH]6)C=C5)C=C4)cc1)CCCC2
REMARK SMILES IDX 18 1 17 2 16 3 15 4 13 5 14 6 12 8 11 9 10 10 9 11 7 12 8 13
REMARK SMILES IDX 6 15 1 16 2 17 3 18 4 19 5 20 91 21 88 22 90 23 89 24 19 25
REMARK SMILES IDX 20 26 21 27 22 28 23 29 24 31 25 32 26 33 87 34 27 35 86 36
REMARK SMILES IDX 28 37 29 38 30 39 80 40 31 41 85 42 79 43 81 44 32 45 84 46
REMARK SMILES IDX 78 47 77 48 33 50 65 51 45 52 64 53 46 54 49 55 63 56 82 57
REMARK SMILES IDX 47 58 48 59 62 61 83 62 50 63 34 64 35 65 43 66 36 67 42 68
REMARK SMILES IDX 44 69 41 70 37 71 38 72 39 73 40 74 66 75 67 76 75 77 68 78
REMARK SMILES IDX 74 79 76 80 73 81 69 82 70 83 71 84 72 85 51 86 52 87 60 88
REMARK SMILES IDX 53 89 59 90 61 91 58 92 54 93 55 94 56 95 57 96
REMARK H PARENT 15 7 9 14 22 30 81 49 49 60
REMARK Flexibility Score: inf
ROOT
ATOM      1  C   UNL     1       5.915   0.584  -0.899  1.00  0.00     0.002 C 
ENDROOT
BRANCH   1   2
ATOM      2  C   UNL     1       4.488   1.051  -1.192  1.00  0.00     0.021 C 
BRANCH   2   3
ATOM      3  C   UNL     1       4.330   1.759  -2.536  1.00  0.00     0.116 C 
BRANCH   3   4
ATOM      4  N   UNL     1       4.148   0.800  -3.606  1.00  0.00    -0.356 N 
ATOM      5  C   UNL     1       3.083   0.615  -4.431  1.00  0.00     0.220 C 
ATOM      6  O   UNL     1       3.106  -0.331  -5.221  1.00  0.00    -0.275 OA
ATOM      7  H   UNL     1       4.907   0.192  -3.758  1.00  0.00     0.163 HD
BRANCH   5   8
ATOM      8  C   UNL     1       1.915   1.582  -4.405  1.00  0.00     0.102 C 
BRANCH   8   9
ATOM      9  C   UNL     1       0.734   1.140  -3.539  1.00  0.00     0.031 C 
BRANCH   9  10
ATOM     10  C   UNL     1       0.856   1.338  -2.028  1.00  0.00     0.116 C 
BRANCH  10  11
ATOM     11  N   UNL     1       1.160   2.682  -1.598  1.00  0.00    -0.352 N 
ATOM     12  C   UNL     1       1.199   3.245  -0.345  1.00  0.00     0.255 C 
ATOM     13  O   UNL     1       1.639   4.399  -0.309  1.00  0.00    -0.269 OA
ATOM     14  H   UNL     1       1.377   3.304  -2.330  1.00  0.00     0.163 HD
BRANCH  12  15
ATOM     15  C   UNL     1       0.683   2.596   0.862  1.00  0.00     0.084 A 
ATOM     16  C   UNL     1       0.987  -0.069   0.734  1.00  0.00     0.088 C 
ATOM     17  C   UNL     1       0.570   1.256   1.243  1.00  0.00     0.114 A 
ATOM     18  O   UNL     1      -0.068   1.149   2.446  1.00  0.00    -0.465 OA
ATOM     19  C   UNL     1      -0.285   2.391   2.894  1.00  0.00     0.108 A 
ATOM     20  C   UNL     1       0.207   3.325   2.018  1.00  0.00     0.007 A 
ATOM     21  C   UNL     1      -0.938   2.596   4.204  1.00  0.00     0.076 C 
ATOM     22  C   UNL     1       0.135   4.783   2.332  1.00  0.00     0.040 C 
ATOM     23  C   UNL     1      -1.330   4.080   4.329  1.00  0.00     0.008 C 
ATOM     24  C   UNL     1      -0.212   5.016   3.824  1.00  0.00     0.005 C 
ENDBRANCH  12  15
ENDBRANCH  10  11
ENDBRANCH   9  10
ENDBRANCH   8   9
ENDBRANCH   5   8
ENDBRANCH   3   4
ENDBRANCH   2   3
ENDBRANCH   1   2
BRANCH   1  25
ATOM     25  C   UNL     1       6.983   1.689  -0.876  1.00  0.00     0.002 C 
BRANCH  25  26
ATOM     26  C   UNL     1       6.694   2.903   0.020  1.00  0.00     0.021 C 
BRANCH  26  27
ATOM     27  C   UNL     1       6.599   2.567   1.500  1.00  0.00     0.116 C 
BRANCH  27  28
ATOM     28  N   UNL     1       7.858   2.044   2.033  1.00  0.00    -0.352 N 
ATOM     29  C   UNL     1       8.146   1.572   3.303  1.00  0.00     0.251 C 
ATOM     30  H   UNL     1       8.609   2.025   1.397  1.00  0.00     0.163 HD
ATOM     31  O   UNL     1       9.302   1.538   3.693  1.00  0.00    -0.269 OA
BRANCH  29  32
ATOM     32  C   UNL     1       7.040   1.114   4.169  1.00  0.00     0.039 A 
ATOM     33  C   UNL     1       7.087   1.255   5.558  1.00  0.00     0.014 A 
ATOM     34  C   UNL     1       5.936   0.525   3.563  1.00  0.00     0.014 A 
ATOM     35  C   UNL     1       5.982   0.851   6.309  1.00  0.00     0.010 A 
ATOM     36  C   UNL     1       4.781   0.329   4.269  1.00  0.00     0.010 A 
ATOM     37  C   UNL     1       4.825   0.401   5.650  1.00  0.00    -0.014 A 
BRANCH  37  38
ATOM     38  C   UNL     1       3.589   0.116   6.367  1.00  0.00     0.031 A 
ATOM     39  C   UNL     1       3.124   1.252   7.192  1.00  0.00     0.074 A 
ATOM     40  C   UNL     1       2.814  -0.968   6.137  1.00  0.00     0.049 A 
ATOM     41  N   UNL     1       3.228   1.373   8.472  1.00  0.00    -0.248 NA
ATOM     42  C   UNL     1       2.697   2.486   6.511  1.00  0.00     0.031 C 
ATOM     43  C   UNL     1       2.998  -2.021   5.133  1.00  0.00     0.029 A 
ATOM     44  N   UNL     1       1.620  -1.305   6.698  1.00  0.00    -0.354 N 
ATOM     45  C   UNL     1       2.592   2.566   8.780  1.00  0.00     0.074 A 
ATOM     46  C   UNL     1       2.549   3.311   7.552  1.00  0.00     0.031 C 
ATOM     47  C   UNL     1       1.857  -2.736   5.005  1.00  0.00     0.029 A 
ATOM     48  C   UNL     1       0.917  -2.305   6.025  1.00  0.00     0.049 A 
ATOM     49  H   UNL     1       1.279  -0.877   7.516  1.00  0.00     0.167 HD
ATOM     50  C   UNL     1       1.881   2.686   9.936  1.00  0.00     0.034 A 
ATOM     51  C   UNL     1      -0.350  -2.739   6.277  1.00  0.00     0.034 A 
ATOM     52  C   UNL     1       2.203   1.603  10.851  1.00  0.00     0.049 A 
ATOM     53  C   UNL     1      -0.644  -2.378   7.686  1.00  0.00     0.074 A 
ATOM     54  C   UNL     1       3.377   1.111  11.394  1.00  0.00     0.029 A 
ATOM     55  N   UNL     1       1.283   0.586  11.003  1.00  0.00    -0.354 N 
ATOM     56  N   UNL     1      -0.011  -2.902   8.700  1.00  0.00    -0.248 NA
ATOM     57  C   UNL     1      -1.258  -1.084   7.947  1.00  0.00     0.031 C 
ATOM     58  C   UNL     1       3.237  -0.309  11.348  1.00  0.00     0.029 A 
ATOM     59  C   UNL     1       1.954  -0.609  10.886  1.00  0.00     0.049 A 
ATOM     60  H   UNL     1       0.319   0.696  11.167  1.00  0.00     0.167 HD
ATOM     61  C   UNL     1       0.254  -1.835   9.545  1.00  0.00     0.074 A 
ATOM     62  C   UNL     1      -0.630  -0.764   9.083  1.00  0.00     0.031 C 
ATOM     63  C   UNL     1       1.367  -1.821  10.340  1.00  0.00     0.034 A 
BRANCH  50  64
ATOM     64  C   UNL     1       0.615   3.505  10.081  1.00  0.00     0.023 A 
ATOM     65  C   UNL     1      -0.001   3.488  11.345  1.00  0.00     0.031 A 
ATOM     66  C   UNL     1      -0.166   4.040   9.029  1.00  0.00     0.131 A 
ATOM     67  C   UNL     1      -1.350   3.847  11.498  1.00  0.00     0.055 A 
ATOM     68  C   UNL     1      -1.486   4.466   9.202  1.00  0.00     0.041 A 
ATOM     69  F   UNL     1       0.252   4.101   7.760  1.00  0.00    -0.206 F 
ATOM     70  C   UNL     1      -2.100   4.335  10.433  1.00  0.00     0.022 A 
BRANCH  67  71
ATOM     71  S   UNL     1      -2.154   3.469  13.073  1.00  0.00     0.124 S 
ATOM     72  O   UNL     1      -1.883   2.041  13.198  1.00  0.00    -0.237 OA
ATOM     73  O   UNL     1      -1.435   4.345  13.992  1.00  0.00    -0.237 OA
ATOM     74  O   UNL     1      -3.550   3.824  12.833  1.00  0.00    -0.744 OA
ENDBRANCH  67  71
ENDBRANCH  50  64
BRANCH  51  75
ATOM     75  C   UNL     1      -1.400  -3.152   5.300  1.00  0.00     0.023 A 
ATOM     76  C   UNL     1      -2.565  -3.866   5.668  1.00  0.00     0.031 A 
ATOM     77  C   UNL     1      -1.387  -2.603   3.998  1.00  0.00     0.131 A 
ATOM     78  C   UNL     1      -3.647  -3.993   4.760  1.00  0.00     0.055 A 
ATOM     79  C   UNL     1      -2.459  -2.724   3.110  1.00  0.00     0.041 A 
ATOM     80  F   UNL     1      -0.360  -1.853   3.571  1.00  0.00    -0.206 F 
ATOM     81  C   UNL     1      -3.599  -3.411   3.491  1.00  0.00     0.022 A 
BRANCH  78  82
ATOM     82  S   UNL     1      -5.189  -4.843   5.246  1.00  0.00     0.124 S 
ATOM     83  O   UNL     1      -4.765  -6.235   5.330  1.00  0.00    -0.237 OA
ATOM     84  O   UNL     1      -5.529  -4.189   6.504  1.00  0.00    -0.237 OA
ATOM     85  O   UNL     1      -6.104  -4.549   4.141  1.00  0.00    -0.744 OA
ENDBRANCH  78  82
ENDBRANCH  51  75
BRANCH  63  86
ATOM     86  C   UNL     1       2.147  -3.115  10.509  1.00  0.00     0.023 A 
ATOM     87  C   UNL     1       2.676  -3.897   9.454  1.00  0.00     0.031 A 
ATOM     88  C   UNL     1       2.438  -3.526  11.823  1.00  0.00     0.131 A 
ATOM     89  C   UNL     1       3.438  -5.050   9.737  1.00  0.00     0.055 A 
ATOM     90  C   UNL     1       3.212  -4.652  12.099  1.00  0.00     0.041 A 
ATOM     91  F   UNL     1       1.990  -2.818  12.873  1.00  0.00    -0.206 F 
ATOM     92  C   UNL     1       3.707  -5.425  11.056  1.00  0.00     0.022 A 
BRANCH  89  93
ATOM     93  S   UNL     1       4.064  -6.113   8.393  1.00  0.00     0.124 S 
ATOM     94  O   UNL     1       2.916  -6.261   7.507  1.00  0.00    -0.237 OA
ATOM     95  O   UNL     1       5.181  -5.333   7.866  1.00  0.00    -0.237 OA
ATOM     96  O   UNL     1       4.458  -7.341   9.088  1.00  0.00    -0.744 OA
ENDBRANCH  89  93
ENDBRANCH  63  86
ENDBRANCH  37  38
ENDBRANCH  29  32
ENDBRANCH  27  28
ENDBRANCH  26  27
ENDBRANCH  25  26
ENDBRANCH   1  25
TORSDOF 20
