REMARK SMILES N#C/C(=C\c1ccc(-c2cc(C(=O)NCCCCNC(=O)c3ccc(-c4c5nc(c(-c6cc(S(=O)(=O)[O-])ccc6F)c6ccc([nH]6)c(-c6cc(S(=O)(=O)[O-])ccc6F)c6nc(c(-c7cc(S(=O)(=O)[O-])ccc7F)c7ccc4[nH]7)C=C6)C=C5)cc3)ccc2Cl)o1)C(=O)N1CCOCC1
REMARK SMILES IDX 16 1 15 2 14 3 12 4 13 5 11 7 9 8 10 9 87 10 86 11 88 12
REMARK SMILES IDX 85 13 8 14 5 15 6 16 89 17 7 18 4 19 3 20 2 21 1 22 90 23
REMARK SMILES IDX 91 24 92 25 93 26 97 27 94 28 96 29 95 30 17 31 18 32 19 33
REMARK SMILES IDX 20 34 21 36 22 37 23 38 84 39 24 40 83 41 25 42 26 43 27 44
REMARK SMILES IDX 77 45 28 46 82 47 76 48 78 49 29 50 81 51 75 52 74 53 30 55
REMARK SMILES IDX 62 56 42 57 61 58 43 59 46 60 60 61 79 62 44 63 45 64 59 66
REMARK SMILES IDX 80 67 47 68 31 69 32 70 40 71 33 72 39 73 41 74 38 75 34 76
REMARK SMILES IDX 35 77 36 78 37 79 63 80 64 81 72 82 65 83 71 84 73 85 70 86
REMARK SMILES IDX 66 87 67 88 68 89 69 90 48 91 49 92 57 93 50 94 56 95 58 96
REMARK SMILES IDX 55 97 51 98 52 99 53 100 54 101
REMARK H PARENT 14 6 19 35 78 54 46 65
REMARK Flexibility Score: inf
ROOT
ATOM      1  C   UNL     1       3.402  -9.746   6.391  1.00  0.00     0.023 C 
ENDROOT
BRANCH   1   2
ATOM      2  C   UNL     1       2.148  -8.931   6.061  1.00  0.00     0.116 C 
BRANCH   2   3
ATOM      3  N   UNL     1       2.391  -7.511   6.231  1.00  0.00    -0.352 N 
ATOM      4  C   UNL     1       2.756  -6.514   5.362  1.00  0.00     0.251 C 
ATOM      5  O   UNL     1       2.841  -5.373   5.819  1.00  0.00    -0.269 OA
ATOM      6  H   UNL     1       2.270  -7.200   7.157  1.00  0.00     0.163 HD
BRANCH   4   7
ATOM      7  C   UNL     1       3.023  -6.717   3.905  1.00  0.00     0.040 A 
ATOM      8  C   UNL     1       3.171  -5.659   1.687  1.00  0.00     0.037 A 
ATOM      9  C   UNL     1       2.941  -5.581   3.073  1.00  0.00     0.027 A 
ATOM     10  C   UNL     1       3.479  -6.908   1.128  1.00  0.00     0.052 A 
ATOM     11  C   UNL     1       3.596  -8.033   1.945  1.00  0.00     0.022 A 
ATOM     12  Cl  UNL     1       3.768  -7.132  -0.564  1.00  0.00    -0.084 Cl
ATOM     13  C   UNL     1       3.393  -7.931   3.324  1.00  0.00     0.015 A 
BRANCH   8  14
ATOM     14  C   UNL     1       3.060  -4.460   0.870  1.00  0.00     0.136 A 
ATOM     15  C   UNL     1       3.691  -2.408   0.267  1.00  0.00     0.129 A 
ATOM     16  C   UNL     1       2.709  -2.847  -0.619  1.00  0.00     0.051 A 
ATOM     17  O   UNL     1       3.913  -3.436   1.163  1.00  0.00    -0.457 OA
ATOM     18  C   UNL     1       2.280  -4.127  -0.209  1.00  0.00     0.051 A 
BRANCH  15  19
ATOM     19  C   UNL     1       4.411  -1.168   0.322  1.00  0.00     0.072 C 
ATOM     20  C   UNL     1       3.856   0.040   0.052  1.00  0.00     0.121 C 
BRANCH  20  21
ATOM     21  C   UNL     1       2.336   0.040   0.052  1.00  0.00     0.105 C 
ATOM     22  N   UNL     1       1.075   0.040   0.052  1.00  0.00    -0.192 NA
ENDBRANCH  20  21
BRANCH  20  23
ATOM     23  C   UNL     1       4.605   1.307   0.263  1.00  0.00     0.264 C 
ATOM     24  O   UNL     1       4.002   2.276   0.724  1.00  0.00    -0.268 OA
ATOM     25  N   UNL     1       5.965   1.359  -0.004  1.00  0.00    -0.333 N 
ATOM     26  C   UNL     1       6.776   0.461  -0.844  1.00  0.00     0.148 C 
ATOM     27  C   UNL     1       6.764   2.426   0.607  1.00  0.00     0.148 C 
ATOM     28  C   UNL     1       7.961  -0.092  -0.037  1.00  0.00     0.181 C 
ATOM     29  C   UNL     1       7.930   1.804   1.388  1.00  0.00     0.181 C 
ATOM     30  O   UNL     1       8.737   0.976   0.530  1.00  0.00    -0.378 OA
ENDBRANCH  20  23
ENDBRANCH  15  19
ENDBRANCH   8  14
ENDBRANCH   4   7
ENDBRANCH   2   3
ENDBRANCH   1   2
BRANCH   1  31
ATOM     31  C   UNL     1       3.630  -9.987   7.887  1.00  0.00     0.023 C 
BRANCH  31  32
ATOM     32  C   UNL     1       2.554 -10.814   8.585  1.00  0.00     0.116 C 
BRANCH  32  33
ATOM     33  N   UNL     1       2.338 -12.115   7.972  1.00  0.00    -0.352 N 
ATOM     34  C   UNL     1       1.945 -13.292   8.570  1.00  0.00     0.251 C 
ATOM     35  H   UNL     1       2.494 -12.161   7.001  1.00  0.00     0.163 HD
ATOM     36  O   UNL     1       1.909 -14.324   7.921  1.00  0.00    -0.269 OA
BRANCH  34  37
ATOM     37  C   UNL     1       1.617 -13.291  10.014  1.00  0.00     0.039 A 
ATOM     38  C   UNL     1       2.218 -14.245  10.838  1.00  0.00     0.014 A 
ATOM     39  C   UNL     1       0.756 -12.332  10.552  1.00  0.00     0.014 A 
ATOM     40  C   UNL     1       2.013 -14.190  12.218  1.00  0.00     0.010 A 
ATOM     41  C   UNL     1       0.604 -12.240  11.932  1.00  0.00     0.010 A 
ATOM     42  C   UNL     1       1.237 -13.163  12.780  1.00  0.00    -0.014 A 
BRANCH  42  43
ATOM     43  C   UNL     1       1.081 -13.030  14.251  1.00  0.00     0.031 A 
ATOM     44  C   UNL     1      -0.272 -13.203  14.882  1.00  0.00     0.074 A 
ATOM     45  C   UNL     1       2.143 -12.681  15.003  1.00  0.00     0.049 A 
ATOM     46  N   UNL     1      -0.632 -13.035  16.128  1.00  0.00    -0.248 NA
ATOM     47  C   UNL     1      -1.371 -13.583  13.982  1.00  0.00     0.031 C 
ATOM     48  C   UNL     1       3.497 -12.444  14.496  1.00  0.00     0.029 A 
ATOM     49  N   UNL     1       2.251 -12.451  16.352  1.00  0.00    -0.354 N 
ATOM     50  C   UNL     1      -2.002 -13.275  16.162  1.00  0.00     0.074 A 
ATOM     51  C   UNL     1      -2.413 -13.540  14.799  1.00  0.00     0.031 C 
ATOM     52  C   UNL     1       4.301 -12.121  15.523  1.00  0.00     0.029 A 
ATOM     53  C   UNL     1       3.515 -12.086  16.752  1.00  0.00     0.049 A 
ATOM     54  H   UNL     1       1.493 -12.539  16.974  1.00  0.00     0.167 HD
ATOM     55  C   UNL     1      -2.833 -13.295  17.233  1.00  0.00     0.034 A 
ATOM     56  C   UNL     1       3.985 -11.749  17.969  1.00  0.00     0.034 A 
ATOM     57  C   UNL     1      -2.403 -13.041  18.587  1.00  0.00     0.049 A 
ATOM     58  C   UNL     1       3.040 -11.763  19.143  1.00  0.00     0.074 A 
ATOM     59  C   UNL     1      -3.147 -13.087  19.753  1.00  0.00     0.029 A 
ATOM     60  N   UNL     1      -1.111 -12.686  18.956  1.00  0.00    -0.354 N 
ATOM     61  N   UNL     1       1.756 -12.039  19.166  1.00  0.00    -0.248 NA
ATOM     62  C   UNL     1       3.609 -11.431  20.455  1.00  0.00     0.031 C 
ATOM     63  C   UNL     1      -2.322 -12.704  20.817  1.00  0.00     0.029 A 
ATOM     64  C   UNL     1      -1.045 -12.485  20.327  1.00  0.00     0.049 A 
ATOM     65  H   UNL     1      -0.353 -12.591  18.335  1.00  0.00     0.167 HD
ATOM     66  C   UNL     1       1.372 -11.943  20.501  1.00  0.00     0.074 A 
ATOM     67  C   UNL     1       2.562 -11.596  21.251  1.00  0.00     0.031 C 
ATOM     68  C   UNL     1       0.149 -12.130  21.058  1.00  0.00     0.034 A 
BRANCH  55  69
ATOM     69  C   UNL     1      -4.293 -13.578  16.970  1.00  0.00     0.023 A 
ATOM     70  C   UNL     1      -4.719 -14.804  16.428  1.00  0.00     0.031 A 
ATOM     71  C   UNL     1      -5.269 -12.599  17.227  1.00  0.00     0.131 A 
ATOM     72  C   UNL     1      -6.066 -14.988  16.083  1.00  0.00     0.055 A 
ATOM     73  C   UNL     1      -6.622 -12.820  16.960  1.00  0.00     0.041 A 
ATOM     74  F   UNL     1      -4.921 -11.402  17.726  1.00  0.00    -0.206 F 
ATOM     75  C   UNL     1      -7.026 -14.014  16.369  1.00  0.00     0.022 A 
BRANCH  72  76
ATOM     76  S   UNL     1      -6.519 -16.456  15.120  1.00  0.00     0.124 S 
ATOM     77  O   UNL     1      -5.698 -16.287  13.923  1.00  0.00    -0.237 OA
ATOM     78  O   UNL     1      -6.137 -17.547  16.008  1.00  0.00    -0.237 OA
ATOM     79  O   UNL     1      -7.957 -16.297  14.908  1.00  0.00    -0.744 OA
ENDBRANCH  72  76
ENDBRANCH  55  69
BRANCH  56  80
ATOM     80  C   UNL     1       5.413 -11.363  18.148  1.00  0.00     0.023 A 
ATOM     81  C   UNL     1       6.285 -12.156  18.909  1.00  0.00     0.031 A 
ATOM     82  C   UNL     1       5.918 -10.174  17.592  1.00  0.00     0.131 A 
ATOM     83  C   UNL     1       7.604 -11.730  19.133  1.00  0.00     0.055 A 
ATOM     84  C   UNL     1       7.244  -9.778  17.776  1.00  0.00     0.041 A 
ATOM     85  F   UNL     1       5.127  -9.383  16.848  1.00  0.00    -0.206 F 
ATOM     86  C   UNL     1       8.092 -10.553  18.562  1.00  0.00     0.022 A 
BRANCH  83  87
ATOM     87  S   UNL     1       8.652 -12.703  20.248  1.00  0.00     0.124 S 
ATOM     88  O   UNL     1       7.875 -12.683  21.481  1.00  0.00    -0.237 OA
ATOM     89  O   UNL     1       8.723 -13.985  19.554  1.00  0.00    -0.237 OA
ATOM     90  O   UNL     1       9.903 -11.948  20.284  1.00  0.00    -0.744 OA
ENDBRANCH  83  87
ENDBRANCH  56  80
BRANCH  68  91
ATOM     91  C   UNL     1       0.056 -12.006  22.558  1.00  0.00     0.023 A 
ATOM     92  C   UNL     1       0.226 -10.773  23.211  1.00  0.00     0.031 A 
ATOM     93  C   UNL     1      -0.196 -13.144  23.345  1.00  0.00     0.131 A 
ATOM     94  C   UNL     1       0.195 -10.716  24.613  1.00  0.00     0.055 A 
ATOM     95  C   UNL     1      -0.282 -13.071  24.735  1.00  0.00     0.041 A 
ATOM     96  F   UNL     1      -0.365 -14.347  22.771  1.00  0.00    -0.206 F 
ATOM     97  C   UNL     1      -0.074 -11.854  25.378  1.00  0.00     0.022 A 
BRANCH  94  98
ATOM     98  S   UNL     1       0.592  -9.146  25.430  1.00  0.00     0.124 S 
ATOM     99  O   UNL     1       1.944  -8.886  24.947  1.00  0.00    -0.237 OA
ATOM    100  O   UNL     1      -0.449  -8.258  24.923  1.00  0.00    -0.237 OA
ATOM    101  O   UNL     1       0.493  -9.466  26.853  1.00  0.00    -0.744 OA
ENDBRANCH  94  98
ENDBRANCH  68  91
ENDBRANCH  42  43
ENDBRANCH  34  37
ENDBRANCH  32  33
ENDBRANCH  31  32
ENDBRANCH   1  31
TORSDOF 18
