REMARK SMILES CC[C@H](C)[C@H](NC(=O)[C@H](C)Oc1ccc2c(C)c(C)c(=O)oc2c1C)C(=O)NCCCCNC(=O)c1ccc(-c2c3nc(c(-c4cc(S(=O)(=O)[O-])ccc4F)c4ccc([nH]4)c(-c4cc(S(=O)(=O)[O-])ccc4F)c4nc(c(-c5cc(S(=O)(=O)[O-])ccc5F)c5ccc2[nH]5)C=C4)C=C3)cc1
REMARK SMILES IDX 30 1 29 2 28 3 26 4 27 5 5 7 3 8 4 9 2 10 1 11 6 12 7 13
REMARK SMILES IDX 8 15 9 16 10 17 11 18 12 19 13 20 24 21 14 22 23 23 25 24
REMARK SMILES IDX 15 25 22 26 16 27 20 28 17 29 18 30 21 31 19 32 31 33 32 34
REMARK SMILES IDX 33 35 34 36 35 38 36 39 37 40 98 41 38 42 97 43 39 44 40 45
REMARK SMILES IDX 41 46 91 47 42 48 96 49 90 50 92 51 43 52 95 53 89 54 88 55
REMARK SMILES IDX 44 57 76 58 56 59 75 60 57 61 60 62 74 63 93 64 58 65 59 66
REMARK SMILES IDX 73 68 94 69 61 70 45 71 46 72 54 73 47 74 53 75 55 76 52 77
REMARK SMILES IDX 48 78 49 79 50 80 51 81 77 82 78 83 86 84 79 85 85 86 87 87
REMARK SMILES IDX 84 88 80 89 81 90 82 91 83 92 62 93 63 94 71 95 64 96 70 97
REMARK SMILES IDX 72 98 69 99 65 100 66 101 67 102 68 103
REMARK H PARENT 28 6 6 14 33 37 92 56 60 67
REMARK Flexibility Score: inf
ROOT
ATOM      1  C   UNL     1       0.909   3.760  -1.785  1.00  0.00     0.023 C 
ENDROOT
BRANCH   1   2
ATOM      2  C   UNL     1       1.590   3.085  -2.973  1.00  0.00     0.116 C 
BRANCH   2   3
ATOM      3  N   UNL     1       2.199   4.029  -3.901  1.00  0.00    -0.354 N 
ATOM      4  C   UNL     1       3.287   3.914  -4.731  1.00  0.00     0.242 C 
ATOM      5  O   UNL     1       3.423   4.767  -5.613  1.00  0.00    -0.273 OA
ATOM      6  H   UNL     1       1.750   4.905  -3.941  1.00  0.00     0.163 HD
BRANCH   4   7
ATOM      7  C   UNL     1       4.240   2.672  -4.688  1.00  0.00     0.174 C 
BRANCH   7   8
ATOM      8  C   UNL     1       3.600   1.579  -5.587  1.00  0.00     0.018 C 
ATOM      9  C   UNL     1       4.607   1.125  -6.657  1.00  0.00     0.010 C 
BRANCH   8  10
ATOM     10  C   UNL     1       2.930   0.422  -4.832  1.00  0.00     0.002 C 
ATOM     11  C   UNL     1       1.964  -0.393  -5.678  1.00  0.00     0.004 C 
ENDBRANCH   8  10
ENDBRANCH   7   8
BRANCH   7  12
ATOM     12  N   UNL     1       4.523   2.393  -3.277  1.00  0.00    -0.341 N 
ATOM     13  C   UNL     1       5.247   1.637  -2.443  1.00  0.00     0.261 C 
ATOM     14  H   UNL     1       3.964   2.994  -2.732  1.00  0.00     0.164 HD
ATOM     15  O   UNL     1       5.110   2.020  -1.266  1.00  0.00    -0.271 OA
BRANCH  13  16
ATOM     16  C   UNL     1       6.244   0.493  -2.748  1.00  0.00     0.258 C 
ATOM     17  C   UNL     1       6.117  -0.545  -3.848  1.00  0.00     0.064 C 
BRANCH  16  18
ATOM     18  O   UNL     1       6.579  -0.206  -1.528  1.00  0.00    -0.480 OA
BRANCH  18  19
ATOM     19  C   UNL     1       5.628  -0.908  -0.829  1.00  0.00     0.127 A 
ATOM     20  C   UNL     1       4.312  -1.130  -1.248  1.00  0.00     0.047 A 
ATOM     21  C   UNL     1       6.040  -1.433   0.404  1.00  0.00     0.035 A 
ATOM     22  C   UNL     1       3.434  -1.925  -0.500  1.00  0.00     0.016 A 
ATOM     23  C   UNL     1       5.119  -2.189   1.158  1.00  0.00     0.145 A 
ATOM     24  C   UNL     1       7.406  -1.148   0.966  1.00  0.00     0.052 C 
ATOM     25  C   UNL     1       3.832  -2.485   0.713  1.00  0.00     0.021 A 
ATOM     26  O   UNL     1       5.539  -2.620   2.432  1.00  0.00    -0.422 OA
ATOM     27  C   UNL     1       2.962  -3.348   1.532  1.00  0.00    -0.030 A 
ATOM     28  C   UNL     1       4.676  -3.244   3.316  1.00  0.00     0.339 A 
ATOM     29  C   UNL     1       1.683  -3.850   0.908  1.00  0.00     0.045 C 
ATOM     30  C   UNL     1       3.355  -3.673   2.781  1.00  0.00     0.038 A 
ATOM     31  O   UNL     1       5.022  -3.478   4.470  1.00  0.00    -0.246 OA
ATOM     32  C   UNL     1       2.510  -4.482   3.727  1.00  0.00     0.052 C 
ENDBRANCH  18  19
ENDBRANCH  16  18
ENDBRANCH  13  16
ENDBRANCH   7  12
ENDBRANCH   4   7
ENDBRANCH   2   3
ENDBRANCH   1   2
BRANCH   1  33
ATOM     33  C   UNL     1      -0.538   4.182  -2.031  1.00  0.00     0.023 C 
BRANCH  33  34
ATOM     34  C   UNL     1      -1.482   3.073  -2.490  1.00  0.00     0.116 C 
BRANCH  34  35
ATOM     35  N   UNL     1      -1.506   1.913  -1.607  1.00  0.00    -0.352 N 
ATOM     36  C   UNL     1      -2.603   1.214  -1.159  1.00  0.00     0.251 C 
ATOM     37  H   UNL     1      -0.630   1.591  -1.292  1.00  0.00     0.163 HD
ATOM     38  O   UNL     1      -2.480   0.271  -0.382  1.00  0.00    -0.269 OA
BRANCH  36  39
ATOM     39  C   UNL     1      -3.937   1.648  -1.610  1.00  0.00     0.039 A 
ATOM     40  C   UNL     1      -4.850   2.123  -0.665  1.00  0.00     0.014 A 
ATOM     41  C   UNL     1      -4.226   1.692  -2.977  1.00  0.00     0.014 A 
ATOM     42  C   UNL     1      -6.034   2.719  -1.099  1.00  0.00     0.010 A 
ATOM     43  C   UNL     1      -5.383   2.333  -3.406  1.00  0.00     0.010 A 
ATOM     44  C   UNL     1      -6.290   2.859  -2.473  1.00  0.00    -0.014 A 
BRANCH  44  45
ATOM     45  C   UNL     1      -7.504   3.554  -2.965  1.00  0.00     0.031 A 
ATOM     46  C   UNL     1      -8.566   2.769  -3.676  1.00  0.00     0.074 A 
ATOM     47  C   UNL     1      -7.607   4.893  -2.849  1.00  0.00     0.049 A 
ATOM     48  N   UNL     1      -9.652   3.199  -4.262  1.00  0.00    -0.248 NA
ATOM     49  C   UNL     1      -8.371   1.312  -3.758  1.00  0.00     0.031 C 
ATOM     50  C   UNL     1      -6.617   5.762  -2.213  1.00  0.00     0.029 A 
ATOM     51  N   UNL     1      -8.582   5.758  -3.281  1.00  0.00    -0.354 N 
ATOM     52  C   UNL     1     -10.262   2.070  -4.793  1.00  0.00     0.074 A 
ATOM     53  C   UNL     1      -9.404   0.944  -4.502  1.00  0.00     0.031 C 
ATOM     54  C   UNL     1      -7.036   7.035  -2.292  1.00  0.00     0.029 A 
ATOM     55  C   UNL     1      -8.307   7.080  -3.013  1.00  0.00     0.049 A 
ATOM     56  H   UNL     1      -9.401   5.461  -3.739  1.00  0.00     0.167 HD
ATOM     57  C   UNL     1     -11.445   1.980  -5.442  1.00  0.00     0.034 A 
ATOM     58  C   UNL     1      -8.994   8.199  -3.320  1.00  0.00     0.034 A 
ATOM     59  C   UNL     1     -12.304   3.103  -5.701  1.00  0.00     0.049 A 
ATOM     60  C   UNL     1     -10.309   8.075  -4.049  1.00  0.00     0.074 A 
ATOM     61  C   UNL     1     -13.554   3.100  -6.292  1.00  0.00     0.029 A 
ATOM     62  N   UNL     1     -12.010   4.420  -5.385  1.00  0.00    -0.354 N 
ATOM     63  N   UNL     1     -10.919   6.990  -4.463  1.00  0.00    -0.248 NA
ATOM     64  C   UNL     1     -11.035   9.319  -4.348  1.00  0.00     0.031 C 
ATOM     65  C   UNL     1     -13.999   4.421  -6.372  1.00  0.00     0.029 A 
ATOM     66  C   UNL     1     -13.047   5.242  -5.787  1.00  0.00     0.049 A 
ATOM     67  H   UNL     1     -11.186   4.725  -4.940  1.00  0.00     0.167 HD
ATOM     68  C   UNL     1     -12.108   7.416  -5.046  1.00  0.00     0.074 A 
ATOM     69  C   UNL     1     -12.140   8.858  -4.922  1.00  0.00     0.031 C 
ATOM     70  C   UNL     1     -13.082   6.676  -5.632  1.00  0.00     0.034 A 
BRANCH  57  71
ATOM     71  C   UNL     1     -11.909   0.623  -5.894  1.00  0.00     0.023 A 
ATOM     72  C   UNL     1     -12.029   0.339  -7.265  1.00  0.00     0.031 A 
ATOM     73  C   UNL     1     -12.332  -0.346  -4.967  1.00  0.00     0.131 A 
ATOM     74  C   UNL     1     -12.584  -0.880  -7.672  1.00  0.00     0.055 A 
ATOM     75  C   UNL     1     -12.854  -1.572  -5.378  1.00  0.00     0.041 A 
ATOM     76  F   UNL     1     -12.230  -0.117  -3.647  1.00  0.00    -0.206 F 
ATOM     77  C   UNL     1     -12.990  -1.839  -6.737  1.00  0.00     0.022 A 
BRANCH  74  78
ATOM     78  S   UNL     1     -12.825  -1.258  -9.429  1.00  0.00     0.124 S 
ATOM     79  O   UNL     1     -12.152  -2.550  -9.555  1.00  0.00    -0.237 OA
ATOM     80  O   UNL     1     -14.280  -1.298  -9.534  1.00  0.00    -0.237 OA
ATOM     81  O   UNL     1     -12.169  -0.152 -10.118  1.00  0.00    -0.744 OA
ENDBRANCH  74  78
ENDBRANCH  57  71
BRANCH  58  82
ATOM     82  C   UNL     1      -8.466   9.522  -2.881  1.00  0.00     0.023 A 
ATOM     83  C   UNL     1      -7.263  10.033  -3.399  1.00  0.00     0.031 A 
ATOM     84  C   UNL     1      -9.113  10.248  -1.867  1.00  0.00     0.131 A 
ATOM     85  C   UNL     1      -6.718  11.208  -2.863  1.00  0.00     0.055 A 
ATOM     86  C   UNL     1      -8.596  11.448  -1.376  1.00  0.00     0.041 A 
ATOM     87  F   UNL     1     -10.258   9.792  -1.336  1.00  0.00    -0.206 F 
ATOM     88  C   UNL     1      -7.385  11.927  -1.866  1.00  0.00     0.022 A 
BRANCH  85  89
ATOM     89  S   UNL     1      -5.079  11.793  -3.377  1.00  0.00     0.124 S 
ATOM     90  O   UNL     1      -5.353  13.172  -3.768  1.00  0.00    -0.237 OA
ATOM     91  O   UNL     1      -4.308  11.627  -2.147  1.00  0.00    -0.237 OA
ATOM     92  O   UNL     1      -4.716  10.890  -4.464  1.00  0.00    -0.744 OA
ENDBRANCH  85  89
ENDBRANCH  58  82
BRANCH  70  93
ATOM     93  C   UNL     1     -14.295   7.377  -6.187  1.00  0.00     0.023 A 
ATOM     94  C   UNL     1     -15.559   7.144  -5.612  1.00  0.00     0.031 A 
ATOM     95  C   UNL     1     -14.228   8.104  -7.387  1.00  0.00     0.131 A 
ATOM     96  C   UNL     1     -16.713   7.587  -6.270  1.00  0.00     0.055 A 
ATOM     97  C   UNL     1     -15.378   8.580  -8.016  1.00  0.00     0.041 A 
ATOM     98  F   UNL     1     -13.044   8.339  -7.974  1.00  0.00    -0.206 F 
ATOM     99  C   UNL     1     -16.629   8.309  -7.466  1.00  0.00     0.022 A 
BRANCH  96 100
ATOM    100  S   UNL     1     -18.363   7.176  -5.639  1.00  0.00     0.124 S 
ATOM    101  O   UNL     1     -19.002   8.489  -5.576  1.00  0.00    -0.237 OA
ATOM    102  O   UNL     1     -18.872   6.283  -6.676  1.00  0.00    -0.237 OA
ATOM    103  O   UNL     1     -18.099   6.555  -4.345  1.00  0.00    -0.744 OA
ENDBRANCH  96 100
ENDBRANCH  70  93
ENDBRANCH  44  45
ENDBRANCH  36  39
ENDBRANCH  34  35
ENDBRANCH  33  34
ENDBRANCH   1  33
TORSDOF 20
