REMARK SMILES O=C(NCCCCNC(=O)c1ccc2c(c1)NC1=[NH+]S(=O)(=O)[NH+]=C1N2)c1ccc(-c2c3nc(c(-c4cc(S(=O)(=O)[O-])ccc4F)c4ccc([nH]4)c(-c4cc(S(=O)(=O)[O-])ccc4F)c4nc(c(-c5cc(S(=O)(=O)[O-])ccc5F)c5ccc2[nH]5)C=C4)C=C3)cc1
REMARK SMILES IDX 4 1 3 2 1 3 2 4 26 6 27 7 88 8 28 9 87 10 29 11 30 12 31 13
REMARK SMILES IDX 81 14 32 15 86 16 80 17 82 18 33 19 85 20 79 21 78 22 34 24
REMARK SMILES IDX 66 25 46 26 65 27 47 28 50 29 64 30 83 31 48 32 49 33 63 35
REMARK SMILES IDX 84 36 51 37 35 38 36 39 44 40 37 41 43 42 45 43 42 44 38 45
REMARK SMILES IDX 39 46 40 47 41 48 67 49 68 50 76 51 69 52 75 53 77 54 74 55
REMARK SMILES IDX 70 56 71 57 72 58 73 59 52 60 53 61 61 62 54 63 60 64 62 65
REMARK SMILES IDX 59 66 55 67 56 68 57 69 58 70 5 71 6 72 7 73 8 74 9 75 10 77
REMARK SMILES IDX 11 78 12 79 16 80 13 81 15 82 14 83 17 84 25 85 18 86 24 88
REMARK SMILES IDX 19 90 23 91 20 92 21 95 22 96
REMARK H PARENT 3 5 82 23 50 34 8 76 17 87 25 89 19 93 23 94
REMARK Flexibility Score: inf
ROOT
ATOM      1  C   UNL     1       4.444   0.747   1.381  1.00  0.00     0.116 C 
ENDROOT
BRANCH   1   2
ATOM      2  N   UNL     1       2.986   0.684   1.202  1.00  0.00    -0.352 N 
ATOM      3  O   UNL     1       1.130   0.256  -0.052  1.00  0.00    -0.269 OA
ATOM      4  C   UNL     1       2.278  -0.044   0.251  1.00  0.00     0.251 C 
ATOM      5  H   UNL     1       2.447   1.220   1.828  1.00  0.00     0.163 HD
BRANCH   4   6
ATOM      6  C   UNL     1       2.945  -1.206  -0.366  1.00  0.00     0.039 A 
ATOM      7  C   UNL     1       2.841  -1.540  -1.717  1.00  0.00     0.014 A 
ATOM      8  C   UNL     1       3.769  -1.935   0.477  1.00  0.00     0.014 A 
ATOM      9  C   UNL     1       3.642  -2.577  -2.202  1.00  0.00     0.010 A 
ATOM     10  C   UNL     1       4.751  -2.710  -0.057  1.00  0.00     0.010 A 
ATOM     11  C   UNL     1       4.608  -3.151  -1.357  1.00  0.00    -0.014 A 
BRANCH  11  12
ATOM     12  C   UNL     1       5.512  -4.209  -1.785  1.00  0.00     0.031 A 
ATOM     13  C   UNL     1       6.264  -3.907  -3.024  1.00  0.00     0.074 A 
ATOM     14  C   UNL     1       5.791  -5.291  -1.022  1.00  0.00     0.049 A 
ATOM     15  N   UNL     1       6.031  -4.368  -4.205  1.00  0.00    -0.248 NA
ATOM     16  C   UNL     1       7.262  -2.829  -2.987  1.00  0.00     0.031 C 
ATOM     17  C   UNL     1       5.402  -5.570   0.372  1.00  0.00     0.029 A 
ATOM     18  N   UNL     1       6.581  -6.356  -1.314  1.00  0.00    -0.354 N 
ATOM     19  C   UNL     1       7.012  -3.821  -5.027  1.00  0.00     0.074 A 
ATOM     20  C   UNL     1       7.583  -2.729  -4.279  1.00  0.00     0.031 C 
ATOM     21  C   UNL     1       6.147  -6.583   0.865  1.00  0.00     0.029 A 
ATOM     22  C   UNL     1       6.898  -7.163  -0.228  1.00  0.00     0.049 A 
ATOM     23  H   UNL     1       6.904  -6.543  -2.225  1.00  0.00     0.167 HD
ATOM     24  C   UNL     1       7.433  -4.476  -6.148  1.00  0.00     0.034 A 
ATOM     25  C   UNL     1       7.721  -8.239  -0.223  1.00  0.00     0.034 A 
ATOM     26  C   UNL     1       6.562  -5.589  -6.437  1.00  0.00     0.049 A 
ATOM     27  C   UNL     1       7.862  -8.691  -1.625  1.00  0.00     0.074 A 
ATOM     28  C   UNL     1       5.237  -5.724  -6.793  1.00  0.00     0.029 A 
ATOM     29  N   UNL     1       6.963  -6.817  -5.965  1.00  0.00    -0.354 N 
ATOM     30  N   UNL     1       6.895  -9.223  -2.318  1.00  0.00    -0.248 NA
ATOM     31  C   UNL     1       8.959  -8.137  -2.401  1.00  0.00     0.031 C 
ATOM     32  C   UNL     1       4.790  -6.898  -6.122  1.00  0.00     0.029 A 
ATOM     33  C   UNL     1       5.875  -7.472  -5.451  1.00  0.00     0.049 A 
ATOM     34  H   UNL     1       7.883  -7.168  -5.991  1.00  0.00     0.167 HD
ATOM     35  C   UNL     1       7.027  -8.662  -3.579  1.00  0.00     0.074 A 
ATOM     36  C   UNL     1       8.380  -8.107  -3.604  1.00  0.00     0.031 C 
ATOM     37  C   UNL     1       5.935  -8.441  -4.369  1.00  0.00     0.034 A 
BRANCH  24  38
ATOM     38  C   UNL     1       8.816  -4.361  -6.749  1.00  0.00     0.023 A 
ATOM     39  C   UNL     1       9.875  -3.668  -6.136  1.00  0.00     0.031 A 
ATOM     40  C   UNL     1       9.168  -5.141  -7.872  1.00  0.00     0.131 A 
ATOM     41  C   UNL     1      11.191  -3.758  -6.610  1.00  0.00     0.055 A 
ATOM     42  C   UNL     1      10.491  -5.282  -8.309  1.00  0.00     0.041 A 
ATOM     43  F   UNL     1       8.242  -5.840  -8.547  1.00  0.00    -0.206 F 
ATOM     44  C   UNL     1      11.514  -4.591  -7.674  1.00  0.00     0.022 A 
BRANCH  41  45
ATOM     45  S   UNL     1      12.512  -2.796  -5.822  1.00  0.00     0.124 S 
ATOM     46  O   UNL     1      13.442  -3.842  -5.410  1.00  0.00    -0.237 OA
ATOM     47  O   UNL     1      12.959  -1.950  -6.926  1.00  0.00    -0.237 OA
ATOM     48  O   UNL     1      11.826  -2.092  -4.743  1.00  0.00    -0.744 OA
ENDBRANCH  41  45
ENDBRANCH  24  38
BRANCH  25  49
ATOM     49  C   UNL     1       8.727  -8.582   0.806  1.00  0.00     0.023 A 
ATOM     50  C   UNL     1       9.332  -7.556   1.553  1.00  0.00     0.031 A 
ATOM     51  C   UNL     1       9.347  -9.844   0.814  1.00  0.00     0.131 A 
ATOM     52  C   UNL     1      10.551  -7.780   2.206  1.00  0.00     0.055 A 
ATOM     53  C   UNL     1      10.553 -10.072   1.487  1.00  0.00     0.041 A 
ATOM     54  F   UNL     1       8.835 -10.857   0.099  1.00  0.00    -0.206 F 
ATOM     55  C   UNL     1      11.172  -9.030   2.171  1.00  0.00     0.022 A 
BRANCH  52  56
ATOM     56  S   UNL     1      11.415  -6.411   3.024  1.00  0.00     0.124 S 
ATOM     57  O   UNL     1      11.766  -6.996   4.315  1.00  0.00    -0.237 OA
ATOM     58  O   UNL     1      12.530  -6.180   2.112  1.00  0.00    -0.237 OA
ATOM     59  O   UNL     1      10.404  -5.358   3.076  1.00  0.00    -0.744 OA
ENDBRANCH  52  56
ENDBRANCH  25  49
BRANCH  37  60
ATOM     60  C   UNL     1       4.616  -9.083  -3.983  1.00  0.00     0.023 A 
ATOM     61  C   UNL     1       3.937  -9.782  -4.996  1.00  0.00     0.031 A 
ATOM     62  C   UNL     1       3.921  -8.854  -2.780  1.00  0.00     0.131 A 
ATOM     63  C   UNL     1       2.604 -10.168  -4.824  1.00  0.00     0.055 A 
ATOM     64  C   UNL     1       2.612  -9.310  -2.582  1.00  0.00     0.041 A 
ATOM     65  F   UNL     1       4.446  -8.117  -1.793  1.00  0.00    -0.206 F 
ATOM     66  C   UNL     1       1.939  -9.952  -3.616  1.00  0.00     0.022 A 
BRANCH  63  67
ATOM     67  S   UNL     1       1.656 -10.803  -6.230  1.00  0.00     0.124 S 
ATOM     68  O   UNL     1       1.359 -12.169  -5.810  1.00  0.00    -0.237 OA
ATOM     69  O   UNL     1       0.511  -9.895  -6.267  1.00  0.00    -0.237 OA
ATOM     70  O   UNL     1       2.574 -10.682  -7.359  1.00  0.00    -0.744 OA
ENDBRANCH  63  67
ENDBRANCH  37  60
ENDBRANCH  11  12
ENDBRANCH   4   6
ENDBRANCH   1   2
BRANCH   1  71
ATOM     71  C   UNL     1       4.887   1.576   2.576  1.00  0.00     0.023 C 
BRANCH  71  72
ATOM     72  C   UNL     1       4.429   1.042   3.941  1.00  0.00     0.023 C 
BRANCH  72  73
ATOM     73  C   UNL     1       4.840  -0.390   4.305  1.00  0.00     0.116 C 
BRANCH  73  74
ATOM     74  N   UNL     1       6.279  -0.562   4.416  1.00  0.00    -0.352 N 
ATOM     75  C   UNL     1       7.055  -0.757   5.534  1.00  0.00     0.251 C 
ATOM     76  H   UNL     1       6.772  -0.535   3.564  1.00  0.00     0.163 HD
ATOM     77  O   UNL     1       8.272  -0.617   5.485  1.00  0.00    -0.269 OA
BRANCH  75  78
ATOM     78  C   UNL     1       6.421  -1.052   6.834  1.00  0.00     0.044 A 
ATOM     79  C   UNL     1       5.484  -2.081   6.977  1.00  0.00     0.018 A 
ATOM     80  C   UNL     1       6.771  -0.253   7.925  1.00  0.00     0.070 A 
ATOM     81  C   UNL     1       4.794  -2.231   8.181  1.00  0.00     0.057 A 
ATOM     82  C   UNL     1       6.093  -0.398   9.135  1.00  0.00     0.173 A 
ATOM     83  C   UNL     1       5.060  -1.370   9.251  1.00  0.00     0.172 A 
ATOM     84  N   UNL     1       6.364   0.477  10.205  1.00  0.00    -0.229 N 
ATOM     85  N   UNL     1       4.284  -1.434  10.425  1.00  0.00    -0.229 N 
ATOM     86  C   UNL     1       5.580   0.488  11.323  1.00  0.00     0.383 C 
ATOM     87  H   UNL     1       7.132   1.091  10.145  1.00  0.00     0.313 HD
ATOM     88  C   UNL     1       4.456  -0.528  11.435  1.00  0.00     0.383 C 
ATOM     89  H   UNL     1       3.607  -2.142  10.520  1.00  0.00     0.313 HD
ATOM     90  N   UNL     1       5.645   1.271  12.340  1.00  0.00    -0.122 N 
ATOM     91  N   UNL     1       3.776  -0.397  12.518  1.00  0.00    -0.122 N 
ATOM     92  S   UNL     1       4.414   0.868  13.338  1.00  0.00     0.469 S 
ATOM     93  H   UNL     1       6.311   1.981  12.491  1.00  0.00     0.331 HD
ATOM     94  H   UNL     1       3.014  -0.952  12.801  1.00  0.00     0.331 HD
ATOM     95  O   UNL     1       4.974   0.370  14.583  1.00  0.00    -0.143 OA
ATOM     96  O   UNL     1       3.456   1.943  13.338  1.00  0.00    -0.143 OA
ENDBRANCH  75  78
ENDBRANCH  73  74
ENDBRANCH  72  73
ENDBRANCH  71  72
ENDBRANCH   1  71
TORSDOF 14
