REMARK SMILES C[C@@]1(CN2C(=O)c3ccc(C(=O)NCCCCNC(=O)c4ccc(-c5c6nc(c(-c7cc(S(=O)(=O)[O-])ccc7F)c7ccc([nH]7)c(-c7cc(S(=O)(=O)[O-])ccc7F)c7nc(c(-c8cc(S(=O)(=O)[O-])ccc8F)c8ccc5[nH]8)C=C7)C=C6)cc4)cc3C2=O)CCCO1
REMARK SMILES IDX 16 1 15 2 14 3 13 4 11 5 12 6 10 8 4 9 5 10 86 11 6 12 7 13
REMARK SMILES IDX 85 14 87 15 8 16 84 17 9 18 3 19 2 20 1 21 88 22 91 23 89 24
REMARK SMILES IDX 90 25 17 26 18 27 19 28 20 30 21 31 22 32 83 33 23 34 82 35
REMARK SMILES IDX 24 36 25 37 26 38 76 39 27 40 81 41 75 42 77 43 28 44 80 45
REMARK SMILES IDX 74 46 73 47 29 49 61 50 41 51 60 52 42 53 45 54 59 55 78 56
REMARK SMILES IDX 43 57 44 58 58 60 79 61 46 62 30 63 31 64 39 65 32 66 38 67
REMARK SMILES IDX 40 68 37 69 33 70 34 71 35 72 36 73 62 74 63 75 71 76 64 77
REMARK SMILES IDX 70 78 72 79 69 80 65 81 66 82 67 83 68 84 47 85 48 86 56 87
REMARK SMILES IDX 49 88 55 89 57 90 54 91 50 92 51 93 52 94 53 95
REMARK H PARENT 13 7 18 29 77 48 45 59
REMARK Flexibility Score: inf
ROOT
ATOM      1  C   UNL     1      -2.108  -4.740  -9.289  1.00  0.00     0.023 C 
ENDROOT
BRANCH   1   2
ATOM      2  C   UNL     1      -1.482  -4.192  -8.005  1.00  0.00     0.023 C 
BRANCH   2   3
ATOM      3  C   UNL     1      -0.748  -2.860  -8.182  1.00  0.00     0.116 C 
BRANCH   3   4
ATOM      4  N   UNL     1      -1.679  -1.750  -8.159  1.00  0.00    -0.352 N 
ATOM      5  C   UNL     1      -2.100  -0.911  -7.160  1.00  0.00     0.251 C 
ATOM      6  O   UNL     1      -2.883  -0.011  -7.470  1.00  0.00    -0.269 OA
ATOM      7  H   UNL     1      -2.089  -1.560  -9.033  1.00  0.00     0.163 HD
BRANCH   5   8
ATOM      8  C   UNL     1      -1.661  -1.010  -5.735  1.00  0.00     0.040 A 
ATOM      9  N   UNL     1      -1.115   0.441  -1.392  1.00  0.00    -0.271 N 
ATOM     10  C   UNL     1      -0.793  -0.863  -1.627  1.00  0.00     0.261 C 
ATOM     11  C   UNL     1      -1.598   1.057  -2.519  1.00  0.00     0.261 C 
ATOM     12  O   UNL     1      -0.443  -1.729  -0.845  1.00  0.00    -0.269 OA
ATOM     13  C   UNL     1      -0.989  -1.088  -3.049  1.00  0.00     0.053 A 
ATOM     14  C   UNL     1      -1.497   0.071  -3.600  1.00  0.00     0.054 A 
ATOM     15  O   UNL     1      -2.079   2.164  -2.646  1.00  0.00    -0.269 OA
ATOM     16  C   UNL     1      -0.789  -2.230  -3.787  1.00  0.00     0.015 A 
ATOM     17  C   UNL     1      -1.844   0.141  -4.937  1.00  0.00     0.028 A 
ATOM     18  C   UNL     1      -1.152  -2.185  -5.136  1.00  0.00     0.015 A 
BRANCH   9  19
ATOM     19  C   UNL     1      -1.030   1.062  -0.082  1.00  0.00     0.164 C 
BRANCH  19  20
ATOM     20  C   UNL     1       0.404   1.527   0.304  1.00  0.00     0.084 C 
ATOM     21  C   UNL     1       1.433   0.397   0.282  1.00  0.00     0.044 C 
ATOM     22  C   UNL     1       0.396   2.212   1.674  1.00  0.00     0.039 C 
ATOM     23  O   UNL     1       0.836   2.545  -0.622  1.00  0.00    -0.373 OA
ATOM     24  C   UNL     1       0.025   3.635   1.335  1.00  0.00     0.031 C 
ATOM     25  C   UNL     1       0.675   3.836  -0.018  1.00  0.00     0.161 C 
ENDBRANCH  19  20
ENDBRANCH   9  19
ENDBRANCH   5   8
ENDBRANCH   3   4
ENDBRANCH   2   3
ENDBRANCH   1   2
BRANCH   1  26
ATOM     26  C   UNL     1      -1.115  -5.040 -10.405  1.00  0.00     0.116 C 
BRANCH  26  27
ATOM     27  N   UNL     1      -0.063  -5.964 -10.006  1.00  0.00    -0.352 N 
ATOM     28  C   UNL     1       0.581  -6.899 -10.782  1.00  0.00     0.251 C 
ATOM     29  H   UNL     1       0.222  -5.914  -9.065  1.00  0.00     0.163 HD
ATOM     30  O   UNL     1       1.363  -7.693 -10.272  1.00  0.00    -0.269 OA
BRANCH  28  31
ATOM     31  C   UNL     1       0.274  -6.954 -12.226  1.00  0.00     0.039 A 
ATOM     32  C   UNL     1      -0.096  -8.174 -12.792  1.00  0.00     0.014 A 
ATOM     33  C   UNL     1       0.281  -5.786 -12.993  1.00  0.00     0.014 A 
ATOM     34  C   UNL     1      -0.528  -8.209 -14.119  1.00  0.00     0.010 A 
ATOM     35  C   UNL     1      -0.226  -5.811 -14.287  1.00  0.00     0.010 A 
ATOM     36  C   UNL     1      -0.637  -7.022 -14.864  1.00  0.00    -0.014 A 
BRANCH  36  37
ATOM     37  C   UNL     1      -1.176  -7.030 -16.248  1.00  0.00     0.031 A 
ATOM     38  C   UNL     1      -0.305  -6.599 -17.395  1.00  0.00     0.074 A 
ATOM     39  C   UNL     1      -2.464  -7.370 -16.461  1.00  0.00     0.049 A 
ATOM     40  N   UNL     1      -0.606  -6.474 -18.662  1.00  0.00    -0.248 NA
ATOM     41  C   UNL     1       1.081  -6.230 -17.069  1.00  0.00     0.031 C 
ATOM     42  C   UNL     1      -3.417  -7.764 -15.421  1.00  0.00     0.029 A 
ATOM     43  N   UNL     1      -3.197  -7.432 -17.620  1.00  0.00    -0.354 N 
ATOM     44  C   UNL     1       0.547  -6.004 -19.281  1.00  0.00     0.074 A 
ATOM     45  C   UNL     1       1.529  -5.800 -18.238  1.00  0.00     0.031 C 
ATOM     46  C   UNL     1      -4.596  -8.057 -15.992  1.00  0.00     0.029 A 
ATOM     47  C   UNL     1      -4.503  -7.822 -17.429  1.00  0.00     0.049 A 
ATOM     48  H   UNL     1      -2.823  -7.219 -18.505  1.00  0.00     0.167 HD
ATOM     49  C   UNL     1       0.772  -5.786 -20.600  1.00  0.00     0.034 A 
ATOM     50  C   UNL     1      -5.515  -7.959 -18.310  1.00  0.00     0.034 A 
ATOM     51  C   UNL     1      -0.219  -6.003 -21.626  1.00  0.00     0.049 A 
ATOM     52  C   UNL     1      -5.249  -7.678 -19.768  1.00  0.00     0.074 A 
ATOM     53  C   UNL     1      -0.083  -5.867 -22.996  1.00  0.00     0.029 A 
ATOM     54  N   UNL     1      -1.533  -6.391 -21.395  1.00  0.00    -0.354 N 
ATOM     55  N   UNL     1      -4.135  -7.288 -20.346  1.00  0.00    -0.248 NA
ATOM     56  C   UNL     1      -6.372  -7.867 -20.695  1.00  0.00     0.031 C 
ATOM     57  C   UNL     1      -1.330  -6.093 -23.586  1.00  0.00     0.029 A 
ATOM     58  C   UNL     1      -2.226  -6.462 -22.595  1.00  0.00     0.049 A 
ATOM     59  H   UNL     1      -1.916  -6.587 -20.510  1.00  0.00     0.167 HD
ATOM     60  C   UNL     1      -4.418  -7.219 -21.707  1.00  0.00     0.074 A 
ATOM     61  C   UNL     1      -5.800  -7.623 -21.864  1.00  0.00     0.031 C 
ATOM     62  C   UNL     1      -3.608  -6.858 -22.736  1.00  0.00     0.034 A 
BRANCH  49  63
ATOM     63  C   UNL     1       2.132  -5.264 -20.998  1.00  0.00     0.023 A 
ATOM     64  C   UNL     1       3.307  -6.000 -20.761  1.00  0.00     0.031 A 
ATOM     65  C   UNL     1       2.261  -4.002 -21.606  1.00  0.00     0.131 A 
ATOM     66  C   UNL     1       4.558  -5.439 -21.056  1.00  0.00     0.055 A 
ATOM     67  C   UNL     1       3.504  -3.487 -21.979  1.00  0.00     0.041 A 
ATOM     68  F   UNL     1       1.180  -3.241 -21.837  1.00  0.00    -0.206 F 
ATOM     69  C   UNL     1       4.664  -4.200 -21.690  1.00  0.00     0.022 A 
BRANCH  66  70
ATOM     70  S   UNL     1       6.048  -6.287 -20.463  1.00  0.00     0.124 S 
ATOM     71  O   UNL     1       5.809  -6.329 -19.022  1.00  0.00    -0.237 OA
ATOM     72  O   UNL     1       5.982  -7.567 -21.159  1.00  0.00    -0.237 OA
ATOM     73  O   UNL     1       7.135  -5.404 -20.881  1.00  0.00    -0.744 OA
ENDBRANCH  66  70
ENDBRANCH  49  63
BRANCH  50  74
ATOM     74  C   UNL     1      -6.874  -8.368 -17.848  1.00  0.00     0.023 A 
ATOM     75  C   UNL     1      -7.461  -9.565 -18.288  1.00  0.00     0.031 A 
ATOM     76  C   UNL     1      -7.630  -7.540 -16.998  1.00  0.00     0.131 A 
ATOM     77  C   UNL     1      -8.781  -9.874 -17.923  1.00  0.00     0.055 A 
ATOM     78  C   UNL     1      -8.920  -7.882 -16.587  1.00  0.00     0.041 A 
ATOM     79  F   UNL     1      -7.118  -6.384 -16.544  1.00  0.00    -0.206 F 
ATOM     80  C   UNL     1      -9.508  -9.049 -17.064  1.00  0.00     0.022 A 
BRANCH  77  81
ATOM     81  S   UNL     1      -9.572 -11.325 -18.673  1.00  0.00     0.124 S 
ATOM     82  O   UNL     1      -9.458 -11.022 -20.095  1.00  0.00    -0.237 OA
ATOM     83  O   UNL     1      -8.737 -12.414 -18.179  1.00  0.00    -0.237 OA
ATOM     84  O   UNL     1     -10.930 -11.288 -18.133  1.00  0.00    -0.744 OA
ENDBRANCH  77  81
ENDBRANCH  50  74
BRANCH  62  85
ATOM     85  C   UNL     1      -4.187  -6.937 -24.129  1.00  0.00     0.023 A 
ATOM     86  C   UNL     1      -5.243  -6.107 -24.543  1.00  0.00     0.031 A 
ATOM     87  C   UNL     1      -3.674  -7.864 -25.054  1.00  0.00     0.131 A 
ATOM     88  C   UNL     1      -5.792  -6.261 -25.826  1.00  0.00     0.055 A 
ATOM     89  C   UNL     1      -4.177  -7.965 -26.352  1.00  0.00     0.041 A 
ATOM     90  F   UNL     1      -2.668  -8.686 -24.713  1.00  0.00    -0.206 F 
ATOM     91  C   UNL     1      -5.252  -7.171 -26.739  1.00  0.00     0.022 A 
BRANCH  88  92
ATOM     92  S   UNL     1      -7.288  -5.329 -26.251  1.00  0.00     0.124 S 
ATOM     93  O   UNL     1      -8.222  -5.768 -25.219  1.00  0.00    -0.237 OA
ATOM     94  O   UNL     1      -6.833  -3.946 -26.152  1.00  0.00    -0.237 OA
ATOM     95  O   UNL     1      -7.602  -5.783 -27.605  1.00  0.00    -0.744 OA
ENDBRANCH  88  92
ENDBRANCH  62  85
ENDBRANCH  36  37
ENDBRANCH  28  31
ENDBRANCH  26  27
ENDBRANCH   1  26
TORSDOF 16
