REMARK SMILES CC1(C)CC[N@H+](CCC(=O)NCCCCNC(=O)c2ccc(-c3c4nc(c(-c5cc(S(=O)(=O)[O-])ccc5F)c5ccc([nH]5)c(-c5cc(S(=O)(=O)[O-])ccc5F)c5nc(c(-c6cc(S(=O)(=O)[O-])ccc6F)c6ccc3[nH]6)C=C5)C=C4)cc2)C1
REMARK SMILES IDX 14 1 13 2 12 3 11 4 9 5 10 6 8 8 7 9 6 10 1 11 2 12 3 13
REMARK SMILES IDX 4 14 82 15 5 16 15 18 16 19 17 20 18 22 19 23 20 24 81 25
REMARK SMILES IDX 21 26 80 27 22 28 23 29 24 30 74 31 25 32 79 33 73 34 75 35
REMARK SMILES IDX 26 36 78 37 72 38 71 39 27 41 59 42 39 43 58 44 40 45 43 46
REMARK SMILES IDX 57 47 76 48 41 49 42 50 56 52 77 53 44 54 28 55 29 56 37 57
REMARK SMILES IDX 30 58 36 59 38 60 35 61 31 62 32 63 33 64 34 65 60 66 61 67
REMARK SMILES IDX 69 68 62 69 68 70 70 71 67 72 63 73 64 74 65 75 66 76 45 77
REMARK SMILES IDX 46 78 54 79 47 80 53 81 55 82 52 83 48 84 49 85 50 86 51 87
REMARK H PARENT 11 7 6 17 16 21 75 40 43 51
REMARK Flexibility Score: inf
ROOT
ATOM      1  C   UNL     1       0.705  -2.391  -1.659  1.00  0.00     0.023 C 
ENDROOT
BRANCH   1   2
ATOM      2  C   UNL     1       0.704  -0.836  -0.758  1.00  0.00     0.023 C 
BRANCH   2   3
ATOM      3  C   UNL     1       0.587  -0.199   1.338  1.00  0.00     0.116 C 
BRANCH   3   4
ATOM      4  N   UNL     1       1.370  -0.601   2.632  1.00  0.00    -0.356 N 
ATOM      5  C   UNL     1       2.442   0.055   3.169  1.00  0.00     0.225 C 
ATOM      6  O   UNL     1       2.973  -0.344   4.201  1.00  0.00    -0.275 OA
ATOM      7  H   UNL     1       1.060  -1.405   3.107  1.00  0.00     0.163 HD
BRANCH   5   8
ATOM      8  C   UNL     1       2.874   1.298   2.452  1.00  0.00     0.161 C 
BRANCH   8   9
ATOM      9  C   UNL     1       3.129   1.055   0.973  1.00  0.00     0.272 C 
BRANCH   9  10
ATOM     10  N   UNL     1       2.161   0.304   0.182  1.00  0.00    -0.334 N 
ATOM     11  C   UNL     1      -1.960   0.010  -1.198  1.00  0.00     0.017 C 
ATOM     12  C   UNL     1      -1.024  -0.095   0.084  1.00  0.00     0.019 C 
ATOM     13  C   UNL     1      -2.118   0.393   1.143  1.00  0.00     0.017 C 
ATOM     14  C   UNL     1      -0.163  -1.857   0.659  1.00  0.00     0.073 C 
ATOM     15  C   UNL     1       0.510   1.163  -0.217  1.00  0.00     0.268 C 
ATOM     16  C   UNL     1       1.864  -1.548   0.629  1.00  0.00     0.263 C 
ATOM     17  H   UNL     1       2.707   0.295  -0.680  1.00  0.00     0.348 HD
ENDBRANCH   9  10
ENDBRANCH   8   9
ENDBRANCH   5   8
ENDBRANCH   3   4
ENDBRANCH   2   3
ENDBRANCH   1   2
BRANCH   1  18
ATOM     18  C   UNL     1      -0.434  -3.409  -1.928  1.00  0.00     0.116 C 
BRANCH  18  19
ATOM     19  N   UNL     1      -1.717  -2.850  -2.271  1.00  0.00    -0.352 N 
ATOM     20  C   UNL     1      -2.902  -3.502  -2.504  1.00  0.00     0.251 C 
ATOM     21  H   UNL     1      -1.748  -1.869  -2.348  1.00  0.00     0.163 HD
ATOM     22  O   UNL     1      -3.889  -2.883  -2.887  1.00  0.00    -0.269 OA
BRANCH  20  23
ATOM     23  C   UNL     1      -2.932  -4.967  -2.392  1.00  0.00     0.039 A 
ATOM     24  C   UNL     1      -3.088  -5.710  -3.564  1.00  0.00     0.014 A 
ATOM     25  C   UNL     1      -2.732  -5.592  -1.161  1.00  0.00     0.014 A 
ATOM     26  C   UNL     1      -2.988  -7.098  -3.510  1.00  0.00     0.010 A 
ATOM     27  C   UNL     1      -2.582  -6.976  -1.120  1.00  0.00     0.010 A 
ATOM     28  C   UNL     1      -2.699  -7.739  -2.295  1.00  0.00    -0.014 A 
BRANCH  28  29
ATOM     29  C   UNL     1      -2.499  -9.209  -2.251  1.00  0.00     0.031 A 
ATOM     30  C   UNL     1      -3.470 -10.079  -1.504  1.00  0.00     0.074 A 
ATOM     31  C   UNL     1      -1.420  -9.747  -2.854  1.00  0.00     0.049 A 
ATOM     32  N   UNL     1      -3.455 -11.375  -1.332  1.00  0.00    -0.248 NA
ATOM     33  C   UNL     1      -4.591  -9.396  -0.842  1.00  0.00     0.031 C 
ATOM     34  C   UNL     1      -0.394  -8.988  -3.574  1.00  0.00     0.029 A 
ATOM     35  N   UNL     1      -1.002 -11.049  -2.960  1.00  0.00    -0.354 N 
ATOM     36  C   UNL     1      -4.560 -11.664  -0.540  1.00  0.00     0.074 A 
ATOM     37  C   UNL     1      -5.182 -10.399  -0.211  1.00  0.00     0.031 C 
ATOM     38  C   UNL     1       0.515  -9.841  -4.072  1.00  0.00     0.029 A 
ATOM     39  C   UNL     1       0.167 -11.200  -3.670  1.00  0.00     0.049 A 
ATOM     40  H   UNL     1      -1.493 -11.805  -2.564  1.00  0.00     0.167 HD
ATOM     41  C   UNL     1      -5.024 -12.876  -0.146  1.00  0.00     0.034 A 
ATOM     42  C   UNL     1       0.879 -12.308  -3.958  1.00  0.00     0.034 A 
ATOM     43  C   UNL     1      -4.382 -14.122  -0.486  1.00  0.00     0.049 A 
ATOM     44  C   UNL     1       0.364 -13.641  -3.477  1.00  0.00     0.074 A 
ATOM     45  C   UNL     1      -4.786 -15.411  -0.182  1.00  0.00     0.029 A 
ATOM     46  N   UNL     1      -3.192 -14.238  -1.196  1.00  0.00    -0.354 N 
ATOM     47  N   UNL     1      -0.717 -13.905  -2.777  1.00  0.00    -0.248 NA
ATOM     48  C   UNL     1       1.154 -14.827  -3.832  1.00  0.00     0.031 C 
ATOM     49  C   UNL     1      -3.804 -16.296  -0.636  1.00  0.00     0.029 A 
ATOM     50  C   UNL     1      -2.831 -15.571  -1.307  1.00  0.00     0.049 A 
ATOM     51  H   UNL     1      -2.681 -13.482  -1.567  1.00  0.00     0.167 HD
ATOM     52  C   UNL     1      -0.753 -15.290  -2.641  1.00  0.00     0.074 A 
ATOM     53  C   UNL     1       0.407 -15.804  -3.340  1.00  0.00     0.031 C 
ATOM     54  C   UNL     1      -1.666 -16.066  -2.004  1.00  0.00     0.034 A 
BRANCH  41  55
ATOM     55  C   UNL     1      -6.263 -12.900   0.718  1.00  0.00     0.023 A 
ATOM     56  C   UNL     1      -7.494 -12.398   0.258  1.00  0.00     0.031 A 
ATOM     57  C   UNL     1      -6.210 -13.406   2.029  1.00  0.00     0.131 A 
ATOM     58  C   UNL     1      -8.595 -12.339   1.125  1.00  0.00     0.055 A 
ATOM     59  C   UNL     1      -7.334 -13.426   2.857  1.00  0.00     0.041 A 
ATOM     60  F   UNL     1      -5.059 -13.878   2.534  1.00  0.00    -0.206 F 
ATOM     61  C   UNL     1      -8.532 -12.875   2.413  1.00  0.00     0.022 A 
BRANCH  58  62
ATOM     62  S   UNL     1     -10.062 -11.413   0.597  1.00  0.00     0.124 S 
ATOM     63  O   UNL     1      -9.501 -10.086   0.352  1.00  0.00    -0.237 OA
ATOM     64  O   UNL     1     -10.494 -12.152  -0.584  1.00  0.00    -0.237 OA
ATOM     65  O   UNL     1     -10.956 -11.500   1.749  1.00  0.00    -0.744 OA
ENDBRANCH  58  62
ENDBRANCH  41  55
BRANCH  42  66
ATOM     66  C   UNL     1       2.152 -12.210  -4.731  1.00  0.00     0.023 A 
ATOM     67  C   UNL     1       2.286 -12.822  -5.988  1.00  0.00     0.031 A 
ATOM     68  C   UNL     1       3.269 -11.536  -4.207  1.00  0.00     0.131 A 
ATOM     69  C   UNL     1       3.521 -12.790  -6.654  1.00  0.00     0.055 A 
ATOM     70  C   UNL     1       4.478 -11.456  -4.900  1.00  0.00     0.041 A 
ATOM     71  F   UNL     1       3.197 -10.929  -3.011  1.00  0.00    -0.206 F 
ATOM     72  C   UNL     1       4.614 -12.099  -6.127  1.00  0.00     0.022 A 
BRANCH  69  73
ATOM     73  S   UNL     1       3.709 -13.751  -8.182  1.00  0.00     0.124 S 
ATOM     74  O   UNL     1       3.366 -15.095  -7.731  1.00  0.00    -0.237 OA
ATOM     75  O   UNL     1       2.745 -13.104  -9.066  1.00  0.00    -0.237 OA
ATOM     76  O   UNL     1       5.112 -13.550  -8.539  1.00  0.00    -0.744 OA
ENDBRANCH  69  73
ENDBRANCH  42  66
BRANCH  54  77
ATOM     77  C   UNL     1      -1.474 -17.562  -2.082  1.00  0.00     0.023 A 
ATOM     78  C   UNL     1      -0.390 -18.206  -1.462  1.00  0.00     0.031 A 
ATOM     79  C   UNL     1      -2.404 -18.353  -2.780  1.00  0.00     0.131 A 
ATOM     80  C   UNL     1      -0.236 -19.595  -1.593  1.00  0.00     0.055 A 
ATOM     81  C   UNL     1      -2.282 -19.741  -2.852  1.00  0.00     0.041 A 
ATOM     82  F   UNL     1      -3.457 -17.790  -3.394  1.00  0.00    -0.206 F 
ATOM     83  C   UNL     1      -1.186 -20.368  -2.266  1.00  0.00     0.022 A 
BRANCH  80  84
ATOM     84  S   UNL     1       1.268 -20.371  -0.943  1.00  0.00     0.124 S 
ATOM     85  O   UNL     1       2.313 -19.675  -1.686  1.00  0.00    -0.237 OA
ATOM     86  O   UNL     1       1.188 -20.065   0.482  1.00  0.00    -0.237 OA
ATOM     87  O   UNL     1       1.101 -21.783  -1.283  1.00  0.00    -0.744 OA
ENDBRANCH  80  84
ENDBRANCH  54  77
ENDBRANCH  28  29
ENDBRANCH  20  23
ENDBRANCH  18  19
ENDBRANCH   1  18
TORSDOF 16
