REMARK SMILES Cc1ccccc1CN1C(=O)[C@H](CC(=O)NCCCCNC(=O)c2ccc(-c3c4nc(c(-c5cc(S(=O)(=O)[O-])ccc5F)c5ccc([nH]5)c(-c5cc(S(=O)(=O)[O-])ccc5F)c5nc(c(-c6cc(S(=O)(=O)[O-])ccc6F)c6ccc3[nH]6)C=C5)C=C4)cc2)n2c(nc3ccccc32)[C@H]1C
REMARK SMILES IDX 18 1 17 2 16 3 14 4 15 5 13 7 12 8 9 9 10 10 96 11 11 12
REMARK SMILES IDX 88 13 97 14 87 15 89 16 95 17 90 18 94 19 91 20 93 21 92 22
REMARK SMILES IDX 8 23 7 24 1 25 2 26 3 27 4 28 6 29 5 30 19 31 20 32 21 33
REMARK SMILES IDX 22 34 23 36 24 37 25 38 86 39 26 40 85 41 27 42 28 43 29 44
REMARK SMILES IDX 79 45 30 46 84 47 78 48 80 49 31 50 83 51 77 52 76 53 32 55
REMARK SMILES IDX 64 56 44 57 63 58 45 59 48 60 62 61 81 62 46 63 47 64 61 66
REMARK SMILES IDX 82 67 49 68 33 69 34 70 42 71 35 72 41 73 43 74 40 75 36 76
REMARK SMILES IDX 37 77 38 78 39 79 65 80 66 81 74 82 67 83 73 84 75 85 72 86
REMARK SMILES IDX 68 87 69 88 70 89 71 90 50 91 51 92 59 93 52 94 58 95 60 96
REMARK SMILES IDX 57 97 53 98 54 99 55 100 56 101
REMARK H PARENT 16 6 21 35 80 54 48 65
REMARK Flexibility Score: inf
ROOT
ATOM      1  C   UNL     1       4.289   5.102  -1.137  1.00  0.00     0.023 C 
ENDROOT
BRANCH   1   2
ATOM      2  C   UNL     1       4.242   5.395  -2.645  1.00  0.00     0.116 C 
BRANCH   2   3
ATOM      3  N   UNL     1       4.373   4.172  -3.431  1.00  0.00    -0.356 N 
ATOM      4  C   UNL     1       3.442   3.440  -4.106  1.00  0.00     0.222 C 
ATOM      5  O   UNL     1       3.782   2.332  -4.535  1.00  0.00    -0.275 OA
ATOM      6  H   UNL     1       5.289   3.814  -3.482  1.00  0.00     0.163 HD
BRANCH   4   7
ATOM      7  C   UNL     1       2.019   3.931  -4.324  1.00  0.00     0.135 C 
BRANCH   7   8
ATOM      8  C   UNL     1       1.042   3.009  -3.575  1.00  0.00     0.187 C 
ATOM      9  N   UNL     1       0.002   2.881  -1.345  1.00  0.00    -0.327 N 
ATOM     10  C   UNL     1       1.058   3.362  -2.091  1.00  0.00     0.247 C 
ATOM     11  C   UNL     1      -1.246   3.525  -1.759  1.00  0.00     0.149 C 
ATOM     12  O   UNL     1       1.919   4.050  -1.546  1.00  0.00    -0.272 OA
ATOM     13  C   UNL     1      -1.423   3.244  -3.227  1.00  0.00     0.133 A 
ATOM     14  C   UNL     1      -2.506   3.192  -0.975  1.00  0.00     0.040 C 
ATOM     15  N   UNL     1      -0.337   3.027  -4.056  1.00  0.00    -0.313 N 
ATOM     16  N   UNL     1      -2.555   3.169  -3.894  1.00  0.00    -0.231 NA
ATOM     17  C   UNL     1      -0.819   2.658  -5.288  1.00  0.00     0.069 A 
ATOM     18  C   UNL     1      -2.200   2.809  -5.168  1.00  0.00     0.089 A 
ATOM     19  C   UNL     1      -0.218   2.225  -6.476  1.00  0.00     0.028 A 
ATOM     20  C   UNL     1      -3.028   2.570  -6.273  1.00  0.00     0.030 A 
ATOM     21  C   UNL     1      -1.063   1.987  -7.569  1.00  0.00     0.002 A 
ATOM     22  C   UNL     1      -2.444   2.163  -7.476  1.00  0.00     0.002 A 
BRANCH   9  23
ATOM     23  C   UNL     1       0.284   2.497   0.043  1.00  0.00     0.156 C 
BRANCH  23  24
ATOM     24  C   UNL     1      -0.002   1.021   0.258  1.00  0.00    -0.026 A 
ATOM     25  C   UNL     1       2.361   0.184  -0.379  1.00  0.00     0.044 C 
ATOM     26  C   UNL     1       0.902  -0.017  -0.062  1.00  0.00    -0.046 A 
ATOM     27  C   UNL     1       0.445  -1.351  -0.041  1.00  0.00     0.004 A 
ATOM     28  C   UNL     1      -0.868  -1.662   0.309  1.00  0.00     0.000 A 
ATOM     29  C   UNL     1      -1.288   0.669   0.706  1.00  0.00     0.006 A 
ATOM     30  C   UNL     1      -1.728  -0.651   0.709  1.00  0.00     0.000 A 
ENDBRANCH  23  24
ENDBRANCH   9  23
ENDBRANCH   7   8
ENDBRANCH   4   7
ENDBRANCH   2   3
ENDBRANCH   1   2
BRANCH   1  31
ATOM     31  C   UNL     1       5.602   5.422  -0.430  1.00  0.00     0.023 C 
BRANCH  31  32
ATOM     32  C   UNL     1       5.899   6.923  -0.292  1.00  0.00     0.116 C 
BRANCH  32  33
ATOM     33  N   UNL     1       4.870   7.597   0.488  1.00  0.00    -0.352 N 
ATOM     34  C   UNL     1       4.885   8.882   0.979  1.00  0.00     0.251 C 
ATOM     35  H   UNL     1       4.065   7.067   0.690  1.00  0.00     0.163 HD
ATOM     36  O   UNL     1       4.606   9.008   2.175  1.00  0.00    -0.269 OA
BRANCH  34  37
ATOM     37  C   UNL     1       5.136  10.109   0.151  1.00  0.00     0.039 A 
ATOM     38  C   UNL     1       5.311  11.316   0.847  1.00  0.00     0.014 A 
ATOM     39  C   UNL     1       5.109  10.175  -1.244  1.00  0.00     0.014 A 
ATOM     40  C   UNL     1       5.531  12.534   0.174  1.00  0.00     0.010 A 
ATOM     41  C   UNL     1       5.331  11.409  -1.921  1.00  0.00     0.010 A 
ATOM     42  C   UNL     1       5.591  12.601  -1.230  1.00  0.00    -0.014 A 
BRANCH  42  43
ATOM     43  C   UNL     1       6.369  13.768  -1.792  1.00  0.00     0.031 A 
ATOM     44  C   UNL     1       7.828  13.312  -1.882  1.00  0.00     0.074 A 
ATOM     45  C   UNL     1       6.115  14.761  -2.711  1.00  0.00     0.049 A 
ATOM     46  N   UNL     1       8.167  12.332  -2.671  1.00  0.00    -0.248 NA
ATOM     47  C   UNL     1       8.946  13.744  -1.036  1.00  0.00     0.031 C 
ATOM     48  C   UNL     1       6.839  16.047  -2.656  1.00  0.00     0.029 A 
ATOM     49  N   UNL     1       5.237  14.972  -3.798  1.00  0.00    -0.354 N 
ATOM     50  C   UNL     1       9.553  12.327  -2.744  1.00  0.00     0.074 A 
ATOM     51  C   UNL     1       9.983  13.057  -1.566  1.00  0.00     0.031 C 
ATOM     52  C   UNL     1       6.491  16.846  -3.688  1.00  0.00     0.029 A 
ATOM     53  C   UNL     1       5.587  16.131  -4.582  1.00  0.00     0.049 A 
ATOM     54  H   UNL     1       4.468  14.390  -3.998  1.00  0.00     0.167 HD
ATOM     55  C   UNL     1      10.162  12.146  -3.964  1.00  0.00     0.034 A 
ATOM     56  C   UNL     1       5.435  16.444  -5.926  1.00  0.00     0.034 A 
ATOM     57  C   UNL     1       9.197  12.531  -4.959  1.00  0.00     0.049 A 
ATOM     58  C   UNL     1       4.923  15.261  -6.715  1.00  0.00     0.074 A 
ATOM     59  C   UNL     1       8.924  13.850  -5.184  1.00  0.00     0.029 A 
ATOM     60  N   UNL     1       8.288  11.741  -5.643  1.00  0.00    -0.354 N 
ATOM     61  N   UNL     1       5.735  14.474  -7.360  1.00  0.00    -0.248 NA
ATOM     62  C   UNL     1       3.571  14.709  -6.630  1.00  0.00     0.031 C 
ATOM     63  C   UNL     1       7.658  13.808  -5.686  1.00  0.00     0.029 A 
ATOM     64  C   UNL     1       7.256  12.557  -6.099  1.00  0.00     0.049 A 
ATOM     65  H   UNL     1       8.359  10.770  -5.782  1.00  0.00     0.167 HD
ATOM     66  C   UNL     1       5.219  13.209  -7.172  1.00  0.00     0.074 A 
ATOM     67  C   UNL     1       3.787  13.438  -7.017  1.00  0.00     0.031 C 
ATOM     68  C   UNL     1       5.966  12.155  -6.675  1.00  0.00     0.034 A 
BRANCH  55  69
ATOM     69  C   UNL     1      11.595  12.313  -4.415  1.00  0.00     0.023 A 
ATOM     70  C   UNL     1      11.813  12.782  -5.745  1.00  0.00     0.031 A 
ATOM     71  C   UNL     1      12.737  11.971  -3.699  1.00  0.00     0.131 A 
ATOM     72  C   UNL     1      13.076  12.908  -6.316  1.00  0.00     0.055 A 
ATOM     73  C   UNL     1      14.020  12.081  -4.277  1.00  0.00     0.041 A 
ATOM     74  F   UNL     1      12.647  11.500  -2.446  1.00  0.00    -0.206 F 
ATOM     75  C   UNL     1      14.195  12.545  -5.588  1.00  0.00     0.022 A 
BRANCH  72  76
ATOM     76  S   UNL     1      13.178  13.496  -8.032  1.00  0.00     0.124 S 
ATOM     77  O   UNL     1      12.261  12.596  -8.725  1.00  0.00    -0.237 OA
ATOM     78  O   UNL     1      12.751  14.885  -7.903  1.00  0.00    -0.237 OA
ATOM     79  O   UNL     1      14.589  13.308  -8.363  1.00  0.00    -0.744 OA
ENDBRANCH  72  76
ENDBRANCH  55  69
BRANCH  56  80
ATOM     80  C   UNL     1       6.316  17.428  -6.728  1.00  0.00     0.023 A 
ATOM     81  C   UNL     1       5.907  18.717  -7.118  1.00  0.00     0.031 A 
ATOM     82  C   UNL     1       7.563  17.021  -7.278  1.00  0.00     0.131 A 
ATOM     83  C   UNL     1       6.696  19.480  -8.036  1.00  0.00     0.055 A 
ATOM     84  C   UNL     1       8.320  17.754  -8.193  1.00  0.00     0.041 A 
ATOM     85  F   UNL     1       8.137  15.871  -6.951  1.00  0.00    -0.206 F 
ATOM     86  C   UNL     1       7.882  18.993  -8.590  1.00  0.00     0.022 A 
BRANCH  83  87
ATOM     87  S   UNL     1       6.205  21.166  -8.508  1.00  0.00     0.124 S 
ATOM     88  O   UNL     1       5.129  20.919  -9.462  1.00  0.00    -0.237 OA
ATOM     89  O   UNL     1       5.801  21.746  -7.230  1.00  0.00    -0.237 OA
ATOM     90  O   UNL     1       7.422  21.742  -9.079  1.00  0.00    -0.744 OA
ENDBRANCH  83  87
ENDBRANCH  56  80
BRANCH  68  91
ATOM     91  C   UNL     1       5.316  10.818  -6.459  1.00  0.00     0.023 A 
ATOM     92  C   UNL     1       4.329  10.360  -7.346  1.00  0.00     0.031 A 
ATOM     93  C   UNL     1       5.626   9.968  -5.383  1.00  0.00     0.131 A 
ATOM     94  C   UNL     1       3.592   9.203  -7.063  1.00  0.00     0.055 A 
ATOM     95  C   UNL     1       4.929   8.786  -5.129  1.00  0.00     0.041 A 
ATOM     96  F   UNL     1       6.610  10.247  -4.520  1.00  0.00    -0.206 F 
ATOM     97  C   UNL     1       3.883   8.409  -5.955  1.00  0.00     0.022 A 
BRANCH  94  98
ATOM     98  S   UNL     1       2.192   8.766  -8.122  1.00  0.00     0.124 S 
ATOM     99  O   UNL     1       1.222   9.804  -7.751  1.00  0.00    -0.237 OA
ATOM    100  O   UNL     1       2.764   8.895  -9.468  1.00  0.00    -0.237 OA
ATOM    101  O   UNL     1       1.861   7.425  -7.712  1.00  0.00    -0.744 OA
ENDBRANCH  94  98
ENDBRANCH  68  91
ENDBRANCH  42  43
ENDBRANCH  34  37
ENDBRANCH  32  33
ENDBRANCH  31  32
ENDBRANCH   1  31
TORSDOF 17
