REMARK SMILES O=C1C[C@@H](C(=O)Nc2cccc(C(=O)NCCCCNC(=O)c3ccc(-c4c5nc(c(-c6cc(S(=O)(=O)[O-])ccc6F)c6ccc([nH]6)c(-c6cc(S(=O)(=O)[O-])ccc6F)c6nc(c(-c7cc(S(=O)(=O)[O-])ccc7F)c7ccc4[nH]7)C=C6)C=C5)cc3)c2)[C@H](c2ccccc2)O1
REMARK SMILES IDX 17 1 16 2 15 3 13 4 14 5 12 7 8 8 9 9 86 10 10 11 11 12 7 13
REMARK SMILES IDX 5 14 6 15 4 17 1 18 2 19 3 20 94 21 87 22 88 23 89 24 93 25
REMARK SMILES IDX 90 26 92 27 91 28 18 29 19 30 20 31 21 32 22 34 23 35 24 36
REMARK SMILES IDX 85 37 25 38 84 39 26 40 27 41 28 42 78 43 29 44 83 45 77 46
REMARK SMILES IDX 79 47 30 48 82 49 76 50 75 51 31 53 63 54 43 55 62 56 44 57
REMARK SMILES IDX 47 58 61 59 80 60 45 61 46 62 60 64 81 65 48 66 32 67 33 68
REMARK SMILES IDX 41 69 34 70 40 71 42 72 39 73 35 74 36 75 37 76 38 77 64 78
REMARK SMILES IDX 65 79 73 80 66 81 72 82 74 83 71 84 67 85 68 86 69 87 70 88
REMARK SMILES IDX 49 89 50 90 58 91 51 92 57 93 59 94 56 95 52 96 53 97 54 98
REMARK SMILES IDX 55 99
REMARK H PARENT 15 6 7 16 20 33 79 52 47 63
REMARK Flexibility Score: inf
ROOT
ATOM      1  C   UNL     1       3.434   4.348  -1.213  1.00  0.00     0.023 C 
ENDROOT
BRANCH   1   2
ATOM      2  C   UNL     1       3.500   3.055  -2.024  1.00  0.00     0.116 C 
BRANCH   2   3
ATOM      3  N   UNL     1       4.860   2.745  -2.408  1.00  0.00    -0.352 N 
ATOM      4  C   UNL     1       5.837   1.956  -1.861  1.00  0.00     0.251 C 
ATOM      5  O   UNL     1       6.901   1.881  -2.479  1.00  0.00    -0.269 OA
ATOM      6  H   UNL     1       5.142   3.196  -3.236  1.00  0.00     0.163 HD
BRANCH   4   7
ATOM      7  C   UNL     1       5.676   1.137  -0.619  1.00  0.00     0.041 A 
ATOM      8  C   UNL     1       4.479   0.345   1.347  1.00  0.00     0.041 A 
ATOM      9  C   UNL     1       5.444  -0.637   1.562  1.00  0.00     0.026 A 
ATOM     10  C   UNL     1       4.663   1.290   0.331  1.00  0.00     0.040 A 
ATOM     11  C   UNL     1       6.507  -0.762   0.671  1.00  0.00     0.003 A 
ATOM     12  C   UNL     1       6.603   0.097  -0.426  1.00  0.00     0.014 A 
BRANCH   8  13
ATOM     13  N   UNL     1       3.340   0.342   2.167  1.00  0.00    -0.326 N 
ATOM     14  C   UNL     1       2.020   0.530   1.834  1.00  0.00     0.232 C 
ATOM     15  O   UNL     1       1.202   0.640   2.749  1.00  0.00    -0.274 OA
ATOM     16  H   UNL     1       3.513   0.182   3.122  1.00  0.00     0.169 HD
BRANCH  14  17
ATOM     17  C   UNL     1       1.573   0.440   0.377  1.00  0.00     0.135 C 
ATOM     18  O   UNL     1      -1.935   0.022   0.305  1.00  0.00    -0.252 OA
ATOM     19  C   UNL     1      -0.717  -0.064   0.249  1.00  0.00     0.307 C 
ATOM     20  C   UNL     1       0.227   1.090   0.141  1.00  0.00     0.140 C 
ATOM     21  O   UNL     1      -0.045  -1.248   0.206  1.00  0.00    -0.457 OA
ATOM     22  C   UNL     1       1.349  -1.013  -0.026  1.00  0.00     0.220 C 
BRANCH  22  23
ATOM     23  C   UNL     1       1.725  -1.311  -1.476  1.00  0.00    -0.007 A 
ATOM     24  C   UNL     1       0.786  -1.724  -2.433  1.00  0.00     0.007 A 
ATOM     25  C   UNL     1       3.063  -1.195  -1.885  1.00  0.00     0.007 A 
ATOM     26  C   UNL     1       1.170  -1.972  -3.756  1.00  0.00     0.000 A 
ATOM     27  C   UNL     1       3.446  -1.418  -3.209  1.00  0.00     0.000 A 
ATOM     28  C   UNL     1       2.497  -1.807  -4.147  1.00  0.00     0.000 A 
ENDBRANCH  22  23
ENDBRANCH  14  17
ENDBRANCH   8  13
ENDBRANCH   4   7
ENDBRANCH   2   3
ENDBRANCH   1   2
BRANCH   1  29
ATOM     29  C   UNL     1       3.243   5.589  -2.085  1.00  0.00     0.023 C 
BRANCH  29  30
ATOM     30  C   UNL     1       1.933   5.613  -2.867  1.00  0.00     0.116 C 
BRANCH  30  31
ATOM     31  N   UNL     1       0.753   5.548  -2.018  1.00  0.00    -0.352 N 
ATOM     32  C   UNL     1      -0.453   6.185  -2.204  1.00  0.00     0.251 C 
ATOM     33  H   UNL     1       0.825   4.981  -1.216  1.00  0.00     0.163 HD
ATOM     34  O   UNL     1      -1.318   6.138  -1.337  1.00  0.00    -0.269 OA
BRANCH  32  35
ATOM     35  C   UNL     1      -0.653   6.964  -3.442  1.00  0.00     0.039 A 
ATOM     36  C   UNL     1      -1.046   8.299  -3.344  1.00  0.00     0.014 A 
ATOM     37  C   UNL     1      -0.349   6.399  -4.683  1.00  0.00     0.014 A 
ATOM     38  C   UNL     1      -1.064   9.091  -4.492  1.00  0.00     0.010 A 
ATOM     39  C   UNL     1      -0.282   7.212  -5.808  1.00  0.00     0.010 A 
ATOM     40  C   UNL     1      -0.638   8.567  -5.725  1.00  0.00    -0.014 A 
BRANCH  40  41
ATOM     41  C   UNL     1      -0.558   9.423  -6.938  1.00  0.00     0.031 A 
ATOM     42  C   UNL     1      -1.409   9.105  -8.137  1.00  0.00     0.074 A 
ATOM     43  C   UNL     1       0.318  10.447  -6.977  1.00  0.00     0.049 A 
ATOM     44  N   UNL     1      -1.450   9.697  -9.303  1.00  0.00    -0.248 NA
ATOM     45  C   UNL     1      -2.309   7.948  -8.020  1.00  0.00     0.031 C 
ATOM     46  C   UNL     1       1.225  10.827  -5.891  1.00  0.00     0.029 A 
ATOM     47  N   UNL     1       0.591  11.358  -7.967  1.00  0.00    -0.354 N 
ATOM     48  C   UNL     1      -2.366   8.976 -10.061  1.00  0.00     0.074 A 
ATOM     49  C   UNL     1      -2.803   7.865  -9.245  1.00  0.00     0.031 C 
ATOM     50  C   UNL     1       1.921  11.915  -6.258  1.00  0.00     0.029 A 
ATOM     51  C   UNL     1       1.553  12.280  -7.622  1.00  0.00     0.049 A 
ATOM     52  H   UNL     1       0.141  11.352  -8.842  1.00  0.00     0.167 HD
ATOM     53  C   UNL     1      -2.818   9.233 -11.314  1.00  0.00     0.034 A 
ATOM     54  C   UNL     1       2.083  13.299  -8.327  1.00  0.00     0.034 A 
ATOM     55  C   UNL     1      -2.378  10.356 -12.106  1.00  0.00     0.049 A 
ATOM     56  C   UNL     1       1.590  13.543  -9.732  1.00  0.00     0.074 A 
ATOM     57  C   UNL     1      -2.818  10.750 -13.357  1.00  0.00     0.029 A 
ATOM     58  N   UNL     1      -1.388  11.256 -11.733  1.00  0.00    -0.354 N 
ATOM     59  N   UNL     1       0.675  12.890 -10.413  1.00  0.00    -0.248 NA
ATOM     60  C   UNL     1       2.195  14.665 -10.460  1.00  0.00     0.031 C 
ATOM     61  C   UNL     1      -2.037  11.831 -13.776  1.00  0.00     0.029 A 
ATOM     62  C   UNL     1      -1.173  12.175 -12.749  1.00  0.00     0.049 A 
ATOM     63  H   UNL     1      -0.909  11.243 -10.873  1.00  0.00     0.167 HD
ATOM     64  C   UNL     1       0.571  13.549 -11.636  1.00  0.00     0.074 A 
ATOM     65  C   UNL     1       1.504  14.655 -11.590  1.00  0.00     0.031 C 
ATOM     66  C   UNL     1      -0.229  13.268 -12.697  1.00  0.00     0.034 A 
BRANCH  53  67
ATOM     67  C   UNL     1      -3.811   8.262 -11.909  1.00  0.00     0.023 A 
ATOM     68  C   UNL     1      -5.071   8.036 -11.327  1.00  0.00     0.031 A 
ATOM     69  C   UNL     1      -3.482   7.529 -13.063  1.00  0.00     0.131 A 
ATOM     70  C   UNL     1      -5.917   7.046 -11.848  1.00  0.00     0.055 A 
ATOM     71  C   UNL     1      -4.366   6.610 -13.631  1.00  0.00     0.041 A 
ATOM     72  F   UNL     1      -2.285   7.682 -13.652  1.00  0.00    -0.206 F 
ATOM     73  C   UNL     1      -5.586   6.351 -13.013  1.00  0.00     0.022 A 
BRANCH  70  74
ATOM     74  S   UNL     1      -7.380   6.566 -10.890  1.00  0.00     0.124 S 
ATOM     75  O   UNL     1      -6.781   6.166  -9.619  1.00  0.00    -0.237 OA
ATOM     76  O   UNL     1      -8.161   7.798 -10.869  1.00  0.00    -0.237 OA
ATOM     77  O   UNL     1      -7.957   5.473 -11.669  1.00  0.00    -0.744 OA
ENDBRANCH  70  74
ENDBRANCH  53  67
BRANCH  54  78
ATOM     78  C   UNL     1       3.139  14.170  -7.731  1.00  0.00     0.023 A 
ATOM     79  C   UNL     1       2.914  15.541  -7.530  1.00  0.00     0.031 A 
ATOM     80  C   UNL     1       4.406  13.656  -7.399  1.00  0.00     0.131 A 
ATOM     81  C   UNL     1       3.954  16.361  -7.063  1.00  0.00     0.055 A 
ATOM     82  C   UNL     1       5.417  14.464  -6.878  1.00  0.00     0.041 A 
ATOM     83  F   UNL     1       4.676  12.352  -7.569  1.00  0.00    -0.206 F 
ATOM     84  C   UNL     1       5.198  15.829  -6.720  1.00  0.00     0.022 A 
BRANCH  81  85
ATOM     85  S   UNL     1       3.684  18.154  -7.001  1.00  0.00     0.124 S 
ATOM     86  O   UNL     1       3.359  18.452  -8.391  1.00  0.00    -0.237 OA
ATOM     87  O   UNL     1       2.586  18.262  -6.047  1.00  0.00    -0.237 OA
ATOM     88  O   UNL     1       4.967  18.674  -6.534  1.00  0.00    -0.744 OA
ENDBRANCH  81  85
ENDBRANCH  54  78
BRANCH  66  89
ATOM     89  C   UNL     1      -0.160  14.208 -13.878  1.00  0.00     0.023 A 
ATOM     90  C   UNL     1       1.002  14.341 -14.656  1.00  0.00     0.031 A 
ATOM     91  C   UNL     1      -1.277  14.992 -14.222  1.00  0.00     0.131 A 
ATOM     92  C   UNL     1       1.043  15.280 -15.698  1.00  0.00     0.055 A 
ATOM     93  C   UNL     1      -1.255  15.871 -15.304  1.00  0.00     0.041 A 
ATOM     94  F   UNL     1      -2.414  14.912 -13.511  1.00  0.00    -0.206 F 
ATOM     95  C   UNL     1      -0.085  16.030 -16.041  1.00  0.00     0.022 A 
BRANCH  92  96
ATOM     96  S   UNL     1       2.623  15.585 -16.534  1.00  0.00     0.124 S 
ATOM     97  O   UNL     1       3.481  15.985 -15.423  1.00  0.00    -0.237 OA
ATOM     98  O   UNL     1       2.918  14.287 -17.131  1.00  0.00    -0.237 OA
ATOM     99  O   UNL     1       2.308  16.648 -17.487  1.00  0.00    -0.744 OA
ENDBRANCH  92  96
ENDBRANCH  66  89
ENDBRANCH  40  41
ENDBRANCH  32  35
ENDBRANCH  30  31
ENDBRANCH  29  30
ENDBRANCH   1  29
TORSDOF 17
