REMARK SMILES COc1cccc(C(=O)NNC(=O)[C@H]2CC(C)=C(C)C[C@@H]2C(=O)NCCCCNC(=O)c2ccc(-c3c4nc(c(-c5cc(S(=O)(=O)[O-])ccc5F)c5ccc([nH]5)c(-c5cc(S(=O)(=O)[O-])ccc5F)c5nc(c(-c6cc(S(=O)(=O)[O-])ccc6F)c6ccc3[nH]6)C=C5)C=C4)cc2)c1
REMARK SMILES IDX 26 1 25 2 24 3 22 4 23 5 21 7 14 8 15 9 16 10 20 11 17 12
REMARK SMILES IDX 18 13 19 14 12 15 11 16 13 18 10 19 8 20 9 21 7 23 3 24 4 25
REMARK SMILES IDX 95 26 5 27 6 28 2 29 1 30 27 31 28 32 29 33 30 34 31 36
REMARK SMILES IDX 32 37 33 38 94 39 34 40 93 41 35 42 36 43 37 44 87 45 38 46
REMARK SMILES IDX 92 47 86 48 88 49 39 50 91 51 85 52 84 53 40 55 72 56 52 57
REMARK SMILES IDX 71 58 53 59 56 60 70 61 89 62 54 63 55 64 69 66 90 67 57 68
REMARK SMILES IDX 41 69 42 70 50 71 43 72 49 73 51 74 48 75 44 76 45 77 46 78
REMARK SMILES IDX 47 79 73 80 74 81 82 82 75 83 81 84 83 85 80 86 76 87 77 88
REMARK SMILES IDX 78 89 79 90 58 91 59 92 67 93 60 94 66 95 68 96 65 97 61 98
REMARK SMILES IDX 62 99 63 100 64 101
REMARK H PARENT 24 6 11 17 10 22 29 35 88 54 56 65
REMARK Flexibility Score: inf
ROOT
ATOM      1  C   UNL     1       8.467   3.722  -1.629  1.00  0.00     0.023 C 
ENDROOT
BRANCH   1   2
ATOM      2  C   UNL     1       8.879   2.256  -1.624  1.00  0.00     0.116 C 
BRANCH   2   3
ATOM      3  N   UNL     1       8.989   1.694  -0.290  1.00  0.00    -0.356 N 
ATOM      4  C   UNL     1       8.498   0.515   0.199  1.00  0.00     0.224 C 
ATOM      5  O   UNL     1       8.806   0.201   1.348  1.00  0.00    -0.275 OA
ATOM      6  H   UNL     1       9.489   2.241   0.357  1.00  0.00     0.163 HD
BRANCH   4   7
ATOM      7  C   UNL     1       7.578  -0.340  -0.683  1.00  0.00     0.095 C 
ATOM      8  C   UNL     1       6.810  -1.381   0.176  1.00  0.00     0.097 C 
ATOM      9  C   UNL     1       6.821  -2.842  -0.297  1.00  0.00     0.045 C 
ATOM     10  C   UNL     1       7.747  -3.236  -1.419  1.00  0.00    -0.074 C 
ATOM     11  C   UNL     1       8.366  -0.866  -1.889  1.00  0.00     0.045 C 
ATOM     12  C   UNL     1       7.837  -4.724  -1.650  1.00  0.00     0.039 C 
ATOM     13  C   UNL     1       8.426  -2.337  -2.152  1.00  0.00    -0.074 C 
ATOM     14  C   UNL     1       9.297  -2.705  -3.329  1.00  0.00     0.039 C 
BRANCH   8  15
ATOM     15  C   UNL     1       5.371  -0.874   0.373  1.00  0.00     0.242 C 
ATOM     16  N   UNL     1       4.730  -1.149   1.556  1.00  0.00    -0.267 N 
ATOM     17  H   UNL     1       4.111  -0.476   1.921  1.00  0.00     0.191 HD
ATOM     18  O   UNL     1       4.771  -0.196  -0.464  1.00  0.00    -0.273 OA
BRANCH  16  19
ATOM     19  N   UNL     1       4.911  -2.329   2.261  1.00  0.00    -0.263 N 
ATOM     20  C   UNL     1       3.897  -3.084   2.829  1.00  0.00     0.269 C 
ATOM     21  O   UNL     1       4.186  -4.118   3.430  1.00  0.00    -0.267 OA
ATOM     22  H   UNL     1       5.833  -2.656   2.368  1.00  0.00     0.191 HD
BRANCH  20  23
ATOM     23  C   UNL     1       2.471  -2.636   2.811  1.00  0.00     0.045 A 
ATOM     24  C   UNL     1       0.566  -1.479   1.851  1.00  0.00     0.119 A 
ATOM     25  C   UNL     1      -0.174  -1.746   3.005  1.00  0.00     0.046 A 
ATOM     26  C   UNL     1       1.869  -1.972   1.732  1.00  0.00     0.060 A 
ATOM     27  C   UNL     1       0.387  -2.474   4.051  1.00  0.00     0.005 A 
ATOM     28  C   UNL     1       1.709  -2.908   3.958  1.00  0.00     0.014 A 
BRANCH  24  29
ATOM     29  O   UNL     1      -0.091  -0.735   0.909  1.00  0.00    -0.497 OA
ATOM     30  C   UNL     1       0.719  -0.099  -0.076  1.00  0.00     0.278 C 
ENDBRANCH  24  29
ENDBRANCH  20  23
ENDBRANCH  16  19
ENDBRANCH   8  15
ENDBRANCH   4   7
ENDBRANCH   2   3
ENDBRANCH   1   2
BRANCH   1  31
ATOM     31  C   UNL     1       9.408   4.671  -0.891  1.00  0.00     0.023 C 
BRANCH  31  32
ATOM     32  C   UNL     1      10.885   4.546  -1.248  1.00  0.00     0.116 C 
BRANCH  32  33
ATOM     33  N   UNL     1      11.154   4.760  -2.661  1.00  0.00    -0.352 N 
ATOM     34  C   UNL     1      12.028   5.640  -3.261  1.00  0.00     0.251 C 
ATOM     35  H   UNL     1      10.636   4.195  -3.278  1.00  0.00     0.163 HD
ATOM     36  O   UNL     1      12.027   5.764  -4.477  1.00  0.00    -0.269 OA
BRANCH  34  37
ATOM     37  C   UNL     1      12.930   6.460  -2.421  1.00  0.00     0.039 A 
ATOM     38  C   UNL     1      12.999   7.835  -2.652  1.00  0.00     0.014 A 
ATOM     39  C   UNL     1      13.668   5.882  -1.385  1.00  0.00     0.014 A 
ATOM     40  C   UNL     1      13.738   8.645  -1.785  1.00  0.00     0.010 A 
ATOM     41  C   UNL     1      14.339   6.698  -0.478  1.00  0.00     0.010 A 
ATOM     42  C   UNL     1      14.372   8.089  -0.662  1.00  0.00    -0.014 A 
BRANCH  42  43
ATOM     43  C   UNL     1      15.055   8.948   0.343  1.00  0.00     0.031 A 
ATOM     44  C   UNL     1      16.534   8.805   0.578  1.00  0.00     0.074 A 
ATOM     45  C   UNL     1      14.330   9.802   1.093  1.00  0.00     0.049 A 
ATOM     46  N   UNL     1      17.292   9.394   1.466  1.00  0.00    -0.248 NA
ATOM     47  C   UNL     1      17.248   7.848  -0.281  1.00  0.00     0.031 C 
ATOM     48  C   UNL     1      12.882   9.998   0.989  1.00  0.00     0.029 A 
ATOM     49  N   UNL     1      14.706  10.657   2.099  1.00  0.00    -0.354 N 
ATOM     50  C   UNL     1      18.568   8.872   1.283  1.00  0.00     0.074 A 
ATOM     51  C   UNL     1      18.465   7.874   0.239  1.00  0.00     0.031 C 
ATOM     52  C   UNL     1      12.498  10.929   1.878  1.00  0.00     0.029 A 
ATOM     53  C   UNL     1      13.659  11.362   2.649  1.00  0.00     0.049 A 
ATOM     54  H   UNL     1      15.638  10.757   2.400  1.00  0.00     0.167 HD
ATOM     55  C   UNL     1      19.722   9.210   1.912  1.00  0.00     0.034 A 
ATOM     56  C   UNL     1      13.633  12.244   3.668  1.00  0.00     0.034 A 
ATOM     57  C   UNL     1      19.809  10.217   2.941  1.00  0.00     0.049 A 
ATOM     58  C   UNL     1      14.924  12.585   4.368  1.00  0.00     0.074 A 
ATOM     59  C   UNL     1      20.935  10.681   3.600  1.00  0.00     0.029 A 
ATOM     60  N   UNL     1      18.728  10.911   3.471  1.00  0.00    -0.354 N 
ATOM     61  N   UNL     1      16.133  12.122   4.144  1.00  0.00    -0.248 NA
ATOM     62  C   UNL     1      14.849  13.572   5.452  1.00  0.00     0.031 C 
ATOM     63  C   UNL     1      20.528  11.602   4.572  1.00  0.00     0.029 A 
ATOM     64  C   UNL     1      19.157  11.773   4.470  1.00  0.00     0.049 A 
ATOM     65  H   UNL     1      17.794  10.806   3.180  1.00  0.00     0.167 HD
ATOM     66  C   UNL     1      16.965  12.786   5.041  1.00  0.00     0.074 A 
ATOM     67  C   UNL     1      16.123  13.692   5.796  1.00  0.00     0.031 C 
ATOM     68  C   UNL     1      18.304  12.661   5.223  1.00  0.00     0.034 A 
BRANCH  55  69
ATOM     69  C   UNL     1      20.974   8.465   1.515  1.00  0.00     0.023 A 
ATOM     70  C   UNL     1      21.498   8.543   0.212  1.00  0.00     0.031 A 
ATOM     71  C   UNL     1      21.643   7.651   2.445  1.00  0.00     0.131 A 
ATOM     72  C   UNL     1      22.609   7.763  -0.144  1.00  0.00     0.055 A 
ATOM     73  C   UNL     1      22.797   6.941   2.106  1.00  0.00     0.041 A 
ATOM     74  F   UNL     1      21.180   7.520   3.698  1.00  0.00    -0.206 F 
ATOM     75  C   UNL     1      23.278   6.983   0.800  1.00  0.00     0.022 A 
BRANCH  72  76
ATOM     76  S   UNL     1      23.080   7.678  -1.893  1.00  0.00     0.124 S 
ATOM     77  O   UNL     1      21.861   7.149  -2.502  1.00  0.00    -0.237 OA
ATOM     78  O   UNL     1      23.399   9.066  -2.203  1.00  0.00    -0.237 OA
ATOM     79  O   UNL     1      24.217   6.760  -1.897  1.00  0.00    -0.744 OA
ENDBRANCH  72  76
ENDBRANCH  55  69
BRANCH  56  80
ATOM     80  C   UNL     1      12.346  12.860   4.106  1.00  0.00     0.023 A 
ATOM     81  C   UNL     1      12.133  14.243   3.998  1.00  0.00     0.031 A 
ATOM     82  C   UNL     1      11.330  12.080   4.687  1.00  0.00     0.131 A 
ATOM     83  C   UNL     1      10.956  14.812   4.509  1.00  0.00     0.055 A 
ATOM     84  C   UNL     1      10.137  12.643   5.143  1.00  0.00     0.041 A 
ATOM     85  F   UNL     1      11.480  10.752   4.811  1.00  0.00    -0.206 F 
ATOM     86  C   UNL     1       9.951  14.020   5.069  1.00  0.00     0.022 A 
BRANCH  83  87
ATOM     87  S   UNL     1      10.796  16.619   4.514  1.00  0.00     0.124 S 
ATOM     88  O   UNL     1      11.970  17.019   5.282  1.00  0.00    -0.237 OA
ATOM     89  O   UNL     1      10.825  16.929   3.088  1.00  0.00    -0.237 OA
ATOM     90  O   UNL     1       9.511  16.845   5.172  1.00  0.00    -0.744 OA
ENDBRANCH  83  87
ENDBRANCH  56  80
BRANCH  68  91
ATOM     91  C   UNL     1      18.942  13.561   6.254  1.00  0.00     0.023 A 
ATOM     92  C   UNL     1      18.667  13.425   7.626  1.00  0.00     0.031 A 
ATOM     93  C   UNL     1      19.829  14.576   5.854  1.00  0.00     0.131 A 
ATOM     94  C   UNL     1      19.229  14.326   8.543  1.00  0.00     0.055 A 
ATOM     95  C   UNL     1      20.433  15.430   6.777  1.00  0.00     0.041 A 
ATOM     96  F   UNL     1      20.125  14.752   4.556  1.00  0.00    -0.206 F 
ATOM     97  C   UNL     1      20.124  15.316   8.129  1.00  0.00     0.022 A 
BRANCH  94  98
ATOM     98  S   UNL     1      18.706  14.243  10.278  1.00  0.00     0.124 S 
ATOM     99  O   UNL     1      17.267  14.459  10.172  1.00  0.00    -0.237 OA
ATOM    100  O   UNL     1      19.122  12.899  10.666  1.00  0.00    -0.237 OA
ATOM    101  O   UNL     1      19.451  15.329  10.913  1.00  0.00    -0.744 OA
ENDBRANCH  94  98
ENDBRANCH  68  91
ENDBRANCH  42  43
ENDBRANCH  34  37
ENDBRANCH  32  33
ENDBRANCH  31  32
ENDBRANCH   1  31
TORSDOF 18
