REMARK SMILES O=C(NCCCCNC(=O)[C@@H]1[C@H](C(=O)Nc2ccc(Cn3cncn3)cc2)[C@@H]2C=C[C@H]1CC2)c1ccc(-c2c3nc(c(-c4cc(S(=O)(=O)[O-])ccc4F)c4ccc([nH]4)c(-c4cc(S(=O)(=O)[O-])ccc4F)c4nc(c(-c5cc(S(=O)(=O)[O-])ccc5F)c5ccc2[nH]5)C=C4)C=C3)cc1
REMARK SMILES IDX 6 1 5 2 4 3 3 4 1 5 2 6 34 8 35 9 96 10 36 11 95 12 37 13
REMARK SMILES IDX 38 14 39 15 89 16 40 17 94 18 88 19 90 20 41 21 93 22 87 23
REMARK SMILES IDX 86 24 42 26 74 27 54 28 73 29 55 30 58 31 72 32 91 33 56 34
REMARK SMILES IDX 57 35 71 37 92 38 59 39 43 40 44 41 52 42 45 43 51 44 53 45
REMARK SMILES IDX 50 46 46 47 47 48 48 49 49 50 75 51 76 52 84 53 77 54 83 55
REMARK SMILES IDX 85 56 82 57 78 58 79 59 80 60 81 61 60 62 61 63 69 64 62 65
REMARK SMILES IDX 68 66 70 67 67 68 63 69 64 70 65 71 66 72 7 73 8 74 9 75
REMARK SMILES IDX 10 77 11 78 12 79 31 80 28 81 30 82 32 83 29 84 33 85 13 86
REMARK SMILES IDX 14 87 15 88 16 90 17 91 27 92 18 93 26 94 19 95 20 96 21 97
REMARK SMILES IDX 22 98 25 99 23 100 24 101
REMARK H PARENT 3 7 90 25 58 36 8 76 15 89
REMARK Flexibility Score: inf
ROOT
ATOM      1  C   UNL     1       4.149  -1.808   3.218  1.00  0.00     0.023 C 
ENDROOT
BRANCH   1   2
ATOM      2  C   UNL     1       4.840  -0.779   2.306  1.00  0.00     0.023 C 
BRANCH   2   3
ATOM      3  C   UNL     1       4.670  -0.936   0.799  1.00  0.00     0.116 C 
BRANCH   3   4
ATOM      4  N   UNL     1       3.311  -1.080   0.329  1.00  0.00    -0.352 N 
ATOM      5  O   UNL     1       1.312  -0.718  -0.526  1.00  0.00    -0.269 OA
ATOM      6  C   UNL     1       2.305  -0.213   0.008  1.00  0.00     0.251 C 
ATOM      7  H   UNL     1       3.049  -2.022   0.212  1.00  0.00     0.163 HD
BRANCH   6   8
ATOM      8  C   UNL     1       2.293   1.240   0.316  1.00  0.00     0.039 A 
ATOM      9  C   UNL     1       3.415   2.049   0.509  1.00  0.00     0.014 A 
ATOM     10  C   UNL     1       1.016   1.826   0.397  1.00  0.00     0.014 A 
ATOM     11  C   UNL     1       3.259   3.394   0.851  1.00  0.00     0.010 A 
ATOM     12  C   UNL     1       0.857   3.166   0.732  1.00  0.00     0.010 A 
ATOM     13  C   UNL     1       1.980   3.946   0.987  1.00  0.00    -0.014 A 
BRANCH  13  14
ATOM     14  C   UNL     1       1.844   5.389   1.202  1.00  0.00     0.031 A 
ATOM     15  C   UNL     1       2.284   6.226   0.048  1.00  0.00     0.074 A 
ATOM     16  C   UNL     1       1.203   5.939   2.256  1.00  0.00     0.049 A 
ATOM     17  N   UNL     1       3.225   7.111   0.014  1.00  0.00    -0.248 NA
ATOM     18  C   UNL     1       1.678   5.961  -1.268  1.00  0.00     0.031 C 
ATOM     19  C   UNL     1       0.472   5.246   3.318  1.00  0.00     0.029 A 
ATOM     20  N   UNL     1       0.973   7.256   2.541  1.00  0.00    -0.354 N 
ATOM     21  C   UNL     1       3.196   7.666  -1.265  1.00  0.00     0.074 A 
ATOM     22  C   UNL     1       2.349   6.809  -2.049  1.00  0.00     0.031 C 
ATOM     23  C   UNL     1      -0.299   6.135   3.987  1.00  0.00     0.029 A 
ATOM     24  C   UNL     1      -0.027   7.475   3.488  1.00  0.00     0.049 A 
ATOM     25  H   UNL     1       1.473   7.989   2.114  1.00  0.00     0.167 HD
ATOM     26  C   UNL     1       3.704   8.905  -1.519  1.00  0.00     0.034 A 
ATOM     27  C   UNL     1      -0.637   8.654   3.798  1.00  0.00     0.034 A 
ATOM     28  C   UNL     1       4.585   9.334  -0.459  1.00  0.00     0.049 A 
ATOM     29  C   UNL     1       0.270   9.742   3.356  1.00  0.00     0.074 A 
ATOM     30  C   UNL     1       5.753   8.843   0.090  1.00  0.00     0.029 A 
ATOM     31  N   UNL     1       4.108  10.250   0.450  1.00  0.00    -0.354 N 
ATOM     32  N   UNL     1       1.437   9.964   3.894  1.00  0.00    -0.248 NA
ATOM     33  C   UNL     1       0.097  10.274   2.013  1.00  0.00     0.031 C 
ATOM     34  C   UNL     1       5.627   9.088   1.489  1.00  0.00     0.029 A 
ATOM     35  C   UNL     1       4.434   9.782   1.698  1.00  0.00     0.049 A 
ATOM     36  H   UNL     1       3.625  11.083   0.244  1.00  0.00     0.167 HD
ATOM     37  C   UNL     1       2.272  10.251   2.827  1.00  0.00     0.074 A 
ATOM     38  C   UNL     1       1.373  10.523   1.706  1.00  0.00     0.031 C 
ATOM     39  C   UNL     1       3.608   9.968   2.875  1.00  0.00     0.034 A 
BRANCH  26  40
ATOM     40  C   UNL     1       3.153   9.885  -2.534  1.00  0.00     0.023 A 
ATOM     41  C   UNL     1       3.810  11.127  -2.657  1.00  0.00     0.031 A 
ATOM     42  C   UNL     1       1.881   9.803  -3.142  1.00  0.00     0.131 A 
ATOM     43  C   UNL     1       3.167  12.232  -3.241  1.00  0.00     0.055 A 
ATOM     44  C   UNL     1       1.276  10.886  -3.787  1.00  0.00     0.041 A 
ATOM     45  F   UNL     1       1.111   8.712  -3.066  1.00  0.00    -0.206 F 
ATOM     46  C   UNL     1       1.902  12.120  -3.807  1.00  0.00     0.022 A 
BRANCH  43  47
ATOM     47  S   UNL     1       3.937  13.864  -3.068  1.00  0.00     0.124 S 
ATOM     48  O   UNL     1       4.112  13.954  -1.623  1.00  0.00    -0.237 OA
ATOM     49  O   UNL     1       5.154  13.707  -3.857  1.00  0.00    -0.237 OA
ATOM     50  O   UNL     1       2.940  14.770  -3.635  1.00  0.00    -0.744 OA
ENDBRANCH  43  47
ENDBRANCH  26  40
BRANCH  27  51
ATOM     51  C   UNL     1      -2.077   8.877   4.133  1.00  0.00     0.023 A 
ATOM     52  C   UNL     1      -2.560  10.043   4.772  1.00  0.00     0.031 A 
ATOM     53  C   UNL     1      -3.053   8.012   3.587  1.00  0.00     0.131 A 
ATOM     54  C   UNL     1      -3.954  10.294   4.847  1.00  0.00     0.055 A 
ATOM     55  C   UNL     1      -4.424   8.263   3.666  1.00  0.00     0.041 A 
ATOM     56  F   UNL     1      -2.701   6.930   2.875  1.00  0.00    -0.206 F 
ATOM     57  C   UNL     1      -4.881   9.411   4.290  1.00  0.00     0.022 A 
BRANCH  54  58
ATOM     58  S   UNL     1      -4.593  11.832   5.597  1.00  0.00     0.124 S 
ATOM     59  O   UNL     1      -4.268  11.647   7.011  1.00  0.00    -0.237 OA
ATOM     60  O   UNL     1      -3.852  12.862   4.890  1.00  0.00    -0.237 OA
ATOM     61  O   UNL     1      -6.026  11.791   5.293  1.00  0.00    -0.744 OA
ENDBRANCH  54  58
ENDBRANCH  27  51
BRANCH  39  62
ATOM     62  C   UNL     1       4.230   9.612   4.209  1.00  0.00     0.023 A 
ATOM     63  C   UNL     1       3.816   8.544   5.039  1.00  0.00     0.031 A 
ATOM     64  C   UNL     1       5.383  10.323   4.588  1.00  0.00     0.131 A 
ATOM     65  C   UNL     1       4.548   8.234   6.203  1.00  0.00     0.055 A 
ATOM     66  C   UNL     1       6.117   9.996   5.726  1.00  0.00     0.041 A 
ATOM     67  F   UNL     1       5.841  11.332   3.828  1.00  0.00    -0.206 F 
ATOM     68  C   UNL     1       5.699   8.953   6.542  1.00  0.00     0.022 A 
BRANCH  65  69
ATOM     69  S   UNL     1       4.008   6.892   7.312  1.00  0.00     0.124 S 
ATOM     70  O   UNL     1       2.586   7.154   7.498  1.00  0.00    -0.237 OA
ATOM     71  O   UNL     1       4.345   5.695   6.548  1.00  0.00    -0.237 OA
ATOM     72  O   UNL     1       4.825   7.095   8.511  1.00  0.00    -0.744 OA
ENDBRANCH  65  69
ENDBRANCH  39  62
ENDBRANCH  13  14
ENDBRANCH   6   8
ENDBRANCH   3   4
ENDBRANCH   2   3
ENDBRANCH   1   2
BRANCH   1  73
ATOM     73  C   UNL     1       4.150  -3.286   2.793  1.00  0.00     0.116 C 
BRANCH  73  74
ATOM     74  N   UNL     1       5.472  -3.809   2.496  1.00  0.00    -0.356 N 
ATOM     75  C   UNL     1       6.451  -3.892   3.442  1.00  0.00     0.224 C 
ATOM     76  H   UNL     1       5.668  -4.114   1.581  1.00  0.00     0.163 HD
ATOM     77  O   UNL     1       7.398  -3.134   3.261  1.00  0.00    -0.275 OA
BRANCH  75  78
ATOM     78  C   UNL     1       6.277  -4.852   4.625  1.00  0.00     0.098 C 
ATOM     79  C   UNL     1       6.756  -4.317   5.985  1.00  0.00     0.098 C 
ATOM     80  C   UNL     1       6.722  -6.358   4.492  1.00  0.00     0.025 C 
ATOM     81  C   UNL     1       7.099  -5.504   6.931  1.00  0.00     0.025 C 
ATOM     82  C   UNL     1       8.080  -6.682   5.106  1.00  0.00    -0.027 C 
ATOM     83  C   UNL     1       5.795  -7.155   5.455  1.00  0.00     0.009 C 
ATOM     84  C   UNL     1       8.271  -6.253   6.365  1.00  0.00    -0.027 C 
ATOM     85  C   UNL     1       5.931  -6.546   6.890  1.00  0.00     0.009 C 
BRANCH  79  86
ATOM     86  C   UNL     1       7.712  -3.112   6.045  1.00  0.00     0.228 C 
ATOM     87  O   UNL     1       7.252  -2.066   6.536  1.00  0.00    -0.274 OA
ATOM     88  N   UNL     1       9.044  -3.075   5.766  1.00  0.00    -0.326 N 
ATOM     89  H   UNL     1       9.459  -2.228   6.051  1.00  0.00     0.169 HD
BRANCH  88  90
ATOM     90  C   UNL     1       9.972  -3.942   5.172  1.00  0.00     0.041 A 
ATOM     91  C   UNL     1      11.184  -4.125   5.837  1.00  0.00     0.026 A 
ATOM     92  C   UNL     1       9.797  -4.601   3.960  1.00  0.00     0.026 A 
ATOM     93  C   UNL     1      12.079  -5.118   5.419  1.00  0.00     0.008 A 
ATOM     94  C   UNL     1      10.700  -5.561   3.507  1.00  0.00     0.008 A 
ATOM     95  C   UNL     1      11.804  -5.892   4.284  1.00  0.00    -0.026 A 
BRANCH  95  96
ATOM     96  C   UNL     1      12.656  -7.062   3.883  1.00  0.00     0.181 C 
BRANCH  96  97
ATOM     97  N   UNL     1      13.659  -6.671   2.921  1.00  0.00    -0.249 N 
ATOM     98  C   UNL     1      14.769  -5.921   3.149  1.00  0.00     0.220 A 
ATOM     99  N   UNL     1      13.589  -7.060   1.632  1.00  0.00    -0.160 NA
ATOM    100  N   UNL     1      15.439  -5.779   2.029  1.00  0.00    -0.224 NA
ATOM    101  C   UNL     1      14.674  -6.464   1.128  1.00  0.00     0.246 A 
ENDBRANCH  96  97
ENDBRANCH  95  96
ENDBRANCH  88  90
ENDBRANCH  79  86
ENDBRANCH  75  78
ENDBRANCH  73  74
ENDBRANCH   1  73
TORSDOF 18
