REMARK SMILES C=Cc1cccc(-c2ccc([C@@H](C)C(=O)NCCCCNC(=O)c3ccc(-c4c5nc(c(-c6cc(S(=O)(=O)[O-])ccc6F)c6ccc([nH]6)c(-c6cc(S(=O)(=O)[O-])ccc6F)c6nc(c(-c7cc(S(=O)(=O)[O-])ccc7F)c7ccc4[nH]7)C=C6)C=C5)cc3)cc2)c1
REMARK SMILES IDX 18 1 17 2 16 3 14 4 15 5 12 7 13 8 11 9 8 10 9 11 88 12
REMARK SMILES IDX 10 13 87 14 7 15 3 16 4 17 89 18 5 19 6 20 2 21 1 22 19 23
REMARK SMILES IDX 20 24 21 25 22 26 23 28 24 29 25 30 86 31 26 32 85 33 27 34
REMARK SMILES IDX 28 35 29 36 79 37 30 38 84 39 78 40 80 41 31 42 83 43 77 44
REMARK SMILES IDX 76 45 32 47 64 48 44 49 63 50 45 51 48 52 62 53 81 54 46 55
REMARK SMILES IDX 47 56 61 58 82 59 49 60 33 61 34 62 42 63 35 64 41 65 43 66
REMARK SMILES IDX 40 67 36 68 37 69 38 70 39 71 65 72 66 73 74 74 67 75 73 76
REMARK SMILES IDX 75 77 72 78 68 79 69 80 70 81 71 82 50 83 51 84 59 85 52 86
REMARK SMILES IDX 58 87 60 88 57 89 53 90 54 91 55 92 56 93
REMARK H PARENT 16 6 21 27 80 46 48 57
REMARK Flexibility Score: inf
ROOT
ATOM      1  C   UNL     1      -6.177   3.199  -2.822  1.00  0.00     0.023 C 
ENDROOT
BRANCH   1   2
ATOM      2  C   UNL     1      -7.007   3.029  -4.095  1.00  0.00     0.116 C 
BRANCH   2   3
ATOM      3  N   UNL     1      -6.180   2.923  -5.279  1.00  0.00    -0.356 N 
ATOM      4  C   UNL     1      -5.714   1.837  -5.956  1.00  0.00     0.227 C 
ATOM      5  O   UNL     1      -4.963   2.060  -6.915  1.00  0.00    -0.274 OA
ATOM      6  H   UNL     1      -5.908   3.788  -5.663  1.00  0.00     0.163 HD
BRANCH   4   7
ATOM      7  C   UNL     1      -6.082   0.388  -5.598  1.00  0.00     0.105 C 
ATOM      8  C   UNL     1      -7.572   0.075  -5.734  1.00  0.00     0.023 C 
BRANCH   7   9
ATOM      9  C   UNL     1      -5.394  -0.111  -4.337  1.00  0.00    -0.036 A 
ATOM     10  C   UNL     1      -3.928  -0.850  -1.992  1.00  0.00    -0.018 A 
ATOM     11  C   UNL     1      -5.261  -0.412  -1.925  1.00  0.00     0.009 A 
ATOM     12  C   UNL     1      -3.366  -0.959  -3.273  1.00  0.00     0.009 A 
ATOM     13  C   UNL     1      -5.991  -0.082  -3.075  1.00  0.00     0.005 A 
ATOM     14  C   UNL     1      -4.075  -0.578  -4.420  1.00  0.00     0.005 A 
BRANCH  10  15
ATOM     15  C   UNL     1      -3.150  -1.154  -0.765  1.00  0.00    -0.018 A 
ATOM     16  C   UNL     1      -1.014  -1.184   0.465  1.00  0.00    -0.026 A 
ATOM     17  C   UNL     1      -1.668  -1.699   1.586  1.00  0.00     0.008 A 
ATOM     18  C   UNL     1      -1.760  -0.919  -0.696  1.00  0.00     0.016 A 
ATOM     19  C   UNL     1      -3.041  -1.933   1.552  1.00  0.00     0.001 A 
ATOM     20  C   UNL     1      -3.768  -1.670   0.388  1.00  0.00     0.009 A 
BRANCH  16  21
ATOM     21  C   UNL     1       0.441  -0.993   0.521  1.00  0.00     0.000 C 
ATOM     22  C   UNL     1       1.087   0.045  -0.024  1.00  0.00     0.009 C 
ENDBRANCH  16  21
ENDBRANCH  10  15
ENDBRANCH   7   9
ENDBRANCH   4   7
ENDBRANCH   2   3
ENDBRANCH   1   2
BRANCH   1  23
ATOM     23  C   UNL     1      -5.803   4.640  -2.481  1.00  0.00     0.023 C 
BRANCH  23  24
ATOM     24  C   UNL     1      -6.978   5.574  -2.212  1.00  0.00     0.116 C 
BRANCH  24  25
ATOM     25  N   UNL     1      -7.857   5.128  -1.142  1.00  0.00    -0.352 N 
ATOM     26  C   UNL     1      -8.593   5.901  -0.268  1.00  0.00     0.251 C 
ATOM     27  H   UNL     1      -7.937   4.153  -1.027  1.00  0.00     0.163 HD
ATOM     28  O   UNL     1      -9.225   5.377   0.637  1.00  0.00    -0.269 OA
BRANCH  26  29
ATOM     29  C   UNL     1      -8.557   7.373  -0.417  1.00  0.00     0.039 A 
ATOM     30  C   UNL     1      -8.243   8.158   0.695  1.00  0.00     0.014 A 
ATOM     31  C   UNL     1      -8.765   7.964  -1.665  1.00  0.00     0.014 A 
ATOM     32  C   UNL     1      -8.056   9.534   0.536  1.00  0.00     0.010 A 
ATOM     33  C   UNL     1      -8.506   9.320  -1.834  1.00  0.00     0.010 A 
ATOM     34  C   UNL     1      -8.144  10.118  -0.737  1.00  0.00    -0.014 A 
BRANCH  34  35
ATOM     35  C   UNL     1      -7.877  11.563  -0.956  1.00  0.00     0.031 A 
ATOM     36  C   UNL     1      -8.979  12.452  -1.464  1.00  0.00     0.074 A 
ATOM     37  C   UNL     1      -6.631  12.051  -0.790  1.00  0.00     0.049 A 
ATOM     38  N   UNL     1      -8.925  13.696  -1.863  1.00  0.00    -0.248 NA
ATOM     39  C   UNL     1     -10.311  11.839  -1.575  1.00  0.00     0.031 C 
ATOM     40  C   UNL     1      -5.471  11.279  -0.341  1.00  0.00     0.029 A 
ATOM     41  N   UNL     1      -6.128  13.312  -0.998  1.00  0.00    -0.354 N 
ATOM     42  C   UNL     1     -10.209  14.007  -2.299  1.00  0.00     0.074 A 
ATOM     43  C   UNL     1     -11.000  12.802  -2.168  1.00  0.00     0.031 C 
ATOM     44  C   UNL     1      -4.397  12.085  -0.294  1.00  0.00     0.029 A 
ATOM     45  C   UNL     1      -4.779  13.417  -0.750  1.00  0.00     0.049 A 
ATOM     46  H   UNL     1      -6.682  14.069  -1.296  1.00  0.00     0.167 HD
ATOM     47  C   UNL     1     -10.688  15.195  -2.746  1.00  0.00     0.034 A 
ATOM     48  C   UNL     1      -3.943  14.466  -0.890  1.00  0.00     0.034 A 
ATOM     49  C   UNL     1      -9.891  16.393  -2.844  1.00  0.00     0.049 A 
ATOM     50  C   UNL     1      -4.498  15.778  -1.383  1.00  0.00     0.074 A 
ATOM     51  C   UNL     1     -10.283  17.662  -3.233  1.00  0.00     0.029 A 
ATOM     52  N   UNL     1      -8.536  16.470  -2.547  1.00  0.00    -0.354 N 
ATOM     53  N   UNL     1      -5.723  16.068  -1.759  1.00  0.00    -0.248 NA
ATOM     54  C   UNL     1      -3.562  16.907  -1.460  1.00  0.00     0.031 C 
ATOM     55  C   UNL     1      -9.156  18.492  -3.222  1.00  0.00     0.029 A 
ATOM     56  C   UNL     1      -8.074  17.759  -2.761  1.00  0.00     0.049 A 
ATOM     57  H   UNL     1      -7.984  15.719  -2.231  1.00  0.00     0.167 HD
ATOM     58  C   UNL     1      -5.709  17.421  -2.083  1.00  0.00     0.074 A 
ATOM     59  C   UNL     1      -4.358  17.891  -1.853  1.00  0.00     0.031 C 
ATOM     60  C   UNL     1      -6.723  18.208  -2.524  1.00  0.00     0.034 A 
BRANCH  47  61
ATOM     61  C   UNL     1     -12.133  15.235  -3.182  1.00  0.00     0.023 A 
ATOM     62  C   UNL     1     -13.182  14.975  -2.282  1.00  0.00     0.031 A 
ATOM     63  C   UNL     1     -12.467  15.491  -4.524  1.00  0.00     0.131 A 
ATOM     64  C   UNL     1     -14.501  14.886  -2.750  1.00  0.00     0.055 A 
ATOM     65  C   UNL     1     -13.792  15.488  -4.966  1.00  0.00     0.041 A 
ATOM     66  F   UNL     1     -11.509  15.727  -5.434  1.00  0.00    -0.206 F 
ATOM     67  C   UNL     1     -14.817  15.166  -4.081  1.00  0.00     0.022 A 
BRANCH  64  68
ATOM     68  S   UNL     1     -15.774  14.245  -1.629  1.00  0.00     0.124 S 
ATOM     69  O   UNL     1     -15.252  12.915  -1.322  1.00  0.00    -0.237 OA
ATOM     70  O   UNL     1     -15.747  15.209  -0.535  1.00  0.00    -0.237 OA
ATOM     71  O   UNL     1     -16.987  14.257  -2.443  1.00  0.00    -0.744 OA
ENDBRANCH  64  68
ENDBRANCH  47  61
BRANCH  48  72
ATOM     72  C   UNL     1      -2.495  14.326  -0.568  1.00  0.00     0.023 A 
ATOM     73  C   UNL     1      -1.925  15.026   0.507  1.00  0.00     0.031 A 
ATOM     74  C   UNL     1      -1.651  13.523  -1.354  1.00  0.00     0.131 A 
ATOM     75  C   UNL     1      -0.543  14.946   0.741  1.00  0.00     0.055 A 
ATOM     76  C   UNL     1      -0.284  13.408  -1.089  1.00  0.00     0.041 A 
ATOM     77  F   UNL     1      -2.147  12.826  -2.389  1.00  0.00    -0.206 F 
ATOM     78  C   UNL     1       0.279  14.133  -0.043  1.00  0.00     0.022 A 
BRANCH  75  79
ATOM     79  S   UNL     1       0.179  15.984   2.041  1.00  0.00     0.124 S 
ATOM     80  O   UNL     1      -0.206  17.321   1.603  1.00  0.00    -0.237 OA
ATOM     81  O   UNL     1      -0.493  15.482   3.236  1.00  0.00    -0.237 OA
ATOM     82  O   UNL     1       1.607  15.686   1.961  1.00  0.00    -0.744 OA
ENDBRANCH  75  79
ENDBRANCH  48  72
BRANCH  60  83
ATOM     83  C   UNL     1      -6.418  19.671  -2.723  1.00  0.00     0.023 A 
ATOM     84  C   UNL     1      -5.580  20.121  -3.757  1.00  0.00     0.031 A 
ATOM     85  C   UNL     1      -6.980  20.628  -1.859  1.00  0.00     0.131 A 
ATOM     86  C   UNL     1      -5.289  21.488  -3.873  1.00  0.00     0.055 A 
ATOM     87  C   UNL     1      -6.728  21.991  -2.011  1.00  0.00     0.041 A 
ATOM     88  F   UNL     1      -7.787  20.250  -0.855  1.00  0.00    -0.206 F 
ATOM     89  C   UNL     1      -5.870  22.427  -3.016  1.00  0.00     0.022 A 
BRANCH  86  90
ATOM     90  S   UNL     1      -4.082  22.021  -5.117  1.00  0.00     0.124 S 
ATOM     91  O   UNL     1      -2.884  21.293  -4.710  1.00  0.00    -0.237 OA
ATOM     92  O   UNL     1      -4.702  21.582  -6.363  1.00  0.00    -0.237 OA
ATOM     93  O   UNL     1      -4.018  23.470  -4.936  1.00  0.00    -0.744 OA
ENDBRANCH  86  90
ENDBRANCH  60  83
ENDBRANCH  34  35
ENDBRANCH  26  29
ENDBRANCH  24  25
ENDBRANCH  23  24
ENDBRANCH   1  23
TORSDOF 17
