REMARK SMILES CN1C(=O)/C(=C(\SC2=[NH+][C@@H]3N=c4ccccc4=C3N=N2)C(=O)NCCCCNC(=O)c2ccc(-c3c4nc(c(-c5cc(S(=O)(=O)[O-])ccc5F)c5ccc([nH]5)c(-c5cc(S(=O)(=O)[O-])ccc5F)c5nc(c(-c6cc(S(=O)(=O)[O-])ccc6F)c6ccc3[nH]6)C=C5)C=C4)cc2)c2ccccc21
REMARK SMILES IDX 26 1 25 2 24 3 23 4 21 5 22 6 6 8 1 9 2 10 3 11 99 12 4 13
REMARK SMILES IDX 5 14 94 15 98 16 95 17 97 18 96 19 7 20 8 21 9 22 20 23
REMARK SMILES IDX 10 24 19 26 11 27 18 28 12 29 17 30 13 31 16 32 14 33 15 34
REMARK SMILES IDX 27 35 28 36 29 37 30 39 31 40 32 41 93 42 33 43 92 44 34 45
REMARK SMILES IDX 35 46 36 47 86 48 37 49 91 50 85 51 87 52 38 53 90 54 84 55
REMARK SMILES IDX 83 56 39 58 71 59 51 60 70 61 52 62 55 63 69 64 88 65 53 66
REMARK SMILES IDX 54 67 68 69 89 70 56 71 40 72 41 73 49 74 42 75 48 76 50 77
REMARK SMILES IDX 47 78 43 79 44 80 45 81 46 82 72 83 73 84 81 85 74 86 80 87
REMARK SMILES IDX 82 88 79 89 75 90 76 91 77 92 78 93 57 94 58 95 66 96 59 97
REMARK SMILES IDX 65 98 67 99 64 100 60 101 61 102 62 103 63 104
REMARK H PARENT 23 7 9 25 28 38 87 57 55 68
REMARK Flexibility Score: inf
ROOT
ATOM      1  C   UNL     1       2.364   7.054  -1.996  1.00  0.00     0.023 C 
ENDROOT
BRANCH   1   2
ATOM      2  C   UNL     1       3.167   5.768  -1.789  1.00  0.00     0.023 C 
BRANCH   2   3
ATOM      3  C   UNL     1       2.858   4.976  -0.514  1.00  0.00     0.116 C 
BRANCH   3   4
ATOM      4  N   UNL     1       1.515   4.423  -0.568  1.00  0.00    -0.352 N 
ATOM      5  C   UNL     1       0.918   3.224  -0.361  1.00  0.00     0.259 C 
ATOM      6  O   UNL     1      -0.210   3.194  -0.864  1.00  0.00    -0.269 OA
ATOM      7  H   UNL     1       0.857   5.109  -0.828  1.00  0.00     0.163 HD
BRANCH   5   8
ATOM      8  C   UNL     1       1.466   2.028   0.414  1.00  0.00     0.098 C 
ATOM      9  C   UNL     1       0.760  -2.665   0.871  1.00  0.00     0.153 C 
ATOM     10  N   UNL     1       0.414  -1.275   0.776  1.00  0.00    -0.311 N 
ATOM     11  C   UNL     1       1.068  -0.242   1.424  1.00  0.00     0.260 C 
ATOM     12  C   UNL     1      -0.745  -0.772   0.167  1.00  0.00     0.052 A 
ATOM     13  O   UNL     1       1.772  -0.305   2.429  1.00  0.00    -0.269 OA
ATOM     14  C   UNL     1       0.621   1.001   0.713  1.00  0.00     0.069 C 
ATOM     15  C   UNL     1      -0.742   0.629   0.245  1.00  0.00     0.012 A 
ATOM     16  C   UNL     1      -1.838  -1.500  -0.277  1.00  0.00     0.027 A 
ATOM     17  C   UNL     1      -1.933   1.307   0.040  1.00  0.00     0.011 A 
ATOM     18  C   UNL     1      -3.010  -0.798  -0.555  1.00  0.00     0.002 A 
ATOM     19  C   UNL     1      -3.065   0.591  -0.371  1.00  0.00     0.001 A 
BRANCH   8  20
ATOM     20  S   UNL     1       3.118   2.150   0.976  1.00  0.00     0.011 SA
BRANCH  20  21
ATOM     21  C   UNL     1       4.087   0.768   0.404  1.00  0.00     0.386 C 
ATOM     22  N   UNL     1       5.067   1.008  -0.416  1.00  0.00    -0.235 N 
ATOM     23  N   UNL     1       3.855  -0.429   1.052  1.00  0.00     0.088 NA
ATOM     24  C   UNL     1       6.084  -0.044  -0.378  1.00  0.00     0.348 C 
ATOM     25  H   UNL     1       5.119   1.802  -0.995  1.00  0.00     0.308 HD
ATOM     26  N   UNL     1       4.496  -1.469   0.801  1.00  0.00    -0.033 NA
ATOM     27  N   UNL     1       6.862  -0.240  -1.629  1.00  0.00    -0.232 NA
ATOM     28  C   UNL     1       5.508  -1.372  -0.081  1.00  0.00     0.165 C 
ATOM     29  C   UNL     1       6.880  -1.540  -1.743  1.00  0.00     0.072 A 
ATOM     30  C   UNL     1       6.061  -2.328  -0.808  1.00  0.00     0.032 A 
ATOM     31  C   UNL     1       7.607  -2.339  -2.761  1.00  0.00     0.029 A 
ATOM     32  C   UNL     1       5.915  -3.745  -0.893  1.00  0.00     0.012 A 
ATOM     33  C   UNL     1       7.461  -3.678  -2.776  1.00  0.00     0.002 A 
ATOM     34  C   UNL     1       6.606  -4.395  -1.842  1.00  0.00     0.001 A 
ENDBRANCH  20  21
ENDBRANCH   8  20
ENDBRANCH   5   8
ENDBRANCH   3   4
ENDBRANCH   2   3
ENDBRANCH   1   2
BRANCH   1  35
ATOM     35  C   UNL     1       2.520   8.114  -0.910  1.00  0.00     0.116 C 
BRANCH  35  36
ATOM     36  N   UNL     1       3.898   8.542  -0.718  1.00  0.00    -0.352 N 
ATOM     37  C   UNL     1       4.412   9.815  -0.614  1.00  0.00     0.251 C 
ATOM     38  H   UNL     1       4.559   7.815  -0.653  1.00  0.00     0.163 HD
ATOM     39  O   UNL     1       5.627   9.980  -0.562  1.00  0.00    -0.269 OA
BRANCH  37  40
ATOM     40  C   UNL     1       3.499  10.979  -0.612  1.00  0.00     0.039 A 
ATOM     41  C   UNL     1       2.349  10.983   0.179  1.00  0.00     0.014 A 
ATOM     42  C   UNL     1       3.781  12.066  -1.445  1.00  0.00     0.014 A 
ATOM     43  C   UNL     1       1.400  11.986   0.008  1.00  0.00     0.010 A 
ATOM     44  C   UNL     1       2.860  13.112  -1.558  1.00  0.00     0.010 A 
ATOM     45  C   UNL     1       1.636  13.053  -0.875  1.00  0.00    -0.014 A 
BRANCH  45  46
ATOM     46  C   UNL     1       0.583  14.084  -1.073  1.00  0.00     0.031 A 
ATOM     47  C   UNL     1      -0.115  14.226  -2.400  1.00  0.00     0.074 A 
ATOM     48  C   UNL     1       0.213  14.853  -0.031  1.00  0.00     0.049 A 
ATOM     49  N   UNL     1      -1.087  15.036  -2.735  1.00  0.00    -0.248 NA
ATOM     50  C   UNL     1       0.334  13.349  -3.494  1.00  0.00     0.031 C 
ATOM     51  C   UNL     1       0.818  14.798   1.300  1.00  0.00     0.029 A 
ATOM     52  N   UNL     1      -0.768  15.806   0.086  1.00  0.00    -0.354 N 
ATOM     53  C   UNL     1      -1.359  14.776  -4.073  1.00  0.00     0.074 A 
ATOM     54  C   UNL     1      -0.426  13.757  -4.502  1.00  0.00     0.031 C 
ATOM     55  C   UNL     1       0.163  15.638   2.113  1.00  0.00     0.029 A 
ATOM     56  C   UNL     1      -0.867  16.340   1.351  1.00  0.00     0.049 A 
ATOM     57  H   UNL     1      -1.345  16.082  -0.662  1.00  0.00     0.167 HD
ATOM     58  C   UNL     1      -2.311  15.325  -4.865  1.00  0.00     0.034 A 
ATOM     59  C   UNL     1      -1.687  17.291   1.844  1.00  0.00     0.034 A 
ATOM     60  C   UNL     1      -3.248  16.325  -4.420  1.00  0.00     0.049 A 
ATOM     61  C   UNL     1      -2.724  17.899   0.936  1.00  0.00     0.074 A 
ATOM     62  C   UNL     1      -4.259  16.930  -5.146  1.00  0.00     0.029 A 
ATOM     63  N   UNL     1      -3.300  16.861  -3.142  1.00  0.00    -0.354 N 
ATOM     64  N   UNL     1      -2.991  17.613  -0.317  1.00  0.00    -0.248 NA
ATOM     65  C   UNL     1      -3.573  18.957   1.502  1.00  0.00     0.031 C 
ATOM     66  C   UNL     1      -4.891  17.863  -4.323  1.00  0.00     0.029 A 
ATOM     67  C   UNL     1      -4.313  17.802  -3.064  1.00  0.00     0.049 A 
ATOM     68  H   UNL     1      -2.704  16.609  -2.399  1.00  0.00     0.167 HD
ATOM     69  C   UNL     1      -4.043  18.446  -0.685  1.00  0.00     0.074 A 
ATOM     70  C   UNL     1      -4.386  19.224   0.488  1.00  0.00     0.031 C 
ATOM     71  C   UNL     1      -4.658  18.563  -1.888  1.00  0.00     0.034 A 
BRANCH  58  72
ATOM     72  C   UNL     1      -2.422  14.857  -6.294  1.00  0.00     0.023 A 
ATOM     73  C   UNL     1      -2.169  15.751  -7.352  1.00  0.00     0.031 A 
ATOM     74  C   UNL     1      -2.910  13.576  -6.606  1.00  0.00     0.131 A 
ATOM     75  C   UNL     1      -2.439  15.362  -8.671  1.00  0.00     0.055 A 
ATOM     76  C   UNL     1      -3.143  13.181  -7.924  1.00  0.00     0.041 A 
ATOM     77  F   UNL     1      -3.164  12.688  -5.631  1.00  0.00    -0.206 F 
ATOM     78  C   UNL     1      -2.919  14.081  -8.963  1.00  0.00     0.022 A 
BRANCH  75  79
ATOM     79  S   UNL     1      -2.230  16.518 -10.053  1.00  0.00     0.124 S 
ATOM     80  O   UNL     1      -1.292  15.796 -10.909  1.00  0.00    -0.237 OA
ATOM     81  O   UNL     1      -3.592  16.624 -10.569  1.00  0.00    -0.237 OA
ATOM     82  O   UNL     1      -1.696  17.722  -9.426  1.00  0.00    -0.744 OA
ENDBRANCH  75  79
ENDBRANCH  58  72
BRANCH  59  83
ATOM     83  C   UNL     1      -1.570  17.674   3.281  1.00  0.00     0.023 A 
ATOM     84  C   UNL     1      -0.375  18.216   3.788  1.00  0.00     0.031 A 
ATOM     85  C   UNL     1      -2.607  17.399   4.187  1.00  0.00     0.131 A 
ATOM     86  C   UNL     1      -0.218  18.392   5.169  1.00  0.00     0.055 A 
ATOM     87  C   UNL     1      -2.474  17.644   5.555  1.00  0.00     0.041 A 
ATOM     88  F   UNL     1      -3.762  16.871   3.754  1.00  0.00    -0.206 F 
ATOM     89  C   UNL     1      -1.266  18.124   6.054  1.00  0.00     0.022 A 
BRANCH  86  90
ATOM     90  S   UNL     1       1.399  18.825   5.870  1.00  0.00     0.124 S 
ATOM     91  O   UNL     1       1.139  20.144   6.438  1.00  0.00    -0.237 OA
ATOM     92  O   UNL     1       1.604  17.750   6.839  1.00  0.00    -0.237 OA
ATOM     93  O   UNL     1       2.292  18.795   4.717  1.00  0.00    -0.744 OA
ENDBRANCH  86  90
ENDBRANCH  59  83
BRANCH  71  94
ATOM     94  C   UNL     1      -5.773  19.570  -2.031  1.00  0.00     0.023 A 
ATOM     95  C   UNL     1      -7.082  19.139  -2.319  1.00  0.00     0.031 A 
ATOM     96  C   UNL     1      -5.508  20.950  -2.036  1.00  0.00     0.131 A 
ATOM     97  C   UNL     1      -8.070  20.079  -2.636  1.00  0.00     0.055 A 
ATOM     98  C   UNL     1      -6.506  21.885  -2.313  1.00  0.00     0.041 A 
ATOM     99  F   UNL     1      -4.273  21.407  -1.778  1.00  0.00    -0.206 F 
ATOM    100  C   UNL     1      -7.790  21.450  -2.629  1.00  0.00     0.022 A 
BRANCH  97 101
ATOM    101  S   UNL     1      -9.729  19.558  -3.153  1.00  0.00     0.124 S 
ATOM    102  O   UNL     1     -10.569  20.154  -2.117  1.00  0.00    -0.237 OA
ATOM    103  O   UNL     1      -9.845  20.166  -4.476  1.00  0.00    -0.237 OA
ATOM    104  O   UNL     1      -9.662  18.100  -3.137  1.00  0.00    -0.744 OA
ENDBRANCH  97 101
ENDBRANCH  71  94
ENDBRANCH  45  46
ENDBRANCH  37  40
ENDBRANCH  35  36
ENDBRANCH   1  35
TORSDOF 16
