REMARK SMILES C[C@@H](C(=O)NCCCCNC(=O)c1ccc(-c2c3nc(c(-c4cc(S(=O)(=O)[O-])ccc4F)c4ccc([nH]4)c(-c4cc(S(=O)(=O)[O-])ccc4F)c4nc(c(-c5cc(S(=O)(=O)[O-])ccc5F)c5ccc2[nH]5)C=C4)C=C3)cc1)c1ccc(NC2CCCC2)cc1F
REMARK SMILES IDX 7 1 6 2 5 3 3 4 4 5 2 7 1 8 76 9 77 10 87 11 78 12 86 13
REMARK SMILES IDX 88 14 79 15 80 16 81 18 82 19 85 20 83 21 84 22 8 23 9 24
REMARK SMILES IDX 10 25 11 26 12 28 13 29 14 30 75 31 15 32 74 33 16 34 17 35
REMARK SMILES IDX 18 36 68 37 19 38 73 39 67 40 69 41 20 42 72 43 66 44 65 45
REMARK SMILES IDX 21 47 53 48 33 49 52 50 34 51 37 52 51 53 70 54 35 55 36 56
REMARK SMILES IDX 50 58 71 59 38 60 22 61 23 62 31 63 24 64 30 65 32 66 29 67
REMARK SMILES IDX 25 68 26 69 27 70 28 71 54 72 55 73 63 74 56 75 62 76 64 77
REMARK SMILES IDX 61 78 57 79 58 80 59 81 60 82 39 83 40 84 48 85 41 86 47 87
REMARK SMILES IDX 49 88 46 89 42 90 43 91 44 92 45 93
REMARK H PARENT 5 6 80 17 10 27 69 46 37 57
REMARK Flexibility Score: inf
ROOT
ATOM      1  C   UNL     1       4.223   0.908   0.892  1.00  0.00     0.023 C 
ENDROOT
BRANCH   1   2
ATOM      2  C   UNL     1       3.517  -0.098   1.803  1.00  0.00     0.116 C 
BRANCH   2   3
ATOM      3  N   UNL     1       2.494   0.554   2.588  1.00  0.00    -0.356 N 
ATOM      4  C   UNL     1       1.145   0.588   2.419  1.00  0.00     0.227 C 
ATOM      5  O   UNL     1       0.523   1.306   3.207  1.00  0.00    -0.274 OA
ATOM      6  H   UNL     1       2.827   1.053   3.369  1.00  0.00     0.163 HD
BRANCH   4   7
ATOM      7  C   UNL     1       0.466  -0.270   1.332  1.00  0.00     0.108 C 
ATOM      8  C   UNL     1       0.821   0.150  -0.099  1.00  0.00     0.023 C 
BRANCH   7   9
ATOM      9  C   UNL     1      -1.049  -0.243   1.453  1.00  0.00     0.000 A 
ATOM     10  C   UNL     1      -1.741   0.970   1.415  1.00  0.00     0.009 A 
ATOM     11  C   UNL     1      -1.796  -1.413   1.564  1.00  0.00     0.129 A 
ATOM     12  C   UNL     1      -3.130   1.002   1.508  1.00  0.00     0.026 A 
ATOM     13  C   UNL     1      -3.190  -1.378   1.649  1.00  0.00     0.065 A 
ATOM     14  F   UNL     1      -1.180  -2.604   1.567  1.00  0.00    -0.207 F 
ATOM     15  C   UNL     1      -3.889  -0.164   1.632  1.00  0.00     0.037 A 
BRANCH  15  16
ATOM     16  N   UNL     1      -5.269  -0.176   1.698  1.00  0.00    -0.382 N 
ATOM     17  H   UNL     1      -5.688  -1.062   1.793  1.00  0.00     0.160 HD
BRANCH  16  18
ATOM     18  C   UNL     1      -6.180   0.958   1.646  1.00  0.00     0.079 C 
ATOM     19  C   UNL     1      -6.024   1.938   2.805  1.00  0.00     0.025 C 
ATOM     20  C   UNL     1      -6.085   1.776   0.358  1.00  0.00     0.025 C 
ATOM     21  C   UNL     1      -6.577   3.246   2.261  1.00  0.00     0.002 C 
ATOM     22  C   UNL     1      -6.299   3.232   0.763  1.00  0.00     0.002 C 
ENDBRANCH  16  18
ENDBRANCH  15  16
ENDBRANCH   7   9
ENDBRANCH   4   7
ENDBRANCH   2   3
ENDBRANCH   1   2
BRANCH   1  23
ATOM     23  C   UNL     1       4.975   2.018   1.633  1.00  0.00     0.023 C 
BRANCH  23  24
ATOM     24  C   UNL     1       5.969   1.532   2.678  1.00  0.00     0.116 C 
BRANCH  24  25
ATOM     25  N   UNL     1       6.954   0.621   2.122  1.00  0.00    -0.352 N 
ATOM     26  C   UNL     1       8.305   0.568   2.347  1.00  0.00     0.251 C 
ATOM     27  H   UNL     1       6.603  -0.053   1.496  1.00  0.00     0.163 HD
ATOM     28  O   UNL     1       9.003  -0.164   1.646  1.00  0.00    -0.269 OA
BRANCH  26  29
ATOM     29  C   UNL     1       8.917   1.404   3.402  1.00  0.00     0.039 A 
ATOM     30  C   UNL     1      10.141   2.022   3.142  1.00  0.00     0.014 A 
ATOM     31  C   UNL     1       8.301   1.565   4.647  1.00  0.00     0.014 A 
ATOM     32  C   UNL     1      10.733   2.821   4.121  1.00  0.00     0.010 A 
ATOM     33  C   UNL     1       8.847   2.434   5.586  1.00  0.00     0.010 A 
ATOM     34  C   UNL     1      10.084   3.049   5.346  1.00  0.00    -0.014 A 
BRANCH  34  35
ATOM     35  C   UNL     1      10.722   3.876   6.403  1.00  0.00     0.031 A 
ATOM     36  C   UNL     1      11.105   3.247   7.718  1.00  0.00     0.074 A 
ATOM     37  C   UNL     1      10.941   5.188   6.188  1.00  0.00     0.049 A 
ATOM     38  N   UNL     1      11.671   3.793   8.764  1.00  0.00    -0.248 NA
ATOM     39  C   UNL     1      10.780   1.823   7.892  1.00  0.00     0.031 C 
ATOM     40  C   UNL     1      10.575   5.916   4.971  1.00  0.00     0.029 A 
ATOM     41  N   UNL     1      11.529   6.141   6.979  1.00  0.00    -0.354 N 
ATOM     42  C   UNL     1      11.757   2.785   9.720  1.00  0.00     0.074 A 
ATOM     43  C   UNL     1      11.116   1.618   9.155  1.00  0.00     0.031 C 
ATOM     44  C   UNL     1      10.988   7.189   5.079  1.00  0.00     0.029 A 
ATOM     45  C   UNL     1      11.607   7.381   6.387  1.00  0.00     0.049 A 
ATOM     46  H   UNL     1      11.865   5.956   7.886  1.00  0.00     0.167 HD
ATOM     47  C   UNL     1      12.341   2.821  10.944  1.00  0.00     0.034 A 
ATOM     48  C   UNL     1      12.121   8.539   6.847  1.00  0.00     0.034 A 
ATOM     49  C   UNL     1      12.988   3.992  11.484  1.00  0.00     0.049 A 
ATOM     50  C   UNL     1      12.753   8.558   8.217  1.00  0.00     0.074 A 
ATOM     51  C   UNL     1      13.656   4.129  12.688  1.00  0.00     0.029 A 
ATOM     52  N   UNL     1      13.041   5.232  10.858  1.00  0.00    -0.354 N 
ATOM     53  N   UNL     1      12.878   7.580   9.086  1.00  0.00    -0.248 NA
ATOM     54  C   UNL     1      13.331   9.833   8.658  1.00  0.00     0.031 C 
ATOM     55  C   UNL     1      14.043   5.466  12.825  1.00  0.00     0.029 A 
ATOM     56  C   UNL     1      13.703   6.145  11.665  1.00  0.00     0.049 A 
ATOM     57  H   UNL     1      12.664   5.433   9.972  1.00  0.00     0.167 HD
ATOM     58  C   UNL     1      13.591   8.115  10.157  1.00  0.00     0.074 A 
ATOM     59  C   UNL     1      13.878   9.493   9.815  1.00  0.00     0.031 C 
ATOM     60  C   UNL     1      13.980   7.519  11.315  1.00  0.00     0.034 A 
BRANCH  47  61
ATOM     61  C   UNL     1      12.274   1.565  11.784  1.00  0.00     0.023 A 
ATOM     62  C   UNL     1      12.852   0.354  11.360  1.00  0.00     0.031 A 
ATOM     63  C   UNL     1      11.595   1.569  13.015  1.00  0.00     0.131 A 
ATOM     64  C   UNL     1      12.667  -0.815  12.114  1.00  0.00     0.055 A 
ATOM     65  C   UNL     1      11.493   0.422  13.806  1.00  0.00     0.041 A 
ATOM     66  F   UNL     1      11.001   2.685  13.466  1.00  0.00    -0.206 F 
ATOM     67  C   UNL     1      12.016  -0.783  13.348  1.00  0.00     0.022 A 
BRANCH  64  68
ATOM     68  S   UNL     1      13.146  -2.403  11.380  1.00  0.00     0.124 S 
ATOM     69  O   UNL     1      12.345  -2.417  10.158  1.00  0.00    -0.237 OA
ATOM     70  O   UNL     1      14.585  -2.247  11.200  1.00  0.00    -0.237 OA
ATOM     71  O   UNL     1      12.746  -3.382  12.389  1.00  0.00    -0.744 OA
ENDBRANCH  64  68
ENDBRANCH  47  61
BRANCH  48  72
ATOM     72  C   UNL     1      12.077   9.775   6.011  1.00  0.00     0.023 A 
ATOM     73  C   UNL     1      13.259  10.399   5.580  1.00  0.00     0.031 A 
ATOM     74  C   UNL     1      10.854  10.381   5.676  1.00  0.00     0.131 A 
ATOM     75  C   UNL     1      13.195  11.620   4.890  1.00  0.00     0.055 A 
ATOM     76  C   UNL     1      10.793  11.563   4.936  1.00  0.00     0.041 A 
ATOM     77  F   UNL     1       9.693   9.825   6.058  1.00  0.00    -0.206 F 
ATOM     78  C   UNL     1      11.970  12.198   4.552  1.00  0.00     0.022 A 
BRANCH  75  79
ATOM     79  S   UNL     1      14.743  12.494   4.526  1.00  0.00     0.124 S 
ATOM     80  O   UNL     1      15.310  12.659   5.859  1.00  0.00    -0.237 OA
ATOM     81  O   UNL     1      15.426  11.548   3.650  1.00  0.00    -0.237 OA
ATOM     82  O   UNL     1      14.293  13.726   3.881  1.00  0.00    -0.744 OA
ENDBRANCH  75  79
ENDBRANCH  48  72
BRANCH  60  83
ATOM     83  C   UNL     1      14.819   8.344  12.264  1.00  0.00     0.023 A 
ATOM     84  C   UNL     1      14.324   9.507  12.880  1.00  0.00     0.031 A 
ATOM     85  C   UNL     1      16.150   7.974  12.530  1.00  0.00     0.131 A 
ATOM     86  C   UNL     1      15.175  10.299  13.665  1.00  0.00     0.055 A 
ATOM     87  C   UNL     1      16.968   8.723  13.375  1.00  0.00     0.041 A 
ATOM     88  F   UNL     1      16.680   6.875  11.968  1.00  0.00    -0.206 F 
ATOM     89  C   UNL     1      16.489   9.904  13.932  1.00  0.00     0.022 A 
BRANCH  86  90
ATOM     90  S   UNL     1      14.585  11.921  14.224  1.00  0.00     0.124 S 
ATOM     91  O   UNL     1      14.201  12.553  12.966  1.00  0.00    -0.237 OA
ATOM     92  O   UNL     1      13.488  11.562  15.117  1.00  0.00    -0.237 OA
ATOM     93  O   UNL     1      15.754  12.504  14.880  1.00  0.00    -0.744 OA
ENDBRANCH  86  90
ENDBRANCH  60  83
ENDBRANCH  34  35
ENDBRANCH  26  29
ENDBRANCH  24  25
ENDBRANCH  23  24
ENDBRANCH   1  23
TORSDOF 17
