REMARK SMILES C[NH2+][C@]1(C(=O)NCCCCNC(=O)c2ccc(-c3c4nc(c(-c5cc(S(=O)(=O)[O-])ccc5F)c5ccc([nH]5)c(-c5cc(S(=O)(=O)[O-])ccc5F)c5nc(c(-c6cc(S(=O)(=O)[O-])ccc6F)c6ccc3[nH]6)C=C5)C=C4)cc2)CC[C@@H]([N@@H+](C)C[C@@H]2CCCCO2)C1
REMARK SMILES IDX 8 1 7 2 6 3 4 4 5 5 3 7 77 8 89 9 78 10 79 11 2 12 1 13
REMARK SMILES IDX 80 16 81 17 82 19 83 20 84 21 88 22 85 23 87 24 86 25 9 26
REMARK SMILES IDX 10 27 11 28 12 29 13 31 14 32 15 33 76 34 16 35 75 36 17 37
REMARK SMILES IDX 18 38 19 39 69 40 20 41 74 42 68 43 70 44 21 45 73 46 67 47
REMARK SMILES IDX 66 48 22 50 54 51 34 52 53 53 35 54 38 55 52 56 71 57 36 58
REMARK SMILES IDX 37 59 51 61 72 62 39 63 23 64 24 65 32 66 25 67 31 68 33 69
REMARK SMILES IDX 30 70 26 71 27 72 28 73 29 74 55 75 56 76 64 77 57 78 63 79
REMARK SMILES IDX 65 80 62 81 58 82 59 83 60 84 61 85 40 86 41 87 49 88 42 89
REMARK SMILES IDX 48 90 50 91 47 92 43 93 44 94 45 95 46 96
REMARK H PARENT 6 6 2 14 2 15 80 18 11 30 70 49 38 60
REMARK Flexibility Score: inf
ROOT
ATOM      1  C   UNL     1      -4.826   2.836  -3.617  1.00  0.00     0.023 C 
ENDROOT
BRANCH   1   2
ATOM      2  C   UNL     1      -4.384   2.861  -2.155  1.00  0.00     0.116 C 
BRANCH   2   3
ATOM      3  N   UNL     1      -5.503   2.974  -1.246  1.00  0.00    -0.351 N 
ATOM      4  C   UNL     1      -6.040   2.123  -0.333  1.00  0.00     0.281 C 
ATOM      5  O   UNL     1      -7.080   2.549   0.195  1.00  0.00    -0.268 OA
ATOM      6  H   UNL     1      -5.968   3.840  -1.300  1.00  0.00     0.163 HD
BRANCH   4   7
ATOM      7  C   UNL     1      -5.480   0.678   0.026  1.00  0.00     0.181 C 
ATOM      8  C   UNL     1      -5.582  -0.270  -1.183  1.00  0.00     0.085 C 
ATOM      9  C   UNL     1      -3.972   0.622   0.370  1.00  0.00     0.144 C 
ATOM     10  C   UNL     1      -4.578  -1.394  -0.924  1.00  0.00     0.072 C 
ATOM     11  C   UNL     1      -3.507  -0.813   0.018  1.00  0.00     0.191 C 
BRANCH   7  12
ATOM     12  N   UNL     1      -6.383   0.175   1.090  1.00  0.00    -0.336 N 
ATOM     13  C   UNL     1      -5.964  -0.711   2.138  1.00  0.00     0.331 C 
ATOM     14  H   UNL     1      -6.751   1.004   1.557  1.00  0.00     0.346 HD
ATOM     15  H   UNL     1      -7.000  -0.435   0.552  1.00  0.00     0.346 HD
ENDBRANCH   7  12
BRANCH  11  16
ATOM     16  N   UNL     1      -2.100  -1.014  -0.357  1.00  0.00    -0.333 N 
ATOM     17  C   UNL     1      -1.688  -2.409  -0.386  1.00  0.00     0.333 C 
ATOM     18  H   UNL     1      -1.667  -0.572   0.453  1.00  0.00     0.348 HD
BRANCH  16  19
ATOM     19  C   UNL     1      -1.485  -0.188  -1.405  1.00  0.00     0.294 C 
BRANCH  19  20
ATOM     20  C   UNL     1      -2.166   0.020  -2.784  1.00  0.00     0.173 C 
ATOM     21  C   UNL     1      -2.029  -1.129  -3.803  1.00  0.00     0.038 C 
ATOM     22  O   UNL     1      -1.821   1.331  -3.251  1.00  0.00    -0.372 OA
ATOM     23  C   UNL     1      -1.498  -0.783  -5.198  1.00  0.00     0.005 C 
ATOM     24  C   UNL     1      -0.803   1.363  -4.236  1.00  0.00     0.161 C 
ATOM     25  C   UNL     1      -1.374   0.705  -5.470  1.00  0.00     0.029 C 
ENDBRANCH  19  20
ENDBRANCH  16  19
ENDBRANCH  11  16
ENDBRANCH   4   7
ENDBRANCH   2   3
ENDBRANCH   1   2
BRANCH   1  26
ATOM     26  C   UNL     1      -5.001   4.209  -4.267  1.00  0.00     0.023 C 
BRANCH  26  27
ATOM     27  C   UNL     1      -3.762   5.104  -4.301  1.00  0.00     0.116 C 
BRANCH  27  28
ATOM     28  N   UNL     1      -2.588   4.489  -4.899  1.00  0.00    -0.352 N 
ATOM     29  C   UNL     1      -1.555   5.070  -5.611  1.00  0.00     0.251 C 
ATOM     30  H   UNL     1      -2.517   3.514  -4.778  1.00  0.00     0.163 HD
ATOM     31  O   UNL     1      -0.659   4.379  -6.067  1.00  0.00    -0.269 OA
BRANCH  29  32
ATOM     32  C   UNL     1      -1.586   6.528  -5.886  1.00  0.00     0.039 A 
ATOM     33  C   UNL     1      -1.328   6.963  -7.190  1.00  0.00     0.014 A 
ATOM     34  C   UNL     1      -1.945   7.449  -4.901  1.00  0.00     0.014 A 
ATOM     35  C   UNL     1      -1.571   8.293  -7.536  1.00  0.00     0.010 A 
ATOM     36  C   UNL     1      -2.269   8.752  -5.265  1.00  0.00     0.010 A 
ATOM     37  C   UNL     1      -2.120   9.177  -6.593  1.00  0.00    -0.014 A 
BRANCH  37  38
ATOM     38  C   UNL     1      -2.610  10.523  -6.992  1.00  0.00     0.031 A 
ATOM     39  C   UNL     1      -2.005  11.759  -6.390  1.00  0.00     0.074 A 
ATOM     40  C   UNL     1      -3.671  10.617  -7.820  1.00  0.00     0.049 A 
ATOM     41  N   UNL     1      -2.366  13.008  -6.527  1.00  0.00    -0.248 NA
ATOM     42  C   UNL     1      -0.867  11.556  -5.482  1.00  0.00     0.031 C 
ATOM     43  C   UNL     1      -4.384   9.482  -8.414  1.00  0.00     0.029 A 
ATOM     44  N   UNL     1      -4.346  11.712  -8.297  1.00  0.00    -0.354 N 
ATOM     45  C   UNL     1      -1.515  13.740  -5.707  1.00  0.00     0.074 A 
ATOM     46  C   UNL     1      -0.660  12.784  -5.034  1.00  0.00     0.031 C 
ATOM     47  C   UNL     1      -5.376   9.941  -9.193  1.00  0.00     0.029 A 
ATOM     48  C   UNL     1      -5.402  11.397  -9.123  1.00  0.00     0.049 A 
ATOM     49  H   UNL     1      -4.098  12.638  -8.071  1.00  0.00     0.167 HD
ATOM     50  C   UNL     1      -1.440  15.085  -5.549  1.00  0.00     0.034 A 
ATOM     51  C   UNL     1      -6.296  12.191  -9.744  1.00  0.00     0.034 A 
ATOM     52  C   UNL     1      -2.291  16.021  -6.243  1.00  0.00     0.049 A 
ATOM     53  C   UNL     1      -6.183  13.682  -9.567  1.00  0.00     0.074 A 
ATOM     54  C   UNL     1      -2.267  17.404  -6.206  1.00  0.00     0.029 A 
ATOM     55  N   UNL     1      -3.327  15.667  -7.101  1.00  0.00    -0.354 N 
ATOM     56  N   UNL     1      -5.334  14.364  -8.832  1.00  0.00    -0.248 NA
ATOM     57  C   UNL     1      -7.138  14.512 -10.312  1.00  0.00     0.031 C 
ATOM     58  C   UNL     1      -3.319  17.884  -6.996  1.00  0.00     0.029 A 
ATOM     59  C   UNL     1      -3.960  16.803  -7.580  1.00  0.00     0.049 A 
ATOM     60  H   UNL     1      -3.575  14.743  -7.334  1.00  0.00     0.167 HD
ATOM     61  C   UNL     1      -5.638  15.704  -9.047  1.00  0.00     0.074 A 
ATOM     62  C   UNL     1      -6.737  15.733  -9.992  1.00  0.00     0.031 C 
ATOM     63  C   UNL     1      -5.061  16.811  -8.515  1.00  0.00     0.034 A 
BRANCH  50  64
ATOM     64  C   UNL     1      -0.418  15.608  -4.568  1.00  0.00     0.023 A 
ATOM     65  C   UNL     1       0.960  15.396  -4.757  1.00  0.00     0.031 A 
ATOM     66  C   UNL     1      -0.824  16.284  -3.404  1.00  0.00     0.131 A 
ATOM     67  C   UNL     1       1.871  15.772  -3.759  1.00  0.00     0.055 A 
ATOM     68  C   UNL     1       0.097  16.733  -2.454  1.00  0.00     0.041 A 
ATOM     69  F   UNL     1      -2.126  16.501  -3.158  1.00  0.00    -0.206 F 
ATOM     70  C   UNL     1       1.452  16.462  -2.620  1.00  0.00     0.022 A 
BRANCH  67  71
ATOM     71  S   UNL     1       3.589  15.208  -3.901  1.00  0.00     0.124 S 
ATOM     72  O   UNL     1       3.421  13.756  -3.914  1.00  0.00    -0.237 OA
ATOM     73  O   UNL     1       4.017  15.812  -5.157  1.00  0.00    -0.237 OA
ATOM     74  O   UNL     1       4.226  15.743  -2.700  1.00  0.00    -0.744 OA
ENDBRANCH  67  71
ENDBRANCH  50  64
BRANCH  51  75
ATOM     75  C   UNL     1      -7.375  11.601 -10.587  1.00  0.00     0.023 A 
ATOM     76  C   UNL     1      -7.403  11.809 -11.975  1.00  0.00     0.031 A 
ATOM     77  C   UNL     1      -8.412  10.845 -10.012  1.00  0.00     0.131 A 
ATOM     78  C   UNL     1      -8.468  11.304 -12.737  1.00  0.00     0.055 A 
ATOM     79  C   UNL     1      -9.445  10.306 -10.781  1.00  0.00     0.041 A 
ATOM     80  F   UNL     1      -8.427  10.608  -8.691  1.00  0.00    -0.206 F 
ATOM     81  C   UNL     1      -9.484  10.545 -12.151  1.00  0.00     0.022 A 
BRANCH  78  82
ATOM     82  S   UNL     1      -8.545  11.715 -14.503  1.00  0.00     0.124 S 
ATOM     83  O   UNL     1      -8.569  13.173 -14.468  1.00  0.00    -0.237 OA
ATOM     84  O   UNL     1      -7.321  11.104 -15.009  1.00  0.00    -0.237 OA
ATOM     85  O   UNL     1      -9.785  11.080 -14.946  1.00  0.00    -0.744 OA
ENDBRANCH  78  82
ENDBRANCH  51  75
BRANCH  63  86
ATOM     86  C   UNL     1      -5.586  18.144  -8.984  1.00  0.00     0.023 A 
ATOM     87  C   UNL     1      -6.876  18.590  -8.647  1.00  0.00     0.031 A 
ATOM     88  C   UNL     1      -4.787  18.972  -9.791  1.00  0.00     0.131 A 
ATOM     89  C   UNL     1      -7.348  19.808  -9.158  1.00  0.00     0.055 A 
ATOM     90  C   UNL     1      -5.241  20.208 -10.251  1.00  0.00     0.041 A 
ATOM     91  F   UNL     1      -3.548  18.591 -10.144  1.00  0.00    -0.206 F 
ATOM     92  C   UNL     1      -6.533  20.627  -9.945  1.00  0.00     0.022 A 
BRANCH  89  93
ATOM     93  S   UNL     1      -9.073  20.273  -8.848  1.00  0.00     0.124 S 
ATOM     94  O   UNL     1      -9.800  19.159  -9.447  1.00  0.00    -0.237 OA
ATOM     95  O   UNL     1      -9.118  20.354  -7.391  1.00  0.00    -0.237 OA
ATOM     96  O   UNL     1      -9.214  21.551  -9.543  1.00  0.00    -0.744 OA
ENDBRANCH  89  93
ENDBRANCH  63  86
ENDBRANCH  37  38
ENDBRANCH  29  32
ENDBRANCH  27  28
ENDBRANCH  26  27
ENDBRANCH   1  26
TORSDOF 18
