REMARK SMILES O=C(NCCCCNC(=O)[C@@H]1C=C[C@H](NC(=O)c2ccc(Cl)cc2[N+](=O)[O-])C1)c1ccc(-c2c3nc(c(-c4cc(S(=O)(=O)[O-])ccc4F)c4ccc([nH]4)c(-c4cc(S(=O)(=O)[O-])ccc4F)c4nc(c(-c5cc(S(=O)(=O)[O-])ccc5F)c5ccc2[nH]5)C=C4)C=C3)cc1
REMARK SMILES IDX 5 1 4 2 3 3 1 4 2 5 29 7 30 8 91 9 31 10 90 11 32 12 33 13
REMARK SMILES IDX 34 14 84 15 35 16 89 17 83 18 85 19 36 20 88 21 82 22 81 23
REMARK SMILES IDX 37 25 69 26 49 27 68 28 50 29 53 30 67 31 86 32 51 33 52 34
REMARK SMILES IDX 66 36 87 37 54 38 38 39 39 40 47 41 40 42 46 43 48 44 45 45
REMARK SMILES IDX 41 46 42 47 43 48 44 49 70 50 71 51 79 52 72 53 78 54 80 55
REMARK SMILES IDX 77 56 73 57 74 58 75 59 76 60 55 61 56 62 64 63 57 64 63 65
REMARK SMILES IDX 65 66 62 67 58 68 59 69 60 70 61 71 6 72 7 73 8 74 9 75
REMARK SMILES IDX 10 77 11 78 12 79 28 80 13 81 14 82 15 83 16 84 17 86 18 87
REMARK SMILES IDX 19 88 24 89 20 90 23 91 21 92 22 93 25 94 26 95 27 96
REMARK H PARENT 3 6 85 24 53 35 8 76 15 85
REMARK Flexibility Score: inf
ROOT
ATOM      1  C   UNL     1       2.946   3.842   1.989  1.00  0.00     0.023 C 
ENDROOT
BRANCH   1   2
ATOM      2  C   UNL     1       2.156   5.076   2.406  1.00  0.00     0.116 C 
BRANCH   2   3
ATOM      3  N   UNL     1       2.619   6.292   1.752  1.00  0.00    -0.352 N 
ATOM      4  O   UNL     1       2.485   8.087   0.394  1.00  0.00    -0.269 OA
ATOM      5  C   UNL     1       1.906   7.188   0.988  1.00  0.00     0.251 C 
ATOM      6  H   UNL     1       3.573   6.503   1.874  1.00  0.00     0.163 HD
BRANCH   5   7
ATOM      7  C   UNL     1       0.440   7.033   0.880  1.00  0.00     0.039 A 
ATOM      8  C   UNL     1      -0.332   6.829   2.026  1.00  0.00     0.014 A 
ATOM      9  C   UNL     1      -0.160   7.078  -0.381  1.00  0.00     0.014 A 
ATOM     10  C   UNL     1      -1.684   6.536   1.902  1.00  0.00     0.010 A 
ATOM     11  C   UNL     1      -1.536   6.867  -0.495  1.00  0.00     0.010 A 
ATOM     12  C   UNL     1      -2.305   6.575   0.643  1.00  0.00    -0.014 A 
BRANCH  12  13
ATOM     13  C   UNL     1      -3.776   6.411   0.552  1.00  0.00     0.031 A 
ATOM     14  C   UNL     1      -4.387   5.238  -0.161  1.00  0.00     0.074 A 
ATOM     15  C   UNL     1      -4.555   7.352   1.122  1.00  0.00     0.049 A 
ATOM     16  N   UNL     1      -5.650   4.973  -0.372  1.00  0.00    -0.248 NA
ATOM     17  C   UNL     1      -3.463   4.237  -0.715  1.00  0.00     0.031 C 
ATOM     18  C   UNL     1      -4.057   8.534   1.834  1.00  0.00     0.029 A 
ATOM     19  N   UNL     1      -5.918   7.475   1.194  1.00  0.00    -0.354 N 
ATOM     20  C   UNL     1      -5.677   3.792  -1.104  1.00  0.00     0.074 A 
ATOM     21  C   UNL     1      -4.300   3.397  -1.312  1.00  0.00     0.031 C 
ATOM     22  C   UNL     1      -5.097   9.248   2.286  1.00  0.00     0.029 A 
ATOM     23  C   UNL     1      -6.331   8.622   1.831  1.00  0.00     0.049 A 
ATOM     24  H   UNL     1      -6.540   6.807   0.826  1.00  0.00     0.167 HD
ATOM     25  C   UNL     1      -6.758   3.109  -1.557  1.00  0.00     0.034 A 
ATOM     26  C   UNL     1      -7.564   9.140   1.992  1.00  0.00     0.034 A 
ATOM     27  C   UNL     1      -8.122   3.517  -1.318  1.00  0.00     0.049 A 
ATOM     28  C   UNL     1      -8.737   8.383   1.433  1.00  0.00     0.074 A 
ATOM     29  C   UNL     1      -9.290   2.852  -1.650  1.00  0.00     0.029 A 
ATOM     30  N   UNL     1      -8.503   4.706  -0.709  1.00  0.00    -0.354 N 
ATOM     31  N   UNL     1      -8.747   7.237   0.792  1.00  0.00    -0.248 NA
ATOM     32  C   UNL     1     -10.062   8.988   1.613  1.00  0.00     0.031 C 
ATOM     33  C   UNL     1     -10.373   3.672  -1.313  1.00  0.00     0.029 A 
ATOM     34  C   UNL     1      -9.885   4.818  -0.706  1.00  0.00     0.049 A 
ATOM     35  H   UNL     1      -7.882   5.372  -0.335  1.00  0.00     0.167 HD
ATOM     36  C   UNL     1     -10.081   6.981   0.500  1.00  0.00     0.074 A 
ATOM     37  C   UNL     1     -10.847   8.077   1.057  1.00  0.00     0.031 C 
ATOM     38  C   UNL     1     -10.626   5.934  -0.170  1.00  0.00     0.034 A 
BRANCH  25  39
ATOM     39  C   UNL     1      -6.519   1.880  -2.401  1.00  0.00     0.023 A 
ATOM     40  C   UNL     1      -5.954   0.707  -1.874  1.00  0.00     0.031 A 
ATOM     41  C   UNL     1      -6.896   1.881  -3.756  1.00  0.00     0.131 A 
ATOM     42  C   UNL     1      -5.745  -0.404  -2.709  1.00  0.00     0.055 A 
ATOM     43  C   UNL     1      -6.742   0.754  -4.566  1.00  0.00     0.041 A 
ATOM     44  F   UNL     1      -7.424   2.981  -4.317  1.00  0.00    -0.206 F 
ATOM     45  C   UNL     1      -6.156  -0.395  -4.045  1.00  0.00     0.022 A 
BRANCH  42  46
ATOM     46  S   UNL     1      -4.843  -1.833  -2.051  1.00  0.00     0.124 S 
ATOM     47  O   UNL     1      -3.564  -1.232  -1.681  1.00  0.00    -0.237 OA
ATOM     48  O   UNL     1      -5.691  -2.261  -0.945  1.00  0.00    -0.237 OA
ATOM     49  O   UNL     1      -4.785  -2.755  -3.184  1.00  0.00    -0.744 OA
ENDBRANCH  42  46
ENDBRANCH  25  39
BRANCH  26  50
ATOM     50  C   UNL     1      -7.740  10.469   2.642  1.00  0.00     0.023 A 
ATOM     51  C   UNL     1      -8.463  10.605   3.836  1.00  0.00     0.031 A 
ATOM     52  C   UNL     1      -7.211  11.633   2.054  1.00  0.00     0.131 A 
ATOM     53  C   UNL     1      -8.674  11.881   4.381  1.00  0.00     0.055 A 
ATOM     54  C   UNL     1      -7.373  12.892   2.631  1.00  0.00     0.041 A 
ATOM     55  F   UNL     1      -6.510  11.559   0.910  1.00  0.00    -0.206 F 
ATOM     56  C   UNL     1      -8.122  13.023   3.796  1.00  0.00     0.022 A 
BRANCH  53  57
ATOM     57  S   UNL     1      -9.770  12.039   5.817  1.00  0.00     0.124 S 
ATOM     58  O   UNL     1     -10.984  11.386   5.340  1.00  0.00    -0.237 OA
ATOM     59  O   UNL     1      -9.021  11.327   6.847  1.00  0.00    -0.237 OA
ATOM     60  O   UNL     1      -9.873  13.484   6.008  1.00  0.00    -0.744 OA
ENDBRANCH  53  57
ENDBRANCH  26  50
BRANCH  38  61
ATOM     61  C   UNL     1     -12.125   5.935  -0.315  1.00  0.00     0.023 A 
ATOM     62  C   UNL     1     -12.780   6.866  -1.139  1.00  0.00     0.031 A 
ATOM     63  C   UNL     1     -12.908   5.006   0.393  1.00  0.00     0.131 A 
ATOM     64  C   UNL     1     -14.180   6.879  -1.200  1.00  0.00     0.055 A 
ATOM     65  C   UNL     1     -14.299   4.989   0.286  1.00  0.00     0.041 A 
ATOM     66  F   UNL     1     -12.331   4.098   1.197  1.00  0.00    -0.206 F 
ATOM     67  C   UNL     1     -14.943   5.936  -0.506  1.00  0.00     0.022 A 
BRANCH  64  68
ATOM     68  S   UNL     1     -14.999   8.192  -2.147  1.00  0.00     0.124 S 
ATOM     69  O   UNL     1     -14.582   9.390  -1.425  1.00  0.00    -0.237 OA
ATOM     70  O   UNL     1     -14.430   8.020  -3.480  1.00  0.00    -0.237 OA
ATOM     71  O   UNL     1     -16.418   7.862  -2.033  1.00  0.00    -0.744 OA
ENDBRANCH  64  68
ENDBRANCH  38  61
ENDBRANCH  12  13
ENDBRANCH   5   7
ENDBRANCH   2   3
ENDBRANCH   1   2
BRANCH   1  72
ATOM     72  C   UNL     1       4.448   3.917   2.248  1.00  0.00     0.023 C 
BRANCH  72  73
ATOM     73  C   UNL     1       4.836   4.306   3.668  1.00  0.00     0.116 C 
BRANCH  73  74
ATOM     74  N   UNL     1       4.499   3.287   4.649  1.00  0.00    -0.356 N 
ATOM     75  C   UNL     1       5.271   2.839   5.692  1.00  0.00     0.227 C 
ATOM     76  H   UNL     1       3.612   2.869   4.554  1.00  0.00     0.163 HD
ATOM     77  O   UNL     1       4.857   1.938   6.421  1.00  0.00    -0.274 OA
BRANCH  75  78
ATOM     78  C   UNL     1       6.656   3.468   5.856  1.00  0.00     0.103 C 
ATOM     79  C   UNL     1       7.498   2.871   6.939  1.00  0.00    -0.016 C 
ATOM     80  C   UNL     1       6.576   4.953   6.249  1.00  0.00     0.047 C 
ATOM     81  C   UNL     1       7.828   3.767   7.875  1.00  0.00    -0.006 C 
ATOM     82  C   UNL     1       7.196   5.088   7.643  1.00  0.00     0.106 C 
BRANCH  82  83
ATOM     83  N   UNL     1       6.239   5.519   8.660  1.00  0.00    -0.346 N 
ATOM     84  C   UNL     1       5.366   4.890   9.509  1.00  0.00     0.258 C 
ATOM     85  H   UNL     1       6.216   6.498   8.759  1.00  0.00     0.164 HD
ATOM     86  O   UNL     1       4.515   5.535  10.115  1.00  0.00    -0.269 OA
BRANCH  84  87
ATOM     87  C   UNL     1       5.503   3.467   9.833  1.00  0.00     0.117 A 
ATOM     88  C   UNL     1       6.634   3.087  10.571  1.00  0.00     0.022 A 
ATOM     89  C   UNL     1       4.516   2.518   9.559  1.00  0.00     0.283 A 
ATOM     90  C   UNL     1       6.845   1.747  10.896  1.00  0.00     0.022 A 
ATOM     91  C   UNL     1       4.716   1.168   9.896  1.00  0.00     0.107 A 
ATOM     92  C   UNL     1       5.895   0.792  10.538  1.00  0.00     0.047 A 
ATOM     93  Cl  UNL     1       6.182  -0.862  10.915  1.00  0.00    -0.084 Cl
BRANCH  89  94
ATOM     94  N   UNL     1       3.237   2.900   8.973  1.00  0.00     0.063 N 
ATOM     95  O   UNL     1       2.233   2.321   9.414  1.00  0.00    -0.258 OA
ATOM     96  O   UNL     1       3.228   3.758   8.080  1.00  0.00    -0.258 OA
ENDBRANCH  89  94
ENDBRANCH  84  87
ENDBRANCH  82  83
ENDBRANCH  75  78
ENDBRANCH  73  74
ENDBRANCH  72  73
ENDBRANCH   1  72
TORSDOF 17
