REMARK SMILES CC1=C([C@H](NC(=O)[C@@H]2[C@H](C)c3cc(F)ccc3N2C)C(=O)NCCCCNC(=O)c2ccc(-c3c4nc(c(-c5cc(S(=O)(=O)[O-])ccc5F)c5ccc([nH]5)c(-c5cc(S(=O)(=O)[O-])ccc5F)c5nc(c(-c6cc(S(=O)(=O)[O-])ccc6F)c6ccc3[nH]6)C=C5)C=C4)cc2)[C@@H](C)N=N1
REMARK SMILES IDX 25 1 24 2 23 3 22 4 20 5 21 6 4 8 3 9 1 10 2 11 96 12 93 13
REMARK SMILES IDX 95 14 94 15 5 16 6 17 7 19 8 20 9 21 18 22 11 23 10 24 17 25
REMARK SMILES IDX 19 26 12 27 16 28 13 29 15 30 14 31 26 32 27 33 28 34 29 36
REMARK SMILES IDX 30 37 31 38 92 39 32 40 91 41 33 42 34 43 35 44 85 45 36 46
REMARK SMILES IDX 90 47 84 48 86 49 37 50 89 51 83 52 82 53 38 55 70 56 50 57
REMARK SMILES IDX 69 58 51 59 54 60 68 61 87 62 52 63 53 64 67 66 88 67 55 68
REMARK SMILES IDX 39 69 40 70 48 71 41 72 47 73 49 74 46 75 42 76 43 77 44 78
REMARK SMILES IDX 45 79 71 80 72 81 80 82 73 83 79 84 81 85 78 86 74 87 75 88
REMARK SMILES IDX 76 89 77 90 56 91 57 92 65 93 58 94 64 95 66 96 63 97 59 98
REMARK SMILES IDX 60 99 61 100 62 101
REMARK H PARENT 22 7 5 18 27 35 86 54 54 65
REMARK Flexibility Score: inf
ROOT
ATOM      1  C   UNL     1       2.073   7.398   2.159  1.00  0.00     0.023 C 
ENDROOT
BRANCH   1   2
ATOM      2  C   UNL     1       1.105   6.539   1.349  1.00  0.00     0.023 C 
BRANCH   2   3
ATOM      3  C   UNL     1       1.602   6.087  -0.014  1.00  0.00     0.116 C 
BRANCH   3   4
ATOM      4  N   UNL     1       2.959   5.588  -0.010  1.00  0.00    -0.354 N 
ATOM      5  C   UNL     1       3.493   4.454  -0.513  1.00  0.00     0.247 C 
ATOM      6  O   UNL     1       4.723   4.438  -0.637  1.00  0.00    -0.272 OA
ATOM      7  H   UNL     1       3.608   6.178   0.437  1.00  0.00     0.163 HD
BRANCH   5   8
ATOM      8  C   UNL     1       2.627   3.264  -0.986  1.00  0.00     0.202 C 
BRANCH   8   9
ATOM      9  C   UNL     1       2.384   3.431  -2.457  1.00  0.00     0.011 C 
ATOM     10  C   UNL     1       4.783   3.122  -3.300  1.00  0.00     0.069 C 
ATOM     11  C   UNL     1       3.317   3.377  -3.423  1.00  0.00     0.064 C 
ATOM     12  N   UNL     1       2.796   3.554  -4.678  1.00  0.00    -0.160 NA
ATOM     13  C   UNL     1       1.099   3.643  -3.192  1.00  0.00     0.156 C 
ATOM     14  N   UNL     1       1.549   3.698  -4.613  1.00  0.00    -0.181 NA
ATOM     15  C   UNL     1       0.326   4.924  -2.921  1.00  0.00     0.040 C 
ENDBRANCH   8   9
BRANCH   8  16
ATOM     16  N   UNL     1       1.428   3.016  -0.197  1.00  0.00    -0.339 N 
ATOM     17  C   UNL     1       1.334   2.714   1.151  1.00  0.00     0.244 C 
ATOM     18  H   UNL     1       0.574   3.069  -0.685  1.00  0.00     0.164 HD
ATOM     19  O   UNL     1       0.229   2.318   1.531  1.00  0.00    -0.273 OA
BRANCH  17  20
ATOM     20  C   UNL     1       2.529   2.973   2.115  1.00  0.00     0.178 C 
ATOM     21  C   UNL     1       3.819   2.167   1.805  1.00  0.00     0.050 C 
ATOM     22  N   UNL     1       2.262   2.735   3.564  1.00  0.00    -0.362 N 
ATOM     23  C   UNL     1       4.487   2.226   3.145  1.00  0.00    -0.016 A 
ATOM     24  C   UNL     1       3.611   0.718   1.371  1.00  0.00     0.015 C 
ATOM     25  C   UNL     1       3.529   2.512   4.126  1.00  0.00     0.041 A 
ATOM     26  C   UNL     1       1.283   3.513   4.301  1.00  0.00     0.144 C 
ATOM     27  C   UNL     1       5.827   2.039   3.444  1.00  0.00     0.045 A 
ATOM     28  C   UNL     1       3.911   2.564   5.457  1.00  0.00     0.029 A 
ATOM     29  C   UNL     1       6.201   2.121   4.777  1.00  0.00     0.123 A 
ATOM     30  C   UNL     1       5.261   2.369   5.782  1.00  0.00     0.041 A 
ATOM     31  F   UNL     1       7.490   1.955   5.106  1.00  0.00    -0.207 F 
ENDBRANCH  17  20
ENDBRANCH   8  16
ENDBRANCH   5   8
ENDBRANCH   3   4
ENDBRANCH   2   3
ENDBRANCH   1   2
BRANCH   1  32
ATOM     32  C   UNL     1       2.854   8.467   1.384  1.00  0.00     0.116 C 
BRANCH  32  33
ATOM     33  N   UNL     1       2.073   9.275   0.475  1.00  0.00    -0.352 N 
ATOM     34  C   UNL     1       1.189  10.303   0.641  1.00  0.00     0.251 C 
ATOM     35  H   UNL     1       2.208   9.032  -0.470  1.00  0.00     0.163 HD
ATOM     36  O   UNL     1       0.731  10.804  -0.388  1.00  0.00    -0.269 OA
BRANCH  34  37
ATOM     37  C   UNL     1       0.720  10.778   1.964  1.00  0.00     0.039 A 
ATOM     38  C   UNL     1       1.332  10.466   3.177  1.00  0.00     0.014 A 
ATOM     39  C   UNL     1      -0.436  11.575   1.974  1.00  0.00     0.014 A 
ATOM     40  C   UNL     1       0.730  10.793   4.376  1.00  0.00     0.010 A 
ATOM     41  C   UNL     1      -1.008  11.972   3.175  1.00  0.00     0.010 A 
ATOM     42  C   UNL     1      -0.453  11.526   4.373  1.00  0.00    -0.014 A 
BRANCH  42  43
ATOM     43  C   UNL     1      -0.999  11.868   5.678  1.00  0.00     0.031 A 
ATOM     44  C   UNL     1      -0.118  12.717   6.538  1.00  0.00     0.074 A 
ATOM     45  C   UNL     1      -2.250  11.534   6.039  1.00  0.00     0.049 A 
ATOM     46  N   UNL     1       0.337  12.487   7.729  1.00  0.00    -0.248 NA
ATOM     47  C   UNL     1       0.420  13.938   5.920  1.00  0.00     0.031 C 
ATOM     48  C   UNL     1      -3.322  11.020   5.182  1.00  0.00     0.029 A 
ATOM     49  N   UNL     1      -2.872  11.739   7.229  1.00  0.00    -0.354 N 
ATOM     50  C   UNL     1       1.089  13.614   8.083  1.00  0.00     0.074 A 
ATOM     51  C   UNL     1       1.218  14.398   6.882  1.00  0.00     0.031 C 
ATOM     52  C   UNL     1      -4.505  11.228   5.798  1.00  0.00     0.029 A 
ATOM     53  C   UNL     1      -4.252  11.744   7.133  1.00  0.00     0.049 A 
ATOM     54  H   UNL     1      -2.388  11.871   8.077  1.00  0.00     0.167 HD
ATOM     55  C   UNL     1       1.416  13.912   9.375  1.00  0.00     0.034 A 
ATOM     56  C   UNL     1      -5.112  12.279   8.032  1.00  0.00     0.034 A 
ATOM     57  C   UNL     1       1.241  12.779  10.237  1.00  0.00     0.049 A 
ATOM     58  C   UNL     1      -4.391  12.482   9.313  1.00  0.00     0.074 A 
ATOM     59  C   UNL     1       1.830  11.538  10.354  1.00  0.00     0.029 A 
ATOM     60  N   UNL     1       0.106  12.731  11.008  1.00  0.00    -0.354 N 
ATOM     61  N   UNL     1      -3.982  11.524  10.098  1.00  0.00    -0.248 NA
ATOM     62  C   UNL     1      -3.755  13.775   9.524  1.00  0.00     0.031 C 
ATOM     63  C   UNL     1       0.789  10.676  10.798  1.00  0.00     0.029 A 
ATOM     64  C   UNL     1      -0.365  11.448  10.951  1.00  0.00     0.049 A 
ATOM     65  H   UNL     1      -0.293  13.479  11.507  1.00  0.00     0.167 HD
ATOM     66  C   UNL     1      -2.764  11.969  10.590  1.00  0.00     0.074 A 
ATOM     67  C   UNL     1      -2.731  13.398  10.291  1.00  0.00     0.031 C 
ATOM     68  C   UNL     1      -1.771  11.099  10.943  1.00  0.00     0.034 A 
BRANCH  55  69
ATOM     69  C   UNL     1       1.593  15.316   9.920  1.00  0.00     0.023 A 
ATOM     70  C   UNL     1       1.291  16.472   9.180  1.00  0.00     0.031 A 
ATOM     71  C   UNL     1       1.843  15.524  11.295  1.00  0.00     0.131 A 
ATOM     72  C   UNL     1       1.222  17.738   9.780  1.00  0.00     0.055 A 
ATOM     73  C   UNL     1       1.713  16.777  11.908  1.00  0.00     0.041 A 
ATOM     74  F   UNL     1       2.158  14.502  12.107  1.00  0.00    -0.206 F 
ATOM     75  C   UNL     1       1.394  17.894  11.149  1.00  0.00     0.022 A 
BRANCH  72  76
ATOM     76  S   UNL     1       0.883  19.202   8.765  1.00  0.00     0.124 S 
ATOM     77  O   UNL     1      -0.414  19.632   9.292  1.00  0.00    -0.237 OA
ATOM     78  O   UNL     1       2.016  20.067   9.104  1.00  0.00    -0.237 OA
ATOM     79  O   UNL     1       0.882  18.689   7.409  1.00  0.00    -0.744 OA
ENDBRANCH  72  76
ENDBRANCH  55  69
BRANCH  56  80
ATOM     80  C   UNL     1      -6.322  13.058   7.685  1.00  0.00     0.023 A 
ATOM     81  C   UNL     1      -6.361  13.808   6.492  1.00  0.00     0.031 A 
ATOM     82  C   UNL     1      -7.324  13.300   8.635  1.00  0.00     0.131 A 
ATOM     83  C   UNL     1      -7.348  14.778   6.291  1.00  0.00     0.055 A 
ATOM     84  C   UNL     1      -8.316  14.266   8.430  1.00  0.00     0.041 A 
ATOM     85  F   UNL     1      -7.322  12.645   9.806  1.00  0.00    -0.206 F 
ATOM     86  C   UNL     1      -8.326  15.017   7.257  1.00  0.00     0.022 A 
BRANCH  83  87
ATOM     87  S   UNL     1      -7.342  15.786   4.783  1.00  0.00     0.124 S 
ATOM     88  O   UNL     1      -8.755  15.797   4.409  1.00  0.00    -0.237 OA
ATOM     89  O   UNL     1      -6.812  17.052   5.274  1.00  0.00    -0.237 OA
ATOM     90  O   UNL     1      -6.473  15.039   3.878  1.00  0.00    -0.744 OA
ENDBRANCH  83  87
ENDBRANCH  56  80
BRANCH  68  91
ATOM     91  C   UNL     1      -2.072   9.624  11.051  1.00  0.00     0.023 A 
ATOM     92  C   UNL     1      -1.588   8.954  12.191  1.00  0.00     0.031 A 
ATOM     93  C   UNL     1      -2.556   8.838   9.989  1.00  0.00     0.131 A 
ATOM     94  C   UNL     1      -1.550   7.556  12.226  1.00  0.00     0.055 A 
ATOM     95  C   UNL     1      -2.586   7.442  10.060  1.00  0.00     0.041 A 
ATOM     96  F   UNL     1      -2.917   9.384   8.820  1.00  0.00    -0.206 F 
ATOM     97  C   UNL     1      -2.062   6.794  11.174  1.00  0.00     0.022 A 
BRANCH  94  98
ATOM     98  S   UNL     1      -0.659   6.700  13.553  1.00  0.00     0.124 S 
ATOM     99  O   UNL     1      -1.740   6.014  14.255  1.00  0.00    -0.237 OA
ATOM    100  O   UNL     1       0.253   5.835  12.807  1.00  0.00    -0.237 OA
ATOM    101  O   UNL     1      -0.013   7.777  14.297  1.00  0.00    -0.744 OA
ENDBRANCH  94  98
ENDBRANCH  68  91
ENDBRANCH  42  43
ENDBRANCH  34  37
ENDBRANCH  32  33
ENDBRANCH   1  32
TORSDOF 17
