REMARK SMILES Cc1nc(-c2ccccc2Cl)nc2sc(C(=O)NCCCCNC(=O)c3ccc(-c4c5nc(c(-c6cc(S(=O)(=O)[O-])ccc6F)c6ccc([nH]6)c(-c6cc(S(=O)(=O)[O-])ccc6F)c6nc(c(-c7cc(S(=O)(=O)[O-])ccc7F)c7ccc4[nH]7)C=C6)C=C5)cc3)c(N)c12
REMARK SMILES IDX 21 1 20 2 19 3 18 4 16 5 17 6 15 8 1 9 2 10 3 11 91 12 4 13
REMARK SMILES IDX 13 14 89 15 12 16 14 17 5 18 6 19 10 20 7 21 9 22 11 23 8 24
REMARK SMILES IDX 90 25 22 28 23 29 24 30 25 32 26 33 27 34 88 35 28 36 87 37
REMARK SMILES IDX 29 38 30 39 31 40 81 41 32 42 86 43 80 44 82 45 33 46 85 47
REMARK SMILES IDX 79 48 78 49 34 51 66 52 46 53 65 54 47 55 50 56 64 57 83 58
REMARK SMILES IDX 48 59 49 60 63 62 84 63 51 64 35 65 36 66 44 67 37 68 43 69
REMARK SMILES IDX 45 70 42 71 38 72 39 73 40 74 41 75 67 76 68 77 76 78 69 79
REMARK SMILES IDX 75 80 77 81 74 82 70 83 71 84 72 85 73 86 52 87 53 88 61 89
REMARK SMILES IDX 54 90 60 91 62 92 59 93 55 94 56 95 57 96 58 97
REMARK H PARENT 18 7 90 26 90 27 23 31 82 50 50 61
REMARK Flexibility Score: inf
ROOT
ATOM      1  C   UNL     1       4.094   9.270   0.349  1.00  0.00     0.023 C 
ENDROOT
BRANCH   1   2
ATOM      2  C   UNL     1       3.046   8.151   0.316  1.00  0.00     0.023 C 
BRANCH   2   3
ATOM      3  C   UNL     1       2.767   7.543  -1.068  1.00  0.00     0.116 C 
BRANCH   3   4
ATOM      4  N   UNL     1       3.731   6.511  -1.434  1.00  0.00    -0.351 N 
ATOM      5  C   UNL     1       3.729   5.132  -1.307  1.00  0.00     0.263 C 
ATOM      6  O   UNL     1       4.670   4.556  -1.864  1.00  0.00    -0.268 OA
ATOM      7  H   UNL     1       4.546   6.865  -1.857  1.00  0.00     0.163 HD
BRANCH   5   8
ATOM      8  C   UNL     1       2.687   4.385  -0.603  1.00  0.00     0.118 A 
ATOM      9  C   UNL     1       0.917   0.074  -0.134  1.00  0.00     0.067 C 
ATOM     10  C   UNL     1       0.488   1.446   0.286  1.00  0.00     0.052 A 
ATOM     11  N   UNL     1      -0.716   1.526   0.937  1.00  0.00    -0.233 NA
ATOM     12  C   UNL     1       1.216   2.636   0.056  1.00  0.00     0.056 A 
ATOM     13  C   UNL     1      -1.129   2.718   1.404  1.00  0.00     0.162 A 
ATOM     14  C   UNL     1       0.690   3.758   0.666  1.00  0.00     0.130 A 
ATOM     15  C   UNL     1       2.405   3.018  -0.678  1.00  0.00     0.067 A 
ATOM     16  N   UNL     1      -0.455   3.861   1.338  1.00  0.00    -0.217 NA
ATOM     17  S   UNL     1       1.684   5.104   0.567  1.00  0.00    -0.108 S 
BRANCH  13  18
ATOM     18  C   UNL     1      -2.424   2.849   2.062  1.00  0.00     0.038 A 
ATOM     19  C   UNL     1      -3.428   3.626   1.443  1.00  0.00     0.013 A 
ATOM     20  C   UNL     1      -2.649   2.400   3.371  1.00  0.00     0.052 A 
ATOM     21  C   UNL     1      -4.601   3.967   2.117  1.00  0.00     0.001 A 
ATOM     22  C   UNL     1      -3.827   2.744   4.046  1.00  0.00     0.021 A 
ATOM     23  Cl  UNL     1      -1.468   1.487   4.247  1.00  0.00    -0.084 Cl
ATOM     24  C   UNL     1      -4.795   3.534   3.424  1.00  0.00     0.002 A 
ENDBRANCH  13  18
BRANCH  15  25
ATOM     25  N   UNL     1       3.147   2.167  -1.423  1.00  0.00    -0.397 N 
ATOM     26  H   UNL     1       3.946   2.496  -1.896  1.00  0.00     0.156 HD
ATOM     27  H   UNL     1       2.890   1.220  -1.492  1.00  0.00     0.156 HD
ENDBRANCH  15  25
ENDBRANCH   5   8
ENDBRANCH   3   4
ENDBRANCH   2   3
ENDBRANCH   1   2
BRANCH   1  28
ATOM     28  C   UNL     1       3.670  10.561  -0.342  1.00  0.00     0.116 C 
BRANCH  28  29
ATOM     29  N   UNL     1       2.502  11.189   0.276  1.00  0.00    -0.352 N 
ATOM     30  C   UNL     1       1.747  12.242  -0.217  1.00  0.00     0.251 C 
ATOM     31  H   UNL     1       2.220  10.820   1.144  1.00  0.00     0.163 HD
ATOM     32  O   UNL     1       1.083  12.939   0.531  1.00  0.00    -0.269 OA
BRANCH  30  33
ATOM     33  C   UNL     1       1.774  12.493  -1.671  1.00  0.00     0.039 A 
ATOM     34  C   UNL     1       1.910  13.783  -2.188  1.00  0.00     0.014 A 
ATOM     35  C   UNL     1       1.723  11.386  -2.513  1.00  0.00     0.014 A 
ATOM     36  C   UNL     1       2.094  13.938  -3.562  1.00  0.00     0.010 A 
ATOM     37  C   UNL     1       2.050  11.529  -3.839  1.00  0.00     0.010 A 
ATOM     38  C   UNL     1       2.192  12.803  -4.382  1.00  0.00    -0.014 A 
BRANCH  38  39
ATOM     39  C   UNL     1       2.543  12.925  -5.795  1.00  0.00     0.031 A 
ATOM     40  C   UNL     1       3.777  13.705  -6.092  1.00  0.00     0.074 A 
ATOM     41  C   UNL     1       1.939  12.209  -6.769  1.00  0.00     0.049 A 
ATOM     42  N   UNL     1       3.861  14.835  -6.712  1.00  0.00    -0.248 NA
ATOM     43  C   UNL     1       5.062  13.238  -5.548  1.00  0.00     0.031 C 
ATOM     44  C   UNL     1       0.902  11.180  -6.643  1.00  0.00     0.029 A 
ATOM     45  N   UNL     1       2.230  12.173  -8.096  1.00  0.00    -0.354 N 
ATOM     46  C   UNL     1       5.217  15.124  -6.830  1.00  0.00     0.074 A 
ATOM     47  C   UNL     1       5.893  14.202  -5.953  1.00  0.00     0.031 C 
ATOM     48  C   UNL     1       0.840  10.458  -7.783  1.00  0.00     0.029 A 
ATOM     49  C   UNL     1       1.698  11.081  -8.774  1.00  0.00     0.049 A 
ATOM     50  H   UNL     1       2.773  12.863  -8.542  1.00  0.00     0.167 HD
ATOM     51  C   UNL     1       5.684  15.966  -7.796  1.00  0.00     0.034 A 
ATOM     52  C   UNL     1       1.965  10.704 -10.051  1.00  0.00     0.034 A 
ATOM     53  C   UNL     1       4.612  16.730  -8.389  1.00  0.00     0.049 A 
ATOM     54  C   UNL     1       2.406  11.937 -10.755  1.00  0.00     0.074 A 
ATOM     55  C   UNL     1       3.654  17.594  -7.891  1.00  0.00     0.029 A 
ATOM     56  N   UNL     1       4.139  16.338  -9.623  1.00  0.00    -0.354 N 
ATOM     57  N   UNL     1       1.634  12.980 -10.919  1.00  0.00    -0.248 NA
ATOM     58  C   UNL     1       3.834  12.207 -10.827  1.00  0.00     0.031 C 
ATOM     59  C   UNL     1       2.454  17.233  -8.573  1.00  0.00     0.029 A 
ATOM     60  C   UNL     1       2.772  16.243  -9.506  1.00  0.00     0.049 A 
ATOM     61  H   UNL     1       4.674  16.162 -10.430  1.00  0.00     0.167 HD
ATOM     62  C   UNL     1       2.452  14.073 -10.675  1.00  0.00     0.074 A 
ATOM     63  C   UNL     1       3.815  13.540 -10.715  1.00  0.00     0.031 C 
ATOM     64  C   UNL     1       1.959  15.249 -10.184  1.00  0.00     0.034 A 
BRANCH  51  65
ATOM     65  C   UNL     1       7.051  15.892  -8.435  1.00  0.00     0.023 A 
ATOM     66  C   UNL     1       7.424  16.922  -9.321  1.00  0.00     0.031 A 
ATOM     67  C   UNL     1       7.877  14.746  -8.437  1.00  0.00     0.131 A 
ATOM     68  C   UNL     1       8.515  16.764 -10.195  1.00  0.00     0.055 A 
ATOM     69  C   UNL     1       8.999  14.620  -9.261  1.00  0.00     0.041 A 
ATOM     70  F   UNL     1       7.590  13.653  -7.720  1.00  0.00    -0.206 F 
ATOM     71  C   UNL     1       9.309  15.620 -10.167  1.00  0.00     0.022 A 
BRANCH  68  72
ATOM     72  S   UNL     1       8.785  18.014 -11.479  1.00  0.00     0.124 S 
ATOM     73  O   UNL     1       7.503  18.008 -12.175  1.00  0.00    -0.237 OA
ATOM     74  O   UNL     1       9.082  19.202 -10.686  1.00  0.00    -0.237 OA
ATOM     75  O   UNL     1       9.910  17.479 -12.243  1.00  0.00    -0.744 OA
ENDBRANCH  68  72
ENDBRANCH  51  65
BRANCH  52  76
ATOM     76  C   UNL     1       2.172   9.315 -10.558  1.00  0.00     0.023 A 
ATOM     77  C   UNL     1       2.269   9.022 -11.936  1.00  0.00     0.031 A 
ATOM     78  C   UNL     1       2.522   8.269  -9.671  1.00  0.00     0.131 A 
ATOM     79  C   UNL     1       2.703   7.745 -12.370  1.00  0.00     0.055 A 
ATOM     80  C   UNL     1       2.942   7.008 -10.105  1.00  0.00     0.041 A 
ATOM     81  F   UNL     1       2.555   8.458  -8.343  1.00  0.00    -0.206 F 
ATOM     82  C   UNL     1       3.046   6.745 -11.459  1.00  0.00     0.022 A 
BRANCH  79  83
ATOM     83  S   UNL     1       2.952   7.401 -14.143  1.00  0.00     0.124 S 
ATOM     84  O   UNL     1       1.589   7.161 -14.601  1.00  0.00    -0.237 OA
ATOM     85  O   UNL     1       3.590   8.624 -14.618  1.00  0.00    -0.237 OA
ATOM     86  O   UNL     1       3.819   6.223 -14.139  1.00  0.00    -0.744 OA
ENDBRANCH  79  83
ENDBRANCH  52  76
BRANCH  64  87
ATOM     87  C   UNL     1       0.459  15.461 -10.124  1.00  0.00     0.023 A 
ATOM     88  C   UNL     1      -0.440  14.679  -9.361  1.00  0.00     0.031 A 
ATOM     89  C   UNL     1      -0.044  16.628 -10.727  1.00  0.00     0.131 A 
ATOM     90  C   UNL     1      -1.785  15.083  -9.224  1.00  0.00     0.055 A 
ATOM     91  C   UNL     1      -1.369  17.035 -10.572  1.00  0.00     0.041 A 
ATOM     92  F   UNL     1       0.767  17.430 -11.437  1.00  0.00    -0.206 F 
ATOM     93  C   UNL     1      -2.245  16.263  -9.819  1.00  0.00     0.022 A 
BRANCH  90  94
ATOM     94  S   UNL     1      -2.959  14.095  -8.238  1.00  0.00     0.124 S 
ATOM     95  O   UNL     1      -2.910  12.784  -8.874  1.00  0.00    -0.237 OA
ATOM     96  O   UNL     1      -2.400  14.176  -6.891  1.00  0.00    -0.237 OA
ATOM     97  O   UNL     1      -4.230  14.803  -8.407  1.00  0.00    -0.744 OA
ENDBRANCH  90  94
ENDBRANCH  64  87
ENDBRANCH  38  39
ENDBRANCH  30  33
ENDBRANCH  28  29
ENDBRANCH   1  28
TORSDOF 16
