REMARK SMILES O=C(NCCCCNC(=O)[C@H]1C[C@@H](O)CN1C(=O)c1cc(F)c(F)cc1Cl)c1ccc(-c2c3nc(c(-c4cc(S(=O)(=O)[O-])ccc4F)c4ccc([nH]4)c(-c4cc(S(=O)(=O)[O-])ccc4F)c4nc(c(-c5cc(S(=O)(=O)[O-])ccc5F)c5ccc2[nH]5)C=C4)C=C3)cc1
REMARK SMILES IDX 5 1 4 2 3 3 1 4 2 5 28 7 29 8 90 9 30 10 89 11 31 12 32 13
REMARK SMILES IDX 33 14 83 15 34 16 88 17 82 18 84 19 35 20 87 21 81 22 80 23
REMARK SMILES IDX 36 25 68 26 48 27 67 28 49 29 52 30 66 31 85 32 50 33 51 34
REMARK SMILES IDX 65 36 86 37 53 38 37 39 38 40 46 41 39 42 45 43 47 44 44 45
REMARK SMILES IDX 40 46 41 47 42 48 43 49 69 50 70 51 78 52 71 53 77 54 79 55
REMARK SMILES IDX 76 56 72 57 73 58 74 59 75 60 54 61 55 62 63 63 56 64 62 65
REMARK SMILES IDX 64 66 61 67 57 68 58 69 59 70 60 71 6 72 7 73 8 74 9 75
REMARK SMILES IDX 10 77 11 78 12 79 16 80 13 81 15 82 17 83 18 84 19 85 20 86
REMARK SMILES IDX 26 87 21 88 25 89 27 90 22 91 23 92 24 93 14 94
REMARK H PARENT 3 6 84 24 52 35 8 76 14 95
REMARK Flexibility Score: inf
ROOT
ATOM      1  C   UNL     1       4.983  -2.715  -0.149  1.00  0.00     0.023 C 
ENDROOT
BRANCH   1   2
ATOM      2  C   UNL     1       4.669  -1.271  -0.529  1.00  0.00     0.116 C 
BRANCH   2   3
ATOM      3  N   UNL     1       3.245  -1.013  -0.662  1.00  0.00    -0.352 N 
ATOM      4  O   UNL     1       1.223  -0.164  -0.204  1.00  0.00    -0.269 OA
ATOM      5  C   UNL     1       2.438  -0.103  -0.023  1.00  0.00     0.251 C 
ATOM      6  H   UNL     1       2.782  -1.585  -1.316  1.00  0.00     0.163 HD
BRANCH   5   7
ATOM      7  C   UNL     1       2.997   0.934   0.879  1.00  0.00     0.039 A 
ATOM      8  C   UNL     1       2.271   1.284   2.023  1.00  0.00     0.014 A 
ATOM      9  C   UNL     1       4.182   1.612   0.584  1.00  0.00     0.014 A 
ATOM     10  C   UNL     1       2.744   2.288   2.876  1.00  0.00     0.010 A 
ATOM     11  C   UNL     1       4.696   2.553   1.478  1.00  0.00     0.010 A 
ATOM     12  C   UNL     1       3.966   2.926   2.615  1.00  0.00    -0.014 A 
BRANCH  12  13
ATOM     13  C   UNL     1       4.452   4.038   3.477  1.00  0.00     0.031 A 
ATOM     14  C   UNL     1       4.570   5.429   2.906  1.00  0.00     0.074 A 
ATOM     15  C   UNL     1       4.806   3.804   4.756  1.00  0.00     0.049 A 
ATOM     16  N   UNL     1       4.984   6.527   3.483  1.00  0.00    -0.248 NA
ATOM     17  C   UNL     1       4.198   5.605   1.491  1.00  0.00     0.031 C 
ATOM     18  C   UNL     1       4.771   2.496   5.412  1.00  0.00     0.029 A 
ATOM     19  N   UNL     1       5.256   4.654   5.736  1.00  0.00    -0.354 N 
ATOM     20  C   UNL     1       4.941   7.512   2.503  1.00  0.00     0.074 A 
ATOM     21  C   UNL     1       4.519   6.872   1.279  1.00  0.00     0.031 C 
ATOM     22  C   UNL     1       5.142   2.638   6.694  1.00  0.00     0.029 A 
ATOM     23  C   UNL     1       5.471   4.040   6.949  1.00  0.00     0.049 A 
ATOM     24  H   UNL     1       5.412   5.615   5.585  1.00  0.00     0.167 HD
ATOM     25  C   UNL     1       5.198   8.837   2.619  1.00  0.00     0.034 A 
ATOM     26  C   UNL     1       5.870   4.549   8.134  1.00  0.00     0.034 A 
ATOM     27  C   UNL     1       5.569   9.473   3.855  1.00  0.00     0.049 A 
ATOM     28  C   UNL     1       6.111   6.035   8.247  1.00  0.00     0.074 A 
ATOM     29  C   UNL     1       5.811  10.816   4.085  1.00  0.00     0.029 A 
ATOM     30  N   UNL     1       5.727   8.822   5.069  1.00  0.00    -0.354 N 
ATOM     31  N   UNL     1       5.994   6.963   7.327  1.00  0.00    -0.248 NA
ATOM     32  C   UNL     1       6.520   6.551   9.562  1.00  0.00     0.031 C 
ATOM     33  C   UNL     1       6.153  10.972   5.429  1.00  0.00     0.029 A 
ATOM     34  C   UNL     1       6.064   9.737   6.051  1.00  0.00     0.049 A 
ATOM     35  H   UNL     1       5.616   7.855   5.211  1.00  0.00     0.167 HD
ATOM     36  C   UNL     1       6.262   8.173   7.963  1.00  0.00     0.074 A 
ATOM     37  C   UNL     1       6.540   7.861   9.348  1.00  0.00     0.031 C 
ATOM     38  C   UNL     1       6.279   9.426   7.443  1.00  0.00     0.034 A 
BRANCH  25  39
ATOM     39  C   UNL     1       5.052   9.711   1.398  1.00  0.00     0.023 A 
ATOM     40  C   UNL     1       6.168  10.395   0.882  1.00  0.00     0.031 A 
ATOM     41  C   UNL     1       3.792   9.963   0.825  1.00  0.00     0.131 A 
ATOM     42  C   UNL     1       5.997  11.323  -0.153  1.00  0.00     0.055 A 
ATOM     43  C   UNL     1       3.634  10.855  -0.235  1.00  0.00     0.041 A 
ATOM     44  F   UNL     1       2.698   9.333   1.282  1.00  0.00    -0.206 F 
ATOM     45  C   UNL     1       4.738  11.550  -0.720  1.00  0.00     0.022 A 
BRANCH  42  46
ATOM     46  S   UNL     1       7.387  12.312  -0.766  1.00  0.00     0.124 S 
ATOM     47  O   UNL     1       7.385  11.983  -2.190  1.00  0.00    -0.237 OA
ATOM     48  O   UNL     1       6.963  13.670  -0.439  1.00  0.00    -0.237 OA
ATOM     49  O   UNL     1       8.533  11.810  -0.016  1.00  0.00    -0.744 OA
ENDBRANCH  42  46
ENDBRANCH  25  39
BRANCH  26  50
ATOM     50  C   UNL     1       5.953   3.656   9.328  1.00  0.00     0.023 A 
ATOM     51  C   UNL     1       6.864   2.587   9.387  1.00  0.00     0.031 A 
ATOM     52  C   UNL     1       5.059   3.821  10.401  1.00  0.00     0.131 A 
ATOM     53  C   UNL     1       6.828   1.700  10.473  1.00  0.00     0.055 A 
ATOM     54  C   UNL     1       5.068   2.973  11.509  1.00  0.00     0.041 A 
ATOM     55  F   UNL     1       4.160   4.817  10.384  1.00  0.00    -0.206 F 
ATOM     56  C   UNL     1       5.948   1.896  11.542  1.00  0.00     0.022 A 
BRANCH  53  57
ATOM     57  S   UNL     1       7.841   0.194  10.482  1.00  0.00     0.124 S 
ATOM     58  O   UNL     1       8.710   0.419  11.633  1.00  0.00    -0.237 OA
ATOM     59  O   UNL     1       6.830  -0.847  10.649  1.00  0.00    -0.237 OA
ATOM     60  O   UNL     1       8.498   0.214   9.179  1.00  0.00    -0.744 OA
ENDBRANCH  53  57
ENDBRANCH  26  50
BRANCH  38  61
ATOM     61  C   UNL     1       6.551  10.595   8.357  1.00  0.00     0.023 A 
ATOM     62  C   UNL     1       5.561  11.584   8.533  1.00  0.00     0.031 A 
ATOM     63  C   UNL     1       7.824  10.823   8.906  1.00  0.00     0.131 A 
ATOM     64  C   UNL     1       5.873  12.772   9.205  1.00  0.00     0.055 A 
ATOM     65  C   UNL     1       8.117  11.990   9.612  1.00  0.00     0.041 A 
ATOM     66  F   UNL     1       8.804   9.919   8.750  1.00  0.00    -0.206 F 
ATOM     67  C   UNL     1       7.144  12.977   9.751  1.00  0.00     0.022 A 
BRANCH  64  68
ATOM     68  S   UNL     1       4.677  14.132   9.305  1.00  0.00     0.124 S 
ATOM     69  O   UNL     1       4.442  14.220  10.745  1.00  0.00    -0.237 OA
ATOM     70  O   UNL     1       5.426  15.246   8.728  1.00  0.00    -0.237 OA
ATOM     71  O   UNL     1       3.542  13.665   8.516  1.00  0.00    -0.744 OA
ENDBRANCH  64  68
ENDBRANCH  38  61
ENDBRANCH  12  13
ENDBRANCH   5   7
ENDBRANCH   2   3
ENDBRANCH   1   2
BRANCH   1  72
ATOM     72  C   UNL     1       4.483  -3.787  -1.116  1.00  0.00     0.023 C 
BRANCH  72  73
ATOM     73  C   UNL     1       4.863  -3.592  -2.579  1.00  0.00     0.116 C 
BRANCH  73  74
ATOM     74  N   UNL     1       6.295  -3.584  -2.822  1.00  0.00    -0.354 N 
ATOM     75  C   UNL     1       6.968  -4.156  -3.873  1.00  0.00     0.242 C 
ATOM     76  H   UNL     1       6.848  -3.114  -2.156  1.00  0.00     0.163 HD
ATOM     77  O   UNL     1       8.125  -3.802  -4.115  1.00  0.00    -0.273 OA
BRANCH  75  78
ATOM     78  C   UNL     1       6.208  -5.131  -4.791  1.00  0.00     0.177 C 
ATOM     79  C   UNL     1       5.323  -4.344  -5.767  1.00  0.00     0.069 C 
ATOM     80  N   UNL     1       7.091  -5.917  -5.661  1.00  0.00    -0.324 N 
ATOM     81  C   UNL     1       6.204  -4.195  -7.002  1.00  0.00     0.136 C 
ATOM     82  C   UNL     1       6.948  -5.523  -7.059  1.00  0.00     0.152 C 
BRANCH  80  83
ATOM     83  C   UNL     1       7.792  -6.995  -5.155  1.00  0.00     0.256 C 
ATOM     84  O   UNL     1       7.822  -7.285  -3.964  1.00  0.00    -0.269 OA
BRANCH  83  85
ATOM     85  C   UNL     1       8.492  -7.871  -6.116  1.00  0.00     0.061 A 
ATOM     86  C   UNL     1       9.579  -7.363  -6.840  1.00  0.00     0.057 A 
ATOM     87  C   UNL     1       8.061  -9.191  -6.320  1.00  0.00     0.056 A 
ATOM     88  C   UNL     1      10.179  -8.159  -7.809  1.00  0.00     0.159 A 
ATOM     89  C   UNL     1       8.691  -9.988  -7.280  1.00  0.00     0.063 A 
ATOM     90  Cl  UNL     1       6.722  -9.878  -5.473  1.00  0.00    -0.083 Cl
ATOM     91  F   UNL     1      11.175  -7.655  -8.549  1.00  0.00    -0.204 F 
ATOM     92  C   UNL     1       9.737  -9.459  -8.028  1.00  0.00     0.160 A 
ATOM     93  F   UNL     1      10.306 -10.213  -8.979  1.00  0.00    -0.204 F 
ENDBRANCH  83  85
ENDBRANCH  80  83
BRANCH  81  94
ATOM     94  O   UNL     1       7.111  -3.106  -6.848  1.00  0.00    -0.391 OA
ATOM     95  H   UNL     1       7.644  -3.240  -6.050  1.00  0.00     0.211 HD
ENDBRANCH  81  94
ENDBRANCH  75  78
ENDBRANCH  73  74
ENDBRANCH  72  73
ENDBRANCH   1  72
TORSDOF 17
