REMARK SMILES O=C(NCCCCNC(=O)[C@H]1SC=C[C@@H]1S(=O)(=O)NCCC1=c2ccccc2=NC1)c1ccc(-c2c3nc(c(-c4cc(S(=O)(=O)[O-])ccc4F)c4ccc([nH]4)c(-c4cc(S(=O)(=O)[O-])ccc4F)c4nc(c(-c5cc(S(=O)(=O)[O-])ccc5F)c5ccc2[nH]5)C=C4)C=C3)cc1
REMARK SMILES IDX 6 1 5 2 4 3 3 4 1 5 2 6 31 8 32 9 93 10 33 11 92 12 34 13
REMARK SMILES IDX 35 14 36 15 86 16 37 17 91 18 85 19 87 20 38 21 90 22 84 23
REMARK SMILES IDX 83 24 39 26 71 27 51 28 70 29 52 30 55 31 69 32 88 33 53 34
REMARK SMILES IDX 54 35 68 37 89 38 56 39 40 40 41 41 49 42 42 43 48 44 50 45
REMARK SMILES IDX 47 46 43 47 44 48 45 49 46 50 72 51 73 52 81 53 74 54 80 55
REMARK SMILES IDX 82 56 79 57 75 58 76 59 77 60 78 61 57 62 58 63 66 64 59 65
REMARK SMILES IDX 65 66 67 67 64 68 60 69 61 70 62 71 63 72 7 73 8 74 9 75
REMARK SMILES IDX 10 77 11 78 12 79 15 80 13 81 14 82 16 83 17 84 18 85 19 86
REMARK SMILES IDX 20 88 21 89 22 90 23 91 30 92 24 93 28 94 29 95 25 96 27 97
REMARK SMILES IDX 26 98
REMARK H PARENT 3 7 87 25 55 36 8 76 19 87
REMARK Flexibility Score: inf
ROOT
ATOM      1  C   UNL     1       4.835  -2.463  -2.305  1.00  0.00     0.023 C 
ENDROOT
BRANCH   1   2
ATOM      2  C   UNL     1       5.148  -2.165  -0.849  1.00  0.00     0.023 C 
BRANCH   2   3
ATOM      3  C   UNL     1       4.666  -0.807  -0.371  1.00  0.00     0.116 C 
BRANCH   3   4
ATOM      4  N   UNL     1       3.252  -0.561  -0.627  1.00  0.00    -0.352 N 
ATOM      5  O   UNL     1       1.171   0.142  -0.080  1.00  0.00    -0.269 OA
ATOM      6  C   UNL     1       2.364   0.097   0.192  1.00  0.00     0.251 C 
ATOM      7  H   UNL     1       2.893  -0.903  -1.478  1.00  0.00     0.163 HD
BRANCH   6   8
ATOM      8  C   UNL     1       2.896   0.722   1.417  1.00  0.00     0.039 A 
ATOM      9  C   UNL     1       2.309   0.431   2.646  1.00  0.00     0.014 A 
ATOM     10  C   UNL     1       4.046   1.513   1.339  1.00  0.00     0.014 A 
ATOM     11  C   UNL     1       2.895   0.930   3.809  1.00  0.00     0.010 A 
ATOM     12  C   UNL     1       4.698   1.889   2.501  1.00  0.00     0.010 A 
ATOM     13  C   UNL     1       4.098   1.655   3.745  1.00  0.00    -0.014 A 
BRANCH  13  14
ATOM     14  C   UNL     1       4.682   2.284   4.955  1.00  0.00     0.031 A 
ATOM     15  C   UNL     1       4.803   3.786   5.008  1.00  0.00     0.074 A 
ATOM     16  C   UNL     1       5.099   1.524   5.985  1.00  0.00     0.049 A 
ATOM     17  N   UNL     1       5.266   4.539   5.970  1.00  0.00    -0.248 NA
ATOM     18  C   UNL     1       4.381   4.544   3.815  1.00  0.00     0.031 C 
ATOM     19  C   UNL     1       5.071   0.061   6.019  1.00  0.00     0.029 A 
ATOM     20  N   UNL     1       5.613   1.874   7.208  1.00  0.00    -0.354 N 
ATOM     21  C   UNL     1       5.202   5.842   5.490  1.00  0.00     0.074 A 
ATOM     22  C   UNL     1       4.745   5.777   4.126  1.00  0.00     0.031 C 
ATOM     23  C   UNL     1       5.485  -0.357   7.226  1.00  0.00     0.029 A 
ATOM     24  C   UNL     1       5.850   0.802   8.038  1.00  0.00     0.049 A 
ATOM     25  H   UNL     1       5.795   2.806   7.469  1.00  0.00     0.167 HD
ATOM     26  C   UNL     1       5.455   6.995   6.147  1.00  0.00     0.034 A 
ATOM     27  C   UNL     1       6.291   0.762   9.313  1.00  0.00     0.034 A 
ATOM     28  C   UNL     1       5.851   7.046   7.527  1.00  0.00     0.049 A 
ATOM     29  C   UNL     1       6.556   2.068  10.026  1.00  0.00     0.074 A 
ATOM     30  C   UNL     1       6.072   8.166   8.307  1.00  0.00     0.029 A 
ATOM     31  N   UNL     1       6.069   5.941   8.335  1.00  0.00    -0.354 N 
ATOM     32  N   UNL     1       6.405   3.296   9.587  1.00  0.00    -0.248 NA
ATOM     33  C   UNL     1       7.029   1.987  11.415  1.00  0.00     0.031 C 
ATOM     34  C   UNL     1       6.501   7.740   9.561  1.00  0.00     0.029 A 
ATOM     35  C   UNL     1       6.447   6.355   9.600  1.00  0.00     0.049 A 
ATOM     36  H   UNL     1       5.969   5.004   8.052  1.00  0.00     0.167 HD
ATOM     37  C   UNL     1       6.714   4.129  10.660  1.00  0.00     0.074 A 
ATOM     38  C   UNL     1       7.043   3.264  11.772  1.00  0.00     0.031 C 
ATOM     39  C   UNL     1       6.725   5.485  10.717  1.00  0.00     0.034 A 
BRANCH  26  40
ATOM     40  C   UNL     1       5.278   8.304   5.421  1.00  0.00     0.023 A 
ATOM     41  C   UNL     1       6.374   9.176   5.291  1.00  0.00     0.031 A 
ATOM     42  C   UNL     1       4.013   8.757   5.005  1.00  0.00     0.131 A 
ATOM     43  C   UNL     1       6.173  10.478   4.821  1.00  0.00     0.055 A 
ATOM     44  C   UNL     1       3.829  10.037   4.482  1.00  0.00     0.041 A 
ATOM     45  F   UNL     1       2.936   7.960   5.103  1.00  0.00    -0.206 F 
ATOM     46  C   UNL     1       4.909  10.911   4.407  1.00  0.00     0.022 A 
BRANCH  43  47
ATOM     47  S   UNL     1       7.525  11.685   4.819  1.00  0.00     0.124 S 
ATOM     48  O   UNL     1       7.549  12.107   3.421  1.00  0.00    -0.237 OA
ATOM     49  O   UNL     1       7.040  12.684   5.766  1.00  0.00    -0.237 OA
ATOM     50  O   UNL     1       8.685  10.913   5.252  1.00  0.00    -0.744 OA
ENDBRANCH  43  47
ENDBRANCH  26  40
BRANCH  27  51
ATOM     51  C   UNL     1       6.407  -0.551  10.016  1.00  0.00     0.023 A 
ATOM     52  C   UNL     1       7.265  -1.560   9.545  1.00  0.00     0.031 A 
ATOM     53  C   UNL     1       5.599  -0.843  11.130  1.00  0.00     0.131 A 
ATOM     54  C   UNL     1       7.253  -2.826  10.148  1.00  0.00     0.055 A 
ATOM     55  C   UNL     1       5.647  -2.080  11.776  1.00  0.00     0.041 A 
ATOM     56  F   UNL     1       4.747   0.077  11.608  1.00  0.00    -0.206 F 
ATOM     57  C   UNL     1       6.467  -3.085  11.275  1.00  0.00     0.022 A 
BRANCH  54  58
ATOM     58  S   UNL     1       8.158  -4.215   9.411  1.00  0.00     0.124 S 
ATOM     59  O   UNL     1       9.072  -4.588  10.486  1.00  0.00    -0.237 OA
ATOM     60  O   UNL     1       7.080  -5.163   9.141  1.00  0.00    -0.237 OA
ATOM     61  O   UNL     1       8.779  -3.631   8.227  1.00  0.00    -0.744 OA
ENDBRANCH  54  58
ENDBRANCH  27  51
BRANCH  39  62
ATOM     62  C   UNL     1       7.047   6.163  12.029  1.00  0.00     0.023 A 
ATOM     63  C   UNL     1       6.104   7.038  12.604  1.00  0.00     0.031 A 
ATOM     64  C   UNL     1       8.323   6.088  12.611  1.00  0.00     0.131 A 
ATOM     65  C   UNL     1       6.466   7.839  13.693  1.00  0.00     0.055 A 
ATOM     66  C   UNL     1       8.659   6.841  13.737  1.00  0.00     0.041 A 
ATOM     67  F   UNL     1       9.267   5.289  12.087  1.00  0.00    -0.206 F 
ATOM     68  C   UNL     1       7.734   7.734  14.272  1.00  0.00     0.022 A 
BRANCH  65  69
ATOM     69  S   UNL     1       5.351   9.127  14.317  1.00  0.00     0.124 S 
ATOM     70  O   UNL     1       5.098   8.670  15.681  1.00  0.00    -0.237 OA
ATOM     71  O   UNL     1       6.175  10.328  14.204  1.00  0.00    -0.237 OA
ATOM     72  O   UNL     1       4.204   9.067  13.418  1.00  0.00    -0.744 OA
ENDBRANCH  65  69
ENDBRANCH  39  62
ENDBRANCH  13  14
ENDBRANCH   6   8
ENDBRANCH   3   4
ENDBRANCH   2   3
ENDBRANCH   1   2
BRANCH   1  73
ATOM     73  C   UNL     1       5.317  -1.385  -3.266  1.00  0.00     0.116 C 
BRANCH  73  74
ATOM     74  N   UNL     1       6.663  -1.608  -3.749  1.00  0.00    -0.355 N 
ATOM     75  C   UNL     1       7.146  -2.235  -4.858  1.00  0.00     0.235 C 
ATOM     76  H   UNL     1       7.363  -1.236  -3.165  1.00  0.00     0.163 HD
ATOM     77  O   UNL     1       8.373  -2.232  -5.002  1.00  0.00    -0.274 OA
BRANCH  75  78
ATOM     78  C   UNL     1       6.263  -2.936  -5.884  1.00  0.00     0.163 C 
ATOM     79  S   UNL     1       5.684  -4.552  -5.221  1.00  0.00    -0.119 SA
ATOM     80  C   UNL     1       5.026  -2.163  -6.315  1.00  0.00     0.170 C 
ATOM     81  C   UNL     1       4.016  -4.125  -5.341  1.00  0.00     0.038 C 
ATOM     82  C   UNL     1       3.795  -2.930  -5.895  1.00  0.00     0.002 C 
BRANCH  80  83
ATOM     83  S   UNL     1       5.024  -1.929  -8.077  1.00  0.00     0.219 S 
ATOM     84  O   UNL     1       5.982  -0.889  -8.390  1.00  0.00    -0.212 OA
ATOM     85  O   UNL     1       5.071  -3.211  -8.741  1.00  0.00    -0.212 OA
BRANCH  83  86
ATOM     86  N   UNL     1       3.487  -1.330  -8.381  1.00  0.00    -0.214 NA
ATOM     87  H   UNL     1       2.848  -1.877  -7.804  1.00  0.00     0.141 HD
BRANCH  86  88
ATOM     88  C   UNL     1       3.138   0.078  -8.155  1.00  0.00     0.103 C 
BRANCH  88  89
ATOM     89  C   UNL     1       3.686   1.032  -9.227  1.00  0.00     0.050 C 
BRANCH  89  90
ATOM     90  C   UNL     1       3.195   0.773 -10.620  1.00  0.00    -0.038 C 
ATOM     91  C   UNL     1       3.515  -0.199 -11.473  1.00  0.00     0.001 A 
ATOM     92  C   UNL     1       2.203   1.706 -11.250  1.00  0.00     0.174 C 
ATOM     93  C   UNL     1       4.409  -1.308 -11.476  1.00  0.00     0.010 A 
ATOM     94  C   UNL     1       2.601   0.040 -12.601  1.00  0.00     0.065 A 
ATOM     95  N   UNL     1       1.849   1.097 -12.555  1.00  0.00    -0.280 NA
ATOM     96  C   UNL     1       4.317  -2.229 -12.447  1.00  0.00     0.001 A 
ATOM     97  C   UNL     1       2.588  -0.990 -13.665  1.00  0.00     0.028 A 
ATOM     98  C   UNL     1       3.378  -2.070 -13.541  1.00  0.00     0.002 A 
ENDBRANCH  89  90
ENDBRANCH  88  89
ENDBRANCH  86  88
ENDBRANCH  83  86
ENDBRANCH  80  83
ENDBRANCH  75  78
ENDBRANCH  73  74
ENDBRANCH   1  73
TORSDOF 19
