REMARK SMILES O=C(NC[C@@H]1CCCO1)C(=O)N/N=C/c1ccc(C(=O)NCCCCNC(=O)c2ccc(-c3c4nc(c(-c5cc(S(=O)(=O)[O-])ccc5F)c5ccc([nH]5)c(-c5cc(S(=O)(=O)[O-])ccc5F)c5nc(c(-c6cc(S(=O)(=O)[O-])ccc6F)c6ccc3[nH]6)C=C5)C=C4)cc2)cc1
REMARK SMILES IDX 22 1 21 2 19 3 20 4 18 6 15 7 16 8 93 9 17 10 92 11 14 12
REMARK SMILES IDX 13 13 12 14 10 15 11 16 2 18 1 19 3 20 4 22 5 23 6 24 9 25
REMARK SMILES IDX 7 26 8 27 23 28 24 29 25 30 26 31 27 32 28 34 29 35 30 36
REMARK SMILES IDX 91 37 31 38 90 39 32 40 33 41 34 42 84 43 35 44 89 45 83 46
REMARK SMILES IDX 85 47 36 48 88 49 82 50 81 51 37 53 69 54 49 55 68 56 50 57
REMARK SMILES IDX 53 58 67 59 86 60 51 61 52 62 66 64 87 65 54 66 38 67 39 68
REMARK SMILES IDX 47 69 40 70 46 71 48 72 45 73 41 74 42 75 43 76 44 77 70 78
REMARK SMILES IDX 71 79 79 80 72 81 78 82 80 83 77 84 73 85 74 86 75 87 76 88
REMARK SMILES IDX 55 89 56 90 64 91 57 92 63 93 65 94 62 95 58 96 59 97 60 98
REMARK SMILES IDX 61 99
REMARK H PARENT 21 5 12 17 3 21 26 33 85 52 53 63
REMARK Flexibility Score: inf
ROOT
ATOM      1  C   UNL     1       8.954  -4.420  -3.259  1.00  0.00     0.116 C 
ENDROOT
BRANCH   1   2
ATOM      2  N   UNL     1       8.454  -3.966  -4.542  1.00  0.00    -0.352 N 
ATOM      3  C   UNL     1       7.784  -2.838  -4.950  1.00  0.00     0.251 C 
ATOM      4  O   UNL     1       7.489  -2.774  -6.146  1.00  0.00    -0.269 OA
ATOM      5  H   UNL     1       8.631  -4.599  -5.275  1.00  0.00     0.163 HD
BRANCH   3   6
ATOM      6  C   UNL     1       7.330  -1.727  -4.053  1.00  0.00     0.039 A 
ATOM      7  C   UNL     1       6.124   0.265  -2.449  1.00  0.00    -0.005 A 
ATOM      8  C   UNL     1       5.692   0.083  -3.758  1.00  0.00     0.010 A 
ATOM      9  C   UNL     1       7.217  -0.472  -1.972  1.00  0.00     0.010 A 
ATOM     10  C   UNL     1       6.290  -0.910  -4.546  1.00  0.00     0.014 A 
ATOM     11  C   UNL     1       7.833  -1.444  -2.781  1.00  0.00     0.014 A 
BRANCH   7  12
ATOM     12  C   UNL     1       5.266   1.063  -1.537  1.00  0.00     0.141 C 
ATOM     13  N   UNL     1       5.366   0.898  -0.256  1.00  0.00    -0.180 NA
BRANCH  13  14
ATOM     14  N   UNL     1       4.371   1.420   0.516  1.00  0.00    -0.239 N 
ATOM     15  C   UNL     1       3.163   0.774   0.782  1.00  0.00     0.329 C 
ATOM     16  O   UNL     1       2.608   0.917   1.871  1.00  0.00    -0.262 OA
ATOM     17  H   UNL     1       4.513   2.311   0.910  1.00  0.00     0.194 HD
BRANCH  15  18
ATOM     18  C   UNL     1       2.440  -0.039  -0.307  1.00  0.00     0.311 C 
ATOM     19  O   UNL     1       1.455   0.457  -0.848  1.00  0.00    -0.264 OA
ATOM     20  N   UNL     1       2.835  -1.330  -0.608  1.00  0.00    -0.345 N 
ATOM     21  H   UNL     1       2.213  -1.889  -1.127  1.00  0.00     0.164 HD
BRANCH  20  22
ATOM     22  C   UNL     1       4.094  -1.915  -0.216  1.00  0.00     0.148 C 
BRANCH  22  23
ATOM     23  C   UNL     1       4.460  -3.301  -0.726  1.00  0.00     0.137 C 
ATOM     24  C   UNL     1       4.287  -3.587  -2.205  1.00  0.00     0.036 C 
ATOM     25  O   UNL     1       3.759  -4.370  -0.085  1.00  0.00    -0.376 OA
ATOM     26  C   UNL     1       4.620  -5.063  -2.203  1.00  0.00     0.031 C 
ATOM     27  C   UNL     1       3.985  -5.540  -0.902  1.00  0.00     0.160 C 
ENDBRANCH  22  23
ENDBRANCH  20  22
ENDBRANCH  15  18
ENDBRANCH  13  14
ENDBRANCH   7  12
ENDBRANCH   3   6
ENDBRANCH   1   2
BRANCH   1  28
ATOM     28  C   UNL     1       8.891  -5.938  -3.081  1.00  0.00     0.023 C 
BRANCH  28  29
ATOM     29  C   UNL     1       9.801  -6.785  -3.974  1.00  0.00     0.023 C 
BRANCH  29  30
ATOM     30  C   UNL     1      11.291  -6.458  -3.941  1.00  0.00     0.116 C 
BRANCH  30  31
ATOM     31  N   UNL     1      11.867  -6.459  -2.604  1.00  0.00    -0.352 N 
ATOM     32  C   UNL     1      13.078  -6.957  -2.179  1.00  0.00     0.251 C 
ATOM     33  H   UNL     1      11.312  -6.045  -1.905  1.00  0.00     0.163 HD
ATOM     34  O   UNL     1      13.360  -6.923  -0.982  1.00  0.00    -0.269 OA
BRANCH  32  35
ATOM     35  C   UNL     1      14.009  -7.574  -3.149  1.00  0.00     0.039 A 
ATOM     36  C   UNL     1      14.568  -8.821  -2.852  1.00  0.00     0.014 A 
ATOM     37  C   UNL     1      14.302  -6.948  -4.363  1.00  0.00     0.014 A 
ATOM     38  C   UNL     1      15.345  -9.479  -3.808  1.00  0.00     0.010 A 
ATOM     39  C   UNL     1      15.016  -7.636  -5.341  1.00  0.00     0.010 A 
ATOM     40  C   UNL     1      15.536  -8.913  -5.079  1.00  0.00    -0.014 A 
BRANCH  40  41
ATOM     41  C   UNL     1      16.264  -9.644  -6.152  1.00  0.00     0.031 A 
ATOM     42  C   UNL     1      17.544  -9.085  -6.710  1.00  0.00     0.074 A 
ATOM     43  C   UNL     1      15.730 -10.766  -6.676  1.00  0.00     0.049 A 
ATOM     44  N   UNL     1      18.273  -9.518  -7.706  1.00  0.00    -0.248 NA
ATOM     45  C   UNL     1      18.050  -7.856  -6.084  1.00  0.00     0.031 C 
ATOM     46  C   UNL     1      14.469 -11.380  -6.253  1.00  0.00     0.029 A 
ATOM     47  N   UNL     1      16.171 -11.584  -7.687  1.00  0.00    -0.354 N 
ATOM     48  C   UNL     1      19.316  -8.607  -7.837  1.00  0.00     0.074 A 
ATOM     49  C   UNL     1      19.084  -7.565  -6.859  1.00  0.00     0.031 C 
ATOM     50  C   UNL     1      14.251 -12.486  -6.982  1.00  0.00     0.029 A 
ATOM     51  C   UNL     1      15.329 -12.639  -7.954  1.00  0.00     0.049 A 
ATOM     52  H   UNL     1      17.012 -11.430  -8.175  1.00  0.00     0.167 HD
ATOM     53  C   UNL     1      20.381  -8.649  -8.677  1.00  0.00     0.034 A 
ATOM     54  C   UNL     1      15.408 -13.611  -8.884  1.00  0.00     0.034 A 
ATOM     55  C   UNL     1      20.603  -9.703  -9.637  1.00  0.00     0.049 A 
ATOM     56  C   UNL     1      16.593 -13.631  -9.817  1.00  0.00     0.074 A 
ATOM     57  C   UNL     1      21.674  -9.875 -10.497  1.00  0.00     0.029 A 
ATOM     58  N   UNL     1      19.735 -10.763  -9.870  1.00  0.00    -0.354 N 
ATOM     59  N   UNL     1      17.599 -12.790  -9.892  1.00  0.00    -0.248 NA
ATOM     60  C   UNL     1      16.659 -14.737 -10.780  1.00  0.00     0.031 C 
ATOM     61  C   UNL     1      21.423 -10.999 -11.292  1.00  0.00     0.029 A 
ATOM     62  C   UNL     1      20.232 -11.575 -10.879  1.00  0.00     0.049 A 
ATOM     63  H   UNL     1      18.890 -10.915  -9.389  1.00  0.00     0.167 HD
ATOM     64  C   UNL     1      18.432 -13.285 -10.892  1.00  0.00     0.074 A 
ATOM     65  C   UNL     1      17.817 -14.503 -11.379  1.00  0.00     0.031 C 
ATOM     66  C   UNL     1      19.602 -12.781 -11.362  1.00  0.00     0.034 A 
BRANCH  53  67
ATOM     67  C   UNL     1      21.367  -7.506  -8.601  1.00  0.00     0.023 A 
ATOM     68  C   UNL     1      22.096  -7.238  -7.429  1.00  0.00     0.031 A 
ATOM     69  C   UNL     1      21.553  -6.649  -9.700  1.00  0.00     0.131 A 
ATOM     70  C   UNL     1      22.906  -6.096  -7.351  1.00  0.00     0.055 A 
ATOM     71  C   UNL     1      22.430  -5.562  -9.645  1.00  0.00     0.041 A 
ATOM     72  F   UNL     1      20.872  -6.840 -10.840  1.00  0.00    -0.206 F 
ATOM     73  C   UNL     1      23.099  -5.270  -8.460  1.00  0.00     0.022 A 
BRANCH  70  74
ATOM     74  S   UNL     1      23.574  -5.619  -5.734  1.00  0.00     0.124 S 
ATOM     75  O   UNL     1      22.353  -5.456  -4.948  1.00  0.00    -0.237 OA
ATOM     76  O   UNL     1      24.409  -6.763  -5.388  1.00  0.00    -0.237 OA
ATOM     77  O   UNL     1      24.296  -4.380  -6.013  1.00  0.00    -0.744 OA
ENDBRANCH  70  74
ENDBRANCH  53  67
BRANCH  54  78
ATOM     78  C   UNL     1      14.338 -14.644  -8.991  1.00  0.00     0.023 A 
ATOM     79  C   UNL     1      14.607 -15.995  -8.717  1.00  0.00     0.031 A 
ATOM     80  C   UNL     1      13.039 -14.302  -9.406  1.00  0.00     0.131 A 
ATOM     81  C   UNL     1      13.605 -16.960  -8.904  1.00  0.00     0.055 A 
ATOM     82  C   UNL     1      12.031 -15.259  -9.541  1.00  0.00     0.041 A 
ATOM     83  F   UNL     1      12.726 -13.024  -9.673  1.00  0.00    -0.206 F 
ATOM     84  C   UNL     1      12.316 -16.600  -9.302  1.00  0.00     0.022 A 
BRANCH  81  85
ATOM     85  S   UNL     1      14.035 -18.710  -8.693  1.00  0.00     0.124 S 
ATOM     86  O   UNL     1      15.106 -18.872  -9.668  1.00  0.00    -0.237 OA
ATOM     87  O   UNL     1      14.431 -18.756  -7.289  1.00  0.00    -0.237 OA
ATOM     88  O   UNL     1      12.790 -19.406  -9.009  1.00  0.00    -0.744 OA
ENDBRANCH  81  85
ENDBRANCH  54  78
BRANCH  66  89
ATOM     89  C   UNL     1      20.312 -13.579 -12.428  1.00  0.00     0.023 A 
ATOM     90  C   UNL     1      19.778 -13.730 -13.720  1.00  0.00     0.031 A 
ATOM     91  C   UNL     1      21.537 -14.206 -12.141  1.00  0.00     0.131 A 
ATOM     92  C   UNL     1      20.440 -14.534 -14.660  1.00  0.00     0.055 A 
ATOM     93  C   UNL     1      22.221 -14.956 -13.099  1.00  0.00     0.041 A 
ATOM     94  F   UNL     1      22.092 -14.097 -10.923  1.00  0.00    -0.206 F 
ATOM     95  C   UNL     1      21.666 -15.134 -14.363  1.00  0.00     0.022 A 
BRANCH  92  96
ATOM     96  S   UNL     1      19.632 -14.859 -16.251  1.00  0.00     0.124 S 
ATOM     97  O   UNL     1      18.380 -15.481 -15.834  1.00  0.00    -0.237 OA
ATOM     98  O   UNL     1      19.521 -13.522 -16.824  1.00  0.00    -0.237 OA
ATOM     99  O   UNL     1      20.569 -15.749 -16.935  1.00  0.00    -0.744 OA
ENDBRANCH  92  96
ENDBRANCH  66  89
ENDBRANCH  40  41
ENDBRANCH  32  35
ENDBRANCH  30  31
ENDBRANCH  29  30
ENDBRANCH  28  29
ENDBRANCH   1  28
TORSDOF 19
