REMARK SMILES O=C(NCCCCNC(=O)c1ccc(-c2c3nc(c(-c4cc(S(=O)(=O)[O-])ccc4F)c4ccc([nH]4)c(-c4cc(S(=O)(=O)[O-])ccc4F)c4nc(c(-c5cc(S(=O)(=O)[O-])ccc5F)c5ccc2[nH]5)C=C4)C=C3)cc1)C1=Cc2c(cc(Cl)c(Cl)c2Cl)O[C@H]1C(F)(F)F
REMARK SMILES IDX 6 1 5 2 4 3 3 4 1 5 2 6 74 8 75 9 86 10 76 11 85 12 77 13
REMARK SMILES IDX 83 14 78 15 81 16 84 17 79 18 82 19 80 20 87 21 88 22 89 23
REMARK SMILES IDX 90 24 7 25 8 26 9 27 10 29 11 30 12 31 73 32 13 33 72 34
REMARK SMILES IDX 14 35 15 36 16 37 66 38 17 39 71 40 65 41 67 42 18 43 70 44
REMARK SMILES IDX 64 45 63 46 19 48 51 49 31 50 50 51 32 52 35 53 49 54 68 55
REMARK SMILES IDX 33 56 34 57 48 59 69 60 36 61 20 62 21 63 29 64 22 65 28 66
REMARK SMILES IDX 30 67 27 68 23 69 24 70 25 71 26 72 52 73 53 74 61 75 54 76
REMARK SMILES IDX 60 77 62 78 59 79 55 80 56 81 57 82 58 83 37 84 38 85 46 86
REMARK SMILES IDX 39 87 45 88 47 89 44 90 40 91 41 92 42 93 43 94
REMARK H PARENT 3 7 8 28 67 47 35 58
REMARK Flexibility Score: inf
ROOT
ATOM      1  C   UNL     1       3.804   2.865  -3.267  1.00  0.00     0.023 C 
ENDROOT
BRANCH   1   2
ATOM      2  C   UNL     1       4.135   1.426  -2.884  1.00  0.00     0.023 C 
BRANCH   2   3
ATOM      3  C   UNL     1       3.880   1.046  -1.431  1.00  0.00     0.116 C 
BRANCH   3   4
ATOM      4  N   UNL     1       2.506   0.713  -1.096  1.00  0.00    -0.352 N 
ATOM      5  O   UNL     1       0.845  -0.277   0.079  1.00  0.00    -0.270 OA
ATOM      6  C   UNL     1       2.040  -0.024  -0.037  1.00  0.00     0.251 C 
ATOM      7  H   UNL     1       1.820   1.063  -1.709  1.00  0.00     0.163 HD
BRANCH   6   8
ATOM      8  C   UNL     1       2.994  -0.565   0.970  1.00  0.00     0.067 C 
ATOM      9  C   UNL     1       3.512   0.333   1.824  1.00  0.00     0.027 C 
ATOM     10  C   UNL     1       3.754  -1.793   0.547  1.00  0.00     0.314 C 
ATOM     11  C   UNL     1       4.955   0.571   1.616  1.00  0.00     0.037 A 
ATOM     12  O   UNL     1       5.203  -1.634   0.599  1.00  0.00    -0.475 OA
ATOM     13  C   UNL     1       5.702  -0.406   0.947  1.00  0.00     0.131 A 
ATOM     14  C   UNL     1       5.529   1.831   1.885  1.00  0.00     0.072 A 
ATOM     15  C   UNL     1       6.989  -0.121   0.503  1.00  0.00     0.069 A 
ATOM     16  C   UNL     1       6.817   2.132   1.408  1.00  0.00     0.079 A 
ATOM     17  Cl  UNL     1       4.590   3.024   2.735  1.00  0.00    -0.082 Cl
ATOM     18  C   UNL     1       7.531   1.152   0.701  1.00  0.00     0.064 A 
ATOM     19  Cl  UNL     1       7.491   3.715   1.633  1.00  0.00    -0.081 Cl
ATOM     20  Cl  UNL     1       9.078   1.458  -0.009  1.00  0.00    -0.083 Cl
BRANCH  10  21
ATOM     21  C   UNL     1       3.322  -3.037   1.354  1.00  0.00     0.429 C 
ATOM     22  F   UNL     1       2.405  -2.762   2.310  1.00  0.00    -0.167 F 
ATOM     23  F   UNL     1       2.785  -3.981   0.543  1.00  0.00    -0.167 F 
ATOM     24  F   UNL     1       4.372  -3.618   1.987  1.00  0.00    -0.167 F 
ENDBRANCH  10  21
ENDBRANCH   6   8
ENDBRANCH   3   4
ENDBRANCH   2   3
ENDBRANCH   1   2
BRANCH   1  25
ATOM     25  C   UNL     1       4.441   3.969  -2.423  1.00  0.00     0.116 C 
BRANCH  25  26
ATOM     26  N   UNL     1       5.893   3.905  -2.321  1.00  0.00    -0.352 N 
ATOM     27  C   UNL     1       6.831   4.910  -2.457  1.00  0.00     0.251 C 
ATOM     28  H   UNL     1       6.260   3.012  -2.127  1.00  0.00     0.163 HD
ATOM     29  O   UNL     1       8.022   4.641  -2.362  1.00  0.00    -0.269 OA
BRANCH  27  30
ATOM     30  C   UNL     1       6.398   6.285  -2.802  1.00  0.00     0.039 A 
ATOM     31  C   UNL     1       7.013   6.923  -3.884  1.00  0.00     0.014 A 
ATOM     32  C   UNL     1       5.335   6.901  -2.138  1.00  0.00     0.014 A 
ATOM     33  C   UNL     1       6.463   8.102  -4.394  1.00  0.00     0.010 A 
ATOM     34  C   UNL     1       4.742   8.031  -2.695  1.00  0.00     0.010 A 
ATOM     35  C   UNL     1       5.273   8.616  -3.855  1.00  0.00    -0.014 A 
BRANCH  35  36
ATOM     36  C   UNL     1       4.512   9.687  -4.554  1.00  0.00     0.031 A 
ATOM     37  C   UNL     1       4.264  11.012  -3.895  1.00  0.00     0.074 A 
ATOM     38  C   UNL     1       3.948   9.412  -5.749  1.00  0.00     0.049 A 
ATOM     39  N   UNL     1       3.545  12.022  -4.313  1.00  0.00    -0.248 NA
ATOM     40  C   UNL     1       4.879  11.210  -2.577  1.00  0.00     0.031 C 
ATOM     41  C   UNL     1       4.053   8.134  -6.459  1.00  0.00     0.029 A 
ATOM     42  N   UNL     1       3.155  10.178  -6.567  1.00  0.00    -0.354 N 
ATOM     43  C   UNL     1       3.615  12.979  -3.307  1.00  0.00     0.074 A 
ATOM     44  C   UNL     1       4.392  12.393  -2.232  1.00  0.00     0.031 C 
ATOM     45  C   UNL     1       3.363   8.208  -7.606  1.00  0.00     0.029 A 
ATOM     46  C   UNL     1       2.730   9.518  -7.698  1.00  0.00     0.049 A 
ATOM     47  H   UNL     1       2.914  11.110  -6.365  1.00  0.00     0.167 HD
ATOM     48  C   UNL     1       3.100  14.235  -3.291  1.00  0.00     0.034 A 
ATOM     49  C   UNL     1       1.905   9.912  -8.688  1.00  0.00     0.034 A 
ATOM     50  C   UNL     1       2.319  14.797  -4.368  1.00  0.00     0.049 A 
ATOM     51  C   UNL     1       1.322  11.297  -8.643  1.00  0.00     0.074 A 
ATOM     52  C   UNL     1       1.812  16.079  -4.492  1.00  0.00     0.029 A 
ATOM     53  N   UNL     1       1.912  14.102  -5.502  1.00  0.00    -0.354 N 
ATOM     54  N   UNL     1       1.463  12.220  -7.721  1.00  0.00    -0.248 NA
ATOM     55  C   UNL     1       0.476  11.695  -9.775  1.00  0.00     0.031 C 
ATOM     56  C   UNL     1       1.045  16.139  -5.663  1.00  0.00     0.029 A 
ATOM     57  C   UNL     1       1.127  14.915  -6.307  1.00  0.00     0.049 A 
ATOM     58  H   UNL     1       2.147  13.167  -5.704  1.00  0.00     0.167 HD
ATOM     59  C   UNL     1       0.726  13.313  -8.164  1.00  0.00     0.074 A 
ATOM     60  C   UNL     1       0.162  12.941  -9.447  1.00  0.00     0.031 C 
ATOM     61  C   UNL     1       0.536  14.517  -7.565  1.00  0.00     0.034 A 
BRANCH  48  62
ATOM     62  C   UNL     1       3.351  15.062  -2.051  1.00  0.00     0.023 A 
ATOM     63  C   UNL     1       4.656  15.390  -1.640  1.00  0.00     0.031 A 
ATOM     64  C   UNL     1       2.284  15.474  -1.234  1.00  0.00     0.131 A 
ATOM     65  C   UNL     1       4.867  16.012  -0.401  1.00  0.00     0.055 A 
ATOM     66  C   UNL     1       2.497  16.174  -0.043  1.00  0.00     0.041 A 
ATOM     67  F   UNL     1       1.017  15.178  -1.562  1.00  0.00    -0.206 F 
ATOM     68  C   UNL     1       3.795  16.427   0.391  1.00  0.00     0.022 A 
BRANCH  65  69
ATOM     69  S   UNL     1       6.562  16.103   0.240  1.00  0.00     0.124 S 
ATOM     70  O   UNL     1       6.961  14.698   0.222  1.00  0.00    -0.237 OA
ATOM     71  O   UNL     1       7.220  16.967  -0.733  1.00  0.00    -0.237 OA
ATOM     72  O   UNL     1       6.394  16.677   1.573  1.00  0.00    -0.744 OA
ENDBRANCH  65  69
ENDBRANCH  48  62
BRANCH  49  73
ATOM     73  C   UNL     1       1.562   8.967  -9.787  1.00  0.00     0.023 A 
ATOM     74  C   UNL     1       2.031   9.171 -11.094  1.00  0.00     0.031 A 
ATOM     75  C   UNL     1       0.759   7.839  -9.539  1.00  0.00     0.131 A 
ATOM     76  C   UNL     1       1.675   8.271 -12.111  1.00  0.00     0.055 A 
ATOM     77  C   UNL     1       0.439   6.927 -10.545  1.00  0.00     0.041 A 
ATOM     78  F   UNL     1       0.297   7.595  -8.302  1.00  0.00    -0.206 F 
ATOM     79  C   UNL     1       0.892   7.144 -11.842  1.00  0.00     0.022 A 
BRANCH  76  80
ATOM     80  S   UNL     1       2.222   8.610 -13.806  1.00  0.00     0.124 S 
ATOM     81  O   UNL     1       1.575   9.888 -14.079  1.00  0.00    -0.237 OA
ATOM     82  O   UNL     1       3.673   8.645 -13.655  1.00  0.00    -0.237 OA
ATOM     83  O   UNL     1       1.706   7.473 -14.565  1.00  0.00    -0.744 OA
ENDBRANCH  76  80
ENDBRANCH  49  73
BRANCH  61  84
ATOM     84  C   UNL     1      -0.319  15.514  -8.306  1.00  0.00     0.023 A 
ATOM     85  C   UNL     1      -1.700  15.315  -8.474  1.00  0.00     0.031 A 
ATOM     86  C   UNL     1       0.258  16.667  -8.866  1.00  0.00     0.131 A 
ATOM     87  C   UNL     1      -2.452  16.230  -9.226  1.00  0.00     0.055 A 
ATOM     88  C   UNL     1      -0.505  17.602  -9.568  1.00  0.00     0.041 A 
ATOM     89  F   UNL     1       1.573  16.904  -8.740  1.00  0.00    -0.206 F 
ATOM     90  C   UNL     1      -1.866  17.381  -9.761  1.00  0.00     0.022 A 
BRANCH  87  91
ATOM     91  S   UNL     1      -4.195  15.860  -9.564  1.00  0.00     0.124 S 
ATOM     92  O   UNL     1      -4.099  14.605 -10.304  1.00  0.00    -0.237 OA
ATOM     93  O   UNL     1      -4.762  15.767  -8.223  1.00  0.00    -0.237 OA
ATOM     94  O   UNL     1      -4.645  17.009 -10.348  1.00  0.00    -0.744 OA
ENDBRANCH  87  91
ENDBRANCH  61  84
ENDBRANCH  35  36
ENDBRANCH  27  30
ENDBRANCH  25  26
ENDBRANCH   1  25
TORSDOF 15
