REMARK SMILES [NH3+][C@H](Cc1cc(Br)c(O)c(Br)c1)C(=O)NCCCCNC(=O)c1ccc(-c2c3nc(c(-c4cc(S(=O)(=O)[O-])ccc4F)c4ccc([nH]4)c(-c4cc(S(=O)(=O)[O-])ccc4F)c4nc(c(-c5cc(S(=O)(=O)[O-])ccc5F)c5ccc2[nH]5)C=C4)C=C3)cc1
REMARK SMILES IDX 17 1 16 2 15 3 13 4 14 5 2 7 1 8 3 12 4 13 5 14 12 15 6 16
REMARK SMILES IDX 10 17 7 18 8 19 11 20 9 21 18 23 19 24 20 25 21 26 22 28
REMARK SMILES IDX 23 29 24 30 85 31 25 32 84 33 26 34 27 35 28 36 78 37 29 38
REMARK SMILES IDX 83 39 77 40 79 41 30 42 82 43 76 44 75 45 31 47 63 48 43 49
REMARK SMILES IDX 62 50 44 51 47 52 61 53 80 54 45 55 46 56 60 58 81 59 48 60
REMARK SMILES IDX 32 61 33 62 41 63 34 64 40 65 42 66 39 67 35 68 36 69 37 70
REMARK SMILES IDX 38 71 64 72 65 73 73 74 66 75 72 76 74 77 71 78 67 79 68 80
REMARK SMILES IDX 69 81 70 82 49 83 50 84 58 85 51 86 57 87 59 88 56 89 52 90
REMARK SMILES IDX 53 91 54 92 55 93
REMARK H PARENT 15 6 1 9 1 10 1 11 9 22 20 27 79 46 47 57
REMARK Flexibility Score: inf
ROOT
ATOM      1  C   UNL     1      -1.232  -2.252  -1.439  1.00  0.00     0.023 C 
ENDROOT
BRANCH   1   2
ATOM      2  C   UNL     1      -1.030  -0.897  -2.118  1.00  0.00     0.116 C 
BRANCH   2   3
ATOM      3  N   UNL     1      -1.572   0.178  -1.308  1.00  0.00    -0.351 N 
ATOM      4  C   UNL     1      -0.958   1.167  -0.594  1.00  0.00     0.278 C 
ATOM      5  O   UNL     1      -1.666   1.875   0.127  1.00  0.00    -0.268 OA
ATOM      6  H   UNL     1      -2.555   0.197  -1.264  1.00  0.00     0.163 HD
BRANCH   4   7
ATOM      7  C   UNL     1       0.562   1.407  -0.687  1.00  0.00     0.275 C 
BRANCH   7   8
ATOM      8  N   UNL     1       0.903   1.842  -2.060  1.00  0.00    -0.347 N 
ATOM      9  H   UNL     1       0.302   2.620  -2.330  1.00  0.00     0.345 HD
ATOM     10  H   UNL     1       0.765   1.065  -2.707  1.00  0.00     0.345 HD
ATOM     11  H   UNL     1       1.879   2.139  -2.091  1.00  0.00     0.345 HD
ENDBRANCH   7   8
BRANCH   7  12
ATOM     12  C   UNL     1       1.367   0.230  -0.089  1.00  0.00     0.111 C 
BRANCH  12  13
ATOM     13  C   UNL     1       2.856   0.293  -0.345  1.00  0.00    -0.039 A 
ATOM     14  C   UNL     1       3.373  -0.104  -1.588  1.00  0.00     0.023 A 
ATOM     15  C   UNL     1       3.734   0.768   0.637  1.00  0.00     0.023 A 
ATOM     16  C   UNL     1       4.733   0.036  -1.864  1.00  0.00     0.061 A 
ATOM     17  C   UNL     1       5.103   0.879   0.367  1.00  0.00     0.061 A 
ATOM     18  Br  UNL     1       5.364  -0.434  -3.589  1.00  0.00    -0.047 Br
ATOM     19  C   UNL     1       5.603   0.534  -0.891  1.00  0.00     0.143 A 
ATOM     20  Br  UNL     1       6.241   1.521   1.742  1.00  0.00    -0.047 Br
BRANCH  19  21
ATOM     21  O   UNL     1       6.936   0.698  -1.162  1.00  0.00    -0.506 OA
ATOM     22  H   UNL     1       7.275   0.467  -2.004  1.00  0.00     0.293 HD
ENDBRANCH  19  21
ENDBRANCH  12  13
ENDBRANCH   7  12
ENDBRANCH   4   7
ENDBRANCH   2   3
ENDBRANCH   1   2
BRANCH   1  23
ATOM     23  C   UNL     1      -2.689  -2.716  -1.376  1.00  0.00     0.023 C 
BRANCH  23  24
ATOM     24  C   UNL     1      -3.386  -2.842  -2.727  1.00  0.00     0.116 C 
BRANCH  24  25
ATOM     25  N   UNL     1      -2.716  -3.772  -3.623  1.00  0.00    -0.352 N 
ATOM     26  C   UNL     1      -3.272  -4.713  -4.456  1.00  0.00     0.251 C 
ATOM     27  H   UNL     1      -1.733  -3.720  -3.634  1.00  0.00     0.163 HD
ATOM     28  O   UNL     1      -2.549  -5.512  -5.042  1.00  0.00    -0.269 OA
BRANCH  26  29
ATOM     29  C   UNL     1      -4.742  -4.775  -4.605  1.00  0.00     0.039 A 
ATOM     30  C   UNL     1      -5.381  -6.011  -4.487  1.00  0.00     0.014 A 
ATOM     31  C   UNL     1      -5.487  -3.613  -4.825  1.00  0.00     0.014 A 
ATOM     32  C   UNL     1      -6.776  -6.072  -4.520  1.00  0.00     0.010 A 
ATOM     33  C   UNL     1      -6.878  -3.668  -4.788  1.00  0.00     0.010 A 
ATOM     34  C   UNL     1      -7.537  -4.897  -4.632  1.00  0.00    -0.014 A 
BRANCH  34  35
ATOM     35  C   UNL     1      -9.022  -4.932  -4.588  1.00  0.00     0.031 A 
ATOM     36  C   UNL     1      -9.820  -4.505  -5.789  1.00  0.00     0.074 A 
ATOM     37  C   UNL     1      -9.648  -5.280  -3.447  1.00  0.00     0.049 A 
ATOM     38  N   UNL     1     -11.115  -4.377  -5.921  1.00  0.00    -0.248 NA
ATOM     39  C   UNL     1      -9.054  -4.144  -6.992  1.00  0.00     0.031 C 
ATOM     40  C   UNL     1      -8.981  -5.672  -2.202  1.00  0.00     0.029 A 
ATOM     41  N   UNL     1     -10.984  -5.350  -3.141  1.00  0.00    -0.354 N 
ATOM     42  C   UNL     1     -11.321  -3.911  -7.215  1.00  0.00     0.074 A 
ATOM     43  C   UNL     1     -10.011  -3.718  -7.802  1.00  0.00     0.031 C 
ATOM     44  C   UNL     1      -9.911  -5.957  -1.276  1.00  0.00     0.029 A 
ATOM     45  C   UNL     1     -11.236  -5.727  -1.841  1.00  0.00     0.049 A 
ATOM     46  H   UNL     1     -11.696  -5.149  -3.791  1.00  0.00     0.167 HD
ATOM     47  C   UNL     1     -12.492  -3.688  -7.862  1.00  0.00     0.034 A 
ATOM     48  C   UNL     1     -12.402  -5.858  -1.177  1.00  0.00     0.034 A 
ATOM     49  C   UNL     1     -13.789  -3.895  -7.264  1.00  0.00     0.049 A 
ATOM     50  C   UNL     1     -13.691  -5.587  -1.910  1.00  0.00     0.074 A 
ATOM     51  C   UNL     1     -15.039  -3.745  -7.841  1.00  0.00     0.029 A 
ATOM     52  N   UNL     1     -14.006  -4.290  -5.950  1.00  0.00    -0.354 N 
ATOM     53  N   UNL     1     -13.870  -5.191  -3.149  1.00  0.00    -0.248 NA
ATOM     54  C   UNL     1     -14.936  -5.793  -1.158  1.00  0.00     0.031 C 
ATOM     55  C   UNL     1     -16.008  -3.989  -6.861  1.00  0.00     0.029 A 
ATOM     56  C   UNL     1     -15.366  -4.364  -5.691  1.00  0.00     0.049 A 
ATOM     57  H   UNL     1     -13.296  -4.489  -5.297  1.00  0.00     0.167 HD
ATOM     58  C   UNL     1     -15.249  -5.130  -3.333  1.00  0.00     0.074 A 
ATOM     59  C   UNL     1     -15.852  -5.545  -2.083  1.00  0.00     0.031 C 
ATOM     60  C   UNL     1     -15.953  -4.769  -4.435  1.00  0.00     0.034 A 
BRANCH  47  61
ATOM     61  C   UNL     1     -12.413  -3.175  -9.280  1.00  0.00     0.023 A 
ATOM     62  C   UNL     1     -11.817  -3.932 -10.305  1.00  0.00     0.031 A 
ATOM     63  C   UNL     1     -12.910  -1.902  -9.609  1.00  0.00     0.131 A 
ATOM     64  C   UNL     1     -11.660  -3.380 -11.584  1.00  0.00     0.055 A 
ATOM     65  C   UNL     1     -12.827  -1.391 -10.906  1.00  0.00     0.041 A 
ATOM     66  F   UNL     1     -13.472  -1.124  -8.670  1.00  0.00    -0.206 F 
ATOM     67  C   UNL     1     -12.184  -2.124 -11.900  1.00  0.00     0.022 A 
BRANCH  64  68
ATOM     68  S   UNL     1     -10.631  -4.264 -12.787  1.00  0.00     0.124 S 
ATOM     69  O   UNL     1      -9.348  -4.324 -12.089  1.00  0.00    -0.237 OA
ATOM     70  O   UNL     1     -11.337  -5.531 -12.937  1.00  0.00    -0.237 OA
ATOM     71  O   UNL     1     -10.652  -3.395 -13.962  1.00  0.00    -0.744 OA
ENDBRANCH  64  68
ENDBRANCH  47  61
BRANCH  48  72
ATOM     72  C   UNL     1     -12.412  -6.251   0.261  1.00  0.00     0.023 A 
ATOM     73  C   UNL     1     -12.975  -7.468   0.675  1.00  0.00     0.031 A 
ATOM     74  C   UNL     1     -11.893  -5.394   1.248  1.00  0.00     0.131 A 
ATOM     75  C   UNL     1     -13.052  -7.774   2.043  1.00  0.00     0.055 A 
ATOM     76  C   UNL     1     -11.925  -5.726   2.604  1.00  0.00     0.041 A 
ATOM     77  F   UNL     1     -11.336  -4.222   0.906  1.00  0.00    -0.206 F 
ATOM     78  C   UNL     1     -12.520  -6.917   3.009  1.00  0.00     0.022 A 
BRANCH  75  79
ATOM     79  S   UNL     1     -13.937  -9.274   2.549  1.00  0.00     0.124 S 
ATOM     80  O   UNL     1     -15.258  -9.048   1.974  1.00  0.00    -0.237 OA
ATOM     81  O   UNL     1     -13.136 -10.322   1.924  1.00  0.00    -0.237 OA
ATOM     82  O   UNL     1     -13.874  -9.231   4.008  1.00  0.00    -0.744 OA
ENDBRANCH  75  79
ENDBRANCH  48  72
BRANCH  60  83
ATOM     83  C   UNL     1     -17.457  -4.854  -4.345  1.00  0.00     0.023 A 
ATOM     84  C   UNL     1     -18.199  -4.003  -3.508  1.00  0.00     0.031 A 
ATOM     85  C   UNL     1     -18.156  -5.812  -5.102  1.00  0.00     0.131 A 
ATOM     86  C   UNL     1     -19.589  -4.162  -3.406  1.00  0.00     0.055 A 
ATOM     87  C   UNL     1     -19.545  -5.926  -5.041  1.00  0.00     0.041 A 
ATOM     88  F   UNL     1     -17.497  -6.652  -5.917  1.00  0.00    -0.206 F 
ATOM     89  C   UNL     1     -20.268  -5.106  -4.179  1.00  0.00     0.022 A 
BRANCH  86  90
ATOM     90  S   UNL     1     -20.491  -3.174  -2.180  1.00  0.00     0.124 S 
ATOM     91  O   UNL     1     -19.837  -3.563  -0.936  1.00  0.00    -0.237 OA
ATOM     92  O   UNL     1     -20.241  -1.810  -2.633  1.00  0.00    -0.237 OA
ATOM     93  O   UNL     1     -21.873  -3.630  -2.323  1.00  0.00    -0.744 OA
ENDBRANCH  86  90
ENDBRANCH  60  83
ENDBRANCH  34  35
ENDBRANCH  26  29
ENDBRANCH  24  25
ENDBRANCH  23  24
ENDBRANCH   1  23
TORSDOF 18
