REMARK SMILES O=C(CSCc1ccc(C(=O)NCCCCNC(=O)c2ccc(-c3c4nc(c(-c5cc(S(=O)(=O)[O-])ccc5F)c5ccc([nH]5)c(-c5cc(S(=O)(=O)[O-])ccc5F)c5nc(c(-c6cc(S(=O)(=O)[O-])ccc6F)c6ccc3[nH]6)C=C5)C=C4)cc2)cc1)Nc1ccc(Cl)cc1
REMARK SMILES IDX 13 1 12 2 10 3 11 4 9 6 6 7 7 8 84 9 8 10 83 11 5 12 4 13
REMARK SMILES IDX 3 14 2 15 1 16 85 17 86 19 87 20 92 21 88 22 91 23 89 24
REMARK SMILES IDX 90 25 14 26 15 27 16 28 17 29 18 30 19 32 20 33 21 34 82 35
REMARK SMILES IDX 22 36 81 37 23 38 24 39 25 40 75 41 26 42 80 43 74 44 76 45
REMARK SMILES IDX 27 46 79 47 73 48 72 49 28 51 60 52 40 53 59 54 41 55 44 56
REMARK SMILES IDX 58 57 77 58 42 59 43 60 57 62 78 63 45 64 29 65 30 66 38 67
REMARK SMILES IDX 31 68 37 69 39 70 36 71 32 72 33 73 34 74 35 75 61 76 62 77
REMARK SMILES IDX 70 78 63 79 69 80 71 81 68 82 64 83 65 84 66 85 67 86 46 87
REMARK SMILES IDX 47 88 55 89 48 90 54 91 56 92 53 93 49 94 50 95 51 96 52 97
REMARK H PARENT 12 5 85 18 17 31 76 50 44 61
REMARK Flexibility Score: inf
ROOT
ATOM      1  C   UNL     1      -2.272   2.520   5.831  1.00  0.00     0.116 C 
ENDROOT
BRANCH   1   2
ATOM      2  N   UNL     1      -1.490   3.735   5.715  1.00  0.00    -0.352 N 
ATOM      3  C   UNL     1      -0.204   3.977   5.303  1.00  0.00     0.251 C 
ATOM      4  O   UNL     1       0.182   5.147   5.317  1.00  0.00    -0.269 OA
ATOM      5  H   UNL     1      -1.977   4.546   5.986  1.00  0.00     0.163 HD
BRANCH   3   6
ATOM      6  C   UNL     1       0.721   2.923   4.792  1.00  0.00     0.039 A 
ATOM      7  C   UNL     1       2.507   1.062   3.593  1.00  0.00    -0.038 A 
ATOM      8  C   UNL     1       2.649   2.434   3.372  1.00  0.00     0.005 A 
ATOM      9  C   UNL     1       1.525   0.651   4.510  1.00  0.00     0.005 A 
ATOM     10  C   UNL     1       1.750   3.346   3.939  1.00  0.00     0.014 A 
ATOM     11  C   UNL     1       0.665   1.570   5.122  1.00  0.00     0.014 A 
BRANCH   7  12
ATOM     12  C   UNL     1       3.362  -0.013   2.965  1.00  0.00     0.105 C 
BRANCH  12  13
ATOM     13  S   UNL     1       4.467   0.419   1.587  1.00  0.00    -0.147 SA
BRANCH  13  14
ATOM     14  C   UNL     1       3.280   1.022   0.340  1.00  0.00     0.170 C 
BRANCH  14  15
ATOM     15  C   UNL     1       2.278  -0.013  -0.136  1.00  0.00     0.234 C 
ATOM     16  O   UNL     1       1.118   0.317  -0.374  1.00  0.00    -0.274 OA
ATOM     17  N   UNL     1       2.813  -1.272  -0.340  1.00  0.00    -0.325 N 
ATOM     18  H   UNL     1       3.727  -1.424  -0.006  1.00  0.00     0.169 HD
BRANCH  17  19
ATOM     19  C   UNL     1       2.183  -2.358  -0.977  1.00  0.00     0.041 A 
ATOM     20  C   UNL     1       2.755  -3.626  -0.822  1.00  0.00     0.027 A 
ATOM     21  C   UNL     1       1.040  -2.223  -1.772  1.00  0.00     0.027 A 
ATOM     22  C   UNL     1       2.173  -4.746  -1.427  1.00  0.00     0.022 A 
ATOM     23  C   UNL     1       0.467  -3.338  -2.392  1.00  0.00     0.022 A 
ATOM     24  C   UNL     1       1.030  -4.596  -2.210  1.00  0.00     0.041 A 
ATOM     25  Cl  UNL     1       0.318  -5.971  -2.959  1.00  0.00    -0.084 Cl
ENDBRANCH  17  19
ENDBRANCH  14  15
ENDBRANCH  13  14
ENDBRANCH  12  13
ENDBRANCH   7  12
ENDBRANCH   3   6
ENDBRANCH   1   2
BRANCH   1  26
ATOM     26  C   UNL     1      -2.228   1.992   7.267  1.00  0.00     0.023 C 
BRANCH  26  27
ATOM     27  C   UNL     1      -3.137   2.752   8.241  1.00  0.00     0.023 C 
BRANCH  27  28
ATOM     28  C   UNL     1      -4.630   2.664   7.934  1.00  0.00     0.116 C 
BRANCH  28  29
ATOM     29  N   UNL     1      -5.121   1.297   7.884  1.00  0.00    -0.352 N 
ATOM     30  C   UNL     1      -6.356   0.808   8.244  1.00  0.00     0.251 C 
ATOM     31  H   UNL     1      -4.482   0.629   7.545  1.00  0.00     0.163 HD
ATOM     32  O   UNL     1      -6.554  -0.398   8.248  1.00  0.00    -0.269 OA
BRANCH  30  33
ATOM     33  C   UNL     1      -7.416   1.750   8.668  1.00  0.00     0.039 A 
ATOM     34  C   UNL     1      -8.122   1.475   9.842  1.00  0.00     0.014 A 
ATOM     35  C   UNL     1      -7.696   2.903   7.930  1.00  0.00     0.014 A 
ATOM     36  C   UNL     1      -9.060   2.395  10.313  1.00  0.00     0.010 A 
ATOM     37  C   UNL     1      -8.585   3.849   8.435  1.00  0.00     0.010 A 
ATOM     38  C   UNL     1      -9.271   3.607   9.635  1.00  0.00    -0.014 A 
BRANCH  38  39
ATOM     39  C   UNL     1     -10.187   4.638  10.186  1.00  0.00     0.031 A 
ATOM     40  C   UNL     1     -11.440   5.017   9.445  1.00  0.00     0.074 A 
ATOM     41  C   UNL     1      -9.857   5.271  11.330  1.00  0.00     0.049 A 
ATOM     42  N   UNL     1     -12.339   5.918   9.748  1.00  0.00    -0.248 NA
ATOM     43  C   UNL     1     -11.699   4.309   8.183  1.00  0.00     0.031 C 
ATOM     44  C   UNL     1      -8.641   5.024  12.109  1.00  0.00     0.029 A 
ATOM     45  N   UNL     1     -10.507   6.252  12.035  1.00  0.00    -0.354 N 
ATOM     46  C   UNL     1     -13.268   5.891   8.713  1.00  0.00     0.074 A 
ATOM     47  C   UNL     1     -12.785   4.927   7.745  1.00  0.00     0.031 C 
ATOM     48  C   UNL     1      -8.647   5.812  13.196  1.00  0.00     0.029 A 
ATOM     49  C   UNL     1      -9.843   6.648  13.173  1.00  0.00     0.049 A 
ATOM     50  H   UNL     1     -11.369   6.636  11.753  1.00  0.00     0.167 HD
ATOM     51  C   UNL     1     -14.425   6.587   8.593  1.00  0.00     0.034 A 
ATOM     52  C   UNL     1     -10.157   7.585  14.089  1.00  0.00     0.034 A 
ATOM     53  C   UNL     1     -14.893   7.540   9.572  1.00  0.00     0.049 A 
ATOM     54  C   UNL     1     -11.442   8.355  13.927  1.00  0.00     0.074 A 
ATOM     55  C   UNL     1     -16.077   8.257   9.581  1.00  0.00     0.029 A 
ATOM     56  N   UNL     1     -14.195   7.917  10.713  1.00  0.00    -0.354 N 
ATOM     57  N   UNL     1     -12.342   8.271  12.974  1.00  0.00    -0.248 NA
ATOM     58  C   UNL     1     -11.760   9.336  14.972  1.00  0.00     0.031 C 
ATOM     59  C   UNL     1     -16.064   9.114  10.687  1.00  0.00     0.029 A 
ATOM     60  C   UNL     1     -14.908   8.880  11.413  1.00  0.00     0.049 A 
ATOM     61  H   UNL     1     -13.321   7.554  10.985  1.00  0.00     0.167 HD
ATOM     62  C   UNL     1     -13.345   9.173  13.320  1.00  0.00     0.074 A 
ATOM     63  C   UNL     1     -12.948   9.769  14.580  1.00  0.00     0.031 C 
ATOM     64  C   UNL     1     -14.490   9.481  12.658  1.00  0.00     0.034 A 
BRANCH  51  65
ATOM     65  C   UNL     1     -15.249   6.357   7.348  1.00  0.00     0.023 A 
ATOM     66  C   UNL     1     -15.806   5.100   7.053  1.00  0.00     0.031 A 
ATOM     67  C   UNL     1     -15.460   7.400   6.429  1.00  0.00     0.131 A 
ATOM     68  C   UNL     1     -16.481   4.898   5.839  1.00  0.00     0.055 A 
ATOM     69  C   UNL     1     -16.202   7.214   5.260  1.00  0.00     0.041 A 
ATOM     70  F   UNL     1     -14.937   8.617   6.644  1.00  0.00    -0.206 F 
ATOM     71  C   UNL     1     -16.704   5.953   4.952  1.00  0.00     0.022 A 
BRANCH  68  72
ATOM     72  S   UNL     1     -16.937   3.206   5.373  1.00  0.00     0.124 S 
ATOM     73  O   UNL     1     -15.635   2.543   5.359  1.00  0.00    -0.237 OA
ATOM     74  O   UNL     1     -17.842   2.815   6.447  1.00  0.00    -0.237 OA
ATOM     75  O   UNL     1     -17.559   3.368   4.060  1.00  0.00    -0.744 OA
ENDBRANCH  68  72
ENDBRANCH  51  65
BRANCH  52  76
ATOM     76  C   UNL     1      -9.246   7.855  15.238  1.00  0.00     0.023 A 
ATOM     77  C   UNL     1      -9.651   7.601  16.558  1.00  0.00     0.031 A 
ATOM     78  C   UNL     1      -7.972   8.415  15.036  1.00  0.00     0.131 A 
ATOM     79  C   UNL     1      -8.812   7.950  17.628  1.00  0.00     0.055 A 
ATOM     80  C   UNL     1      -7.120   8.712  16.100  1.00  0.00     0.041 A 
ATOM     81  F   UNL     1      -7.533   8.672  13.793  1.00  0.00    -0.206 F 
ATOM     82  C   UNL     1      -7.544   8.492  17.407  1.00  0.00     0.022 A 
BRANCH  79  83
ATOM     83  S   UNL     1      -9.439   7.764  19.320  1.00  0.00     0.124 S 
ATOM     84  O   UNL     1     -10.639   8.592  19.285  1.00  0.00    -0.237 OA
ATOM     85  O   UNL     1      -9.655   6.324  19.405  1.00  0.00    -0.237 OA
ATOM     86  O   UNL     1      -8.348   8.278  20.145  1.00  0.00    -0.744 OA
ENDBRANCH  79  83
ENDBRANCH  52  76
BRANCH  64  87
ATOM     87  C   UNL     1     -15.402  10.490  13.313  1.00  0.00     0.023 A 
ATOM     88  C   UNL     1     -15.018  11.832  13.483  1.00  0.00     0.031 A 
ATOM     89  C   UNL     1     -16.660  10.095  13.803  1.00  0.00     0.131 A 
ATOM     90  C   UNL     1     -15.853  12.715  14.184  1.00  0.00     0.055 A 
ATOM     91  C   UNL     1     -17.515  10.995  14.441  1.00  0.00     0.041 A 
ATOM     92  F   UNL     1     -17.078   8.826  13.671  1.00  0.00    -0.206 F 
ATOM     93  C   UNL     1     -17.107  12.309  14.649  1.00  0.00     0.022 A 
BRANCH  90  94
ATOM     94  S   UNL     1     -15.233  14.374  14.574  1.00  0.00     0.124 S 
ATOM     95  O   UNL     1     -14.017  14.074  15.325  1.00  0.00    -0.237 OA
ATOM     96  O   UNL     1     -15.037  14.954  13.249  1.00  0.00    -0.237 OA
ATOM     97  O   UNL     1     -16.314  14.969  15.357  1.00  0.00    -0.744 OA
ENDBRANCH  90  94
ENDBRANCH  64  87
ENDBRANCH  38  39
ENDBRANCH  30  33
ENDBRANCH  28  29
ENDBRANCH  27  28
ENDBRANCH  26  27
ENDBRANCH   1  26
TORSDOF 19
