REMARK SMILES COc1cccc([C@@H]2CC(c3cccc(C)c3)=NN2C(=O)CCC(=O)NCCCCNC(=O)c2ccc(-c3c4nc(c(-c5cc(S(=O)(=O)[O-])ccc5F)c5ccc([nH]5)c(-c5cc(S(=O)(=O)[O-])ccc5F)c5nc(c(-c6cc(S(=O)(=O)[O-])ccc6F)c6ccc3[nH]6)C=C5)C=C4)cc2)c1
REMARK SMILES IDX 27 1 26 2 24 3 25 4 23 6 22 7 20 8 21 9 19 10 8 11 9 12
REMARK SMILES IDX 10 13 18 14 7 15 3 16 4 17 97 18 5 19 6 20 2 21 1 22 11 23
REMARK SMILES IDX 12 24 17 25 13 26 15 27 14 28 16 29 28 30 29 31 30 32 31 33
REMARK SMILES IDX 32 34 33 36 34 37 35 38 96 39 36 40 95 41 37 42 38 43 39 44
REMARK SMILES IDX 89 45 40 46 94 47 88 48 90 49 41 50 93 51 87 52 86 53 42 55
REMARK SMILES IDX 74 56 54 57 73 58 55 59 58 60 72 61 91 62 56 63 57 64 71 66
REMARK SMILES IDX 92 67 59 68 43 69 44 70 52 71 45 72 51 73 53 74 50 75 46 76
REMARK SMILES IDX 47 77 48 78 49 79 75 80 76 81 84 82 77 83 83 84 85 85 82 86
REMARK SMILES IDX 78 87 79 88 80 89 81 90 60 91 61 92 69 93 62 94 68 95 70 96
REMARK SMILES IDX 67 97 63 98 64 99 65 100 66 101
REMARK H PARENT 26 5 31 35 90 54 58 65
REMARK Flexibility Score: inf
ROOT
ATOM      1  C   UNL     1       4.551  -2.765  -1.997  1.00  0.00     0.116 C 
ENDROOT
BRANCH   1   2
ATOM      2  N   UNL     1       3.118  -3.281  -1.517  1.00  0.00    -0.356 N 
ATOM      3  C   UNL     1       2.507  -4.492  -1.477  1.00  0.00     0.220 C 
ATOM      4  O   UNL     1       1.328  -4.504  -1.112  1.00  0.00    -0.275 OA
ATOM      5  H   UNL     1       2.548  -2.555  -1.173  1.00  0.00     0.163 HD
BRANCH   3   6
ATOM      6  C   UNL     1       3.229  -5.765  -1.850  1.00  0.00     0.110 C 
BRANCH   6   7
ATOM      7  C   UNL     1       3.935  -5.862  -3.205  1.00  0.00     0.112 C 
BRANCH   7   8
ATOM      8  C   UNL     1       5.302  -5.170  -3.234  1.00  0.00     0.243 C 
ATOM      9  O   UNL     1       6.313  -5.760  -2.861  1.00  0.00    -0.273 OA
BRANCH   8  10
ATOM     10  N   UNL     1       5.230  -3.792  -3.540  1.00  0.00    -0.225 N 
ATOM     11  C   UNL     1       3.576  -2.970  -3.836  1.00  0.00     0.147 C 
ATOM     12  C   UNL     1       3.774  -1.254  -2.734  1.00  0.00     0.091 C 
ATOM     13  C   UNL     1       5.857  -1.311  -2.265  1.00  0.00     0.071 C 
ATOM     14  N   UNL     1       6.439  -2.705  -2.682  1.00  0.00    -0.174 NA
BRANCH  11  15
ATOM     15  C   UNL     1       3.385  -3.207  -5.421  1.00  0.00    -0.019 A 
ATOM     16  C   UNL     1       1.992  -3.644  -7.364  1.00  0.00     0.119 A 
ATOM     17  C   UNL     1       3.115  -3.983  -8.126  1.00  0.00     0.046 A 
ATOM     18  C   UNL     1       2.118  -3.245  -6.018  1.00  0.00     0.052 A 
ATOM     19  C   UNL     1       4.378  -3.918  -7.570  1.00  0.00     0.004 A 
ATOM     20  C   UNL     1       4.505  -3.548  -6.237  1.00  0.00     0.006 A 
BRANCH  16  21
ATOM     21  O   UNL     1       0.810  -3.822  -8.031  1.00  0.00    -0.497 OA
ATOM     22  C   UNL     1      -0.249  -2.968  -7.633  1.00  0.00     0.278 C 
ENDBRANCH  16  21
ENDBRANCH  11  15
BRANCH  13  23
ATOM     23  C   UNL     1       7.122  -0.124  -2.202  1.00  0.00    -0.002 A 
ATOM     24  C   UNL     1       8.420  -0.562  -2.364  1.00  0.00     0.010 A 
ATOM     25  C   UNL     1       7.040   1.343  -2.200  1.00  0.00     0.013 A 
ATOM     26  C   UNL     1       9.432   0.402  -2.517  1.00  0.00     0.001 A 
ATOM     27  C   UNL     1       7.957   2.376  -1.681  1.00  0.00    -0.050 A 
ATOM     28  C   UNL     1       9.216   1.798  -2.229  1.00  0.00     0.003 A 
ATOM     29  C   UNL     1       7.606   3.694  -0.032  1.00  0.00     0.044 C 
ENDBRANCH  13  23
ENDBRANCH   8  10
ENDBRANCH   7   8
ENDBRANCH   6   7
ENDBRANCH   3   6
ENDBRANCH   1   2
BRANCH   1  30
ATOM     30  C   UNL     1       5.105  -1.709  -3.878  1.00  0.00     0.023 C 
BRANCH  30  31
ATOM     31  C   UNL     1       5.020   0.197  -3.803  1.00  0.00     0.023 C 
BRANCH  31  32
ATOM     32  C   UNL     1       4.404   1.027  -2.311  1.00  0.00     0.116 C 
BRANCH  32  33
ATOM     33  N   UNL     1       4.769   0.540  -0.794  1.00  0.00    -0.352 N 
ATOM     34  C   UNL     1       5.788   0.723   0.204  1.00  0.00     0.251 C 
ATOM     35  H   UNL     1       4.072  -0.068  -0.457  1.00  0.00     0.163 HD
ATOM     36  O   UNL     1       5.867  -0.042   1.159  1.00  0.00    -0.269 OA
BRANCH  34  37
ATOM     37  C   UNL     1       6.753   1.847   0.061  1.00  0.00     0.039 A 
ATOM     38  C   UNL     1       8.595   1.971   0.290  1.00  0.00     0.014 A 
ATOM     39  C   UNL     1       5.900   3.057  -0.974  1.00  0.00     0.014 A 
ATOM     40  C   UNL     1       9.508   3.376  -0.541  1.00  0.00     0.010 A 
ATOM     41  C   UNL     1       6.803   4.280  -1.892  1.00  0.00     0.010 A 
ATOM     42  C   UNL     1       8.570   4.508  -1.675  1.00  0.00    -0.014 A 
BRANCH  42  43
ATOM     43  C   UNL     1       8.830   5.917  -2.220  1.00  0.00     0.031 A 
ATOM     44  C   UNL     1       8.150   7.151  -1.556  1.00  0.00     0.074 A 
ATOM     45  C   UNL     1       9.083   6.054  -3.544  1.00  0.00     0.049 A 
ATOM     46  N   UNL     1       7.984   8.383  -2.003  1.00  0.00    -0.248 NA
ATOM     47  C   UNL     1       7.487   6.947  -0.264  1.00  0.00     0.031 C 
ATOM     48  C   UNL     1       9.436   4.969  -4.457  1.00  0.00     0.029 A 
ATOM     49  N   UNL     1       8.996   7.159  -4.372  1.00  0.00    -0.354 N 
ATOM     50  C   UNL     1       7.234   9.061  -1.031  1.00  0.00     0.074 A 
ATOM     51  C   UNL     1       6.849   8.082  -0.057  1.00  0.00     0.031 C 
ATOM     52  C   UNL     1       9.552   5.458  -5.705  1.00  0.00     0.029 A 
ATOM     53  C   UNL     1       9.265   6.893  -5.697  1.00  0.00     0.049 A 
ATOM     54  H   UNL     1       8.763   8.057  -4.043  1.00  0.00     0.167 HD
ATOM     55  C   UNL     1       6.912  10.374  -0.892  1.00  0.00     0.034 A 
ATOM     56  C   UNL     1       9.293   7.698  -6.783  1.00  0.00     0.034 A 
ATOM     57  C   UNL     1       7.169  11.366  -1.897  1.00  0.00     0.049 A 
ATOM     58  C   UNL     1       8.974   9.172  -6.656  1.00  0.00     0.074 A 
ATOM     59  C   UNL     1       6.984  12.736  -1.843  1.00  0.00     0.029 A 
ATOM     60  N   UNL     1       7.604  11.070  -3.177  1.00  0.00    -0.354 N 
ATOM     61  N   UNL     1       8.531   9.840  -5.617  1.00  0.00    -0.248 NA
ATOM     62  C   UNL     1       9.183  10.002  -7.854  1.00  0.00     0.031 C 
ATOM     63  C   UNL     1       7.230  13.258  -3.118  1.00  0.00     0.029 A 
ATOM     64  C   UNL     1       7.650  12.223  -3.938  1.00  0.00     0.049 A 
ATOM     65  H   UNL     1       7.847  10.171  -3.498  1.00  0.00     0.167 HD
ATOM     66  C   UNL     1       8.456  11.174  -6.025  1.00  0.00     0.074 A 
ATOM     67  C   UNL     1       8.893  11.214  -7.403  1.00  0.00     0.031 C 
ATOM     68  C   UNL     1       8.074  12.267  -5.315  1.00  0.00     0.034 A 
BRANCH  55  69
ATOM     69  C   UNL     1       6.252  10.798   0.414  1.00  0.00     0.023 A 
ATOM     70  C   UNL     1       6.886  10.559   1.651  1.00  0.00     0.031 A 
ATOM     71  C   UNL     1       4.981  11.397   0.446  1.00  0.00     0.131 A 
ATOM     72  C   UNL     1       6.213  10.812   2.856  1.00  0.00     0.055 A 
ATOM     73  C   UNL     1       4.354  11.735   1.650  1.00  0.00     0.041 A 
ATOM     74  F   UNL     1       4.310  11.641  -0.691  1.00  0.00    -0.206 F 
ATOM     75  C   UNL     1       4.960  11.424   2.865  1.00  0.00     0.022 A 
BRANCH  72  76
ATOM     76  S   UNL     1       6.929  10.171   4.396  1.00  0.00     0.124 S 
ATOM     77  O   UNL     1       7.022   8.742   4.104  1.00  0.00    -0.237 OA
ATOM     78  O   UNL     1       8.195  10.891   4.478  1.00  0.00    -0.237 OA
ATOM     79  O   UNL     1       5.939  10.529   5.409  1.00  0.00    -0.744 OA
ENDBRANCH  72  76
ENDBRANCH  55  69
BRANCH  56  80
ATOM     80  C   UNL     1       9.738   7.153  -8.100  1.00  0.00     0.023 A 
ATOM     81  C   UNL     1      11.004   7.494  -8.607  1.00  0.00     0.031 A 
ATOM     82  C   UNL     1       8.925   6.308  -8.872  1.00  0.00     0.131 A 
ATOM     83  C   UNL     1      11.412   7.016  -9.861  1.00  0.00     0.055 A 
ATOM     84  C   UNL     1       9.351   5.803 -10.104  1.00  0.00     0.041 A 
ATOM     85  F   UNL     1       7.710   5.947  -8.430  1.00  0.00    -0.206 F 
ATOM     86  C   UNL     1      10.600   6.162 -10.608  1.00  0.00     0.022 A 
BRANCH  83  87
ATOM     87  S   UNL     1      13.012   7.563 -10.518  1.00  0.00     0.124 S 
ATOM     88  O   UNL     1      12.815   9.004 -10.620  1.00  0.00    -0.237 OA
ATOM     89  O   UNL     1      13.935   7.114  -9.481  1.00  0.00    -0.237 OA
ATOM     90  O   UNL     1      13.118   6.854 -11.791  1.00  0.00    -0.744 OA
ENDBRANCH  83  87
ENDBRANCH  56  80
BRANCH  68  91
ATOM     91  C   UNL     1       8.160  13.613  -5.987  1.00  0.00     0.023 A 
ATOM     92  C   UNL     1       7.328  13.961  -7.064  1.00  0.00     0.031 A 
ATOM     93  C   UNL     1       9.085  14.568  -5.528  1.00  0.00     0.131 A 
ATOM     94  C   UNL     1       7.473  15.214  -7.680  1.00  0.00     0.055 A 
ATOM     95  C   UNL     1       9.186  15.833  -6.108  1.00  0.00     0.041 A 
ATOM     96  F   UNL     1       9.901  14.289  -4.499  1.00  0.00    -0.206 F 
ATOM     97  C   UNL     1       8.386  16.157  -7.199  1.00  0.00     0.022 A 
BRANCH  94  98
ATOM     98  S   UNL     1       6.509  15.566  -9.175  1.00  0.00     0.124 S 
ATOM     99  O   UNL     1       6.924  14.487 -10.065  1.00  0.00    -0.237 OA
ATOM    100  O   UNL     1       5.136  15.495  -8.685  1.00  0.00    -0.237 OA
ATOM    101  O   UNL     1       6.958  16.901  -9.568  1.00  0.00    -0.744 OA
ENDBRANCH  94  98
ENDBRANCH  68  91
ENDBRANCH  42  43
ENDBRANCH  34  37
ENDBRANCH  32  33
ENDBRANCH  31  32
ENDBRANCH  30  31
ENDBRANCH   1  30
TORSDOF 20
