REMARK SMILES Cc1ccc(NC(=O)N2CCCC[C@@H]2C(=O)NCCCCNC(=O)c2ccc(-c3c4nc(c(-c5cc(S(=O)(=O)[O-])ccc5F)c5ccc([nH]5)c(-c5cc(S(=O)(=O)[O-])ccc5F)c5nc(c(-c6cc(S(=O)(=O)[O-])ccc6F)c6ccc3[nH]6)C=C5)C=C4)cc2)cc1
REMARK SMILES IDX 20 1 19 2 18 3 17 4 15 5 16 6 14 8 9 9 10 10 11 11 13 12
REMARK SMILES IDX 12 13 7 14 6 15 8 17 5 18 1 19 2 20 3 21 89 22 4 23 88 24
REMARK SMILES IDX 21 25 22 26 23 27 24 29 25 30 26 31 87 32 27 33 86 34 28 35
REMARK SMILES IDX 29 36 30 37 80 38 31 39 85 40 79 41 81 42 32 43 84 44 78 45
REMARK SMILES IDX 77 46 33 48 65 49 45 50 64 51 46 52 49 53 63 54 82 55 47 56
REMARK SMILES IDX 48 57 62 59 83 60 50 61 34 62 35 63 43 64 36 65 42 66 44 67
REMARK SMILES IDX 41 68 37 69 38 70 39 71 40 72 66 73 67 74 75 75 68 76 74 77
REMARK SMILES IDX 76 78 73 79 69 80 70 81 71 82 72 83 51 84 52 85 60 86 53 87
REMARK SMILES IDX 59 88 61 89 58 90 54 91 55 92 56 93 57 94
REMARK H PARENT 17 7 6 16 22 28 81 47 49 58
REMARK Flexibility Score: inf
ROOT
ATOM      1  C   UNL     1      -4.847  -2.537   5.446  1.00  0.00     0.023 C 
ENDROOT
BRANCH   1   2
ATOM      2  C   UNL     1      -4.799  -3.264   4.101  1.00  0.00     0.023 C 
BRANCH   2   3
ATOM      3  C   UNL     1      -4.690  -2.362   2.858  1.00  0.00     0.116 C 
BRANCH   3   4
ATOM      4  N   UNL     1      -3.476  -1.558   2.897  1.00  0.00    -0.354 N 
ATOM      5  C   UNL     1      -2.292  -1.735   2.245  1.00  0.00     0.242 C 
ATOM      6  O   UNL     1      -1.309  -1.144   2.712  1.00  0.00    -0.273 OA
ATOM      7  H   UNL     1      -3.516  -0.768   3.483  1.00  0.00     0.163 HD
BRANCH   5   8
ATOM      8  C   UNL     1      -2.123  -2.745   1.079  1.00  0.00     0.176 C 
ATOM      9  N   UNL     1      -3.124  -2.613  -0.014  1.00  0.00    -0.313 N 
ATOM     10  C   UNL     1      -3.503  -3.796  -0.786  1.00  0.00     0.122 C 
ATOM     11  C   UNL     1      -3.440  -5.123  -0.053  1.00  0.00     0.022 C 
ATOM     12  C   UNL     1      -2.023  -4.149   1.704  1.00  0.00     0.035 C 
ATOM     13  C   UNL     1      -2.122  -5.264   0.683  1.00  0.00     0.004 C 
BRANCH   9  14
ATOM     14  C   UNL     1      -3.508  -1.412  -0.602  1.00  0.00     0.322 C 
ATOM     15  N   UNL     1      -2.808  -0.274  -0.348  1.00  0.00    -0.308 N 
ATOM     16  H   UNL     1      -3.345   0.497  -0.056  1.00  0.00     0.171 HD
ATOM     17  O   UNL     1      -4.507  -1.314  -1.317  1.00  0.00    -0.248 OA
BRANCH  15  18
ATOM     18  C   UNL     1      -1.425  -0.046  -0.444  1.00  0.00     0.042 A 
ATOM     19  C   UNL     1       2.823   0.527  -0.165  1.00  0.00     0.044 C 
ATOM     20  C   UNL     1       1.346   0.389  -0.370  1.00  0.00    -0.051 A 
ATOM     21  C   UNL     1       0.825  -0.741  -1.007  1.00  0.00     0.005 A 
ATOM     22  C   UNL     1       0.463   1.339   0.157  1.00  0.00     0.005 A 
ATOM     23  C   UNL     1      -0.555  -0.942  -1.068  1.00  0.00     0.026 A 
ATOM     24  C   UNL     1      -0.917   1.131   0.104  1.00  0.00     0.026 A 
ENDBRANCH  15  18
ENDBRANCH   9  14
ENDBRANCH   5   8
ENDBRANCH   3   4
ENDBRANCH   2   3
ENDBRANCH   1   2
BRANCH   1  25
ATOM     25  C   UNL     1      -6.083  -1.673   5.643  1.00  0.00     0.116 C 
BRANCH  25  26
ATOM     26  N   UNL     1      -7.211  -2.345   6.270  1.00  0.00    -0.352 N 
ATOM     27  C   UNL     1      -8.490  -1.854   6.481  1.00  0.00     0.251 C 
ATOM     28  H   UNL     1      -7.045  -3.263   6.585  1.00  0.00     0.163 HD
ATOM     29  O   UNL     1      -9.323  -2.494   7.105  1.00  0.00    -0.269 OA
BRANCH  27  30
ATOM     30  C   UNL     1      -8.873  -0.575   5.829  1.00  0.00     0.039 A 
ATOM     31  C   UNL     1      -9.994  -0.592   4.993  1.00  0.00     0.014 A 
ATOM     32  C   UNL     1      -8.029   0.533   5.850  1.00  0.00     0.014 A 
ATOM     33  C   UNL     1     -10.134   0.396   4.019  1.00  0.00     0.010 A 
ATOM     34  C   UNL     1      -8.118   1.466   4.829  1.00  0.00     0.010 A 
ATOM     35  C   UNL     1      -9.132   1.360   3.871  1.00  0.00    -0.014 A 
BRANCH  35  36
ATOM     36  C   UNL     1      -8.990   2.150   2.649  1.00  0.00     0.031 A 
ATOM     37  C   UNL     1      -9.335   3.585   2.601  1.00  0.00     0.074 A 
ATOM     38  C   UNL     1      -8.587   1.561   1.500  1.00  0.00     0.049 A 
ATOM     39  N   UNL     1      -9.870   4.154   1.570  1.00  0.00    -0.248 NA
ATOM     40  C   UNL     1      -9.119   4.492   3.721  1.00  0.00     0.031 C 
ATOM     41  C   UNL     1      -8.270   2.219   0.235  1.00  0.00     0.029 A 
ATOM     42  N   UNL     1      -8.646   0.205   1.183  1.00  0.00    -0.354 N 
ATOM     43  C   UNL     1      -9.827   5.508   1.779  1.00  0.00     0.074 A 
ATOM     44  C   UNL     1      -9.415   5.669   3.158  1.00  0.00     0.031 C 
ATOM     45  C   UNL     1      -8.438   1.337  -0.761  1.00  0.00     0.029 A 
ATOM     46  C   UNL     1      -8.965   0.113  -0.185  1.00  0.00     0.049 A 
ATOM     47  H   UNL     1      -8.492  -0.547   1.800  1.00  0.00     0.167 HD
ATOM     48  C   UNL     1     -10.008   6.380   0.749  1.00  0.00     0.034 A 
ATOM     49  C   UNL     1     -10.070  -0.564  -0.607  1.00  0.00     0.034 A 
ATOM     50  C   UNL     1     -10.197   5.723  -0.539  1.00  0.00     0.049 A 
ATOM     51  C   UNL     1     -11.076   0.287  -1.361  1.00  0.00     0.074 A 
ATOM     52  C   UNL     1      -9.380   5.502  -1.636  1.00  0.00     0.029 A 
ATOM     53  N   UNL     1     -11.330   4.957  -0.749  1.00  0.00    -0.354 N 
ATOM     54  N   UNL     1     -10.950   1.566  -1.591  1.00  0.00    -0.248 NA
ATOM     55  C   UNL     1     -12.370  -0.231  -1.814  1.00  0.00     0.031 C 
ATOM     56  C   UNL     1     -10.043   4.595  -2.510  1.00  0.00     0.029 A 
ATOM     57  C   UNL     1     -11.264   4.274  -1.948  1.00  0.00     0.049 A 
ATOM     58  H   UNL     1     -12.088   4.905  -0.123  1.00  0.00     0.167 HD
ATOM     59  C   UNL     1     -12.130   2.052  -2.099  1.00  0.00     0.074 A 
ATOM     60  C   UNL     1     -12.984   0.887  -2.232  1.00  0.00     0.031 C 
ATOM     61  C   UNL     1     -12.352   3.382  -2.314  1.00  0.00     0.034 A 
BRANCH  48  62
ATOM     62  C   UNL     1      -9.755   7.854   0.900  1.00  0.00     0.023 A 
ATOM     63  C   UNL     1      -9.127   8.568  -0.136  1.00  0.00     0.031 A 
ATOM     64  C   UNL     1     -10.101   8.596   2.046  1.00  0.00     0.131 A 
ATOM     65  C   UNL     1      -8.782   9.921   0.020  1.00  0.00     0.055 A 
ATOM     66  C   UNL     1      -9.710   9.928   2.225  1.00  0.00     0.041 A 
ATOM     67  F   UNL     1     -10.841   8.053   3.027  1.00  0.00    -0.206 F 
ATOM     68  C   UNL     1      -9.032  10.595   1.213  1.00  0.00     0.022 A 
BRANCH  65  69
ATOM     69  S   UNL     1      -7.994  10.787  -1.365  1.00  0.00     0.124 S 
ATOM     70  O   UNL     1      -6.836   9.944  -1.643  1.00  0.00    -0.237 OA
ATOM     71  O   UNL     1      -9.051  10.784  -2.369  1.00  0.00    -0.237 OA
ATOM     72  O   UNL     1      -7.677  12.101  -0.805  1.00  0.00    -0.744 OA
ENDBRANCH  65  69
ENDBRANCH  48  62
BRANCH  49  73
ATOM     73  C   UNL     1     -10.415  -1.725   0.264  1.00  0.00     0.023 A 
ATOM     74  C   UNL     1      -9.450  -2.746   0.429  1.00  0.00     0.031 A 
ATOM     75  C   UNL     1     -11.485  -1.681   1.167  1.00  0.00     0.131 A 
ATOM     76  C   UNL     1      -9.512  -3.602   1.538  1.00  0.00     0.055 A 
ATOM     77  C   UNL     1     -11.568  -2.570   2.244  1.00  0.00     0.041 A 
ATOM     78  F   UNL     1     -12.405  -0.708   1.096  1.00  0.00    -0.206 F 
ATOM     79  C   UNL     1     -10.561  -3.509   2.454  1.00  0.00     0.022 A 
BRANCH  76  80
ATOM     80  S   UNL     1      -8.106  -4.685   1.926  1.00  0.00     0.124 S 
ATOM     81  O   UNL     1      -8.530  -5.961   1.362  1.00  0.00    -0.237 OA
ATOM     82  O   UNL     1      -6.981  -4.039   1.257  1.00  0.00    -0.237 OA
ATOM     83  O   UNL     1      -8.042  -4.631   3.385  1.00  0.00    -0.744 OA
ENDBRANCH  76  80
ENDBRANCH  49  73
BRANCH  61  84
ATOM     84  C   UNL     1     -13.642   3.939  -2.863  1.00  0.00     0.023 A 
ATOM     85  C   UNL     1     -14.369   3.285  -3.871  1.00  0.00     0.031 A 
ATOM     86  C   UNL     1     -14.150   5.188  -2.439  1.00  0.00     0.131 A 
ATOM     87  C   UNL     1     -15.575   3.823  -4.355  1.00  0.00     0.055 A 
ATOM     88  C   UNL     1     -15.304   5.760  -2.981  1.00  0.00     0.041 A 
ATOM     89  F   UNL     1     -13.569   5.888  -1.454  1.00  0.00    -0.206 F 
ATOM     90  C   UNL     1     -16.035   5.070  -3.936  1.00  0.00     0.022 A 
BRANCH  87  91
ATOM     91  S   UNL     1     -16.578   2.829  -5.490  1.00  0.00     0.124 S 
ATOM     92  O   UNL     1     -15.633   2.507  -6.553  1.00  0.00    -0.237 OA
ATOM     93  O   UNL     1     -16.974   1.714  -4.634  1.00  0.00    -0.237 OA
ATOM     94  O   UNL     1     -17.663   3.730  -5.874  1.00  0.00    -0.744 OA
ENDBRANCH  87  91
ENDBRANCH  61  84
ENDBRANCH  35  36
ENDBRANCH  27  30
ENDBRANCH  25  26
ENDBRANCH   1  25
TORSDOF 16
