REMARK SMILES C[NH2+][C@@]1(C(=O)NCCCCNC(=O)c2ccc(-c3c4nc(c(-c5cc(S(=O)(=O)[O-])ccc5F)c5ccc([nH]5)c(-c5cc(S(=O)(=O)[O-])ccc5F)c5nc(c(-c6cc(S(=O)(=O)[O-])ccc6F)c6ccc3[nH]6)C=C5)C=C4)cc2)CCC[C@H](n2cc(I)cn2)C1
REMARK SMILES IDX 9 1 8 2 7 3 6 4 4 5 5 6 3 8 77 9 87 10 78 11 80 12 79 13
REMARK SMILES IDX 2 14 1 15 81 18 82 19 86 20 83 21 85 22 84 23 10 24 11 25
REMARK SMILES IDX 12 26 13 28 14 29 15 30 76 31 16 32 75 33 17 34 18 35 19 36
REMARK SMILES IDX 69 37 20 38 74 39 68 40 70 41 21 42 73 43 67 44 66 45 22 47
REMARK SMILES IDX 54 48 34 49 53 50 35 51 38 52 52 53 71 54 36 55 37 56 51 58
REMARK SMILES IDX 72 59 39 60 23 61 24 62 32 63 25 64 31 65 33 66 30 67 26 68
REMARK SMILES IDX 27 69 28 70 29 71 55 72 56 73 64 74 57 75 63 76 65 77 62 78
REMARK SMILES IDX 58 79 59 80 60 81 61 82 40 83 41 84 49 85 42 86 48 87 50 88
REMARK SMILES IDX 47 89 43 90 44 91 45 92 46 93
REMARK H PARENT 6 7 2 16 2 17 11 27 70 46 38 57
REMARK Flexibility Score: inf
ROOT
ATOM      1  C   UNL     1      -5.837  -1.101  -1.964  1.00  0.00     0.023 C 
ENDROOT
BRANCH   1   2
ATOM      2  C   UNL     1      -4.946  -1.668  -0.871  1.00  0.00     0.023 C 
BRANCH   2   3
ATOM      3  C   UNL     1      -3.803  -2.548  -1.360  1.00  0.00     0.116 C 
BRANCH   3   4
ATOM      4  N   UNL     1      -2.702  -1.809  -1.956  1.00  0.00    -0.351 N 
ATOM      5  C   UNL     1      -1.468  -1.390  -1.569  1.00  0.00     0.281 C 
ATOM      6  O   UNL     1      -0.698  -1.175  -2.523  1.00  0.00    -0.268 OA
ATOM      7  H   UNL     1      -2.902  -1.542  -2.883  1.00  0.00     0.163 HD
BRANCH   5   8
ATOM      8  C   UNL     1      -0.916  -1.205  -0.077  1.00  0.00     0.177 C 
ATOM      9  C   UNL     1      -1.469  -2.220   0.930  1.00  0.00     0.079 C 
ATOM     10  C   UNL     1      -1.049   0.204   0.552  1.00  0.00     0.106 C 
ATOM     11  C   UNL     1      -2.731  -1.815   1.706  1.00  0.00     0.009 C 
ATOM     12  C   UNL     1      -2.475   0.678   0.812  1.00  0.00     0.114 C 
ATOM     13  C   UNL     1      -3.215  -0.350   1.696  1.00  0.00     0.028 C 
BRANCH   8  14
ATOM     14  N   UNL     1       0.565  -1.572  -0.169  1.00  0.00    -0.336 N 
ATOM     15  C   UNL     1       1.466  -0.441  -0.413  1.00  0.00     0.331 C 
ATOM     16  H   UNL     1       0.838  -2.011   0.711  1.00  0.00     0.346 HD
ATOM     17  H   UNL     1       0.658  -2.191  -0.974  1.00  0.00     0.346 HD
ENDBRANCH   8  14
BRANCH  12  18
ATOM     18  N   UNL     1      -3.122   1.195  -0.398  1.00  0.00    -0.268 N 
ATOM     19  C   UNL     1      -4.330   1.837  -0.516  1.00  0.00     0.123 A 
ATOM     20  N   UNL     1      -2.406   1.269  -1.542  1.00  0.00    -0.180 NA
ATOM     21  C   UNL     1      -4.426   2.204  -1.839  1.00  0.00     0.051 A 
ATOM     22  C   UNL     1      -3.227   1.818  -2.434  1.00  0.00     0.149 A 
ATOM     23  I   UNL     1      -5.974   3.115  -2.741  1.00  0.00    -0.041 I 
ENDBRANCH  12  18
ENDBRANCH   5   8
ENDBRANCH   3   4
ENDBRANCH   2   3
ENDBRANCH   1   2
BRANCH   1  24
ATOM     24  C   UNL     1      -6.972  -2.039  -2.314  1.00  0.00     0.116 C 
BRANCH  24  25
ATOM     25  N   UNL     1      -8.010  -2.043  -1.284  1.00  0.00    -0.352 N 
ATOM     26  C   UNL     1      -9.358  -1.786  -1.410  1.00  0.00     0.251 C 
ATOM     27  H   UNL     1      -7.703  -2.259  -0.374  1.00  0.00     0.163 HD
ATOM     28  O   UNL     1     -10.049  -1.622  -0.413  1.00  0.00    -0.269 OA
BRANCH  26  29
ATOM     29  C   UNL     1      -9.941  -1.678  -2.766  1.00  0.00     0.039 A 
ATOM     30  C   UNL     1     -10.889  -0.693  -3.044  1.00  0.00     0.014 A 
ATOM     31  C   UNL     1      -9.493  -2.527  -3.779  1.00  0.00     0.014 A 
ATOM     32  C   UNL     1     -11.332  -0.521  -4.358  1.00  0.00     0.010 A 
ATOM     33  C   UNL     1      -9.807  -2.247  -5.097  1.00  0.00     0.010 A 
ATOM     34  C   UNL     1     -10.764  -1.271  -5.401  1.00  0.00    -0.014 A 
BRANCH  34  35
ATOM     35  C   UNL     1     -11.200  -1.128  -6.813  1.00  0.00     0.031 A 
ATOM     36  C   UNL     1     -11.721  -2.342  -7.544  1.00  0.00     0.074 A 
ATOM     37  C   UNL     1     -11.062   0.051  -7.451  1.00  0.00     0.049 A 
ATOM     38  N   UNL     1     -12.027  -2.485  -8.807  1.00  0.00    -0.248 NA
ATOM     39  C   UNL     1     -11.855  -3.580  -6.757  1.00  0.00     0.031 C 
ATOM     40  C   UNL     1     -10.517   1.277  -6.862  1.00  0.00     0.029 A 
ATOM     41  N   UNL     1     -11.368   0.412  -8.738  1.00  0.00    -0.354 N 
ATOM     42  C   UNL     1     -12.353  -3.829  -8.964  1.00  0.00     0.074 A 
ATOM     43  C   UNL     1     -12.106  -4.475  -7.697  1.00  0.00     0.031 C 
ATOM     44  C   UNL     1     -10.579   2.266  -7.769  1.00  0.00     0.029 A 
ATOM     45  C   UNL     1     -11.114   1.736  -9.017  1.00  0.00     0.049 A 
ATOM     46  H   UNL     1     -11.736  -0.216  -9.400  1.00  0.00     0.167 HD
ATOM     47  C   UNL     1     -12.857  -4.459 -10.053  1.00  0.00     0.034 A 
ATOM     48  C   UNL     1     -11.293   2.435 -10.155  1.00  0.00     0.034 A 
ATOM     49  C   UNL     1     -13.143  -3.780 -11.290  1.00  0.00     0.049 A 
ATOM     50  C   UNL     1     -11.863   1.717 -11.354  1.00  0.00     0.074 A 
ATOM     51  C   UNL     1     -13.709  -4.290 -12.444  1.00  0.00     0.029 A 
ATOM     52  N   UNL     1     -12.892  -2.434 -11.529  1.00  0.00    -0.354 N 
ATOM     53  N   UNL     1     -12.205   0.454 -11.477  1.00  0.00    -0.248 NA
ATOM     54  C   UNL     1     -12.080   2.521 -12.563  1.00  0.00     0.031 C 
ATOM     55  C   UNL     1     -13.743  -3.269 -13.400  1.00  0.00     0.029 A 
ATOM     56  C   UNL     1     -13.271  -2.102 -12.818  1.00  0.00     0.049 A 
ATOM     57  H   UNL     1     -12.501  -1.809 -10.877  1.00  0.00     0.167 HD
ATOM     58  C   UNL     1     -12.710   0.322 -12.767  1.00  0.00     0.074 A 
ATOM     59  C   UNL     1     -12.642   1.636 -13.374  1.00  0.00     0.031 C 
ATOM     60  C   UNL     1     -13.188  -0.782 -13.397  1.00  0.00     0.034 A 
BRANCH  47  61
ATOM     61  C   UNL     1     -13.119  -5.944  -9.940  1.00  0.00     0.023 A 
ATOM     62  C   UNL     1     -14.018  -6.465  -8.992  1.00  0.00     0.031 A 
ATOM     63  C   UNL     1     -12.426  -6.856 -10.755  1.00  0.00     0.131 A 
ATOM     64  C   UNL     1     -14.130  -7.853  -8.818  1.00  0.00     0.055 A 
ATOM     65  C   UNL     1     -12.614  -8.236 -10.641  1.00  0.00     0.041 A 
ATOM     66  F   UNL     1     -11.537  -6.424 -11.662  1.00  0.00    -0.206 F 
ATOM     67  C   UNL     1     -13.456  -8.742  -9.655  1.00  0.00     0.022 A 
BRANCH  64  68
ATOM     68  S   UNL     1     -15.040  -8.472  -7.375  1.00  0.00     0.124 S 
ATOM     69  O   UNL     1     -14.281  -7.882  -6.274  1.00  0.00    -0.237 OA
ATOM     70  O   UNL     1     -16.378  -7.933  -7.589  1.00  0.00    -0.237 OA
ATOM     71  O   UNL     1     -14.925  -9.924  -7.494  1.00  0.00    -0.744 OA
ENDBRANCH  64  68
ENDBRANCH  47  61
BRANCH  48  72
ATOM     72  C   UNL     1     -10.953   3.886 -10.218  1.00  0.00     0.023 A 
ATOM     73  C   UNL     1     -11.950   4.851 -10.437  1.00  0.00     0.031 A 
ATOM     74  C   UNL     1      -9.624   4.330 -10.095  1.00  0.00     0.131 A 
ATOM     75  C   UNL     1     -11.600   6.203 -10.575  1.00  0.00     0.055 A 
ATOM     76  C   UNL     1      -9.288   5.683 -10.178  1.00  0.00     0.041 A 
ATOM     77  F   UNL     1      -8.632   3.453  -9.878  1.00  0.00    -0.206 F 
ATOM     78  C   UNL     1     -10.277   6.628 -10.433  1.00  0.00     0.022 A 
BRANCH  75  79
ATOM     79  S   UNL     1     -12.892   7.392 -11.033  1.00  0.00     0.124 S 
ATOM     80  O   UNL     1     -13.383   6.829 -12.285  1.00  0.00    -0.237 OA
ATOM     81  O   UNL     1     -13.797   7.308  -9.892  1.00  0.00    -0.237 OA
ATOM     82  O   UNL     1     -12.164   8.653 -11.157  1.00  0.00    -0.744 OA
ENDBRANCH  75  79
ENDBRANCH  48  72
BRANCH  60  83
ATOM     83  C   UNL     1     -13.718  -0.594 -14.796  1.00  0.00     0.023 A 
ATOM     84  C   UNL     1     -12.874  -0.251 -15.866  1.00  0.00     0.031 A 
ATOM     85  C   UNL     1     -15.090  -0.761 -15.059  1.00  0.00     0.131 A 
ATOM     86  C   UNL     1     -13.419  -0.028 -17.138  1.00  0.00     0.055 A 
ATOM     87  C   UNL     1     -15.615  -0.603 -16.340  1.00  0.00     0.041 A 
ATOM     88  F   UNL     1     -15.940  -1.089 -14.072  1.00  0.00    -0.206 F 
ATOM     89  C   UNL     1     -14.781  -0.221 -17.387  1.00  0.00     0.022 A 
BRANCH  86  90
ATOM     90  S   UNL     1     -12.337   0.612 -18.444  1.00  0.00     0.124 S 
ATOM     91  O   UNL     1     -11.857   1.858 -17.856  1.00  0.00    -0.237 OA
ATOM     92  O   UNL     1     -11.348  -0.452 -18.580  1.00  0.00    -0.237 OA
ATOM     93  O   UNL     1     -13.236   0.771 -19.586  1.00  0.00    -0.744 OA
ENDBRANCH  86  90
ENDBRANCH  60  83
ENDBRANCH  34  35
ENDBRANCH  26  29
ENDBRANCH  24  25
ENDBRANCH   1  24
TORSDOF 16
