REMARK SMILES O=C(NCCCCNC(=O)c1cc(N2CCCCCC2)nc2ccc(NC(=O)c3ccc(F)cc3)cc12)c1ccc(-c2c3nc(c(-c4cc(S(=O)(=O)[O-])ccc4F)c4ccc([nH]4)c(-c4cc(S(=O)(=O)[O-])ccc4F)c4nc(c(-c5cc(S(=O)(=O)[O-])ccc5F)c5ccc2[nH]5)C=C4)C=C3)cc1
REMARK SMILES IDX 6 1 5 2 4 3 3 4 1 5 2 6 38 8 39 9 100 10 40 11 99 12 41 13
REMARK SMILES IDX 42 14 43 15 93 16 44 17 98 18 92 19 94 20 45 21 97 22 91 23
REMARK SMILES IDX 90 24 46 26 78 27 58 28 77 29 59 30 62 31 76 32 95 33 60 34
REMARK SMILES IDX 61 35 75 37 96 38 63 39 47 40 48 41 56 42 49 43 55 44 57 45
REMARK SMILES IDX 54 46 50 47 51 48 52 49 53 50 79 51 80 52 88 53 81 54 87 55
REMARK SMILES IDX 89 56 86 57 82 58 83 59 84 60 85 61 64 62 65 63 73 64 66 65
REMARK SMILES IDX 72 66 74 67 71 68 67 69 68 70 69 71 70 72 7 73 8 74 9 75
REMARK SMILES IDX 10 77 11 78 12 79 37 80 13 81 22 82 36 83 21 84 23 85 25 86
REMARK SMILES IDX 24 87 14 88 15 89 16 90 17 91 20 93 19 94 18 95 26 97 27 98
REMARK SMILES IDX 28 100 29 101 30 102 35 103 31 104 34 105 32 106 33 107
REMARK H PARENT 3 7 94 25 62 36 8 76 26 99
REMARK Flexibility Score: 90.00
ROOT
ATOM      1  C   UNL     1       4.149   0.564  -4.238  1.00  0.00     0.023 C 
ENDROOT
BRANCH   1   2
ATOM      2  C   UNL     1       4.612  -0.415  -3.159  1.00  0.00     0.023 C 
BRANCH   2   3
ATOM      3  C   UNL     1       4.378   0.016  -1.717  1.00  0.00     0.116 C 
BRANCH   3   4
ATOM      4  N   UNL     1       2.974   0.127  -1.354  1.00  0.00    -0.352 N 
ATOM      5  O   UNL     1       1.106  -0.281  -0.149  1.00  0.00    -0.269 OA
ATOM      6  C   UNL     1       2.324  -0.395  -0.256  1.00  0.00     0.251 C 
ATOM      7  H   UNL     1       2.412   0.644  -1.976  1.00  0.00     0.163 HD
BRANCH   6   8
ATOM      8  C   UNL     1       3.098  -1.129   0.771  1.00  0.00     0.039 A 
ATOM      9  C   UNL     1       4.269  -0.584   1.300  1.00  0.00     0.014 A 
ATOM     10  C   UNL     1       2.668  -2.394   1.180  1.00  0.00     0.014 A 
ATOM     11  C   UNL     1       5.094  -1.365   2.102  1.00  0.00     0.010 A 
ATOM     12  C   UNL     1       3.460  -3.148   2.054  1.00  0.00     0.010 A 
ATOM     13  C   UNL     1       4.702  -2.658   2.487  1.00  0.00    -0.014 A 
BRANCH  13  14
ATOM     14  C   UNL     1       5.599  -3.460   3.361  1.00  0.00     0.031 A 
ATOM     15  C   UNL     1       6.244  -4.727   2.865  1.00  0.00     0.074 A 
ATOM     16  C   UNL     1       5.877  -3.005   4.599  1.00  0.00     0.049 A 
ATOM     17  N   UNL     1       7.085  -5.519   3.482  1.00  0.00    -0.248 NA
ATOM     18  C   UNL     1       5.896  -5.169   1.506  1.00  0.00     0.031 C 
ATOM     19  C   UNL     1       5.316  -1.788   5.190  1.00  0.00     0.029 A 
ATOM     20  N   UNL     1       6.720  -3.487   5.567  1.00  0.00    -0.354 N 
ATOM     21  C   UNL     1       7.353  -6.559   2.599  1.00  0.00     0.074 A 
ATOM     22  C   UNL     1       6.563  -6.311   1.411  1.00  0.00     0.031 C 
ATOM     23  C   UNL     1       5.878  -1.584   6.389  1.00  0.00     0.029 A 
ATOM     24  C   UNL     1       6.789  -2.685   6.682  1.00  0.00     0.049 A 
ATOM     25  H   UNL     1       7.227  -4.325   5.473  1.00  0.00     0.167 HD
ATOM     26  C   UNL     1       8.185  -7.617   2.763  1.00  0.00     0.034 A 
ATOM     27  C   UNL     1       7.495  -2.820   7.821  1.00  0.00     0.034 A 
ATOM     28  C   UNL     1       8.983  -7.843   3.945  1.00  0.00     0.049 A 
ATOM     29  C   UNL     1       8.383  -4.016   7.996  1.00  0.00     0.074 A 
ATOM     30  C   UNL     1       9.893  -8.858   4.187  1.00  0.00     0.029 A 
ATOM     31  N   UNL     1       8.963  -7.049   5.084  1.00  0.00    -0.354 N 
ATOM     32  N   UNL     1       8.613  -4.996   7.155  1.00  0.00    -0.248 NA
ATOM     33  C   UNL     1       9.097  -4.135   9.274  1.00  0.00     0.031 C 
ATOM     34  C   UNL     1      10.374  -8.715   5.493  1.00  0.00     0.029 A 
ATOM     35  C   UNL     1       9.817  -7.572   6.043  1.00  0.00     0.049 A 
ATOM     36  H   UNL     1       8.422  -6.234   5.194  1.00  0.00     0.167 HD
ATOM     37  C   UNL     1       9.505  -5.846   7.798  1.00  0.00     0.074 A 
ATOM     38  C   UNL     1       9.774  -5.262   9.097  1.00  0.00     0.031 C 
ATOM     39  C   UNL     1      10.055  -7.000   7.346  1.00  0.00     0.034 A 
BRANCH  26  40
ATOM     40  C   UNL     1       8.249  -8.639   1.655  1.00  0.00     0.023 A 
ATOM     41  C   UNL     1       8.804  -8.341   0.400  1.00  0.00     0.031 A 
ATOM     42  C   UNL     1       7.761  -9.941   1.870  1.00  0.00     0.131 A 
ATOM     43  C   UNL     1       8.814  -9.317  -0.610  1.00  0.00     0.055 A 
ATOM     44  C   UNL     1       7.832 -10.927   0.884  1.00  0.00     0.041 A 
ATOM     45  F   UNL     1       7.205 -10.277   3.045  1.00  0.00    -0.206 F 
ATOM     46  C   UNL     1       8.353 -10.614  -0.368  1.00  0.00     0.022 A 
BRANCH  43  47
ATOM     47  S   UNL     1       9.350  -8.842  -2.275  1.00  0.00     0.124 S 
ATOM     48  O   UNL     1       8.365  -7.820  -2.623  1.00  0.00    -0.237 OA
ATOM     49  O   UNL     1      10.710  -8.366  -2.047  1.00  0.00    -0.237 OA
ATOM     50  O   UNL     1       9.245 -10.084  -3.038  1.00  0.00    -0.744 OA
ENDBRANCH  43  47
ENDBRANCH  26  40
BRANCH  27  51
ATOM     51  C   UNL     1       7.356  -1.789   8.883  1.00  0.00     0.023 A 
ATOM     52  C   UNL     1       8.380  -0.864   9.132  1.00  0.00     0.031 A 
ATOM     53  C   UNL     1       6.160  -1.675   9.614  1.00  0.00     0.131 A 
ATOM     54  C   UNL     1       8.187   0.142  10.091  1.00  0.00     0.055 A 
ATOM     55  C   UNL     1       5.961  -0.653  10.542  1.00  0.00     0.041 A 
ATOM     56  F   UNL     1       5.148  -2.529   9.394  1.00  0.00    -0.206 F 
ATOM     57  C   UNL     1       6.979   0.263  10.785  1.00  0.00     0.022 A 
BRANCH  54  58
ATOM     58  S   UNL     1       9.535   1.313  10.413  1.00  0.00     0.124 S 
ATOM     59  O   UNL     1      10.528   0.454  11.047  1.00  0.00    -0.237 OA
ATOM     60  O   UNL     1       9.858   1.788   9.072  1.00  0.00    -0.237 OA
ATOM     61  O   UNL     1       8.918   2.307  11.289  1.00  0.00    -0.744 OA
ENDBRANCH  54  58
ENDBRANCH  27  51
BRANCH  39  62
ATOM     62  C   UNL     1      11.023  -7.707   8.255  1.00  0.00     0.023 A 
ATOM     63  C   UNL     1      10.583  -8.435   9.372  1.00  0.00     0.031 A 
ATOM     64  C   UNL     1      12.399  -7.691   7.965  1.00  0.00     0.131 A 
ATOM     65  C   UNL     1      11.517  -9.107  10.175  1.00  0.00     0.055 A 
ATOM     66  C   UNL     1      13.318  -8.393   8.745  1.00  0.00     0.041 A 
ATOM     67  F   UNL     1      12.865  -7.011   6.906  1.00  0.00    -0.206 F 
ATOM     68  C   UNL     1      12.879  -9.104   9.858  1.00  0.00     0.022 A 
BRANCH  65  69
ATOM     69  S   UNL     1      10.935  -9.985  11.651  1.00  0.00     0.124 S 
ATOM     70  O   UNL     1      10.520  -8.882  12.512  1.00  0.00    -0.237 OA
ATOM     71  O   UNL     1       9.861 -10.821  11.124  1.00  0.00    -0.237 OA
ATOM     72  O   UNL     1      12.118 -10.714  12.105  1.00  0.00    -0.744 OA
ENDBRANCH  65  69
ENDBRANCH  39  62
ENDBRANCH  13  14
ENDBRANCH   6   8
ENDBRANCH   3   4
ENDBRANCH   2   3
ENDBRANCH   1   2
BRANCH   1  73
ATOM     73  C   UNL     1       4.631   2.001  -4.078  1.00  0.00     0.116 C 
BRANCH  73  74
ATOM     74  N   UNL     1       6.077   2.128  -4.024  1.00  0.00    -0.352 N 
ATOM     75  C   UNL     1       6.868   3.139  -4.506  1.00  0.00     0.252 C 
ATOM     76  H   UNL     1       6.553   1.389  -3.581  1.00  0.00     0.163 HD
ATOM     77  O   UNL     1       8.088   3.099  -4.379  1.00  0.00    -0.269 OA
BRANCH  75  78
ATOM     78  C   UNL     1       6.267   4.277  -5.226  1.00  0.00     0.052 A 
ATOM     79  C   UNL     1       6.686   4.446  -6.538  1.00  0.00     0.061 A 
ATOM     80  C   UNL     1       5.410   5.208  -4.625  1.00  0.00     0.015 A 
ATOM     81  C   UNL     1       6.244   5.542  -7.256  1.00  0.00     0.130 A 
ATOM     82  C   UNL     1       4.958   6.258  -5.432  1.00  0.00     0.074 A 
ATOM     83  C   UNL     1       5.019   5.143  -3.270  1.00  0.00     0.037 A 
ATOM     84  N   UNL     1       5.378   6.426  -6.706  1.00  0.00    -0.231 NA
ATOM     85  C   UNL     1       4.049   7.149  -4.869  1.00  0.00     0.031 A 
ATOM     86  C   UNL     1       4.185   6.086  -2.691  1.00  0.00     0.042 A 
ATOM     87  C   UNL     1       3.651   7.067  -3.522  1.00  0.00     0.028 A 
BRANCH  81  88
ATOM     88  N   UNL     1       6.736   5.768  -8.532  1.00  0.00    -0.357 N 
BRANCH  88  89
ATOM     89  C   UNL     1       6.672   4.713  -9.532  1.00  0.00     0.118 C 
BRANCH  89  90
ATOM     90  C   UNL     1       8.038   4.061  -9.741  1.00  0.00     0.021 C 
BRANCH  90  91
ATOM     91  C   UNL     1       9.073   4.945 -10.432  1.00  0.00     0.002 CG0
ATOM     92  G   UNL     1       9.286   6.322  -9.799  1.00  0.00     0.000 G0
ENDBRANCH  90  91
ENDBRANCH  89  90
ENDBRANCH  88  89
BRANCH  88  93
ATOM     93  C   UNL     1       7.011   7.144  -8.908  1.00  0.00     0.118 C 
BRANCH  93  94
ATOM     94  C   UNL     1       8.088   7.258  -9.992  1.00  0.00     0.021 C 
BRANCH  94  95
ATOM     95  C   UNL     1       9.286   6.322  -9.799  1.00  0.00     0.002 CG0
ATOM     96  G   UNL     1       9.073   4.945 -10.432  1.00  0.00     0.000 G0
ENDBRANCH  94  95
ENDBRANCH  93  94
ENDBRANCH  88  93
ENDBRANCH  81  88
BRANCH  86  97
ATOM     97  N   UNL     1       3.828   6.086  -1.330  1.00  0.00    -0.322 N 
ATOM     98  C   UNL     1       4.309   5.396  -0.233  1.00  0.00     0.255 C 
ATOM     99  H   UNL     1       3.089   6.701  -1.116  1.00  0.00     0.170 HD
ATOM    100  O   UNL     1       3.663   5.417   0.815  1.00  0.00    -0.269 OA
BRANCH  98 101
ATOM    101  C   UNL     1       5.586   4.645  -0.255  1.00  0.00     0.040 A 
ATOM    102  C   UNL     1       6.771   5.223  -0.734  1.00  0.00     0.017 A 
ATOM    103  C   UNL     1       5.587   3.319   0.199  1.00  0.00     0.017 A 
ATOM    104  C   UNL     1       7.920   4.438  -0.866  1.00  0.00     0.040 A 
ATOM    105  C   UNL     1       6.747   2.548   0.089  1.00  0.00     0.040 A 
ATOM    106  C   UNL     1       7.894   3.107  -0.465  1.00  0.00     0.123 A 
ATOM    107  F   UNL     1       8.985   2.348  -0.620  1.00  0.00    -0.207 F 
ENDBRANCH  98 101
ENDBRANCH  86  97
ENDBRANCH  75  78
ENDBRANCH  73  74
ENDBRANCH   1  73
TORSDOF 17
