REMARK SMILES CC(C)n1ccc(C[C@@H](C(=O)NCCCCNC(=O)c2ccc(-c3c4nc(c(-c5cc(S(=O)(=O)[O-])ccc5F)c5ccc([nH]5)c(-c5cc(S(=O)(=O)[O-])ccc5F)c5nc(c(-c6cc(S(=O)(=O)[O-])ccc6F)c6ccc3[nH]6)C=C5)C=C4)cc2)c2cccc(Cl)c2)n1
REMARK SMILES IDX 14 1 13 2 12 3 10 4 11 5 9 7 8 8 7 9 4 10 5 11 90 12 6 13
REMARK SMILES IDX 2 14 1 15 3 16 83 17 84 18 89 19 85 20 87 21 86 22 88 23
REMARK SMILES IDX 15 24 16 25 17 26 18 27 19 29 20 30 21 31 82 32 22 33 81 34
REMARK SMILES IDX 23 35 24 36 25 37 75 38 26 39 80 40 74 41 76 42 27 43 79 44
REMARK SMILES IDX 73 45 72 46 28 48 60 49 40 50 59 51 41 52 44 53 58 54 77 55
REMARK SMILES IDX 42 56 43 57 57 59 78 60 45 61 29 62 30 63 38 64 31 65 37 66
REMARK SMILES IDX 39 67 36 68 32 69 33 70 34 71 35 72 61 73 62 74 70 75 63 76
REMARK SMILES IDX 69 77 71 78 68 79 64 80 65 81 66 82 67 83 46 84 47 85 55 86
REMARK SMILES IDX 48 87 54 88 56 89 53 90 49 91 50 92 51 93 52 94
REMARK H PARENT 12 6 17 28 76 47 44 58
REMARK Flexibility Score: inf
ROOT
ATOM      1  C   UNL     1      -2.852  -3.028   0.547  1.00  0.00     0.023 C 
ENDROOT
BRANCH   1   2
ATOM      2  C   UNL     1      -3.445  -2.461  -0.753  1.00  0.00     0.116 C 
BRANCH   2   3
ATOM      3  N   UNL     1      -4.879  -2.269  -0.607  1.00  0.00    -0.356 N 
ATOM      4  C   UNL     1      -5.466  -1.276   0.137  1.00  0.00     0.227 C 
ATOM      5  O   UNL     1      -6.323  -1.634   0.951  1.00  0.00    -0.274 OA
ATOM      6  H   UNL     1      -5.473  -2.897  -1.078  1.00  0.00     0.163 HD
BRANCH   4   7
ATOM      7  C   UNL     1      -5.088   0.210  -0.080  1.00  0.00     0.114 C 
BRANCH   7   8
ATOM      8  C   UNL     1      -4.349   0.782   1.154  1.00  0.00     0.076 C 
BRANCH   8   9
ATOM      9  C   UNL     1      -3.091   0.133   1.621  1.00  0.00     0.064 A 
ATOM     10  N   UNL     1      -1.039  -0.442   1.710  1.00  0.00    -0.270 N 
ATOM     11  C   UNL     1      -1.605  -0.940   2.856  1.00  0.00     0.109 A 
ATOM     12  N   UNL     1      -1.941   0.213   0.935  1.00  0.00    -0.178 NA
ATOM     13  C   UNL     1      -2.918  -0.547   2.847  1.00  0.00     0.045 A 
BRANCH  10  14
ATOM     14  C   UNL     1       0.327  -0.705   1.246  1.00  0.00     0.101 C 
ATOM     15  C   UNL     1       0.791   0.223   0.119  1.00  0.00     0.033 C 
ATOM     16  C   UNL     1       1.341  -0.654   2.396  1.00  0.00     0.033 C 
ENDBRANCH  10  14
ENDBRANCH   8   9
ENDBRANCH   7   8
BRANCH   7  17
ATOM     17  C   UNL     1      -6.330   1.141  -0.290  1.00  0.00    -0.034 A 
ATOM     18  C   UNL     1      -6.122   2.522  -0.499  1.00  0.00     0.004 A 
ATOM     19  C   UNL     1      -7.663   0.714  -0.137  1.00  0.00     0.025 A 
ATOM     20  C   UNL     1      -7.176   3.441  -0.428  1.00  0.00     0.002 A 
ATOM     21  C   UNL     1      -8.715   1.636  -0.074  1.00  0.00     0.041 A 
ATOM     22  C   UNL     1      -8.474   2.999  -0.192  1.00  0.00     0.020 A 
ATOM     23  Cl  UNL     1     -10.324   1.085   0.209  1.00  0.00    -0.084 Cl
ENDBRANCH   7  17
ENDBRANCH   4   7
ENDBRANCH   2   3
ENDBRANCH   1   2
BRANCH   1  24
ATOM     24  C   UNL     1      -3.044  -4.505   0.885  1.00  0.00     0.023 C 
BRANCH  24  25
ATOM     25  C   UNL     1      -2.155  -5.435   0.084  1.00  0.00     0.116 C 
BRANCH  25  26
ATOM     26  N   UNL     1      -0.717  -5.233   0.321  1.00  0.00    -0.352 N 
ATOM     27  C   UNL     1       0.328  -5.785  -0.407  1.00  0.00     0.251 C 
ATOM     28  H   UNL     1      -0.471  -4.645   1.071  1.00  0.00     0.163 HD
ATOM     29  O   UNL     1       1.468  -5.841   0.039  1.00  0.00    -0.269 OA
BRANCH  27  30
ATOM     30  C   UNL     1      -0.001  -6.277  -1.754  1.00  0.00     0.039 A 
ATOM     31  C   UNL     1       0.180  -7.610  -2.128  1.00  0.00     0.014 A 
ATOM     32  C   UNL     1      -0.748  -5.397  -2.526  1.00  0.00     0.014 A 
ATOM     33  C   UNL     1      -0.528  -8.086  -3.233  1.00  0.00     0.010 A 
ATOM     34  C   UNL     1      -1.593  -5.923  -3.466  1.00  0.00     0.010 A 
ATOM     35  C   UNL     1      -1.464  -7.249  -3.867  1.00  0.00    -0.014 A 
BRANCH  35  36
ATOM     36  C   UNL     1      -2.425  -7.763  -4.845  1.00  0.00     0.031 A 
ATOM     37  C   UNL     1      -3.112  -9.029  -4.456  1.00  0.00     0.074 A 
ATOM     38  C   UNL     1      -2.841  -7.051  -5.918  1.00  0.00     0.049 A 
ATOM     39  N   UNL     1      -2.904 -10.210  -4.936  1.00  0.00    -0.248 NA
ATOM     40  C   UNL     1      -4.017  -9.025  -3.295  1.00  0.00     0.031 C 
ATOM     41  C   UNL     1      -2.498  -5.674  -6.303  1.00  0.00     0.029 A 
ATOM     42  N   UNL     1      -3.764  -7.386  -6.859  1.00  0.00    -0.354 N 
ATOM     43  C   UNL     1      -3.831 -11.052  -4.328  1.00  0.00     0.074 A 
ATOM     44  C   UNL     1      -4.322 -10.322  -3.191  1.00  0.00     0.031 C 
ATOM     45  C   UNL     1      -3.372  -5.219  -7.226  1.00  0.00     0.029 A 
ATOM     46  C   UNL     1      -4.199  -6.329  -7.655  1.00  0.00     0.049 A 
ATOM     47  H   UNL     1      -4.099  -8.305  -6.969  1.00  0.00     0.167 HD
ATOM     48  C   UNL     1      -4.277 -12.177  -4.960  1.00  0.00     0.034 A 
ATOM     49  C   UNL     1      -5.151  -6.356  -8.625  1.00  0.00     0.034 A 
ATOM     50  C   UNL     1      -3.438 -12.483  -6.102  1.00  0.00     0.049 A 
ATOM     51  C   UNL     1      -5.248  -7.770  -9.065  1.00  0.00     0.074 A 
ATOM     52  C   UNL     1      -2.092 -12.752  -6.268  1.00  0.00     0.029 A 
ATOM     53  N   UNL     1      -3.892 -12.119  -7.352  1.00  0.00    -0.354 N 
ATOM     54  N   UNL     1      -4.261  -8.399  -9.645  1.00  0.00    -0.248 NA
ATOM     55  C   UNL     1      -6.218  -8.626  -8.399  1.00  0.00     0.031 C 
ATOM     56  C   UNL     1      -1.721 -12.023  -7.438  1.00  0.00     0.029 A 
ATOM     57  C   UNL     1      -2.872 -11.445  -7.980  1.00  0.00     0.049 A 
ATOM     58  H   UNL     1      -4.784 -12.306  -7.725  1.00  0.00     0.167 HD
ATOM     59  C   UNL     1      -4.233  -9.652  -9.050  1.00  0.00     0.074 A 
ATOM     60  C   UNL     1      -5.521  -9.767  -8.363  1.00  0.00     0.031 C 
ATOM     61  C   UNL     1      -3.068 -10.358  -8.925  1.00  0.00     0.034 A 
BRANCH  48  62
ATOM     62  C   UNL     1      -5.651 -12.801  -4.804  1.00  0.00     0.023 A 
ATOM     63  C   UNL     1      -5.930 -13.942  -5.586  1.00  0.00     0.031 A 
ATOM     64  C   UNL     1      -6.768 -12.207  -4.178  1.00  0.00     0.131 A 
ATOM     65  C   UNL     1      -7.252 -14.362  -5.816  1.00  0.00     0.055 A 
ATOM     66  C   UNL     1      -8.077 -12.669  -4.356  1.00  0.00     0.041 A 
ATOM     67  F   UNL     1      -6.679 -11.101  -3.432  1.00  0.00    -0.206 F 
ATOM     68  C   UNL     1      -8.331 -13.729  -5.208  1.00  0.00     0.022 A 
BRANCH  65  69
ATOM     69  S   UNL     1      -7.543 -15.631  -7.076  1.00  0.00     0.124 S 
ATOM     70  O   UNL     1      -6.855 -15.062  -8.230  1.00  0.00    -0.237 OA
ATOM     71  O   UNL     1      -6.924 -16.804  -6.469  1.00  0.00    -0.237 OA
ATOM     72  O   UNL     1      -9.000 -15.678  -7.179  1.00  0.00    -0.744 OA
ENDBRANCH  65  69
ENDBRANCH  48  62
BRANCH  49  73
ATOM     73  C   UNL     1      -6.178  -5.314  -8.906  1.00  0.00     0.023 A 
ATOM     74  C   UNL     1      -6.883  -5.228 -10.126  1.00  0.00     0.031 A 
ATOM     75  C   UNL     1      -6.657  -4.513  -7.842  1.00  0.00     0.131 A 
ATOM     76  C   UNL     1      -8.012  -4.377 -10.240  1.00  0.00     0.055 A 
ATOM     77  C   UNL     1      -7.772  -3.681  -7.959  1.00  0.00     0.041 A 
ATOM     78  F   UNL     1      -6.101  -4.579  -6.621  1.00  0.00    -0.206 F 
ATOM     79  C   UNL     1      -8.463  -3.618  -9.158  1.00  0.00     0.022 A 
BRANCH  76  80
ATOM     80  S   UNL     1      -8.974  -4.307 -11.790  1.00  0.00     0.124 S 
ATOM     81  O   UNL     1      -8.035  -3.676 -12.710  1.00  0.00    -0.237 OA
ATOM     82  O   UNL     1      -9.278  -5.712 -12.035  1.00  0.00    -0.237 OA
ATOM     83  O   UNL     1     -10.132  -3.484 -11.437  1.00  0.00    -0.744 OA
ENDBRANCH  76  80
ENDBRANCH  49  73
BRANCH  61  84
ATOM     84  C   UNL     1      -1.838  -9.870  -9.674  1.00  0.00     0.023 A 
ATOM     85  C   UNL     1      -1.241  -8.595  -9.526  1.00  0.00     0.031 A 
ATOM     86  C   UNL     1      -1.170 -10.806 -10.485  1.00  0.00     0.131 A 
ATOM     87  C   UNL     1      -0.028  -8.300 -10.185  1.00  0.00     0.055 A 
ATOM     88  C   UNL     1       0.039 -10.518 -11.116  1.00  0.00     0.041 A 
ATOM     89  F   UNL     1      -1.669 -12.043 -10.648  1.00  0.00    -0.206 F 
ATOM     90  C   UNL     1       0.613  -9.261 -10.973  1.00  0.00     0.022 A 
BRANCH  87  91
ATOM     91  S   UNL     1       0.737  -6.648 -10.051  1.00  0.00     0.124 S 
ATOM     92  O   UNL     1      -0.372  -5.735 -10.304  1.00  0.00    -0.237 OA
ATOM     93  O   UNL     1       1.264  -6.650  -8.690  1.00  0.00    -0.237 OA
ATOM     94  O   UNL     1       1.762  -6.662 -11.097  1.00  0.00    -0.744 OA
ENDBRANCH  87  91
ENDBRANCH  61  84
ENDBRANCH  35  36
ENDBRANCH  27  30
ENDBRANCH  25  26
ENDBRANCH  24  25
ENDBRANCH   1  24
TORSDOF 18
