REMARK SMILES O=C(NCCCCNC(=O)[C@H]1[C@H]2CC[C@H](CC2)[C@@H]1C(=O)Nc1sc2c(c1C(=O)N1CCCCC1)CCCC2)c1ccc(-c2c3nc(c(-c4cc(S(=O)(=O)[O-])ccc4F)c4ccc([nH]4)c(-c4cc(S(=O)(=O)[O-])ccc4F)c4nc(c(-c5cc(S(=O)(=O)[O-])ccc5F)c5ccc2[nH]5)C=C4)C=C3)cc1
REMARK SMILES IDX 5 1 4 2 3 3 1 4 2 5 39 7 40 8 101 9 41 10 100 11 42 12 43 13
REMARK SMILES IDX 44 14 94 15 45 16 99 17 93 18 95 19 46 20 98 21 92 22 91 23
REMARK SMILES IDX 47 25 79 26 59 27 78 28 60 29 63 30 77 31 96 32 61 33 62 34
REMARK SMILES IDX 76 36 97 37 64 38 48 39 49 40 57 41 50 42 56 43 58 44 55 45
REMARK SMILES IDX 51 46 52 47 53 48 54 49 80 50 81 51 89 52 82 53 88 54 90 55
REMARK SMILES IDX 87 56 83 57 84 58 85 59 86 60 65 61 66 62 74 63 67 64 73 65
REMARK SMILES IDX 75 66 72 67 68 68 69 69 70 70 71 71 6 72 7 73 8 74 9 75
REMARK SMILES IDX 10 77 11 78 12 79 18 80 13 81 17 82 15 83 14 84 16 85 19 86
REMARK SMILES IDX 20 87 21 88 22 90 23 91 26 92 24 93 25 94 38 95 35 96 37 97
REMARK SMILES IDX 36 98 27 99 28 100 29 101 30 102 34 103 31 104 33 105 32 106
REMARK H PARENT 3 6 95 24 63 35 8 76 21 89
REMARK Flexibility Score: inf
ROOT
ATOM      1  C   UNL     1       4.969   0.460  -2.822  1.00  0.00     0.023 C 
ENDROOT
BRANCH   1   2
ATOM      2  C   UNL     1       4.545   0.136  -1.395  1.00  0.00     0.116 C 
BRANCH   2   3
ATOM      3  N   UNL     1       3.122   0.303  -1.126  1.00  0.00    -0.352 N 
ATOM      4  O   UNL     1       1.183  -0.112  -0.029  1.00  0.00    -0.269 OA
ATOM      5  C   UNL     1       2.377  -0.317  -0.140  1.00  0.00     0.251 C 
ATOM      6  H   UNL     1       2.638   0.929  -1.711  1.00  0.00     0.163 HD
BRANCH   5   7
ATOM      7  C   UNL     1       3.074  -1.277   0.742  1.00  0.00     0.039 A 
ATOM      8  C   UNL     1       4.230  -0.884   1.415  1.00  0.00     0.014 A 
ATOM      9  C   UNL     1       2.630  -2.601   0.793  1.00  0.00     0.014 A 
ATOM     10  C   UNL     1       5.035  -1.851   1.999  1.00  0.00     0.010 A 
ATOM     11  C   UNL     1       3.398  -3.557   1.463  1.00  0.00     0.010 A 
ATOM     12  C   UNL     1       4.628  -3.196   2.035  1.00  0.00    -0.014 A 
BRANCH  12  13
ATOM     13  C   UNL     1       5.499  -4.183   2.722  1.00  0.00     0.031 A 
ATOM     14  C   UNL     1       6.175  -5.293   1.965  1.00  0.00     0.074 A 
ATOM     15  C   UNL     1       5.728  -4.013   4.038  1.00  0.00     0.049 A 
ATOM     16  N   UNL     1       7.003  -6.205   2.409  1.00  0.00    -0.248 NA
ATOM     17  C   UNL     1       5.880  -5.402   0.528  1.00  0.00     0.031 C 
ATOM     18  C   UNL     1       5.114  -2.969   4.866  1.00  0.00     0.029 A 
ATOM     19  N   UNL     1       6.556  -4.676   4.904  1.00  0.00    -0.354 N 
ATOM     20  C   UNL     1       7.319  -7.004   1.315  1.00  0.00     0.074 A 
ATOM     21  C   UNL     1       6.569  -6.484   0.190  1.00  0.00     0.031 C 
ATOM     22  C   UNL     1       5.634  -3.022   6.099  1.00  0.00     0.029 A 
ATOM     23  C   UNL     1       6.558  -4.147   6.173  1.00  0.00     0.049 A 
ATOM     24  H   UNL     1       7.096  -5.456   4.643  1.00  0.00     0.167 HD
ATOM     25  C   UNL     1       8.160  -8.068   1.260  1.00  0.00     0.034 A 
ATOM     26  C   UNL     1       7.217  -4.532   7.282  1.00  0.00     0.034 A 
ATOM     27  C   UNL     1       8.898  -8.569   2.397  1.00  0.00     0.049 A 
ATOM     28  C   UNL     1       8.139  -5.715   7.189  1.00  0.00     0.074 A 
ATOM     29  C   UNL     1       9.771  -9.643   2.456  1.00  0.00     0.029 A 
ATOM     30  N   UNL     1       8.850  -8.031   3.677  1.00  0.00    -0.354 N 
ATOM     31  N   UNL     1       8.414  -6.466   6.146  1.00  0.00    -0.248 NA
ATOM     32  C   UNL     1       8.841  -6.101   8.417  1.00  0.00     0.031 C 
ATOM     33  C   UNL     1      10.210  -9.783   3.779  1.00  0.00     0.029 A 
ATOM     34  C   UNL     1       9.663  -8.759   4.534  1.00  0.00     0.049 A 
ATOM     35  H   UNL     1       8.317  -7.245   3.938  1.00  0.00     0.167 HD
ATOM     36  C   UNL     1       9.320  -7.418   6.598  1.00  0.00     0.074 A 
ATOM     37  C   UNL     1       9.579  -7.114   7.992  1.00  0.00     0.031 C 
ATOM     38  C   UNL     1       9.879  -8.459   5.929  1.00  0.00     0.034 A 
BRANCH  25  39
ATOM     39  C   UNL     1       8.293  -8.787  -0.062  1.00  0.00     0.023 A 
ATOM     40  C   UNL     1       8.886  -8.178  -1.182  1.00  0.00     0.031 A 
ATOM     41  C   UNL     1       7.822 -10.105  -0.203  1.00  0.00     0.131 A 
ATOM     42  C   UNL     1       8.948  -8.866  -2.404  1.00  0.00     0.055 A 
ATOM     43  C   UNL     1       7.946 -10.809  -1.404  1.00  0.00     0.041 A 
ATOM     44  F   UNL     1       7.229 -10.732   0.825  1.00  0.00    -0.206 F 
ATOM     45  C   UNL     1       8.504 -10.186  -2.516  1.00  0.00     0.022 A 
BRANCH  42  46
ATOM     46  S   UNL     1       9.526  -7.976  -3.876  1.00  0.00     0.124 S 
ATOM     47  O   UNL     1       8.544  -6.900  -3.977  1.00  0.00    -0.237 OA
ATOM     48  O   UNL     1      10.875  -7.574  -3.494  1.00  0.00    -0.237 OA
ATOM     49  O   UNL     1       9.452  -8.980  -4.936  1.00  0.00    -0.744 OA
ENDBRANCH  42  46
ENDBRANCH  25  39
BRANCH  26  50
ATOM     50  C   UNL     1       6.995  -3.821   8.571  1.00  0.00     0.023 A 
ATOM     51  C   UNL     1       8.035  -3.135   9.215  1.00  0.00     0.031 A 
ATOM     52  C   UNL     1       5.731  -3.837   9.191  1.00  0.00     0.131 A 
ATOM     53  C   UNL     1       7.805  -2.527  10.458  1.00  0.00     0.055 A 
ATOM     54  C   UNL     1       5.492  -3.182  10.398  1.00  0.00     0.041 A 
ATOM     55  F   UNL     1       4.700  -4.475   8.614  1.00  0.00    -0.206 F 
ATOM     56  C   UNL     1       6.537  -2.533  11.047  1.00  0.00     0.022 A 
BRANCH  53  57
ATOM     57  S   UNL     1       9.211  -1.802  11.344  1.00  0.00     0.124 S 
ATOM     58  O   UNL     1      10.146  -2.920  11.388  1.00  0.00    -0.237 OA
ATOM     59  O   UNL     1       9.579  -0.694  10.468  1.00  0.00    -0.237 OA
ATOM     60  O   UNL     1       8.639  -1.415  12.631  1.00  0.00    -0.744 OA
ENDBRANCH  53  57
ENDBRANCH  26  50
BRANCH  38  61
ATOM     61  C   UNL     1      10.824  -9.326   6.721  1.00  0.00     0.023 A 
ATOM     62  C   UNL     1      10.364 -10.120   7.786  1.00  0.00     0.031 A 
ATOM     63  C   UNL     1      12.202  -9.310   6.450  1.00  0.00     0.131 A 
ATOM     64  C   UNL     1      11.283 -10.807   8.591  1.00  0.00     0.055 A 
ATOM     65  C   UNL     1      13.107 -10.046   7.217  1.00  0.00     0.041 A 
ATOM     66  F   UNL     1      12.693  -8.568   5.445  1.00  0.00    -0.206 F 
ATOM     67  C   UNL     1      12.651 -10.785   8.306  1.00  0.00     0.022 A 
BRANCH  64  68
ATOM     68  S   UNL     1      10.677 -11.633  10.088  1.00  0.00     0.124 S 
ATOM     69  O   UNL     1      10.036 -10.534  10.803  1.00  0.00    -0.237 OA
ATOM     70  O   UNL     1       9.782 -12.648   9.542  1.00  0.00    -0.237 OA
ATOM     71  O   UNL     1      11.894 -12.150  10.710  1.00  0.00    -0.744 OA
ENDBRANCH  64  68
ENDBRANCH  38  61
ENDBRANCH  12  13
ENDBRANCH   5   7
ENDBRANCH   2   3
ENDBRANCH   1   2
BRANCH   1  72
ATOM     72  C   UNL     1       4.486   1.799  -3.373  1.00  0.00     0.023 C 
BRANCH  72  73
ATOM     73  C   UNL     1       4.665   2.993  -2.449  1.00  0.00     0.116 C 
BRANCH  73  74
ATOM     74  N   UNL     1       6.026   3.460  -2.352  1.00  0.00    -0.356 N 
ATOM     75  C   UNL     1       6.629   4.600  -2.778  1.00  0.00     0.224 C 
ATOM     76  H   UNL     1       6.631   2.836  -1.890  1.00  0.00     0.163 HD
ATOM     77  O   UNL     1       7.769   4.780  -2.337  1.00  0.00    -0.275 OA
BRANCH  75  78
ATOM     78  C   UNL     1       5.967   5.588  -3.780  1.00  0.00     0.094 C 
ATOM     79  C   UNL     1       4.672   6.249  -3.227  1.00  0.00     0.002 C 
ATOM     80  C   UNL     1       6.995   6.723  -4.143  1.00  0.00     0.094 C 
ATOM     81  C   UNL     1       4.971   6.883  -1.861  1.00  0.00     0.005 C 
ATOM     82  C   UNL     1       4.202   7.342  -4.205  1.00  0.00     0.005 C 
ATOM     83  C   UNL     1       6.481   8.069  -3.499  1.00  0.00     0.002 C 
ATOM     84  C   UNL     1       6.184   7.816  -1.998  1.00  0.00     0.005 C 
ATOM     85  C   UNL     1       5.148   8.534  -4.120  1.00  0.00     0.005 C 
BRANCH  80  86
ATOM     86  C   UNL     1       7.346   6.906  -5.646  1.00  0.00     0.229 C 
ATOM     87  O   UNL     1       6.809   7.785  -6.328  1.00  0.00    -0.274 OA
ATOM     88  N   UNL     1       8.410   6.261  -6.224  1.00  0.00    -0.317 N 
ATOM     89  H   UNL     1       8.851   6.772  -6.941  1.00  0.00     0.170 HD
BRANCH  88  90
ATOM     90  C   UNL     1       8.973   5.026  -5.980  1.00  0.00     0.108 A 
ATOM     91  S   UNL     1       7.946   3.746  -5.577  1.00  0.00    -0.122 S 
ATOM     92  C   UNL     1      10.281   4.599  -6.230  1.00  0.00     0.078 A 
ATOM     93  C   UNL     1       9.248   2.743  -5.221  1.00  0.00     0.011 A 
ATOM     94  C   UNL     1      10.442   3.238  -5.716  1.00  0.00    -0.019 A 
ATOM     95  C   UNL     1       9.056   1.456  -4.483  1.00  0.00     0.047 C 
ATOM     96  C   UNL     1      11.693   2.416  -5.593  1.00  0.00     0.037 C 
ATOM     97  C   UNL     1      10.401   0.964  -3.942  1.00  0.00     0.006 C 
ATOM     98  C   UNL     1      11.458   0.998  -5.044  1.00  0.00     0.005 C 
BRANCH  92  99
ATOM     99  C   UNL     1      11.279   5.539  -6.788  1.00  0.00     0.257 C 
ATOM    100  O   UNL     1      10.968   6.689  -7.108  1.00  0.00    -0.269 OA
ATOM    101  N   UNL     1      12.611   5.131  -6.856  1.00  0.00    -0.339 N 
ATOM    102  C   UNL     1      13.603   6.109  -6.435  1.00  0.00     0.120 C 
ATOM    103  C   UNL     1      13.046   4.287  -7.964  1.00  0.00     0.120 C 
ATOM    104  C   UNL     1      14.887   5.414  -6.000  1.00  0.00     0.022 C 
ATOM    105  C   UNL     1      14.354   3.562  -7.633  1.00  0.00     0.022 C 
ATOM    106  C   UNL     1      15.428   4.518  -7.113  1.00  0.00     0.004 C 
ENDBRANCH  92  99
ENDBRANCH  88  90
ENDBRANCH  80  86
ENDBRANCH  75  78
ENDBRANCH  73  74
ENDBRANCH  72  73
ENDBRANCH   1  72
TORSDOF 17
