REMARK SMILES Cc1c(C(=O)NCCCCNC(=O)c2ccc(-c3c4nc(c(-c5cc(S(=O)(=O)[O-])ccc5F)c5ccc([nH]5)c(-c5cc(S(=O)(=O)[O-])ccc5F)c5nc(c(-c6cc(S(=O)(=O)[O-])ccc6F)c6ccc3[nH]6)C=C5)C=C4)cc2)sc2c1=C(CSc1nncn1-c1ccccc1)CC(=O)N=2
REMARK SMILES IDX 8 1 7 2 6 3 4 4 5 5 3 7 1 8 2 9 79 10 77 11 78 12 80 13
REMARK SMILES IDX 97 14 94 15 95 16 96 17 81 18 82 19 83 20 84 21 87 22 85 23
REMARK SMILES IDX 86 24 88 25 89 26 93 27 90 28 92 29 91 30 9 31 10 32 11 33
REMARK SMILES IDX 12 34 13 36 14 37 15 38 76 39 16 40 75 41 17 42 18 43 19 44
REMARK SMILES IDX 69 45 20 46 74 47 68 48 70 49 21 50 73 51 67 52 66 53 22 55
REMARK SMILES IDX 54 56 34 57 53 58 35 59 38 60 52 61 71 62 36 63 37 64 51 66
REMARK SMILES IDX 72 67 39 68 23 69 24 70 32 71 25 72 31 73 33 74 30 75 26 76
REMARK SMILES IDX 27 77 28 78 29 79 55 80 56 81 64 82 57 83 63 84 65 85 62 86
REMARK SMILES IDX 58 87 59 88 60 89 61 90 40 91 41 92 49 93 42 94 48 95 50 96
REMARK SMILES IDX 47 97 43 98 44 99 45 100 46 101
REMARK H PARENT 6 6 11 35 70 54 38 65
REMARK Flexibility Score: inf
ROOT
ATOM      1  C   UNL     1       1.159  -1.895   3.706  1.00  0.00     0.023 C 
ENDROOT
BRANCH   1   2
ATOM      2  C   UNL     1       2.077  -2.480   2.587  1.00  0.00     0.116 C 
BRANCH   2   3
ATOM      3  N   UNL     1       1.330  -3.380   1.662  1.00  0.00    -0.351 N 
ATOM      4  C   UNL     1       0.790  -3.693   0.464  1.00  0.00     0.261 C 
ATOM      5  O   UNL     1       0.318  -4.847   0.550  1.00  0.00    -0.268 OA
ATOM      6  H   UNL     1       1.118  -4.162   2.222  1.00  0.00     0.163 HD
BRANCH   4   7
ATOM      7  C   UNL     1       0.673  -3.024  -0.924  1.00  0.00     0.098 A 
ATOM      8  C   UNL     1      -0.466  -0.719  -0.890  1.00  0.00     0.047 C 
ATOM      9  C   UNL     1       0.307  -1.841  -1.499  1.00  0.00    -0.018 A 
ATOM     10  C   UNL     1       0.027  -1.911  -2.941  1.00  0.00     0.016 A 
ATOM     11  S   UNL     1       0.377  -4.332  -2.214  1.00  0.00    -0.110 S 
ATOM     12  C   UNL     1      -0.492  -3.243  -3.272  1.00  0.00     0.128 A 
ATOM     13  C   UNL     1      -0.191  -0.971  -3.882  1.00  0.00    -0.040 C 
ATOM     14  N   UNL     1      -1.389  -3.579  -4.127  1.00  0.00    -0.202 NA
ATOM     15  C   UNL     1      -1.519  -1.118  -4.601  1.00  0.00     0.135 C 
ATOM     16  C   UNL     1      -1.968  -2.557  -4.854  1.00  0.00     0.251 C 
ATOM     17  O   UNL     1      -2.889  -2.754  -5.646  1.00  0.00    -0.272 OA
BRANCH  13  18
ATOM     18  C   UNL     1       0.535   0.302  -4.261  1.00  0.00     0.110 C 
BRANCH  18  19
ATOM     19  S   UNL     1       2.084   0.631  -3.419  1.00  0.00    -0.081 SA
BRANCH  19  20
ATOM     20  C   UNL     1       1.942   2.342  -3.093  1.00  0.00     0.195 A 
ATOM     21  N   UNL     1       1.593   3.244  -3.986  1.00  0.00    -0.123 NA
ATOM     22  N   UNL     1       1.935   2.916  -1.829  1.00  0.00    -0.277 N 
ATOM     23  N   UNL     1       1.355   4.427  -3.324  1.00  0.00    -0.138 NA
ATOM     24  C   UNL     1       1.551   4.213  -2.044  1.00  0.00     0.231 A 
BRANCH  22  25
ATOM     25  C   UNL     1       1.987   2.265  -0.581  1.00  0.00     0.049 A 
ATOM     26  C   UNL     1       2.833   1.165  -0.447  1.00  0.00     0.027 A 
ATOM     27  C   UNL     1       0.955   2.524   0.340  1.00  0.00     0.027 A 
ATOM     28  C   UNL     1       2.463   0.166   0.417  1.00  0.00     0.002 A 
ATOM     29  C   UNL     1       0.622   1.541   1.252  1.00  0.00     0.002 A 
ATOM     30  C   UNL     1       1.330   0.348   1.207  1.00  0.00     0.000 A 
ENDBRANCH  22  25
ENDBRANCH  19  20
ENDBRANCH  18  19
ENDBRANCH  13  18
ENDBRANCH   4   7
ENDBRANCH   2   3
ENDBRANCH   1   2
BRANCH   1  31
ATOM     31  C   UNL     1       1.773  -1.636   5.095  1.00  0.00     0.023 C 
BRANCH  31  32
ATOM     32  C   UNL     1       2.912  -0.627   5.150  1.00  0.00     0.116 C 
BRANCH  32  33
ATOM     33  N   UNL     1       2.514   0.791   5.130  1.00  0.00    -0.352 N 
ATOM     34  C   UNL     1       3.363   1.884   5.319  1.00  0.00     0.251 C 
ATOM     35  H   UNL     1       1.563   0.987   4.967  1.00  0.00     0.163 HD
ATOM     36  O   UNL     1       2.932   2.993   5.634  1.00  0.00    -0.269 OA
BRANCH  34  37
ATOM     37  C   UNL     1       4.801   1.665   5.080  1.00  0.00     0.039 A 
ATOM     38  C   UNL     1       5.830   2.066   5.942  1.00  0.00     0.014 A 
ATOM     39  C   UNL     1       5.067   0.886   3.964  1.00  0.00     0.014 A 
ATOM     40  C   UNL     1       7.121   1.582   5.707  1.00  0.00     0.010 A 
ATOM     41  C   UNL     1       6.245   0.212   3.905  1.00  0.00     0.010 A 
ATOM     42  C   UNL     1       7.309   0.638   4.690  1.00  0.00    -0.014 A 
BRANCH  42  43
ATOM     43  C   UNL     1       8.581  -0.003   4.382  1.00  0.00     0.031 A 
ATOM     44  C   UNL     1       9.130  -0.892   5.442  1.00  0.00     0.074 A 
ATOM     45  C   UNL     1       8.997  -0.051   3.093  1.00  0.00     0.049 A 
ATOM     46  N   UNL     1      10.254  -0.769   6.064  1.00  0.00    -0.248 NA
ATOM     47  C   UNL     1       8.288  -1.975   5.980  1.00  0.00     0.031 C 
ATOM     48  C   UNL     1       8.349   0.520   1.900  1.00  0.00     0.029 A 
ATOM     49  N   UNL     1      10.004  -0.773   2.545  1.00  0.00    -0.354 N 
ATOM     50  C   UNL     1      10.367  -1.868   6.913  1.00  0.00     0.074 A 
ATOM     51  C   UNL     1       9.054  -2.451   6.965  1.00  0.00     0.031 C 
ATOM     52  C   UNL     1       8.811  -0.095   0.789  1.00  0.00     0.029 A 
ATOM     53  C   UNL     1       9.903  -0.972   1.169  1.00  0.00     0.049 A 
ATOM     54  H   UNL     1      10.750  -1.130   3.078  1.00  0.00     0.167 HD
ATOM     55  C   UNL     1      11.586  -2.315   7.335  1.00  0.00     0.034 A 
ATOM     56  C   UNL     1      10.641  -1.827   0.407  1.00  0.00     0.034 A 
ATOM     57  C   UNL     1      12.618  -1.360   6.990  1.00  0.00     0.049 A 
ATOM     58  C   UNL     1      11.880  -2.096   1.191  1.00  0.00     0.074 A 
ATOM     59  C   UNL     1      12.858  -0.043   7.332  1.00  0.00     0.029 A 
ATOM     60  N   UNL     1      13.341  -1.585   5.837  1.00  0.00    -0.354 N 
ATOM     61  N   UNL     1      12.739  -1.157   1.496  1.00  0.00    -0.248 NA
ATOM     62  C   UNL     1      11.881  -3.240   2.095  1.00  0.00     0.031 C 
ATOM     63  C   UNL     1      13.247   0.576   6.107  1.00  0.00     0.029 A 
ATOM     64  C   UNL     1      13.341  -0.410   5.120  1.00  0.00     0.049 A 
ATOM     65  H   UNL     1      13.776  -2.428   5.576  1.00  0.00     0.167 HD
ATOM     66  C   UNL     1      13.055  -1.369   2.832  1.00  0.00     0.074 A 
ATOM     67  C   UNL     1      12.570  -2.721   3.120  1.00  0.00     0.031 C 
ATOM     68  C   UNL     1      13.382  -0.334   3.668  1.00  0.00     0.034 A 
BRANCH  55  69
ATOM     69  C   UNL     1      11.940  -3.718   7.774  1.00  0.00     0.023 A 
ATOM     70  C   UNL     1      13.265  -3.945   8.204  1.00  0.00     0.031 A 
ATOM     71  C   UNL     1      11.163  -4.876   7.558  1.00  0.00     0.131 A 
ATOM     72  C   UNL     1      13.787  -5.246   8.301  1.00  0.00     0.055 A 
ATOM     73  C   UNL     1      11.667  -6.171   7.720  1.00  0.00     0.041 A 
ATOM     74  F   UNL     1       9.911  -4.828   7.090  1.00  0.00    -0.206 F 
ATOM     75  C   UNL     1      12.995  -6.364   8.062  1.00  0.00     0.022 A 
BRANCH  72  76
ATOM     76  S   UNL     1      15.569  -5.443   8.568  1.00  0.00     0.124 S 
ATOM     77  O   UNL     1      16.124  -4.598   7.516  1.00  0.00    -0.237 OA
ATOM     78  O   UNL     1      15.723  -4.956   9.935  1.00  0.00    -0.237 OA
ATOM     79  O   UNL     1      15.781  -6.878   8.389  1.00  0.00    -0.744 OA
ENDBRANCH  72  76
ENDBRANCH  55  69
BRANCH  56  80
ATOM     80  C   UNL     1      10.143  -2.656  -0.737  1.00  0.00     0.023 A 
ATOM     81  C   UNL     1      10.982  -3.249  -1.708  1.00  0.00     0.031 A 
ATOM     82  C   UNL     1       8.783  -3.054  -0.765  1.00  0.00     0.131 A 
ATOM     83  C   UNL     1      10.452  -4.176  -2.647  1.00  0.00     0.055 A 
ATOM     84  C   UNL     1       8.268  -3.965  -1.692  1.00  0.00     0.041 A 
ATOM     85  F   UNL     1       7.914  -2.630   0.167  1.00  0.00    -0.206 F 
ATOM     86  C   UNL     1       9.103  -4.536  -2.634  1.00  0.00     0.022 A 
BRANCH  83  87
ATOM     87  S   UNL     1      11.532  -5.006  -3.865  1.00  0.00     0.124 S 
ATOM     88  O   UNL     1      11.887  -3.913  -4.761  1.00  0.00    -0.237 OA
ATOM     89  O   UNL     1      12.603  -5.534  -3.026  1.00  0.00    -0.237 OA
ATOM     90  O   UNL     1      10.663  -6.026  -4.455  1.00  0.00    -0.744 OA
ENDBRANCH  83  87
ENDBRANCH  56  80
BRANCH  68  91
ATOM     91  C   UNL     1      13.592   1.054   3.076  1.00  0.00     0.023 A 
ATOM     92  C   UNL     1      12.626   1.777   2.336  1.00  0.00     0.031 A 
ATOM     93  C   UNL     1      14.768   1.736   3.437  1.00  0.00     0.131 A 
ATOM     94  C   UNL     1      12.857   3.125   1.989  1.00  0.00     0.055 A 
ATOM     95  C   UNL     1      14.982   3.076   3.115  1.00  0.00     0.041 A 
ATOM     96  F   UNL     1      15.715   1.119   4.163  1.00  0.00    -0.206 F 
ATOM     97  C   UNL     1      14.028   3.776   2.386  1.00  0.00     0.022 A 
BRANCH  94  98
ATOM     98  S   UNL     1      11.641   4.058   0.999  1.00  0.00     0.124 S 
ATOM     99  O   UNL     1      11.341   3.158  -0.109  1.00  0.00    -0.237 OA
ATOM    100  O   UNL     1      10.557   4.282   1.952  1.00  0.00    -0.237 OA
ATOM    101  O   UNL     1      12.371   5.269   0.617  1.00  0.00    -0.744 OA
ENDBRANCH  94  98
ENDBRANCH  68  91
ENDBRANCH  42  43
ENDBRANCH  34  37
ENDBRANCH  32  33
ENDBRANCH  31  32
ENDBRANCH   1  31
TORSDOF 18
