REMARK SMILES CCC[C@@H]1SC[C@H](C(=O)NCCCCNC(=O)c2ccc(-c3c4nc(c(-c5cc(S(=O)(=O)[O-])ccc5F)c5ccc([nH]5)c(-c5cc(S(=O)(=O)[O-])ccc5F)c5nc(c(-c6cc(S(=O)(=O)[O-])ccc6F)c6ccc3[nH]6)C=C5)C=C4)cc2)N1C(=O)C[NH+]1CCC([NH3+])CC1
REMARK SMILES IDX 12 1 11 2 10 3 8 4 9 5 7 7 4 8 5 9 81 10 6 11 3 12 2 13 1 14
REMARK SMILES IDX 82 15 83 16 84 17 85 18 86 19 91 20 87 22 90 23 88 24 89 25
REMARK SMILES IDX 13 29 14 30 15 31 16 32 17 34 18 35 19 36 80 37 20 38 79 39
REMARK SMILES IDX 21 40 22 41 23 42 73 43 24 44 78 45 72 46 74 47 25 48 77 49
REMARK SMILES IDX 71 50 70 51 26 53 58 54 38 55 57 56 39 57 42 58 56 59 75 60
REMARK SMILES IDX 40 61 41 62 55 64 76 65 43 66 27 67 28 68 36 69 29 70 35 71
REMARK SMILES IDX 37 72 34 73 30 74 31 75 32 76 33 77 59 78 60 79 68 80 61 81
REMARK SMILES IDX 67 82 69 83 66 84 62 85 63 86 64 87 65 88 44 89 45 90 53 91
REMARK SMILES IDX 46 92 52 93 54 94 51 95 47 96 48 97 49 98 50 99
REMARK H PARENT 10 6 85 21 89 26 89 27 89 28 15 33 74 52 42 63
REMARK Flexibility Score: inf
ROOT
ATOM      1  C   UNL     1      -3.217   2.505  -2.735  1.00  0.00     0.023 C 
ENDROOT
BRANCH   1   2
ATOM      2  C   UNL     1      -2.509   2.240  -1.407  1.00  0.00     0.116 C 
BRANCH   2   3
ATOM      3  N   UNL     1      -2.909   0.994  -0.778  1.00  0.00    -0.354 N 
ATOM      4  C   UNL     1      -2.220  -0.184  -0.636  1.00  0.00     0.243 C 
ATOM      5  O   UNL     1      -2.790  -1.131  -0.091  1.00  0.00    -0.273 OA
ATOM      6  H   UNL     1      -3.815   0.995  -0.394  1.00  0.00     0.163 HD
BRANCH   4   7
ATOM      7  C   UNL     1      -0.766  -0.266  -1.153  1.00  0.00     0.185 C 
ATOM      8  C   UNL     1       0.931  -0.971  -2.746  1.00  0.00     0.144 C 
ATOM      9  S   UNL     1       1.512  -1.633  -1.125  1.00  0.00    -0.134 SA
ATOM     10  N   UNL     1      -0.481  -0.675  -2.545  1.00  0.00    -0.313 N 
ATOM     11  C   UNL     1       0.006  -1.205  -0.227  1.00  0.00     0.107 C 
BRANCH   8  12
ATOM     12  C   UNL     1       1.287  -1.964  -3.864  1.00  0.00     0.036 C 
BRANCH  12  13
ATOM     13  C   UNL     1       2.668  -1.684  -4.486  1.00  0.00    -0.000 C 
ATOM     14  C   UNL     1       3.843  -1.916  -3.551  1.00  0.00     0.004 C 
ENDBRANCH  12  13
ENDBRANCH   8  12
BRANCH  10  15
ATOM     15  C   UNL     1      -1.396  -0.352  -3.522  1.00  0.00     0.279 C 
ATOM     16  O   UNL     1      -2.602  -0.526  -3.300  1.00  0.00    -0.268 OA
BRANCH  15  17
ATOM     17  C   UNL     1      -1.021   0.154  -4.925  1.00  0.00     0.363 C 
BRANCH  17  18
ATOM     18  N   UNL     1       0.286   0.830  -5.075  1.00  0.00    -0.327 N 
ATOM     19  C   UNL     1       0.618   0.972  -6.507  1.00  0.00     0.268 C 
ATOM     20  C   UNL     1       0.393   2.130  -4.394  1.00  0.00     0.268 C 
ATOM     21  H   UNL     1       0.962   0.227  -4.607  1.00  0.00     0.348 HD
ATOM     22  C   UNL     1      -0.166   2.070  -7.236  1.00  0.00     0.126 C 
ATOM     23  C   UNL     1      -0.334   3.297  -5.066  1.00  0.00     0.126 C 
ATOM     24  C   UNL     1       0.049   3.413  -6.540  1.00  0.00     0.192 C 
BRANCH  24  25
ATOM     25  N   UNL     1      -0.719   4.481  -7.177  1.00  0.00    -0.355 N 
ATOM     26  H   UNL     1      -1.714   4.268  -7.114  1.00  0.00     0.344 HD
ATOM     27  H   UNL     1      -0.449   4.555  -8.158  1.00  0.00     0.344 HD
ATOM     28  H   UNL     1      -0.530   5.364  -6.704  1.00  0.00     0.344 HD
ENDBRANCH  24  25
ENDBRANCH  17  18
ENDBRANCH  15  17
ENDBRANCH  10  15
ENDBRANCH   4   7
ENDBRANCH   2   3
ENDBRANCH   1   2
BRANCH   1  29
ATOM     29  C   UNL     1      -4.735   2.574  -2.648  1.00  0.00     0.023 C 
BRANCH  29  30
ATOM     30  C   UNL     1      -5.228   3.708  -1.770  1.00  0.00     0.116 C 
BRANCH  30  31
ATOM     31  N   UNL     1      -4.767   5.005  -2.251  1.00  0.00    -0.352 N 
ATOM     32  C   UNL     1      -5.503   6.123  -2.553  1.00  0.00     0.251 C 
ATOM     33  H   UNL     1      -3.794   5.090  -2.377  1.00  0.00     0.163 HD
ATOM     34  O   UNL     1      -4.986   7.045  -3.172  1.00  0.00    -0.269 OA
BRANCH  32  35
ATOM     35  C   UNL     1      -6.917   6.183  -2.135  1.00  0.00     0.039 A 
ATOM     36  C   UNL     1      -7.867   6.721  -3.005  1.00  0.00     0.014 A 
ATOM     37  C   UNL     1      -7.299   5.692  -0.884  1.00  0.00     0.014 A 
ATOM     38  C   UNL     1      -9.209   6.731  -2.628  1.00  0.00     0.010 A 
ATOM     39  C   UNL     1      -8.643   5.592  -0.565  1.00  0.00     0.010 A 
ATOM     40  C   UNL     1      -9.609   6.148  -1.414  1.00  0.00    -0.014 A 
BRANCH  40  41
ATOM     41  C   UNL     1     -11.022   6.181  -0.966  1.00  0.00     0.031 A 
ATOM     42  C   UNL     1     -11.378   6.912   0.301  1.00  0.00     0.074 A 
ATOM     43  C   UNL     1     -11.964   5.519  -1.662  1.00  0.00     0.049 A 
ATOM     44  N   UNL     1     -12.534   7.021   0.901  1.00  0.00    -0.248 NA
ATOM     45  C   UNL     1     -10.270   7.567   1.012  1.00  0.00     0.031 C 
ATOM     46  C   UNL     1     -11.727   4.741  -2.880  1.00  0.00     0.029 A 
ATOM     47  N   UNL     1     -13.312   5.400  -1.447  1.00  0.00    -0.354 N 
ATOM     48  C   UNL     1     -12.286   7.739   2.067  1.00  0.00     0.074 A 
ATOM     49  C   UNL     1     -10.856   7.943   2.135  1.00  0.00     0.031 C 
ATOM     50  C   UNL     1     -12.900   4.271  -3.333  1.00  0.00     0.029 A 
ATOM     51  C   UNL     1     -13.962   4.673  -2.416  1.00  0.00     0.049 A 
ATOM     52  H   UNL     1     -13.771   5.797  -0.672  1.00  0.00     0.167 HD
ATOM     53  C   UNL     1     -13.170   8.221   2.975  1.00  0.00     0.034 A 
ATOM     54  C   UNL     1     -15.268   4.374  -2.549  1.00  0.00     0.034 A 
ATOM     55  C   UNL     1     -14.594   8.008   2.880  1.00  0.00     0.049 A 
ATOM     56  C   UNL     1     -16.236   4.888  -1.514  1.00  0.00     0.074 A 
ATOM     57  C   UNL     1     -15.597   8.474   3.710  1.00  0.00     0.029 A 
ATOM     58  N   UNL     1     -15.217   7.255   1.890  1.00  0.00    -0.354 N 
ATOM     59  N   UNL     1     -15.999   5.607  -0.441  1.00  0.00    -0.248 NA
ATOM     60  C   UNL     1     -17.651   4.560  -1.721  1.00  0.00     0.031 C 
ATOM     61  C   UNL     1     -16.813   7.941   3.268  1.00  0.00     0.029 A 
ATOM     62  C   UNL     1     -16.586   7.219   2.107  1.00  0.00     0.049 A 
ATOM     63  H   UNL     1     -14.753   6.812   1.143  1.00  0.00     0.167 HD
ATOM     64  C   UNL     1     -17.244   5.856   0.132  1.00  0.00     0.074 A 
ATOM     65  C   UNL     1     -18.224   5.212  -0.721  1.00  0.00     0.031 C 
ATOM     66  C   UNL     1     -17.550   6.563   1.252  1.00  0.00     0.034 A 
BRANCH  53  67
ATOM     67  C   UNL     1     -12.598   8.988   4.150  1.00  0.00     0.023 A 
ATOM     68  C   UNL     1     -11.800  10.133   3.964  1.00  0.00     0.031 A 
ATOM     69  C   UNL     1     -12.768   8.519   5.464  1.00  0.00     0.131 A 
ATOM     70  C   UNL     1     -11.101  10.685   5.048  1.00  0.00     0.055 A 
ATOM     71  C   UNL     1     -12.159   9.145   6.555  1.00  0.00     0.041 A 
ATOM     72  F   UNL     1     -13.499   7.420   5.711  1.00  0.00    -0.206 F 
ATOM     73  C   UNL     1     -11.297  10.218   6.347  1.00  0.00     0.022 A 
BRANCH  70  74
ATOM     74  S   UNL     1      -9.766  11.866   4.698  1.00  0.00     0.124 S 
ATOM     75  O   UNL     1      -8.919  11.092   3.792  1.00  0.00    -0.237 OA
ATOM     76  O   UNL     1     -10.483  12.986   4.102  1.00  0.00    -0.237 OA
ATOM     77  O   UNL     1      -9.183  12.123   6.013  1.00  0.00    -0.744 OA
ENDBRANCH  70  74
ENDBRANCH  53  67
BRANCH  54  78
ATOM     78  C   UNL     1     -15.741   3.587  -3.721  1.00  0.00     0.023 A 
ATOM     79  C   UNL     1     -16.568   4.175  -4.692  1.00  0.00     0.031 A 
ATOM     80  C   UNL     1     -15.382   2.238  -3.888  1.00  0.00     0.131 A 
ATOM     81  C   UNL     1     -17.040   3.407  -5.767  1.00  0.00     0.055 A 
ATOM     82  C   UNL     1     -15.815   1.491  -4.985  1.00  0.00     0.041 A 
ATOM     83  F   UNL     1     -14.585   1.632  -2.994  1.00  0.00    -0.206 F 
ATOM     84  C   UNL     1     -16.658   2.073  -5.928  1.00  0.00     0.022 A 
BRANCH  81  85
ATOM     85  S   UNL     1     -18.213   4.163  -6.925  1.00  0.00     0.124 S 
ATOM     86  O   UNL     1     -19.327   4.496  -6.045  1.00  0.00    -0.237 OA
ATOM     87  O   UNL     1     -17.444   5.290  -7.443  1.00  0.00    -0.237 OA
ATOM     88  O   UNL     1     -18.474   3.096  -7.889  1.00  0.00    -0.744 OA
ENDBRANCH  81  85
ENDBRANCH  54  78
BRANCH  66  89
ATOM     89  C   UNL     1     -19.017   6.728   1.578  1.00  0.00     0.023 A 
ATOM     90  C   UNL     1     -19.836   5.635   1.911  1.00  0.00     0.031 A 
ATOM     91  C   UNL     1     -19.605   8.005   1.533  1.00  0.00     0.131 A 
ATOM     92  C   UNL     1     -21.210   5.830   2.117  1.00  0.00     0.055 A 
ATOM     93  C   UNL     1     -20.958   8.202   1.812  1.00  0.00     0.041 A 
ATOM     94  F   UNL     1     -18.873   9.085   1.217  1.00  0.00    -0.206 F 
ATOM     95  C   UNL     1     -21.773   7.109   2.090  1.00  0.00     0.022 A 
BRANCH  92  96
ATOM     96  S   UNL     1     -22.278   4.375   2.302  1.00  0.00     0.124 S 
ATOM     97  O   UNL     1     -21.990   3.631   1.080  1.00  0.00    -0.237 OA
ATOM     98  O   UNL     1     -21.784   3.782   3.541  1.00  0.00    -0.237 OA
ATOM     99  O   UNL     1     -23.622   4.944   2.380  1.00  0.00    -0.744 OA
ENDBRANCH  92  96
ENDBRANCH  66  89
ENDBRANCH  40  41
ENDBRANCH  32  35
ENDBRANCH  30  31
ENDBRANCH  29  30
ENDBRANCH   1  29
TORSDOF 20
