REMARK SMILES CC(C)[C@H](C)CNC(=O)N1CC(n2cc(C(=O)NCCCCNC(=O)c3ccc(-c4c5nc(c(-c6cc(S(=O)(=O)[O-])ccc6F)c6ccc([nH]6)c(-c6cc(S(=O)(=O)[O-])ccc6F)c6nc(c(-c7cc(S(=O)(=O)[O-])ccc7F)c7ccc4[nH]7)C=C6)C=C5)cc3)nn2)C1
REMARK SMILES IDX 20 1 19 2 18 3 16 4 17 5 15 7 13 8 14 9 90 10 89 11 12 12
REMARK SMILES IDX 7 13 8 14 9 16 10 17 11 18 91 19 6 20 4 21 5 22 2 23 1 24
REMARK SMILES IDX 3 25 21 26 22 27 23 28 24 29 25 31 26 32 27 33 88 34 28 35
REMARK SMILES IDX 87 36 29 37 30 38 31 39 81 40 32 41 86 42 80 43 82 44 33 45
REMARK SMILES IDX 85 46 79 47 78 48 34 50 66 51 46 52 65 53 47 54 50 55 64 56
REMARK SMILES IDX 83 57 48 58 49 59 63 61 84 62 51 63 35 64 36 65 44 66 37 67
REMARK SMILES IDX 43 68 45 69 42 70 38 71 39 72 40 73 41 74 67 75 68 76 76 77
REMARK SMILES IDX 69 78 75 79 77 80 74 81 70 82 71 83 72 84 73 85 52 86 53 87
REMARK SMILES IDX 61 88 54 89 60 90 62 91 59 92 55 93 56 94 57 95 58 96
REMARK H PARENT 18 6 7 15 23 30 82 49 50 60
REMARK Flexibility Score: inf
ROOT
ATOM      1  C   UNL     1      -8.782   5.185   5.486  1.00  0.00     0.023 C 
ENDROOT
BRANCH   1   2
ATOM      2  C   UNL     1      -8.729   3.769   4.904  1.00  0.00     0.116 C 
BRANCH   2   3
ATOM      3  N   UNL     1      -9.788   3.542   3.939  1.00  0.00    -0.351 N 
ATOM      4  C   UNL     1      -9.794   3.497   2.563  1.00  0.00     0.273 C 
ATOM      5  O   UNL     1     -10.864   3.201   2.029  1.00  0.00    -0.267 OA
ATOM      6  H   UNL     1     -10.671   3.391   4.346  1.00  0.00     0.163 HD
BRANCH   4   7
ATOM      7  C   UNL     1      -8.597   3.772   1.770  1.00  0.00     0.170 A 
ATOM      8  N   UNL     1      -6.652   4.313   0.961  1.00  0.00    -0.245 N 
ATOM      9  C   UNL     1      -7.439   4.460   2.071  1.00  0.00     0.145 A 
ATOM     10  N   UNL     1      -7.300   3.663  -0.011  1.00  0.00    -0.066 NA
ATOM     11  N   UNL     1      -8.499   3.345   0.458  1.00  0.00    -0.125 NA
BRANCH   8  12
ATOM     12  C   UNL     1      -5.299   4.765   0.892  1.00  0.00     0.148 C 
ATOM     13  N   UNL     1      -1.289   3.612   1.123  1.00  0.00    -0.338 N 
ATOM     14  C   UNL     1      -2.147   4.310   0.334  1.00  0.00     0.317 C 
ATOM     15  H   UNL     1      -0.415   4.040   1.273  1.00  0.00     0.165 HD
ATOM     16  O   UNL     1      -1.694   5.196  -0.391  1.00  0.00    -0.249 OA
ATOM     17  N   UNL     1      -3.469   4.007   0.372  1.00  0.00    -0.320 N 
ATOM     18  C   UNL     1      -4.557   4.564  -0.433  1.00  0.00     0.150 C 
ATOM     19  C   UNL     1      -4.347   3.713   1.495  1.00  0.00     0.150 C 
BRANCH  13  20
ATOM     20  C   UNL     1      -1.472   2.325   1.781  1.00  0.00     0.121 C 
BRANCH  20  21
ATOM     21  C   UNL     1      -1.004   1.146   0.896  1.00  0.00     0.008 C 
ATOM     22  C   UNL     1       0.528   1.214   0.750  1.00  0.00     0.010 C 
BRANCH  21  23
ATOM     23  C   UNL     1      -1.448  -0.248   1.441  1.00  0.00    -0.013 C 
ATOM     24  C   UNL     1      -2.922  -0.299   1.865  1.00  0.00     0.008 C 
ATOM     25  C   UNL     1      -1.228  -1.355   0.396  1.00  0.00     0.008 C 
ENDBRANCH  21  23
ENDBRANCH  20  21
ENDBRANCH  13  20
ENDBRANCH   8  12
ENDBRANCH   4   7
ENDBRANCH   2   3
ENDBRANCH   1   2
BRANCH   1  26
ATOM     26  C   UNL     1      -9.885   5.428   6.532  1.00  0.00     0.023 C 
BRANCH  26  27
ATOM     27  C   UNL     1      -9.755   4.611   7.815  1.00  0.00     0.116 C 
BRANCH  27  28
ATOM     28  N   UNL     1      -8.522   4.888   8.553  1.00  0.00    -0.352 N 
ATOM     29  C   UNL     1      -8.019   4.203   9.652  1.00  0.00     0.251 C 
ATOM     30  H   UNL     1      -7.987   5.650   8.234  1.00  0.00     0.163 HD
ATOM     31  O   UNL     1      -7.254   4.750  10.428  1.00  0.00    -0.269 OA
BRANCH  29  32
ATOM     32  C   UNL     1      -8.418   2.794   9.839  1.00  0.00     0.039 A 
ATOM     33  C   UNL     1      -8.743   2.271  11.094  1.00  0.00     0.014 A 
ATOM     34  C   UNL     1      -8.499   2.005   8.697  1.00  0.00     0.014 A 
ATOM     35  C   UNL     1      -9.237   0.967  11.167  1.00  0.00     0.010 A 
ATOM     36  C   UNL     1      -9.132   0.791   8.750  1.00  0.00     0.010 A 
ATOM     37  C   UNL     1      -9.450   0.239   9.984  1.00  0.00    -0.014 A 
BRANCH  37  38
ATOM     38  C   UNL     1     -10.152  -1.044   9.983  1.00  0.00     0.031 A 
ATOM     39  C   UNL     1     -11.492  -0.996  10.627  1.00  0.00     0.074 A 
ATOM     40  C   UNL     1      -9.743  -2.104   9.247  1.00  0.00     0.049 A 
ATOM     41  N   UNL     1     -11.841  -1.544  11.742  1.00  0.00    -0.248 NA
ATOM     42  C   UNL     1     -12.515  -0.091  10.075  1.00  0.00     0.031 C 
ATOM     43  C   UNL     1      -8.589  -2.190   8.344  1.00  0.00     0.029 A 
ATOM     44  N   UNL     1     -10.347  -3.309   9.055  1.00  0.00    -0.354 N 
ATOM     45  C   UNL     1     -13.200  -1.286  11.887  1.00  0.00     0.074 A 
ATOM     46  C   UNL     1     -13.489  -0.208  10.982  1.00  0.00     0.031 C 
ATOM     47  C   UNL     1      -8.721  -3.264   7.533  1.00  0.00     0.029 A 
ATOM     48  C   UNL     1      -9.877  -4.034   7.958  1.00  0.00     0.049 A 
ATOM     49  H   UNL     1     -11.061  -3.644   9.645  1.00  0.00     0.167 HD
ATOM     50  C   UNL     1     -14.010  -2.167  12.540  1.00  0.00     0.034 A 
ATOM     51  C   UNL     1     -10.404  -5.173   7.423  1.00  0.00     0.034 A 
ATOM     52  C   UNL     1     -13.222  -3.120  13.296  1.00  0.00     0.049 A 
ATOM     53  C   UNL     1     -11.217  -5.799   8.498  1.00  0.00     0.074 A 
ATOM     54  C   UNL     1     -12.258  -3.006  14.282  1.00  0.00     0.029 A 
ATOM     55  N   UNL     1     -13.063  -4.387  12.774  1.00  0.00    -0.354 N 
ATOM     56  N   UNL     1     -10.691  -6.264   9.599  1.00  0.00    -0.248 NA
ATOM     57  C   UNL     1     -12.620  -5.422   8.597  1.00  0.00     0.031 C 
ATOM     58  C   UNL     1     -11.263  -3.964  13.926  1.00  0.00     0.029 A 
ATOM     59  C   UNL     1     -11.722  -4.688  12.823  1.00  0.00     0.049 A 
ATOM     60  H   UNL     1     -13.778  -4.970  12.430  1.00  0.00     0.167 HD
ATOM     61  C   UNL     1     -11.525  -5.813  10.611  1.00  0.00     0.074 A 
ATOM     62  C   UNL     1     -12.748  -5.384   9.928  1.00  0.00     0.031 C 
ATOM     63  C   UNL     1     -11.044  -5.542  11.863  1.00  0.00     0.034 A 
BRANCH  50  64
ATOM     64  C   UNL     1     -15.464  -2.431  12.207  1.00  0.00     0.023 A 
ATOM     65  C   UNL     1     -16.127  -3.403  12.982  1.00  0.00     0.031 A 
ATOM     66  C   UNL     1     -16.134  -2.027  11.030  1.00  0.00     0.131 A 
ATOM     67  C   UNL     1     -17.306  -4.014  12.524  1.00  0.00     0.055 A 
ATOM     68  C   UNL     1     -17.346  -2.588  10.615  1.00  0.00     0.041 A 
ATOM     69  F   UNL     1     -15.624  -1.143  10.168  1.00  0.00    -0.206 F 
ATOM     70  C   UNL     1     -17.921  -3.615  11.342  1.00  0.00     0.022 A 
BRANCH  67  71
ATOM     71  S   UNL     1     -17.908  -5.476  13.407  1.00  0.00     0.124 S 
ATOM     72  O   UNL     1     -16.725  -6.330  13.393  1.00  0.00    -0.237 OA
ATOM     73  O   UNL     1     -18.282  -4.912  14.699  1.00  0.00    -0.237 OA
ATOM     74  O   UNL     1     -19.021  -5.936  12.580  1.00  0.00    -0.744 OA
ENDBRANCH  67  71
ENDBRANCH  50  64
BRANCH  51  75
ATOM     75  C   UNL     1     -10.488  -5.560   5.979  1.00  0.00     0.023 A 
ATOM     76  C   UNL     1     -10.747  -6.878   5.528  1.00  0.00     0.031 A 
ATOM     77  C   UNL     1     -10.550  -4.544   4.997  1.00  0.00     0.131 A 
ATOM     78  C   UNL     1     -11.048  -7.125   4.162  1.00  0.00     0.055 A 
ATOM     79  C   UNL     1     -10.849  -4.793   3.655  1.00  0.00     0.041 A 
ATOM     80  F   UNL     1     -10.405  -3.251   5.327  1.00  0.00    -0.206 F 
ATOM     81  C   UNL     1     -11.109  -6.085   3.233  1.00  0.00     0.022 A 
BRANCH  78  82
ATOM     82  S   UNL     1     -11.451  -8.808   3.570  1.00  0.00     0.124 S 
ATOM     83  O   UNL     1     -10.175  -9.500   3.703  1.00  0.00    -0.237 OA
ATOM     84  O   UNL     1     -12.512  -9.218   4.483  1.00  0.00    -0.237 OA
ATOM     85  O   UNL     1     -11.887  -8.591   2.189  1.00  0.00    -0.744 OA
ENDBRANCH  78  82
ENDBRANCH  51  75
BRANCH  63  86
ATOM     86  C   UNL     1      -9.633  -5.984  12.214  1.00  0.00     0.023 A 
ATOM     87  C   UNL     1      -8.463  -5.626  11.502  1.00  0.00     0.031 A 
ATOM     88  C   UNL     1      -9.466  -6.705  13.410  1.00  0.00     0.131 A 
ATOM     89  C   UNL     1      -7.194  -6.005  11.989  1.00  0.00     0.055 A 
ATOM     90  C   UNL     1      -8.209  -7.055  13.902  1.00  0.00     0.041 A 
ATOM     91  F   UNL     1     -10.532  -7.055  14.149  1.00  0.00    -0.206 F 
ATOM     92  C   UNL     1      -7.067  -6.712  13.188  1.00  0.00     0.022 A 
BRANCH  89  93
ATOM     93  S   UNL     1      -5.676  -5.607  11.057  1.00  0.00     0.124 S 
ATOM     94  O   UNL     1      -5.998  -6.005   9.692  1.00  0.00    -0.237 OA
ATOM     95  O   UNL     1      -5.529  -4.173  11.286  1.00  0.00    -0.237 OA
ATOM     96  O   UNL     1      -4.654  -6.432  11.705  1.00  0.00    -0.744 OA
ENDBRANCH  89  93
ENDBRANCH  63  86
ENDBRANCH  37  38
ENDBRANCH  29  32
ENDBRANCH  27  28
ENDBRANCH  26  27
ENDBRANCH   1  26
TORSDOF 18
