REMARK SMILES O=C(NCCCCNC(=O)c1ccc(-c2c3nc(c(-c4cc(S(=O)(=O)[O-])ccc4F)c4ccc([nH]4)c(-c4cc(S(=O)(=O)[O-])ccc4F)c4nc(c(-c5cc(S(=O)(=O)[O-])ccc5F)c5ccc2[nH]5)C=C4)C=C3)cc1)C1=Cc2cc(Cl)cc(-c3ccccc3)c2O[C@@H]1C(F)(F)F
REMARK SMILES IDX 6 1 5 2 4 3 3 4 1 5 2 6 74 8 75 9 90 10 76 11 89 12 77 13
REMARK SMILES IDX 88 14 78 15 81 16 79 17 80 18 91 19 92 20 93 21 94 22 82 23
REMARK SMILES IDX 83 24 87 25 84 26 86 27 85 28 7 29 8 30 9 31 10 33 11 34
REMARK SMILES IDX 12 35 73 36 13 37 72 38 14 39 15 40 16 41 66 42 17 43 71 44
REMARK SMILES IDX 65 45 67 46 18 47 70 48 64 49 63 50 19 52 51 53 31 54 50 55
REMARK SMILES IDX 32 56 35 57 49 58 68 59 33 60 34 61 48 63 69 64 36 65 20 66
REMARK SMILES IDX 21 67 29 68 22 69 28 70 30 71 27 72 23 73 24 74 25 75 26 76
REMARK SMILES IDX 52 77 53 78 61 79 54 80 60 81 62 82 59 83 55 84 56 85 57 86
REMARK SMILES IDX 58 87 37 88 38 89 46 90 39 91 45 92 47 93 44 94 40 95 41 96
REMARK SMILES IDX 42 97 43 98
REMARK H PARENT 3 7 8 32 67 51 35 62
REMARK Flexibility Score: inf
ROOT
ATOM      1  C   UNL     1       4.089  -1.473  -4.466  1.00  0.00     0.023 C 
ENDROOT
BRANCH   1   2
ATOM      2  C   UNL     1       4.359  -2.036  -3.073  1.00  0.00     0.023 C 
BRANCH   2   3
ATOM      3  C   UNL     1       4.026  -1.141  -1.884  1.00  0.00     0.116 C 
BRANCH   3   4
ATOM      4  N   UNL     1       2.698  -1.293  -1.314  1.00  0.00    -0.352 N 
ATOM      5  O   UNL     1       1.019  -1.029   0.152  1.00  0.00    -0.270 OA
ATOM      6  C   UNL     1       2.221  -0.911  -0.088  1.00  0.00     0.251 C 
ATOM      7  H   UNL     1       2.041  -1.737  -1.897  1.00  0.00     0.163 HD
BRANCH   6   8
ATOM      8  C   UNL     1       3.080  -0.289   0.971  1.00  0.00     0.067 C 
ATOM      9  C   UNL     1       4.365  -0.630   1.175  1.00  0.00     0.025 C 
ATOM     10  C   UNL     1       2.696   1.151   1.246  1.00  0.00     0.314 C 
ATOM     11  C   UNL     1       5.277   0.384   0.575  1.00  0.00     0.019 A 
ATOM     12  O   UNL     1       3.491   2.041   0.417  1.00  0.00    -0.475 OA
ATOM     13  C   UNL     1       6.571  -0.024   0.240  1.00  0.00     0.032 A 
ATOM     14  C   UNL     1       4.760   1.607   0.093  1.00  0.00     0.135 A 
ATOM     15  C   UNL     1       7.311   0.736  -0.657  1.00  0.00     0.042 A 
ATOM     16  C   UNL     1       5.491   2.354  -0.847  1.00  0.00     0.026 A 
ATOM     17  Cl  UNL     1       8.837   0.155  -1.196  1.00  0.00    -0.084 Cl
ATOM     18  C   UNL     1       6.775   1.899  -1.209  1.00  0.00     0.033 A 
BRANCH  10  19
ATOM     19  C   UNL     1       2.775   1.520   2.739  1.00  0.00     0.429 C 
ATOM     20  F   UNL     1       2.312   2.771   2.973  1.00  0.00    -0.167 F 
ATOM     21  F   UNL     1       2.028   0.679   3.497  1.00  0.00    -0.167 F 
ATOM     22  F   UNL     1       4.038   1.466   3.228  1.00  0.00    -0.167 F 
ENDBRANCH  10  19
BRANCH  16  23
ATOM     23  C   UNL     1       4.909   3.469  -1.609  1.00  0.00    -0.015 A 
ATOM     24  C   UNL     1       3.955   3.215  -2.611  1.00  0.00     0.009 A 
ATOM     25  C   UNL     1       5.369   4.781  -1.448  1.00  0.00     0.009 A 
ATOM     26  C   UNL     1       3.522   4.227  -3.470  1.00  0.00     0.001 A 
ATOM     27  C   UNL     1       4.923   5.800  -2.295  1.00  0.00     0.001 A 
ATOM     28  C   UNL     1       4.016   5.518  -3.317  1.00  0.00     0.000 A 
ENDBRANCH  16  23
ENDBRANCH   6   8
ENDBRANCH   3   4
ENDBRANCH   2   3
ENDBRANCH   1   2
BRANCH   1  29
ATOM     29  C   UNL     1       4.723  -0.129  -4.830  1.00  0.00     0.116 C 
BRANCH  29  30
ATOM     30  N   UNL     1       6.173  -0.057  -4.728  1.00  0.00    -0.352 N 
ATOM     31  C   UNL     1       7.057   0.616  -5.557  1.00  0.00     0.251 C 
ATOM     32  H   UNL     1       6.576  -0.548  -3.976  1.00  0.00     0.163 HD
ATOM     33  O   UNL     1       8.256   0.596  -5.326  1.00  0.00    -0.269 OA
BRANCH  31  34
ATOM     34  C   UNL     1       6.538   1.297  -6.770  1.00  0.00     0.039 A 
ATOM     35  C   UNL     1       7.049   0.922  -8.015  1.00  0.00     0.014 A 
ATOM     36  C   UNL     1       5.485   2.212  -6.690  1.00  0.00     0.014 A 
ATOM     37  C   UNL     1       6.413   1.357  -9.182  1.00  0.00     0.010 A 
ATOM     38  C   UNL     1       4.812   2.591  -7.853  1.00  0.00     0.010 A 
ATOM     39  C   UNL     1       5.243   2.132  -9.109  1.00  0.00    -0.014 A 
BRANCH  39  40
ATOM     40  C   UNL     1       4.412   2.371 -10.324  1.00  0.00     0.031 A 
ATOM     41  C   UNL     1       4.196   3.758 -10.860  1.00  0.00     0.074 A 
ATOM     42  C   UNL     1       3.792   1.325 -10.910  1.00  0.00     0.049 A 
ATOM     43  N   UNL     1       3.485   4.142 -11.890  1.00  0.00    -0.248 NA
ATOM     44  C   UNL     1       4.840   4.856 -10.129  1.00  0.00     0.031 C 
ATOM     45  C   UNL     1       3.870  -0.067 -10.454  1.00  0.00     0.029 A 
ATOM     46  N   UNL     1       2.973   1.262 -12.011  1.00  0.00    -0.354 N 
ATOM     47  C   UNL     1       3.598   5.527 -11.937  1.00  0.00     0.074 A 
ATOM     48  C   UNL     1       4.395   5.916 -10.790  1.00  0.00     0.031 C 
ATOM     49  C   UNL     1       3.159  -0.845 -11.286  1.00  0.00     0.029 A 
ATOM     50  C   UNL     1       2.539  -0.011 -12.310  1.00  0.00     0.049 A 
ATOM     51  H   UNL     1       2.718   2.054 -12.538  1.00  0.00     0.167 HD
ATOM     52  C   UNL     1       3.105   6.391 -12.860  1.00  0.00     0.034 A 
ATOM     53  C   UNL     1       1.732  -0.460 -13.293  1.00  0.00     0.034 A 
ATOM     54  C   UNL     1       2.311   5.994 -13.999  1.00  0.00     0.049 A 
ATOM     55  C   UNL     1       1.175   0.522 -14.290  1.00  0.00     0.074 A 
ATOM     56  C   UNL     1       1.814   6.785 -15.022  1.00  0.00     0.029 A 
ATOM     57  N   UNL     1       1.885   4.699 -14.264  1.00  0.00    -0.354 N 
ATOM     58  N   UNL     1       1.348   1.822 -14.354  1.00  0.00    -0.248 NA
ATOM     59  C   UNL     1       0.323  -0.026 -15.354  1.00  0.00     0.031 C 
ATOM     60  C   UNL     1       1.036   5.983 -15.864  1.00  0.00     0.029 A 
ATOM     61  C   UNL     1       1.106   4.676 -15.412  1.00  0.00     0.049 A 
ATOM     62  H   UNL     1       2.104   3.910 -13.716  1.00  0.00     0.167 HD
ATOM     63  C   UNL     1       0.650   2.240 -15.484  1.00  0.00     0.074 A 
ATOM     64  C   UNL     1       0.066   1.055 -16.076  1.00  0.00     0.031 C 
ATOM     65  C   UNL     1       0.513   3.492 -15.989  1.00  0.00     0.034 A 
BRANCH  52  66
ATOM     66  C   UNL     1       3.400   7.859 -12.662  1.00  0.00     0.023 A 
ATOM     67  C   UNL     1       4.715   8.354 -12.696  1.00  0.00     0.031 A 
ATOM     68  C   UNL     1       2.359   8.773 -12.421  1.00  0.00     0.131 A 
ATOM     69  C   UNL     1       4.963   9.707 -12.420  1.00  0.00     0.055 A 
ATOM     70  C   UNL     1       2.605  10.134 -12.226  1.00  0.00     0.041 A 
ATOM     71  F   UNL     1       1.085   8.357 -12.359  1.00  0.00    -0.206 F 
ATOM     72  C   UNL     1       3.915  10.606 -12.210  1.00  0.00     0.022 A 
BRANCH  69  73
ATOM     73  S   UNL     1       6.681  10.245 -12.202  1.00  0.00     0.124 S 
ATOM     74  O   UNL     1       7.115   9.398 -11.093  1.00  0.00    -0.237 OA
ATOM     75  O   UNL     1       7.272   9.949 -13.501  1.00  0.00    -0.237 OA
ATOM     76  O   UNL     1       6.557  11.665 -11.880  1.00  0.00    -0.744 OA
ENDBRANCH  69  73
ENDBRANCH  52  66
BRANCH  53  77
ATOM     77  C   UNL     1       1.395  -1.909 -13.390  1.00  0.00     0.023 A 
ATOM     78  C   UNL     1       1.821  -2.677 -14.485  1.00  0.00     0.031 A 
ATOM     79  C   UNL     1       0.606  -2.537 -12.410  1.00  0.00     0.131 A 
ATOM     80  C   UNL     1       1.417  -4.017 -14.600  1.00  0.00     0.055 A 
ATOM     81  C   UNL     1       0.248  -3.883 -12.503  1.00  0.00     0.041 A 
ATOM     82  F   UNL     1       0.178  -1.849 -11.339  1.00  0.00    -0.206 F 
ATOM     83  C   UNL     1       0.644  -4.628 -13.610  1.00  0.00     0.022 A 
BRANCH  80  84
ATOM     84  S   UNL     1       1.852  -4.929 -16.106  1.00  0.00     0.124 S 
ATOM     85  O   UNL     1       1.236  -4.107 -17.140  1.00  0.00    -0.237 OA
ATOM     86  O   UNL     1       3.311  -4.914 -16.057  1.00  0.00    -0.237 OA
ATOM     87  O   UNL     1       1.238  -6.239 -15.899  1.00  0.00    -0.744 OA
ENDBRANCH  80  84
ENDBRANCH  53  77
BRANCH  65  88
ATOM     88  C   UNL     1      -0.269   3.632 -17.272  1.00  0.00     0.023 A 
ATOM     89  C   UNL     1      -1.653   3.391 -17.327  1.00  0.00     0.031 A 
ATOM     90  C   UNL     1       0.386   4.000 -18.462  1.00  0.00     0.131 A 
ATOM     91  C   UNL     1      -2.329   3.470 -18.555  1.00  0.00     0.055 A 
ATOM     92  C   UNL     1      -0.302   4.132 -19.669  1.00  0.00     0.041 A 
ATOM     93  F   UNL     1       1.707   4.240 -18.468  1.00  0.00    -0.206 F 
ATOM     94  C   UNL     1      -1.665   3.854 -19.723  1.00  0.00     0.022 A 
BRANCH  91  95
ATOM     95  S   UNL     1      -4.076   2.985 -18.623  1.00  0.00     0.124 S 
ATOM     96  O   UNL     1      -4.023   1.598 -18.172  1.00  0.00    -0.237 OA
ATOM     97  O   UNL     1      -4.699   3.931 -17.703  1.00  0.00    -0.237 OA
ATOM     98  O   UNL     1      -4.428   3.167 -20.030  1.00  0.00    -0.744 OA
ENDBRANCH  91  95
ENDBRANCH  65  88
ENDBRANCH  39  40
ENDBRANCH  31  34
ENDBRANCH  29  30
ENDBRANCH   1  29
TORSDOF 16
