REMARK SMILES O=C(NCCCCNC(=O)c1ccccc1Nc1cccc(S(F)(F)(F)(F)F)c1)c1ccc(-c2c3nc(c(-c4cc(S(=O)(=O)[O-])ccc4F)c4ccc([nH]4)c(-c4cc(S(=O)(=O)[O-])ccc4F)c4nc(c(-c5cc(S(=O)(=O)[O-])ccc5F)c5ccc2[nH]5)C=C4)C=C3)cc1
REMARK SMILES IDX 5 1 4 2 3 3 1 4 2 5 30 7 31 8 92 9 32 10 91 11 33 12 34 13
REMARK SMILES IDX 35 14 85 15 36 16 90 17 84 18 86 19 37 20 89 21 83 22 82 23
REMARK SMILES IDX 38 25 70 26 50 27 69 28 51 29 54 30 68 31 87 32 52 33 53 34
REMARK SMILES IDX 67 36 88 37 55 38 39 39 40 40 48 41 41 42 47 43 49 44 46 45
REMARK SMILES IDX 42 46 43 47 44 48 45 49 71 50 72 51 80 52 73 53 79 54 81 55
REMARK SMILES IDX 78 56 74 57 75 58 76 59 77 60 56 61 57 62 65 63 58 64 64 65
REMARK SMILES IDX 66 66 63 67 59 68 60 69 61 70 62 71 6 72 7 73 8 74 9 75
REMARK SMILES IDX 10 77 11 78 12 79 16 80 13 81 15 82 14 83 17 84 18 86 19 87
REMARK SMILES IDX 29 88 20 89 22 90 21 91 23 92 24 93 25 94 26 95 27 96 28 97
REMARK H PARENT 3 6 86 24 54 35 8 76 17 85
REMARK Flexibility Score: inf
ROOT
ATOM      1  C   UNL     1       4.955   2.250   0.520  1.00  0.00     0.023 C 
ENDROOT
BRANCH   1   2
ATOM      2  C   UNL     1       4.448   0.881   0.944  1.00  0.00     0.116 C 
BRANCH   2   3
ATOM      3  N   UNL     1       2.978   0.881   0.944  1.00  0.00    -0.352 N 
ATOM      4  O   UNL     1       0.972  -0.053   0.080  1.00  0.00    -0.269 OA
ATOM      5  C   UNL     1       2.243  -0.053   0.080  1.00  0.00     0.251 C 
ATOM      6  H   UNL     1       2.486   1.507   1.523  1.00  0.00     0.163 HD
BRANCH   5   7
ATOM      7  C   UNL     1       3.003  -1.020  -0.814  1.00  0.00     0.039 A 
ATOM      8  C   UNL     1       3.994  -1.751  -0.179  1.00  0.00     0.014 A 
ATOM      9  C   UNL     1       2.691  -1.241  -2.085  1.00  0.00     0.014 A 
ATOM     10  C   UNL     1       4.804  -2.505  -1.062  1.00  0.00     0.010 A 
ATOM     11  C   UNL     1       3.446  -2.095  -2.853  1.00  0.00     0.010 A 
ATOM     12  C   UNL     1       4.477  -2.806  -2.305  1.00  0.00    -0.014 A 
BRANCH  12  13
ATOM     13  C   UNL     1       5.209  -3.885  -3.086  1.00  0.00     0.031 A 
ATOM     14  C   UNL     1       5.879  -3.600  -4.277  1.00  0.00     0.074 A 
ATOM     15  C   UNL     1       5.049  -5.162  -2.575  1.00  0.00     0.049 A 
ATOM     16  N   UNL     1       6.493  -4.460  -5.091  1.00  0.00    -0.248 NA
ATOM     17  C   UNL     1       6.021  -2.249  -4.839  1.00  0.00     0.031 C 
ATOM     18  C   UNL     1       4.382  -5.457  -1.370  1.00  0.00     0.029 A 
ATOM     19  N   UNL     1       5.488  -6.350  -3.115  1.00  0.00    -0.354 N 
ATOM     20  C   UNL     1       7.037  -3.810  -6.122  1.00  0.00     0.074 A 
ATOM     21  C   UNL     1       6.737  -2.380  -5.978  1.00  0.00     0.031 C 
ATOM     22  C   UNL     1       4.408  -6.804  -1.192  1.00  0.00     0.029 A 
ATOM     23  C   UNL     1       5.092  -7.373  -2.283  1.00  0.00     0.049 A 
ATOM     24  H   UNL     1       5.996  -6.451  -3.952  1.00  0.00     0.167 HD
ATOM     25  C   UNL     1       7.774  -4.355  -7.175  1.00  0.00     0.034 A 
ATOM     26  C   UNL     1       5.305  -8.733  -2.449  1.00  0.00     0.034 A 
ATOM     27  C   UNL     1       8.024  -5.710  -7.318  1.00  0.00     0.049 A 
ATOM     28  C   UNL     1       5.992  -9.283  -3.533  1.00  0.00     0.074 A 
ATOM     29  C   UNL     1       8.771  -6.275  -8.370  1.00  0.00     0.029 A 
ATOM     30  N   UNL     1       7.607  -6.736  -6.499  1.00  0.00    -0.354 N 
ATOM     31  N   UNL     1       6.570  -8.630  -4.542  1.00  0.00    -0.248 NA
ATOM     32  C   UNL     1       6.196 -10.724  -3.736  1.00  0.00     0.031 C 
ATOM     33  C   UNL     1       8.798  -7.623  -8.192  1.00  0.00     0.029 A 
ATOM     34  C   UNL     1       8.066  -7.922  -7.027  1.00  0.00     0.049 A 
ATOM     35  H   UNL     1       7.074  -6.638  -5.677  1.00  0.00     0.167 HD
ATOM     36  C   UNL     1       7.148  -9.495  -5.379  1.00  0.00     0.074 A 
ATOM     37  C   UNL     1       6.909 -10.855  -4.876  1.00  0.00     0.031 C 
ATOM     38  C   UNL     1       7.868  -9.204  -6.539  1.00  0.00     0.034 A 
BRANCH  25  39
ATOM     39  C   UNL     1       8.334  -3.408  -8.224  1.00  0.00     0.023 A 
ATOM     40  C   UNL     1       9.327  -2.479  -7.958  1.00  0.00     0.031 A 
ATOM     41  C   UNL     1       7.909  -3.626  -9.463  1.00  0.00     0.131 A 
ATOM     42  C   UNL     1       9.610  -1.616  -9.043  1.00  0.00     0.055 A 
ATOM     43  C   UNL     1       8.333  -2.828 -10.499  1.00  0.00     0.041 A 
ATOM     44  F   UNL     1       7.066  -4.626  -9.704  1.00  0.00    -0.206 F 
ATOM     45  C   UNL     1       9.268  -1.852 -10.297  1.00  0.00     0.022 A 
BRANCH  42  46
ATOM     46  S   UNL     1      10.503  -0.083  -8.688  1.00  0.00     0.124 S 
ATOM     47  O   UNL     1       9.693   0.764  -7.704  1.00  0.00    -0.237 OA
ATOM     48  O   UNL     1      11.865  -0.416  -8.074  1.00  0.00    -0.237 OA
ATOM     49  O   UNL     1      10.732   0.793 -10.139  1.00  0.00    -0.744 OA
ENDBRANCH  42  46
ENDBRANCH  25  39
BRANCH  26  50
ATOM     50  C   UNL     1       4.760  -9.678  -1.391  1.00  0.00     0.023 A 
ATOM     51  C   UNL     1       5.573 -10.627  -0.793  1.00  0.00     0.031 A 
ATOM     52  C   UNL     1       3.447  -9.669  -1.187  1.00  0.00     0.131 A 
ATOM     53  C   UNL     1       4.865 -11.711  -0.222  1.00  0.00     0.055 A 
ATOM     54  C   UNL     1       2.839 -10.693  -0.502  1.00  0.00     0.041 A 
ATOM     55  F   UNL     1       2.716  -8.661  -1.651  1.00  0.00    -0.206 F 
ATOM     56  C   UNL     1       3.576 -11.696   0.064  1.00  0.00     0.022 A 
BRANCH  53  57
ATOM     57  S   UNL     1       5.791 -13.223   0.142  1.00  0.00     0.124 S 
ATOM     58  O   UNL     1       6.395 -13.775  -1.151  1.00  0.00    -0.237 OA
ATOM     59  O   UNL     1       6.912 -12.908   1.135  1.00  0.00    -0.237 OA
ATOM     60  O   UNL     1       4.738 -14.386   0.822  1.00  0.00    -0.744 OA
ENDBRANCH  53  57
ENDBRANCH  26  50
BRANCH  38  61
ATOM     61  C   UNL     1       8.472 -10.365  -7.313  1.00  0.00     0.023 A 
ATOM     62  C   UNL     1       7.543 -11.231  -7.864  1.00  0.00     0.031 A 
ATOM     63  C   UNL     1       9.771 -10.508  -7.548  1.00  0.00     0.131 A 
ATOM     64  C   UNL     1       8.110 -12.402  -8.421  1.00  0.00     0.055 A 
ATOM     65  C   UNL     1      10.243 -11.611  -8.218  1.00  0.00     0.041 A 
ATOM     66  F   UNL     1      10.623  -9.576  -7.130  1.00  0.00    -0.206 F 
ATOM     67  C   UNL     1       9.384 -12.539  -8.738  1.00  0.00     0.022 A 
BRANCH  64  68
ATOM     68  S   UNL     1       7.012 -13.809  -8.721  1.00  0.00     0.124 S 
ATOM     69  O   UNL     1       6.385 -14.257  -7.399  1.00  0.00    -0.237 OA
ATOM     70  O   UNL     1       5.907 -13.396  -9.695  1.00  0.00    -0.237 OA
ATOM     71  O   UNL     1       7.910 -15.100  -9.392  1.00  0.00    -0.744 OA
ENDBRANCH  64  68
ENDBRANCH  38  61
ENDBRANCH  12  13
ENDBRANCH   5   7
ENDBRANCH   2   3
ENDBRANCH   1   2
BRANCH   1  72
ATOM     72  C   UNL     1       4.448   3.302   1.493  1.00  0.00     0.023 C 
BRANCH  72  73
ATOM     73  C   UNL     1       4.955   2.986   2.890  1.00  0.00     0.116 C 
BRANCH  73  74
ATOM     74  N   UNL     1       6.425   2.986   2.890  1.00  0.00    -0.352 N 
ATOM     75  C   UNL     1       7.160   3.920   3.755  1.00  0.00     0.253 C 
ATOM     76  H   UNL     1       6.917   2.360   2.312  1.00  0.00     0.163 HD
ATOM     77  O   UNL     1       8.431   3.920   3.755  1.00  0.00    -0.269 OA
BRANCH  75  78
ATOM     78  C   UNL     1       6.400   4.887   4.649  1.00  0.00     0.063 A 
ATOM     79  C   UNL     1       6.925   6.162   4.775  1.00  0.00     0.016 A 
ATOM     80  C   UNL     1       5.359   4.495   5.374  1.00  0.00     0.051 A 
ATOM     81  C   UNL     1       6.459   6.864   5.912  1.00  0.00     0.001 A 
ATOM     82  C   UNL     1       4.870   5.292   6.381  1.00  0.00     0.027 A 
ATOM     83  C   UNL     1       5.380   6.541   6.601  1.00  0.00     0.002 A 
BRANCH  80  84
ATOM     84  N   UNL     1       4.724   3.198   5.098  1.00  0.00    -0.355 N 
ATOM     85  H   UNL     1       5.072   2.624   4.378  1.00  0.00     0.167 HD
BRANCH  84  86
ATOM     86  C   UNL     1       3.572   2.759   5.898  1.00  0.00     0.040 A 
ATOM     87  C   UNL     1       3.634   1.571   6.607  1.00  0.00     0.026 A 
ATOM     88  C   UNL     1       2.474   3.505   5.899  1.00  0.00     0.050 A 
ATOM     89  C   UNL     1       2.376   1.106   7.058  1.00  0.00     0.004 A 
ATOM     90  C   UNL     1       1.316   3.045   6.478  1.00  0.00     0.109 A 
ATOM     91  C   UNL     1       1.289   1.852   7.145  1.00  0.00     0.024 A 
BRANCH  90  92
ATOM     92  S   UNL     1      -0.196   4.033   6.357  1.00  0.00     0.310 S 
ATOM     93  F   UNL     1      -0.392   4.042   7.931  1.00  0.00    -0.094 F 
ATOM     94  F   UNL     1      -1.034   2.699   6.329  1.00  0.00    -0.094 F 
ATOM     95  F   UNL     1      -1.494   4.883   6.252  1.00  0.00    -0.094 F 
ATOM     96  F   UNL     1       0.648   5.357   6.527  1.00  0.00    -0.094 F 
ATOM     97  F   UNL     1       1.119   3.184   6.577  1.00  0.00    -0.094 F 
ENDBRANCH  90  92
ENDBRANCH  84  86
ENDBRANCH  80  84
ENDBRANCH  75  78
ENDBRANCH  73  74
ENDBRANCH  72  73
ENDBRANCH   1  72
TORSDOF 17
