REMARK SMILES O=C(NCCCCNC(=O)[C@@H](Cc1ccccc1)/N=C1\C(=O)c2ccccc2C(=O)[C@H]1Cl)c1ccc(-c2c3nc(c(-c4cc(S(=O)(=O)[O-])ccc4F)c4ccc([nH]4)c(-c4cc(S(=O)(=O)[O-])ccc4F)c4nc(c(-c5cc(S(=O)(=O)[O-])ccc5F)c5ccc2[nH]5)C=C4)C=C3)cc1
REMARK SMILES IDX 5 1 4 2 3 3 1 4 2 5 33 7 34 8 95 9 35 10 94 11 36 12 37 13
REMARK SMILES IDX 38 14 88 15 39 16 93 17 87 18 89 19 40 20 92 21 86 22 85 23
REMARK SMILES IDX 41 25 73 26 53 27 72 28 54 29 57 30 71 31 90 32 55 33 56 34
REMARK SMILES IDX 70 36 91 37 58 38 42 39 43 40 51 41 44 42 50 43 52 44 49 45
REMARK SMILES IDX 45 46 46 47 47 48 48 49 74 50 75 51 83 52 76 53 82 54 84 55
REMARK SMILES IDX 81 56 77 57 78 58 79 59 80 60 59 61 60 62 68 63 61 64 67 65
REMARK SMILES IDX 69 66 66 67 62 68 63 69 64 70 65 71 6 72 7 73 8 74 9 75
REMARK SMILES IDX 10 77 11 78 12 79 13 80 14 81 18 82 15 83 17 84 16 85 19 86
REMARK SMILES IDX 20 87 21 88 31 89 22 90 23 91 29 92 32 93 24 94 28 95 30 96
REMARK SMILES IDX 25 97 27 98 26 99
REMARK H PARENT 3 6 89 24 57 35 8 76
REMARK Flexibility Score: inf
ROOT
ATOM      1  C   UNL     1       6.459   0.573  -2.143  1.00  0.00     0.023 C 
ENDROOT
BRANCH   1   2
ATOM      2  C   UNL     1       5.487   0.255  -1.004  1.00  0.00     0.116 C 
BRANCH   2   3
ATOM      3  N   UNL     1       4.067   0.498  -1.244  1.00  0.00    -0.352 N 
ATOM      4  O   UNL     1       1.839   0.086  -0.979  1.00  0.00    -0.269 OA
ATOM      5  C   UNL     1       3.000  -0.246  -0.762  1.00  0.00     0.251 C 
ATOM      6  H   UNL     1       3.843   1.273  -1.807  1.00  0.00     0.163 HD
BRANCH   5   7
ATOM      7  C   UNL     1       3.290  -1.489  -0.006  1.00  0.00     0.039 A 
ATOM      8  C   UNL     1       4.186  -1.453   1.062  1.00  0.00     0.014 A 
ATOM      9  C   UNL     1       2.817  -2.712  -0.490  1.00  0.00     0.014 A 
ATOM     10  C   UNL     1       4.819  -2.628   1.448  1.00  0.00     0.010 A 
ATOM     11  C   UNL     1       3.374  -3.903  -0.011  1.00  0.00     0.010 A 
ATOM     12  C   UNL     1       4.448  -3.866   0.893  1.00  0.00    -0.014 A 
BRANCH  12  13
ATOM     13  C   UNL     1       5.251  -5.082   1.216  1.00  0.00     0.031 A 
ATOM     14  C   UNL     1       5.980  -5.838   0.128  1.00  0.00     0.074 A 
ATOM     15  C   UNL     1       5.396  -5.455   2.504  1.00  0.00     0.049 A 
ATOM     16  N   UNL     1       6.699  -6.930   0.216  1.00  0.00    -0.248 NA
ATOM     17  C   UNL     1       5.883  -5.304  -1.240  1.00  0.00     0.031 C 
ATOM     18  C   UNL     1       4.769  -4.784   3.646  1.00  0.00     0.029 A 
ATOM     19  N   UNL     1       6.132  -6.460   3.075  1.00  0.00    -0.354 N 
ATOM     20  C   UNL     1       7.106  -7.234  -1.082  1.00  0.00     0.074 A 
ATOM     21  C   UNL     1       6.535  -6.220  -1.942  1.00  0.00     0.031 C 
ATOM     22  C   UNL     1       5.194  -5.357   4.780  1.00  0.00     0.029 A 
ATOM     23  C   UNL     1       6.044  -6.494   4.448  1.00  0.00     0.049 A 
ATOM     24  H   UNL     1       6.672  -7.097   2.554  1.00  0.00     0.167 HD
ATOM     25  C   UNL     1       7.883  -8.261  -1.513  1.00  0.00     0.034 A 
ATOM     26  C   UNL     1       6.556  -7.362   5.342  1.00  0.00     0.034 A 
ATOM     27  C   UNL     1       8.471  -9.245  -0.634  1.00  0.00     0.049 A 
ATOM     28  C   UNL     1       7.390  -8.506   4.837  1.00  0.00     0.074 A 
ATOM     29  C   UNL     1       9.283 -10.319  -0.958  1.00  0.00     0.029 A 
ATOM     30  N   UNL     1       8.314  -9.274   0.747  1.00  0.00    -0.354 N 
ATOM     31  N   UNL     1       7.726  -8.798   3.601  1.00  0.00    -0.248 NA
ATOM     32  C   UNL     1       7.908  -9.439   5.843  1.00  0.00     0.031 C 
ATOM     33  C   UNL     1       9.567 -11.028   0.216  1.00  0.00     0.029 A 
ATOM     34  C   UNL     1       8.991 -10.359   1.283  1.00  0.00     0.049 A 
ATOM     35  H   UNL     1       7.796  -8.619   1.269  1.00  0.00     0.167 HD
ATOM     36  C   UNL     1       8.500  -9.951   3.684  1.00  0.00     0.074 A 
ATOM     37  C   UNL     1       8.608 -10.276   5.093  1.00  0.00     0.031 C 
ATOM     38  C   UNL     1       9.064 -10.681   2.688  1.00  0.00     0.034 A 
BRANCH  25  39
ATOM     39  C   UNL     1       8.098  -8.406  -3.004  1.00  0.00     0.023 A 
ATOM     40  C   UNL     1       8.808  -7.455  -3.757  1.00  0.00     0.031 A 
ATOM     41  C   UNL     1       7.575  -9.523  -3.684  1.00  0.00     0.131 A 
ATOM     42  C   UNL     1       8.926  -7.608  -5.149  1.00  0.00     0.055 A 
ATOM     43  C   UNL     1       7.758  -9.706  -5.057  1.00  0.00     0.041 A 
ATOM     44  F   UNL     1       6.871 -10.456  -3.024  1.00  0.00    -0.206 F 
ATOM     45  C   UNL     1       8.427  -8.739  -5.800  1.00  0.00     0.022 A 
BRANCH  42  46
ATOM     46  S   UNL     1       9.636  -6.248  -6.119  1.00  0.00     0.124 S 
ATOM     47  O   UNL     1       8.731  -5.148  -5.793  1.00  0.00    -0.237 OA
ATOM     48  O   UNL     1      10.986  -6.146  -5.577  1.00  0.00    -0.237 OA
ATOM     49  O   UNL     1       9.552  -6.727  -7.497  1.00  0.00    -0.744 OA
ENDBRANCH  42  46
ENDBRANCH  25  39
BRANCH  26  50
ATOM     50  C   UNL     1       6.240  -7.215   6.792  1.00  0.00     0.023 A 
ATOM     51  C   UNL     1       7.245  -6.964   7.737  1.00  0.00     0.031 A 
ATOM     52  C   UNL     1       4.916  -7.341   7.254  1.00  0.00     0.131 A 
ATOM     53  C   UNL     1       6.916  -6.876   9.099  1.00  0.00     0.055 A 
ATOM     54  C   UNL     1       4.586  -7.196   8.601  1.00  0.00     0.041 A 
ATOM     55  F   UNL     1       3.915  -7.581   6.392  1.00  0.00    -0.206 F 
ATOM     56  C   UNL     1       5.592  -6.973   9.535  1.00  0.00     0.022 A 
BRANCH  53  57
ATOM     57  S   UNL     1       8.256  -6.710  10.309  1.00  0.00     0.124 S 
ATOM     58  O   UNL     1       9.082  -7.872  10.002  1.00  0.00    -0.237 OA
ATOM     59  O   UNL     1       8.820  -5.411   9.958  1.00  0.00    -0.237 OA
ATOM     60  O   UNL     1       7.562  -6.759  11.595  1.00  0.00    -0.744 OA
ENDBRANCH  53  57
ENDBRANCH  26  50
BRANCH  38  61
ATOM     61  C   UNL     1       9.861 -11.888   3.113  1.00  0.00     0.023 A 
ATOM     62  C   UNL     1       9.240 -13.006   3.696  1.00  0.00     0.031 A 
ATOM     63  C   UNL     1      11.259 -11.900   2.977  1.00  0.00     0.131 A 
ATOM     64  C   UNL     1      10.022 -14.060   4.188  1.00  0.00     0.055 A 
ATOM     65  C   UNL     1      12.028 -12.979   3.413  1.00  0.00     0.041 A 
ATOM     66  F   UNL     1      11.902 -10.856   2.428  1.00  0.00    -0.206 F 
ATOM     67  C   UNL     1      11.412 -14.061   4.037  1.00  0.00     0.022 A 
BRANCH  64  68
ATOM     68  S   UNL     1       9.207 -15.382   5.124  1.00  0.00     0.124 S 
ATOM     69  O   UNL     1       8.584 -14.640   6.215  1.00  0.00    -0.237 OA
ATOM     70  O   UNL     1       8.296 -15.949   4.136  1.00  0.00    -0.237 OA
ATOM     71  O   UNL     1      10.312 -16.254   5.519  1.00  0.00    -0.744 OA
ENDBRANCH  64  68
ENDBRANCH  38  61
ENDBRANCH  12  13
ENDBRANCH   5   7
ENDBRANCH   2   3
ENDBRANCH   1   2
BRANCH   1  72
ATOM     72  C   UNL     1       6.471   1.988  -2.726  1.00  0.00     0.023 C 
BRANCH  72  73
ATOM     73  C   UNL     1       6.358   3.092  -1.685  1.00  0.00     0.116 C 
BRANCH  73  74
ATOM     74  N   UNL     1       7.409   4.081  -1.651  1.00  0.00    -0.354 N 
ATOM     75  C   UNL     1       7.265   5.316  -1.067  1.00  0.00     0.245 C 
ATOM     76  H   UNL     1       8.273   3.859  -2.067  1.00  0.00     0.163 HD
ATOM     77  O   UNL     1       8.190   5.698  -0.337  1.00  0.00    -0.273 OA
BRANCH  75  78
ATOM     78  C   UNL     1       6.107   6.277  -1.423  1.00  0.00     0.199 C 
BRANCH  78  79
ATOM     79  C   UNL     1       5.537   6.322  -2.853  1.00  0.00     0.073 C 
BRANCH  79  80
ATOM     80  C   UNL     1       4.284   5.541  -3.158  1.00  0.00    -0.045 A 
ATOM     81  C   UNL     1       3.048   5.899  -2.606  1.00  0.00     0.004 A 
ATOM     82  C   UNL     1       4.337   4.451  -4.035  1.00  0.00     0.004 A 
ATOM     83  C   UNL     1       1.918   5.111  -2.829  1.00  0.00     0.000 A 
ATOM     84  C   UNL     1       3.212   3.658  -4.253  1.00  0.00     0.000 A 
ATOM     85  C   UNL     1       2.008   3.976  -3.632  1.00  0.00     0.000 A 
ENDBRANCH  79  80
ENDBRANCH  78  79
BRANCH  78  86
ATOM     86  N   UNL     1       5.181   6.745  -0.377  1.00  0.00    -0.270 NA
ATOM     87  C   UNL     1       4.371   6.177   0.436  1.00  0.00     0.109 C 
ATOM     88  C   UNL     1       4.118   4.708   0.629  1.00  0.00     0.209 C 
ATOM     89  C   UNL     1       3.503   7.051   1.304  1.00  0.00     0.205 C 
ATOM     90  O   UNL     1       5.010   3.908   0.464  1.00  0.00    -0.287 OA
ATOM     91  C   UNL     1       2.794   4.259   1.106  1.00  0.00     0.035 A 
ATOM     92  C   UNL     1       2.054   6.624   1.319  1.00  0.00     0.187 C 
ATOM     93  Cl  UNL     1       4.126   6.997   2.973  1.00  0.00    -0.107 Cl
ATOM     94  C   UNL     1       2.568   2.889   1.289  1.00  0.00     0.013 A 
ATOM     95  C   UNL     1       1.776   5.170   1.374  1.00  0.00     0.031 A 
ATOM     96  O   UNL     1       1.123   7.425   1.337  1.00  0.00    -0.292 OA
ATOM     97  C   UNL     1       1.311   2.429   1.678  1.00  0.00     0.001 A 
ATOM     98  C   UNL     1       0.504   4.708   1.743  1.00  0.00     0.012 A 
ATOM     99  C   UNL     1       0.273   3.337   1.884  1.00  0.00     0.001 A 
ENDBRANCH  78  86
ENDBRANCH  75  78
ENDBRANCH  73  74
ENDBRANCH  72  73
ENDBRANCH   1  72
TORSDOF 17
