REMARK SMILES Cc1ccc(Nc2c(Cl)cc(Cl)cc2Cl)c(CC(=O)NCCCCNC(=O)c2ccc(-c3c4nc(c(-c5cc(S(=O)(=O)[O-])ccc5F)c5ccc([nH]5)c(-c5cc(S(=O)(=O)[O-])ccc5F)c5nc(c(-c6cc(S(=O)(=O)[O-])ccc6F)c6ccc3[nH]6)C=C5)C=C4)cc2)c1
REMARK SMILES IDX 22 1 21 2 20 3 18 4 19 5 17 7 16 8 1 9 2 10 3 11 91 12 4 13
REMARK SMILES IDX 5 14 6 15 7 17 8 18 14 19 9 20 10 21 13 22 15 23 11 24 12 25
REMARK SMILES IDX 23 26 24 27 25 28 26 29 27 31 28 32 29 33 90 34 30 35 89 36
REMARK SMILES IDX 31 37 32 38 33 39 83 40 34 41 88 42 82 43 84 44 35 45 87 46
REMARK SMILES IDX 81 47 80 48 36 50 68 51 48 52 67 53 49 54 52 55 66 56 85 57
REMARK SMILES IDX 50 58 51 59 65 61 86 62 53 63 37 64 38 65 46 66 39 67 45 68
REMARK SMILES IDX 47 69 44 70 40 71 41 72 42 73 43 74 69 75 70 76 78 77 71 78
REMARK SMILES IDX 77 79 79 80 76 81 72 82 73 83 74 84 75 85 54 86 55 87 63 88
REMARK SMILES IDX 56 89 62 90 64 91 61 92 57 93 58 94 59 95 60 96
REMARK H PARENT 20 6 6 16 25 30 84 49 52 60
REMARK Flexibility Score: inf
ROOT
ATOM      1  C   UNL     1      -0.076   1.129  -3.155  1.00  0.00     0.023 C 
ENDROOT
BRANCH   1   2
ATOM      2  C   UNL     1      -0.501   2.551  -2.753  1.00  0.00     0.116 C 
BRANCH   2   3
ATOM      3  N   UNL     1      -1.921   2.645  -2.424  1.00  0.00    -0.356 N 
ATOM      4  C   UNL     1      -2.540   2.533  -1.215  1.00  0.00     0.224 C 
ATOM      5  O   UNL     1      -3.775   2.503  -1.177  1.00  0.00    -0.275 OA
ATOM      6  H   UNL     1      -2.519   2.813  -3.188  1.00  0.00     0.163 HD
BRANCH   4   7
ATOM      7  C   UNL     1      -1.741   2.405   0.069  1.00  0.00     0.137 C 
BRANCH   7   8
ATOM      8  C   UNL     1      -1.050   1.067   0.208  1.00  0.00    -0.015 A 
ATOM      9  C   UNL     1       2.600  -0.053   0.168  1.00  0.00     0.044 C 
ATOM     10  C   UNL     1       1.103  -0.098   0.245  1.00  0.00    -0.051 A 
ATOM     11  C   UNL     1       0.425  -1.312   0.180  1.00  0.00     0.005 A 
ATOM     12  C   UNL     1       0.359   1.082   0.294  1.00  0.00     0.009 A 
ATOM     13  C   UNL     1      -0.974  -1.343   0.152  1.00  0.00     0.026 A 
ATOM     14  C   UNL     1      -1.740  -0.165   0.151  1.00  0.00     0.042 A 
BRANCH  14  15
ATOM     15  N   UNL     1      -3.156  -0.210   0.115  1.00  0.00    -0.353 N 
ATOM     16  H   UNL     1      -3.605   0.665   0.072  1.00  0.00     0.167 HD
BRANCH  15  17
ATOM     17  C   UNL     1      -4.017  -1.335   0.133  1.00  0.00     0.076 A 
ATOM     18  C   UNL     1      -4.044  -2.264   1.192  1.00  0.00     0.067 A 
ATOM     19  C   UNL     1      -4.832  -1.606  -0.988  1.00  0.00     0.067 A 
ATOM     20  Cl  UNL     1      -3.189  -2.000   2.676  1.00  0.00    -0.082 Cl
ATOM     21  C   UNL     1      -4.825  -3.424   1.118  1.00  0.00     0.043 A 
ATOM     22  C   UNL     1      -5.619  -2.759  -1.060  1.00  0.00     0.043 A 
ATOM     23  Cl  UNL     1      -4.875  -0.533  -2.346  1.00  0.00    -0.082 Cl
ATOM     24  C   UNL     1      -5.601  -3.667  -0.009  1.00  0.00     0.044 A 
ATOM     25  Cl  UNL     1      -6.549  -5.099  -0.101  1.00  0.00    -0.084 Cl
ENDBRANCH  15  17
ENDBRANCH  14  15
ENDBRANCH   7   8
ENDBRANCH   4   7
ENDBRANCH   2   3
ENDBRANCH   1   2
BRANCH   1  26
ATOM     26  C   UNL     1      -0.794   0.539  -4.367  1.00  0.00     0.023 C 
BRANCH  26  27
ATOM     27  C   UNL     1      -0.464   1.244  -5.674  1.00  0.00     0.116 C 
BRANCH  27  28
ATOM     28  N   UNL     1       0.510   0.557  -6.513  1.00  0.00    -0.352 N 
ATOM     29  C   UNL     1       0.994   0.949  -7.753  1.00  0.00     0.251 C 
ATOM     30  H   UNL     1       0.868  -0.288  -6.157  1.00  0.00     0.163 HD
ATOM     31  O   UNL     1       1.744   0.247  -8.409  1.00  0.00    -0.269 OA
BRANCH  29  32
ATOM     32  C   UNL     1       0.681   2.326  -8.210  1.00  0.00     0.039 A 
ATOM     33  C   UNL     1       1.767   3.185  -8.406  1.00  0.00     0.014 A 
ATOM     34  C   UNL     1      -0.619   2.824  -8.154  1.00  0.00     0.014 A 
ATOM     35  C   UNL     1       1.576   4.558  -8.291  1.00  0.00     0.010 A 
ATOM     36  C   UNL     1      -0.796   4.181  -7.952  1.00  0.00     0.010 A 
ATOM     37  C   UNL     1       0.313   5.035  -7.940  1.00  0.00    -0.014 A 
BRANCH  37  38
ATOM     38  C   UNL     1       0.104   6.369  -7.383  1.00  0.00     0.031 A 
ATOM     39  C   UNL     1      -0.573   7.422  -8.164  1.00  0.00     0.074 A 
ATOM     40  C   UNL     1       0.525   6.650  -6.128  1.00  0.00     0.049 A 
ATOM     41  N   UNL     1      -0.513   8.678  -7.875  1.00  0.00    -0.248 NA
ATOM     42  C   UNL     1      -1.300   7.156  -9.402  1.00  0.00     0.031 C 
ATOM     43  C   UNL     1       0.197   7.820  -5.317  1.00  0.00     0.029 A 
ATOM     44  N   UNL     1       1.604   6.064  -5.467  1.00  0.00    -0.354 N 
ATOM     45  C   UNL     1      -1.427   9.329  -8.661  1.00  0.00     0.074 A 
ATOM     46  C   UNL     1      -1.762   8.378  -9.689  1.00  0.00     0.031 C 
ATOM     47  C   UNL     1       1.200   8.043  -4.456  1.00  0.00     0.029 A 
ATOM     48  C   UNL     1       2.257   7.102  -4.769  1.00  0.00     0.049 A 
ATOM     49  H   UNL     1       1.859   5.113  -5.483  1.00  0.00     0.167 HD
ATOM     50  C   UNL     1      -1.894  10.542  -8.253  1.00  0.00     0.034 A 
ATOM     51  C   UNL     1       3.558   7.416  -5.040  1.00  0.00     0.034 A 
ATOM     52  C   UNL     1      -1.009  11.149  -7.248  1.00  0.00     0.049 A 
ATOM     53  C   UNL     1       3.766   8.837  -5.533  1.00  0.00     0.074 A 
ATOM     54  C   UNL     1      -1.109  11.499  -5.912  1.00  0.00     0.029 A 
ATOM     55  N   UNL     1       0.332  11.312  -7.575  1.00  0.00    -0.354 N 
ATOM     56  N   UNL     1       2.813   9.717  -5.686  1.00  0.00    -0.248 NA
ATOM     57  C   UNL     1       5.061   9.345  -5.984  1.00  0.00     0.031 C 
ATOM     58  C   UNL     1       0.203  11.828  -5.439  1.00  0.00     0.029 A 
ATOM     59  C   UNL     1       1.089  11.716  -6.495  1.00  0.00     0.049 A 
ATOM     60  H   UNL     1       0.699  11.156  -8.475  1.00  0.00     0.167 HD
ATOM     61  C   UNL     1       3.314  10.837  -6.302  1.00  0.00     0.074 A 
ATOM     62  C   UNL     1       4.730  10.556  -6.464  1.00  0.00     0.031 C 
ATOM     63  C   UNL     1       2.526  11.888  -6.685  1.00  0.00     0.034 A 
BRANCH  50  64
ATOM     64  C   UNL     1      -3.238  11.127  -8.658  1.00  0.00     0.023 A 
ATOM     65  C   UNL     1      -3.634  12.373  -8.123  1.00  0.00     0.031 A 
ATOM     66  C   UNL     1      -4.227  10.474  -9.432  1.00  0.00     0.131 A 
ATOM     67  C   UNL     1      -4.924  12.898  -8.354  1.00  0.00     0.055 A 
ATOM     68  C   UNL     1      -5.481  11.028  -9.716  1.00  0.00     0.041 A 
ATOM     69  F   UNL     1      -4.081   9.232  -9.903  1.00  0.00    -0.206 F 
ATOM     70  C   UNL     1      -5.841  12.242  -9.169  1.00  0.00     0.022 A 
BRANCH  67  71
ATOM     71  S   UNL     1      -5.442  14.409  -7.494  1.00  0.00     0.124 S 
ATOM     72  O   UNL     1      -5.322  14.020  -6.093  1.00  0.00    -0.237 OA
ATOM     73  O   UNL     1      -4.479  15.389  -7.982  1.00  0.00    -0.237 OA
ATOM     74  O   UNL     1      -6.815  14.610  -7.959  1.00  0.00    -0.744 OA
ENDBRANCH  67  71
ENDBRANCH  50  64
BRANCH  51  75
ATOM     75  C   UNL     1       4.367   6.214  -5.408  1.00  0.00     0.023 A 
ATOM     76  C   UNL     1       4.341   5.136  -4.493  1.00  0.00     0.031 A 
ATOM     77  C   UNL     1       4.782   5.947  -6.718  1.00  0.00     0.131 A 
ATOM     78  C   UNL     1       4.511   3.821  -4.944  1.00  0.00     0.055 A 
ATOM     79  C   UNL     1       5.060   4.639  -7.139  1.00  0.00     0.041 A 
ATOM     80  F   UNL     1       4.796   6.914  -7.646  1.00  0.00    -0.206 F 
ATOM     81  C   UNL     1       4.872   3.564  -6.266  1.00  0.00     0.022 A 
BRANCH  78  82
ATOM     82  S   UNL     1       3.925   2.464  -3.879  1.00  0.00     0.124 S 
ATOM     83  O   UNL     1       5.125   2.122  -3.126  1.00  0.00    -0.237 OA
ATOM     84  O   UNL     1       2.850   3.092  -3.111  1.00  0.00    -0.237 OA
ATOM     85  O   UNL     1       3.465   1.458  -4.832  1.00  0.00    -0.744 OA
ENDBRANCH  78  82
ENDBRANCH  51  75
BRANCH  63  86
ATOM     86  C   UNL     1       3.061  13.143  -7.346  1.00  0.00     0.023 A 
ATOM     87  C   UNL     1       4.329  13.671  -7.050  1.00  0.00     0.031 A 
ATOM     88  C   UNL     1       2.281  13.893  -8.257  1.00  0.00     0.131 A 
ATOM     89  C   UNL     1       4.811  14.817  -7.710  1.00  0.00     0.055 A 
ATOM     90  C   UNL     1       2.731  15.076  -8.852  1.00  0.00     0.041 A 
ATOM     91  F   UNL     1       1.058  13.497  -8.636  1.00  0.00    -0.206 F 
ATOM     92  C   UNL     1       4.012  15.536  -8.596  1.00  0.00     0.022 A 
BRANCH  89  93
ATOM     93  S   UNL     1       6.535  15.312  -7.444  1.00  0.00     0.124 S 
ATOM     94  O   UNL     1       6.609  15.436  -5.992  1.00  0.00    -0.237 OA
ATOM     95  O   UNL     1       7.259  14.183  -8.021  1.00  0.00    -0.237 OA
ATOM     96  O   UNL     1       6.653  16.567  -8.183  1.00  0.00    -0.744 OA
ENDBRANCH  89  93
ENDBRANCH  63  86
ENDBRANCH  37  38
ENDBRANCH  29  32
ENDBRANCH  27  28
ENDBRANCH  26  27
ENDBRANCH   1  26
TORSDOF 17
