REMARK SMILES CCc1cc(OCC(=O)NCCCCNC(=O)c2ccc(-c3c4nc(c(-c5cc(S(=O)(=O)[O-])ccc5F)c5ccc([nH]5)c(-c5cc(S(=O)(=O)[O-])ccc5F)c5nc(c(-c6cc(S(=O)(=O)[O-])ccc6F)c6ccc3[nH]6)C=C5)C=C4)cc2)nc(Nc2ccc(C)c(F)c2)n1
REMARK SMILES IDX 12 1 11 2 10 3 8 4 9 5 7 7 6 8 5 9 3 10 4 11 92 12 82 13
REMARK SMILES IDX 81 14 2 15 1 16 83 17 84 19 85 20 91 21 86 22 89 23 87 24
REMARK SMILES IDX 90 25 88 26 13 27 14 28 15 29 16 30 17 32 18 33 19 34 80 35
REMARK SMILES IDX 20 36 79 37 21 38 22 39 23 40 73 41 24 42 78 43 72 44 74 45
REMARK SMILES IDX 25 46 77 47 71 48 70 49 26 51 58 52 38 53 57 54 39 55 42 56
REMARK SMILES IDX 56 57 75 58 40 59 41 60 55 62 76 63 43 64 27 65 28 66 36 67
REMARK SMILES IDX 29 68 35 69 37 70 34 71 30 72 31 73 32 74 33 75 59 76 60 77
REMARK SMILES IDX 68 78 61 79 67 80 69 81 66 82 62 83 63 84 64 85 65 86 44 87
REMARK SMILES IDX 45 88 53 89 46 90 52 91 54 92 51 93 47 94 48 95 49 96 50 97
REMARK H PARENT 10 6 83 18 15 31 74 50 42 61
REMARK Flexibility Score: inf
ROOT
ATOM      1  C   UNL     1      -2.057   5.853  -3.224  1.00  0.00     0.023 C 
ENDROOT
BRANCH   1   2
ATOM      2  C   UNL     1      -2.097   6.752  -1.990  1.00  0.00     0.116 C 
BRANCH   2   3
ATOM      3  N   UNL     1      -2.335   6.006  -0.769  1.00  0.00    -0.353 N 
ATOM      4  C   UNL     1      -1.474   5.773   0.261  1.00  0.00     0.258 C 
ATOM      5  O   UNL     1      -1.870   5.143   1.243  1.00  0.00    -0.271 OA
ATOM      6  H   UNL     1      -3.234   5.619  -0.671  1.00  0.00     0.163 HD
BRANCH   4   7
ATOM      7  C   UNL     1      -0.037   6.308   0.194  1.00  0.00     0.331 C 
BRANCH   7   8
ATOM      8  O   UNL     1       0.766   5.899  -0.898  1.00  0.00    -0.467 OA
BRANCH   8   9
ATOM      9  C   UNL     1       1.032   4.566  -1.042  1.00  0.00     0.218 A 
ATOM     10  C   UNL     1       0.970   2.291  -0.501  1.00  0.00     0.050 A 
ATOM     11  C   UNL     1       0.695   3.588  -0.135  1.00  0.00     0.092 A 
ATOM     12  N   UNL     1       1.569   2.004  -1.666  1.00  0.00    -0.218 NA
ATOM     13  C   UNL     1       1.921   3.014  -2.474  1.00  0.00     0.230 A 
ATOM     14  N   UNL     1       1.671   4.298  -2.196  1.00  0.00    -0.177 NA
BRANCH  10  15
ATOM     15  C   UNL     1       0.570   1.151   0.403  1.00  0.00     0.053 C 
ATOM     16  C   UNL     1       1.079  -0.214  -0.043  1.00  0.00     0.011 C 
ENDBRANCH  10  15
BRANCH  13  17
ATOM     17  N   UNL     1       2.668   2.742  -3.619  1.00  0.00    -0.324 N 
ATOM     18  H   UNL     1       2.971   3.526  -4.131  1.00  0.00     0.170 HD
BRANCH  17  19
ATOM     19  C   UNL     1       3.040   1.494  -4.130  1.00  0.00     0.044 A 
ATOM     20  C   UNL     1       4.371   1.261  -4.498  1.00  0.00     0.026 A 
ATOM     21  C   UNL     1       2.148   0.416  -4.159  1.00  0.00     0.065 A 
ATOM     22  C   UNL     1       4.804  -0.021  -4.861  1.00  0.00     0.008 A 
ATOM     23  C   UNL     1       2.576  -0.851  -4.538  1.00  0.00     0.128 A 
ATOM     24  C   UNL     1       3.906  -1.093  -4.880  1.00  0.00    -0.015 A 
ATOM     25  F   UNL     1       1.687  -1.855  -4.549  1.00  0.00    -0.207 F 
ATOM     26  C   UNL     1       4.376  -2.474  -5.217  1.00  0.00     0.047 C 
ENDBRANCH  17  19
ENDBRANCH  13  17
ENDBRANCH   8   9
ENDBRANCH   7   8
ENDBRANCH   4   7
ENDBRANCH   2   3
ENDBRANCH   1   2
BRANCH   1  27
ATOM     27  C   UNL     1      -3.346   5.077  -3.509  1.00  0.00     0.023 C 
BRANCH  27  28
ATOM     28  C   UNL     1      -4.624   5.909  -3.579  1.00  0.00     0.116 C 
BRANCH  28  29
ATOM     29  N   UNL     1      -4.577   6.944  -4.599  1.00  0.00    -0.352 N 
ATOM     30  C   UNL     1      -5.516   7.279  -5.546  1.00  0.00     0.251 C 
ATOM     31  H   UNL     1      -3.753   7.484  -4.614  1.00  0.00     0.163 HD
ATOM     32  O   UNL     1      -5.236   8.108  -6.408  1.00  0.00    -0.269 OA
BRANCH  30  33
ATOM     33  C   UNL     1      -6.841   6.616  -5.550  1.00  0.00     0.039 A 
ATOM     34  C   UNL     1      -7.360   6.156  -6.763  1.00  0.00     0.014 A 
ATOM     35  C   UNL     1      -7.565   6.437  -4.368  1.00  0.00     0.014 A 
ATOM     36  C   UNL     1      -8.567   5.451  -6.780  1.00  0.00     0.010 A 
ATOM     37  C   UNL     1      -8.730   5.671  -4.377  1.00  0.00     0.010 A 
ATOM     38  C   UNL     1      -9.242   5.165  -5.582  1.00  0.00    -0.014 A 
BRANCH  38  39
ATOM     39  C   UNL     1     -10.478   4.336  -5.570  1.00  0.00     0.031 A 
ATOM     40  C   UNL     1     -11.783   4.926  -5.109  1.00  0.00     0.074 A 
ATOM     41  C   UNL     1     -10.415   3.036  -5.920  1.00  0.00     0.049 A 
ATOM     42  N   UNL     1     -12.948   4.349  -4.958  1.00  0.00    -0.248 NA
ATOM     43  C   UNL     1     -11.766   6.350  -4.742  1.00  0.00     0.031 C 
ATOM     44  C   UNL     1      -9.205   2.337  -6.357  1.00  0.00     0.029 A 
ATOM     45  N   UNL     1     -11.387   2.067  -5.959  1.00  0.00    -0.354 N 
ATOM     46  C   UNL     1     -13.801   5.335  -4.474  1.00  0.00     0.074 A 
ATOM     47  C   UNL     1     -12.997   6.526  -4.289  1.00  0.00     0.031 C 
ATOM     48  C   UNL     1      -9.514   1.064  -6.653  1.00  0.00     0.029 A 
ATOM     49  C   UNL     1     -10.929   0.839  -6.377  1.00  0.00     0.049 A 
ATOM     50  H   UNL     1     -12.325   2.236  -5.711  1.00  0.00     0.167 HD
ATOM     51  C   UNL     1     -15.135   5.264  -4.233  1.00  0.00     0.034 A 
ATOM     52  C   UNL     1     -11.573  -0.338  -6.513  1.00  0.00     0.034 A 
ATOM     53  C   UNL     1     -15.923   4.069  -4.420  1.00  0.00     0.049 A 
ATOM     54  C   UNL     1     -13.042  -0.410  -6.181  1.00  0.00     0.074 A 
ATOM     55  C   UNL     1     -17.285   3.896  -4.241  1.00  0.00     0.029 A 
ATOM     56  N   UNL     1     -15.419   2.837  -4.820  1.00  0.00    -0.354 N 
ATOM     57  N   UNL     1     -13.844   0.542  -5.762  1.00  0.00    -0.248 NA
ATOM     58  C   UNL     1     -13.694  -1.715  -6.347  1.00  0.00     0.031 C 
ATOM     59  C   UNL     1     -17.590   2.548  -4.460  1.00  0.00     0.029 A 
ATOM     60  C   UNL     1     -16.436   1.893  -4.859  1.00  0.00     0.049 A 
ATOM     61  H   UNL     1     -14.476   2.659  -5.043  1.00  0.00     0.167 HD
ATOM     62  C   UNL     1     -15.102  -0.044  -5.650  1.00  0.00     0.074 A 
ATOM     63  C   UNL     1     -14.954  -1.426  -6.058  1.00  0.00     0.031 C 
ATOM     64  C   UNL     1     -16.276   0.513  -5.254  1.00  0.00     0.034 A 
BRANCH  51  65
ATOM     65  C   UNL     1     -15.810   6.514  -3.715  1.00  0.00     0.023 A 
ATOM     66  C   UNL     1     -15.827   7.706  -4.462  1.00  0.00     0.031 A 
ATOM     67  C   UNL     1     -16.407   6.532  -2.442  1.00  0.00     0.131 A 
ATOM     68  C   UNL     1     -16.339   8.883  -3.897  1.00  0.00     0.055 A 
ATOM     69  C   UNL     1     -17.000   7.685  -1.922  1.00  0.00     0.041 A 
ATOM     70  F   UNL     1     -16.407   5.434  -1.670  1.00  0.00    -0.206 F 
ATOM     71  C   UNL     1     -16.951   8.875  -2.642  1.00  0.00     0.022 A 
BRANCH  68  72
ATOM     72  S   UNL     1     -16.036  10.454  -4.752  1.00  0.00     0.124 S 
ATOM     73  O   UNL     1     -14.577  10.469  -4.832  1.00  0.00    -0.237 OA
ATOM     74  O   UNL     1     -16.744  10.268  -6.013  1.00  0.00    -0.237 OA
ATOM     75  O   UNL     1     -16.612  11.450  -3.852  1.00  0.00    -0.744 OA
ENDBRANCH  68  72
ENDBRANCH  51  65
BRANCH  52  76
ATOM     76  C   UNL     1     -10.842  -1.550  -6.984  1.00  0.00     0.023 A 
ATOM     77  C   UNL     1     -11.182  -2.168  -8.199  1.00  0.00     0.031 A 
ATOM     78  C   UNL     1      -9.827  -2.137  -6.209  1.00  0.00     0.131 A 
ATOM     79  C   UNL     1     -10.547  -3.360  -8.581  1.00  0.00     0.055 A 
ATOM     80  C   UNL     1      -9.158  -3.292  -6.620  1.00  0.00     0.041 A 
ATOM     81  F   UNL     1      -9.461  -1.587  -5.040  1.00  0.00    -0.206 F 
ATOM     82  C   UNL     1      -9.527  -3.918  -7.807  1.00  0.00     0.022 A 
BRANCH  79  83
ATOM     83  S   UNL     1     -11.137  -4.220 -10.064  1.00  0.00     0.124 S 
ATOM     84  O   UNL     1     -12.537  -4.460  -9.731  1.00  0.00    -0.237 OA
ATOM     85  O   UNL     1     -10.887  -3.231 -11.108  1.00  0.00    -0.237 OA
ATOM     86  O   UNL     1     -10.295  -5.412 -10.124  1.00  0.00    -0.744 OA
ENDBRANCH  79  83
ENDBRANCH  52  76
BRANCH  64  87
ATOM     87  C   UNL     1     -17.502  -0.369  -5.293  1.00  0.00     0.023 A 
ATOM     88  C   UNL     1     -17.643  -1.484  -4.448  1.00  0.00     0.031 A 
ATOM     89  C   UNL     1     -18.539  -0.095  -6.203  1.00  0.00     0.131 A 
ATOM     90  C   UNL     1     -18.767  -2.316  -4.570  1.00  0.00     0.055 A 
ATOM     91  C   UNL     1     -19.684  -0.890  -6.275  1.00  0.00     0.041 A 
ATOM     92  F   UNL     1     -18.457   0.954  -7.037  1.00  0.00    -0.206 F 
ATOM     93  C   UNL     1     -19.796  -2.016  -5.465  1.00  0.00     0.022 A 
BRANCH  90  94
ATOM     94  S   UNL     1     -18.821  -3.854  -3.609  1.00  0.00     0.124 S 
ATOM     95  O   UNL     1     -17.615  -4.538  -4.063  1.00  0.00    -0.237 OA
ATOM     96  O   UNL     1     -18.797  -3.365  -2.235  1.00  0.00    -0.237 OA
ATOM     97  O   UNL     1     -20.079  -4.474  -4.024  1.00  0.00    -0.744 OA
ENDBRANCH  90  94
ENDBRANCH  64  87
ENDBRANCH  38  39
ENDBRANCH  30  33
ENDBRANCH  28  29
ENDBRANCH  27  28
ENDBRANCH   1  27
TORSDOF 19
