REMARK SMILES O=C(NCCCCNC(=O)c1ccc(-n2cc(CSc3nc4ccccc4c(=O)n3-c3ccc(Cl)cc3)nn2)cc1)c1ccc(-c2c3nc(c(-c4cc(S(=O)(=O)[O-])ccc4F)c4ccc([nH]4)c(-c4cc(S(=O)(=O)[O-])ccc4F)c4nc(c(-c5cc(S(=O)(=O)[O-])ccc5F)c5ccc2[nH]5)C=C4)C=C3)cc1
REMARK SMILES IDX 6 1 5 2 4 3 3 4 1 5 2 6 42 8 43 9 104 10 44 11 103 12 45 13
REMARK SMILES IDX 46 14 47 15 97 16 48 17 102 18 96 19 98 20 49 21 101 22
REMARK SMILES IDX 95 23 94 24 50 26 82 27 62 28 81 29 63 30 66 31 80 32 99 33
REMARK SMILES IDX 64 34 65 35 79 37 100 38 67 39 51 40 52 41 60 42 53 43 59 44
REMARK SMILES IDX 61 45 58 46 54 47 55 48 56 49 57 50 83 51 84 52 92 53 85 54
REMARK SMILES IDX 91 55 93 56 90 57 86 58 87 59 88 60 89 61 68 62 69 63 77 64
REMARK SMILES IDX 70 65 76 66 78 67 75 68 71 69 72 70 73 71 74 72 7 73 8 74
REMARK SMILES IDX 9 75 10 77 11 78 12 79 41 80 13 81 40 82 14 83 15 84 16 85
REMARK SMILES IDX 39 86 17 87 38 88 18 89 19 90 20 91 21 92 30 93 22 94 28 95
REMARK SMILES IDX 23 96 27 97 29 98 24 99 26 100 25 101 31 102 32 103 37 104
REMARK SMILES IDX 33 105 36 106 34 107 35 108
REMARK H PARENT 3 7 98 25 66 36 8 76
REMARK Flexibility Score: inf
ROOT
ATOM      1  C   UNL     1       4.575   1.833  -3.098  1.00  0.00     0.023 C 
ENDROOT
BRANCH   1   2
ATOM      2  C   UNL     1       5.088   0.721  -2.182  1.00  0.00     0.023 C 
BRANCH   2   3
ATOM      3  C   UNL     1       4.782   0.883  -0.692  1.00  0.00     0.116 C 
BRANCH   3   4
ATOM      4  N   UNL     1       3.386   1.101  -0.370  1.00  0.00    -0.352 N 
ATOM      5  O   UNL     1       1.307   0.840   0.313  1.00  0.00    -0.269 OA
ATOM      6  C   UNL     1       2.312   0.283  -0.141  1.00  0.00     0.251 C 
ATOM      7  H   UNL     1       3.157   2.056  -0.300  1.00  0.00     0.163 HD
BRANCH   6   8
ATOM      8  C   UNL     1       2.259  -1.179  -0.428  1.00  0.00     0.039 A 
ATOM      9  C   UNL     1       3.332  -1.962  -0.853  1.00  0.00     0.014 A 
ATOM     10  C   UNL     1       1.000  -1.796  -0.289  1.00  0.00     0.014 A 
ATOM     11  C   UNL     1       3.144  -3.299  -1.198  1.00  0.00     0.010 A 
ATOM     12  C   UNL     1       0.810  -3.139  -0.612  1.00  0.00     0.010 A 
ATOM     13  C   UNL     1       1.882  -3.886  -1.095  1.00  0.00    -0.014 A 
BRANCH  13  14
ATOM     14  C   UNL     1       1.770  -5.316  -1.387  1.00  0.00     0.031 A 
ATOM     15  C   UNL     1       2.499  -6.228  -0.459  1.00  0.00     0.074 A 
ATOM     16  C   UNL     1       0.955  -5.838  -2.324  1.00  0.00     0.049 A 
ATOM     17  N   UNL     1       3.406  -7.109  -0.735  1.00  0.00    -0.248 NA
ATOM     18  C   UNL     1       2.227  -6.088   0.979  1.00  0.00     0.031 C 
ATOM     19  C   UNL     1      -0.059  -5.138  -3.113  1.00  0.00     0.029 A 
ATOM     20  N   UNL     1       0.788  -7.146  -2.682  1.00  0.00    -0.354 N 
ATOM     21  C   UNL     1       3.685  -7.774   0.460  1.00  0.00     0.074 A 
ATOM     22  C   UNL     1       3.034  -7.015   1.494  1.00  0.00     0.031 C 
ATOM     23  C   UNL     1      -0.878  -6.049  -3.685  1.00  0.00     0.029 A 
ATOM     24  C   UNL     1      -0.372  -7.384  -3.407  1.00  0.00     0.049 A 
ATOM     25  H   UNL     1       1.430  -7.854  -2.447  1.00  0.00     0.167 HD
ATOM     26  C   UNL     1       4.289  -8.996   0.485  1.00  0.00     0.034 A 
ATOM     27  C   UNL     1      -0.928  -8.588  -3.698  1.00  0.00     0.034 A 
ATOM     28  C   UNL     1       4.993  -9.259  -0.748  1.00  0.00     0.049 A 
ATOM     29  C   UNL     1       0.135  -9.615  -3.597  1.00  0.00     0.074 A 
ATOM     30  C   UNL     1       6.006  -8.623  -1.442  1.00  0.00     0.029 A 
ATOM     31  N   UNL     1       4.468 -10.170  -1.637  1.00  0.00    -0.354 N 
ATOM     32  N   UNL     1       1.159  -9.680  -4.401  1.00  0.00    -0.248 NA
ATOM     33  C   UNL     1       0.285 -10.343  -2.346  1.00  0.00     0.031 C 
ATOM     34  C   UNL     1       5.689  -8.813  -2.818  1.00  0.00     0.029 A 
ATOM     35  C   UNL     1       4.532  -9.591  -2.878  1.00  0.00     0.049 A 
ATOM     36  H   UNL     1       4.115 -11.064  -1.422  1.00  0.00     0.167 HD
ATOM     37  C   UNL     1       2.217 -10.087  -3.605  1.00  0.00     0.074 A 
ATOM     38  C   UNL     1       1.596 -10.594  -2.385  1.00  0.00     0.031 C 
ATOM     39  C   UNL     1       3.503  -9.723  -3.890  1.00  0.00     0.034 A 
BRANCH  26  40
ATOM     40  C   UNL     1       3.989 -10.096   1.489  1.00  0.00     0.023 A 
ATOM     41  C   UNL     1       4.647 -11.331   1.308  1.00  0.00     0.031 A 
ATOM     42  C   UNL     1       2.912 -10.114   2.402  1.00  0.00     0.131 A 
ATOM     43  C   UNL     1       4.157 -12.512   1.892  1.00  0.00     0.055 A 
ATOM     44  C   UNL     1       2.476 -11.279   3.044  1.00  0.00     0.041 A 
ATOM     45  F   UNL     1       2.165  -9.036   2.665  1.00  0.00    -0.206 F 
ATOM     46  C   UNL     1       3.071 -12.495   2.760  1.00  0.00     0.022 A 
BRANCH  43  47
ATOM     47  S   UNL     1       4.827 -14.095   1.316  1.00  0.00     0.124 S 
ATOM     48  O   UNL     1       4.759 -13.931  -0.133  1.00  0.00    -0.237 OA
ATOM     49  O   UNL     1       6.161 -14.085   1.905  1.00  0.00    -0.237 OA
ATOM     50  O   UNL     1       3.902 -15.077   1.877  1.00  0.00    -0.744 OA
ENDBRANCH  43  47
ENDBRANCH  26  40
BRANCH  27  51
ATOM     51  C   UNL     1      -2.381  -8.899  -3.757  1.00  0.00     0.023 A 
ATOM     52  C   UNL     1      -2.897 -10.016  -4.442  1.00  0.00     0.031 A 
ATOM     53  C   UNL     1      -3.282  -8.189  -2.930  1.00  0.00     0.131 A 
ATOM     54  C   UNL     1      -4.259 -10.367  -4.301  1.00  0.00     0.055 A 
ATOM     55  C   UNL     1      -4.628  -8.530  -2.806  1.00  0.00     0.041 A 
ATOM     56  F   UNL     1      -2.862  -7.183  -2.146  1.00  0.00    -0.206 F 
ATOM     57  C   UNL     1      -5.123  -9.627  -3.489  1.00  0.00     0.022 A 
BRANCH  54  58
ATOM     58  S   UNL     1      -4.910 -11.868  -5.101  1.00  0.00     0.124 S 
ATOM     59  O   UNL     1      -4.882 -11.504  -6.513  1.00  0.00    -0.237 OA
ATOM     60  O   UNL     1      -3.958 -12.888  -4.675  1.00  0.00    -0.237 OA
ATOM     61  O   UNL     1      -6.250 -12.007  -4.529  1.00  0.00    -0.744 OA
ENDBRANCH  54  58
ENDBRANCH  27  51
BRANCH  39  62
ATOM     62  C   UNL     1       3.818  -9.165  -5.260  1.00  0.00     0.023 A 
ATOM     63  C   UNL     1       3.207  -8.020  -5.814  1.00  0.00     0.031 A 
ATOM     64  C   UNL     1       4.884  -9.746  -5.970  1.00  0.00     0.131 A 
ATOM     65  C   UNL     1       3.662  -7.505  -7.043  1.00  0.00     0.055 A 
ATOM     66  C   UNL     1       5.343  -9.223  -7.178  1.00  0.00     0.041 A 
ATOM     67  F   UNL     1       5.530 -10.816  -5.476  1.00  0.00    -0.206 F 
ATOM     68  C   UNL     1       4.729  -8.101  -7.722  1.00  0.00     0.022 A 
BRANCH  65  69
ATOM     69  S   UNL     1       2.871  -6.038  -7.776  1.00  0.00     0.124 S 
ATOM     70  O   UNL     1       1.449  -6.354  -7.722  1.00  0.00    -0.237 OA
ATOM     71  O   UNL     1       3.324  -4.963  -6.898  1.00  0.00    -0.237 OA
ATOM     72  O   UNL     1       3.432  -5.990  -9.129  1.00  0.00    -0.744 OA
ENDBRANCH  65  69
ENDBRANCH  39  62
ENDBRANCH  13  14
ENDBRANCH   6   8
ENDBRANCH   3   4
ENDBRANCH   2   3
ENDBRANCH   1   2
BRANCH   1  73
ATOM     73  C   UNL     1       4.896   3.258  -2.665  1.00  0.00     0.116 C 
BRANCH  73  74
ATOM     74  N   UNL     1       6.321   3.545  -2.610  1.00  0.00    -0.352 N 
ATOM     75  C   UNL     1       7.069   4.449  -3.330  1.00  0.00     0.251 C 
ATOM     76  H   UNL     1       6.829   3.010  -1.957  1.00  0.00     0.163 HD
ATOM     77  O   UNL     1       8.277   4.521  -3.176  1.00  0.00    -0.269 OA
BRANCH  75  78
ATOM     78  C   UNL     1       6.408   5.315  -4.333  1.00  0.00     0.039 A 
ATOM     79  C   UNL     1       6.890   5.283  -5.648  1.00  0.00     0.016 A 
ATOM     80  C   UNL     1       5.325   6.134  -3.991  1.00  0.00     0.016 A 
ATOM     81  C   UNL     1       6.226   5.992  -6.650  1.00  0.00     0.029 A 
ATOM     82  C   UNL     1       4.640   6.825  -4.991  1.00  0.00     0.029 A 
ATOM     83  C   UNL     1       5.084   6.722  -6.317  1.00  0.00     0.066 A 
BRANCH  83  84
ATOM     84  N   UNL     1       4.377   7.377  -7.336  1.00  0.00    -0.220 N 
ATOM     85  C   UNL     1       4.494   8.710  -7.654  1.00  0.00     0.141 A 
ATOM     86  N   UNL     1       3.228   6.889  -7.833  1.00  0.00    -0.062 NA
ATOM     87  C   UNL     1       3.342   9.034  -8.331  1.00  0.00     0.093 A 
ATOM     88  N   UNL     1       2.614   7.871  -8.478  1.00  0.00    -0.134 NA
BRANCH  87  89
ATOM     89  C   UNL     1       2.641  10.306  -8.637  1.00  0.00     0.138 C 
BRANCH  89  90
ATOM     90  S   UNL     1       3.329  11.801  -9.319  1.00  0.00    -0.081 SA
BRANCH  90  91
ATOM     91  C   UNL     1       5.050  11.939  -9.147  1.00  0.00     0.176 A 
ATOM     92  N   UNL     1       5.586  12.398 -10.241  1.00  0.00    -0.223 NA
ATOM     93  N   UNL     1       5.805  11.648  -8.016  1.00  0.00    -0.255 N 
ATOM     94  C   UNL     1       6.973  12.512 -10.321  1.00  0.00     0.079 A 
ATOM     95  C   UNL     1       7.096  11.177  -8.311  1.00  0.00     0.266 A 
ATOM     96  C   UNL     1       7.575  13.257 -11.335  1.00  0.00     0.029 A 
ATOM     97  C   UNL     1       7.778  11.803  -9.448  1.00  0.00     0.066 A 
ATOM     98  O   UNL     1       7.683  10.258  -7.741  1.00  0.00    -0.268 OA
ATOM     99  C   UNL     1       8.966  13.241 -11.490  1.00  0.00     0.002 A 
ATOM    100  C   UNL     1       9.163  11.732  -9.618  1.00  0.00     0.016 A 
ATOM    101  C   UNL     1       9.757  12.454 -10.650  1.00  0.00     0.001 A 
BRANCH  93 102
ATOM    102  C   UNL     1       5.374  11.658  -6.621  1.00  0.00     0.051 A 
ATOM    103  C   UNL     1       6.288  11.335  -5.592  1.00  0.00     0.028 A 
ATOM    104  C   UNL     1       4.076  11.958  -6.191  1.00  0.00     0.028 A 
ATOM    105  C   UNL     1       5.887  11.100  -4.272  1.00  0.00     0.022 A 
ATOM    106  C   UNL     1       3.651  11.688  -4.879  1.00  0.00     0.022 A 
ATOM    107  C   UNL     1       4.552  11.223  -3.933  1.00  0.00     0.041 A 
ATOM    108  Cl  UNL     1       4.023  10.823  -2.351  1.00  0.00    -0.084 Cl
ENDBRANCH  93 102
ENDBRANCH  90  91
ENDBRANCH  89  90
ENDBRANCH  87  89
ENDBRANCH  83  84
ENDBRANCH  75  78
ENDBRANCH  73  74
ENDBRANCH   1  73
TORSDOF 19
