REMARK SMILES C#CC[C@@H](C(=O)NCCCCNC(=O)c1ccc(-c2c3nc(c(-c4cc(S(=O)(=O)[O-])ccc4F)c4ccc([nH]4)c(-c4cc(S(=O)(=O)[O-])ccc4F)c4nc(c(-c5cc(S(=O)(=O)[O-])ccc5F)c5ccc2[nH]5)C=C4)C=C3)cc1)[C@H]1CCS(=O)(=O)C1
REMARK SMILES IDX 10 1 9 2 8 3 7 4 5 5 6 6 4 8 3 9 2 10 1 11 78 12 79 13 84 14
REMARK SMILES IDX 80 15 81 16 82 17 83 18 11 19 12 20 13 21 14 23 15 24 16 25
REMARK SMILES IDX 77 26 17 27 76 28 18 29 19 30 20 31 70 32 21 33 75 34 69 35
REMARK SMILES IDX 71 36 22 37 74 38 68 39 67 40 23 42 55 43 35 44 54 45 36 46
REMARK SMILES IDX 39 47 53 48 72 49 37 50 38 51 52 53 73 54 40 55 24 56 25 57
REMARK SMILES IDX 33 58 26 59 32 60 34 61 31 62 27 63 28 64 29 65 30 66 56 67
REMARK SMILES IDX 57 68 65 69 58 70 64 71 66 72 63 73 59 74 60 75 61 76 62 77
REMARK SMILES IDX 41 78 42 79 50 80 43 81 49 82 51 83 48 84 44 85 45 86 46 87
REMARK SMILES IDX 47 88
REMARK H PARENT 7 7 12 22 71 41 39 52
REMARK Flexibility Score: inf
ROOT
ATOM      1  C   UNL     1      -7.046  -1.390   4.596  1.00  0.00     0.023 C 
ENDROOT
BRANCH   1   2
ATOM      2  C   UNL     1      -5.989  -1.442   3.516  1.00  0.00     0.023 C 
BRANCH   2   3
ATOM      3  C   UNL     1      -6.441  -1.858   2.101  1.00  0.00     0.116 C 
BRANCH   3   4
ATOM      4  N   UNL     1      -6.478  -0.685   1.246  1.00  0.00    -0.356 N 
ATOM      5  C   UNL     1      -5.543  -0.050   0.494  1.00  0.00     0.224 C 
ATOM      6  O   UNL     1      -5.745   1.165   0.412  1.00  0.00    -0.275 OA
ATOM      7  H   UNL     1      -7.366  -0.262   1.204  1.00  0.00     0.163 HD
BRANCH   5   8
ATOM      8  C   UNL     1      -4.375  -0.734  -0.283  1.00  0.00     0.094 C 
BRANCH   8   9
ATOM      9  C   UNL     1      -3.059  -0.952   0.531  1.00  0.00     0.103 C 
BRANCH   9  10
ATOM     10  C   UNL     1      -3.313  -1.868   1.717  1.00  0.00    -0.106 C 
ATOM     11  C   UNL     1      -3.531  -2.654   2.735  1.00  0.00     0.004 C 
ENDBRANCH   9  10
ENDBRANCH   8   9
BRANCH   8  12
ATOM     12  C   UNL     1      -3.957   0.058  -1.586  1.00  0.00     0.018 C 
ATOM     13  C   UNL     1      -4.637  -0.438  -2.874  1.00  0.00     0.021 C 
ATOM     14  C   UNL     1      -4.167   1.585  -1.633  1.00  0.00     0.141 C 
ATOM     15  C   UNL     1      -4.118   0.448  -4.017  1.00  0.00     0.137 C 
ATOM     16  S   UNL     1      -3.783   2.052  -3.308  1.00  0.00     0.150 S 
ATOM     17  O   UNL     1      -2.356   2.307  -3.399  1.00  0.00    -0.229 OA
ATOM     18  O   UNL     1      -4.765   2.996  -3.790  1.00  0.00    -0.229 OA
ENDBRANCH   8  12
ENDBRANCH   5   8
ENDBRANCH   3   4
ENDBRANCH   2   3
ENDBRANCH   1   2
BRANCH   1  19
ATOM     19  C   UNL     1      -7.699  -2.736   4.880  1.00  0.00     0.116 C 
BRANCH  19  20
ATOM     20  N   UNL     1      -6.787  -3.865   5.103  1.00  0.00    -0.352 N 
ATOM     21  C   UNL     1      -6.862  -4.861   6.060  1.00  0.00     0.251 C 
ATOM     22  H   UNL     1      -6.019  -3.921   4.490  1.00  0.00     0.163 HD
ATOM     23  O   UNL     1      -6.005  -5.734   6.131  1.00  0.00    -0.269 OA
BRANCH  21  24
ATOM     24  C   UNL     1      -7.970  -4.796   7.033  1.00  0.00     0.039 A 
ATOM     25  C   UNL     1      -7.672  -4.698   8.392  1.00  0.00     0.014 A 
ATOM     26  C   UNL     1      -9.263  -4.574   6.563  1.00  0.00     0.014 A 
ATOM     27  C   UNL     1      -8.646  -4.205   9.261  1.00  0.00     0.010 A 
ATOM     28  C   UNL     1     -10.172  -3.947   7.400  1.00  0.00     0.010 A 
ATOM     29  C   UNL     1      -9.866  -3.730   8.753  1.00  0.00    -0.014 A 
BRANCH  29  30
ATOM     30  C   UNL     1     -10.821  -2.960   9.597  1.00  0.00     0.031 A 
ATOM     31  C   UNL     1     -12.247  -3.428   9.715  1.00  0.00     0.074 A 
ATOM     32  C   UNL     1     -10.433  -1.796  10.165  1.00  0.00     0.049 A 
ATOM     33  N   UNL     1     -13.261  -2.842  10.294  1.00  0.00    -0.248 NA
ATOM     34  C   UNL     1     -12.587  -4.701   9.057  1.00  0.00     0.031 C 
ATOM     35  C   UNL     1      -9.095  -1.202  10.063  1.00  0.00     0.029 A 
ATOM     36  N   UNL     1     -11.128  -0.893  10.933  1.00  0.00    -0.354 N 
ATOM     37  C   UNL     1     -14.358  -3.661  10.050  1.00  0.00     0.074 A 
ATOM     38  C   UNL     1     -13.901  -4.745   9.212  1.00  0.00     0.031 C 
ATOM     39  C   UNL     1      -9.059  -0.063  10.773  1.00  0.00     0.029 A 
ATOM     40  C   UNL     1     -10.382   0.197  11.328  1.00  0.00     0.049 A 
ATOM     41  H   UNL     1     -12.073  -1.013  11.179  1.00  0.00     0.167 HD
ATOM     42  C   UNL     1     -15.625  -3.534  10.508  1.00  0.00     0.034 A 
ATOM     43  C   UNL     1     -10.729   1.291  12.039  1.00  0.00     0.034 A 
ATOM     44  C   UNL     1     -16.055  -2.469  11.376  1.00  0.00     0.049 A 
ATOM     45  C   UNL     1     -12.155   1.410  12.523  1.00  0.00     0.074 A 
ATOM     46  C   UNL     1     -17.290  -2.298  11.975  1.00  0.00     0.029 A 
ATOM     47  N   UNL     1     -15.271  -1.391  11.761  1.00  0.00    -0.354 N 
ATOM     48  N   UNL     1     -13.156   0.576  12.355  1.00  0.00    -0.248 NA
ATOM     49  C   UNL     1     -12.499   2.612  13.294  1.00  0.00     0.031 C 
ATOM     50  C   UNL     1     -17.279  -1.077  12.653  1.00  0.00     0.029 A 
ATOM     51  C   UNL     1     -16.011  -0.527  12.550  1.00  0.00     0.049 A 
ATOM     52  H   UNL     1     -14.327  -1.260  11.511  1.00  0.00     0.167 HD
ATOM     53  C   UNL     1     -14.238   1.145  13.022  1.00  0.00     0.074 A 
ATOM     54  C   UNL     1     -13.760   2.373  13.619  1.00  0.00     0.031 C 
ATOM     55  C   UNL     1     -15.516   0.698  13.128  1.00  0.00     0.034 A 
BRANCH  42  56
ATOM     56  C   UNL     1     -16.638  -4.562  10.073  1.00  0.00     0.023 A 
ATOM     57  C   UNL     1     -16.528  -5.914  10.441  1.00  0.00     0.031 A 
ATOM     58  C   UNL     1     -17.741  -4.179   9.291  1.00  0.00     0.131 A 
ATOM     59  C   UNL     1     -17.475  -6.842   9.986  1.00  0.00     0.055 A 
ATOM     60  C   UNL     1     -18.722  -5.093   8.905  1.00  0.00     0.041 A 
ATOM     61  F   UNL     1     -17.883  -2.906   8.888  1.00  0.00    -0.206 F 
ATOM     62  C   UNL     1     -18.588  -6.436   9.245  1.00  0.00     0.022 A 
BRANCH  59  63
ATOM     63  S   UNL     1     -17.175  -8.605  10.283  1.00  0.00     0.124 S 
ATOM     64  O   UNL     1     -15.914  -8.813   9.576  1.00  0.00    -0.237 OA
ATOM     65  O   UNL     1     -17.109  -8.674  11.738  1.00  0.00    -0.237 OA
ATOM     66  O   UNL     1     -18.335  -9.257   9.679  1.00  0.00    -0.744 OA
ENDBRANCH  59  63
ENDBRANCH  42  56
BRANCH  43  67
ATOM     67  C   UNL     1      -9.744   2.383  12.315  1.00  0.00     0.023 A 
ATOM     68  C   UNL     1      -9.418   2.748  13.632  1.00  0.00     0.031 A 
ATOM     69  C   UNL     1      -9.184   3.140  11.270  1.00  0.00     0.131 A 
ATOM     70  C   UNL     1      -8.621   3.880  13.871  1.00  0.00     0.055 A 
ATOM     71  C   UNL     1      -8.333   4.221  11.511  1.00  0.00     0.041 A 
ATOM     72  F   UNL     1      -9.459   2.841   9.990  1.00  0.00    -0.206 F 
ATOM     73  C   UNL     1      -8.064   4.610  12.819  1.00  0.00     0.022 A 
BRANCH  70  74
ATOM     74  S   UNL     1      -8.440   4.468  15.579  1.00  0.00     0.124 S 
ATOM     75  O   UNL     1      -9.831   4.630  15.985  1.00  0.00    -0.237 OA
ATOM     76  O   UNL     1      -7.713   3.367  16.201  1.00  0.00    -0.237 OA
ATOM     77  O   UNL     1      -7.683   5.709  15.432  1.00  0.00    -0.744 OA
ENDBRANCH  70  74
ENDBRANCH  43  67
BRANCH  55  78
ATOM     78  C   UNL     1     -16.470   1.534  13.944  1.00  0.00     0.023 A 
ATOM     79  C   UNL     1     -16.856   2.820  13.532  1.00  0.00     0.031 A 
ATOM     80  C   UNL     1     -17.000   1.036  15.147  1.00  0.00     0.131 A 
ATOM     81  C   UNL     1     -17.704   3.587  14.343  1.00  0.00     0.055 A 
ATOM     82  C   UNL     1     -17.898   1.776  15.916  1.00  0.00     0.041 A 
ATOM     83  F   UNL     1     -16.663  -0.187  15.589  1.00  0.00    -0.206 F 
ATOM     84  C   UNL     1     -18.244   3.066  15.522  1.00  0.00     0.022 A 
BRANCH  81  85
ATOM     85  S   UNL     1     -18.020   5.312  13.882  1.00  0.00     0.124 S 
ATOM     86  O   UNL     1     -16.675   5.877  13.888  1.00  0.00    -0.237 OA
ATOM     87  O   UNL     1     -18.648   5.175  12.572  1.00  0.00    -0.237 OA
ATOM     88  O   UNL     1     -18.901   5.794  14.944  1.00  0.00    -0.744 OA
ENDBRANCH  81  85
ENDBRANCH  55  78
ENDBRANCH  29  30
ENDBRANCH  21  24
ENDBRANCH  19  20
ENDBRANCH   1  19
TORSDOF 17
