REMARK SMILES O=C(/C=C/c1c(Cl)cccc1Cl)NCC(=O)NCCCCNC(=O)c1ccc(-c2c3nc(c(-c4cc(S(=O)(=O)[O-])ccc4F)c4ccc([nH]4)c(-c4cc(S(=O)(=O)[O-])ccc4F)c4nc(c(-c5cc(S(=O)(=O)[O-])ccc5F)c5ccc2[nH]5)C=C4)C=C3)cc1
REMARK SMILES IDX 19 1 18 2 17 3 15 4 16 5 14 7 13 8 1 9 2 10 3 12 4 13 5 14
REMARK SMILES IDX 6 15 11 16 7 17 8 18 10 19 12 20 9 21 20 22 21 23 22 24
REMARK SMILES IDX 23 25 24 27 25 28 26 29 87 30 27 31 86 32 28 33 29 34 30 35
REMARK SMILES IDX 80 36 31 37 85 38 79 39 81 40 32 41 84 42 78 43 77 44 33 46
REMARK SMILES IDX 65 47 45 48 64 49 46 50 49 51 63 52 82 53 47 54 48 55 62 57
REMARK SMILES IDX 83 58 50 59 34 60 35 61 43 62 36 63 42 64 44 65 41 66 37 67
REMARK SMILES IDX 38 68 39 69 40 70 66 71 67 72 75 73 68 74 74 75 76 76 73 77
REMARK SMILES IDX 69 78 70 79 71 80 72 81 51 82 52 83 60 84 53 85 59 86 61 87
REMARK SMILES IDX 58 88 54 89 55 90 56 91 57 92
REMARK H PARENT 17 6 13 11 22 26 81 45 49 56
REMARK Flexibility Score: inf
ROOT
ATOM      1  C   UNL     1       2.642   3.079   1.101  1.00  0.00     0.023 C 
ENDROOT
BRANCH   1   2
ATOM      2  C   UNL     1       1.677   3.076  -0.084  1.00  0.00     0.116 C 
BRANCH   2   3
ATOM      3  N   UNL     1       2.353   3.394  -1.327  1.00  0.00    -0.355 N 
ATOM      4  C   UNL     1       2.731   2.550  -2.333  1.00  0.00     0.239 C 
ATOM      5  O   UNL     1       3.252   3.029  -3.343  1.00  0.00    -0.273 OA
ATOM      6  H   UNL     1       2.569   4.345  -1.465  1.00  0.00     0.163 HD
BRANCH   4   7
ATOM      7  C   UNL     1       2.440   1.052  -2.228  1.00  0.00     0.216 C 
BRANCH   7   8
ATOM      8  N   UNL     1       3.099   0.443  -1.084  1.00  0.00    -0.343 N 
ATOM      9  O   UNL     1       1.219  -0.586  -0.275  1.00  0.00    -0.270 OA
ATOM     10  C   UNL     1       2.416  -0.334  -0.192  1.00  0.00     0.244 C 
ATOM     11  H   UNL     1       4.063   0.595  -0.949  1.00  0.00     0.164 HD
BRANCH  10  12
ATOM     12  C   UNL     1       3.176  -0.808   0.988  1.00  0.00     0.072 C 
ATOM     13  C   UNL     1       4.500  -1.019   1.032  1.00  0.00     0.017 C 
BRANCH  13  14
ATOM     14  C   UNL     1       5.165  -1.539   2.245  1.00  0.00     0.012 A 
ATOM     15  C   UNL     1       4.893  -2.825   2.755  1.00  0.00     0.049 A 
ATOM     16  C   UNL     1       6.122  -0.755   2.920  1.00  0.00     0.049 A 
ATOM     17  Cl  UNL     1       3.792  -3.918   1.982  1.00  0.00    -0.084 Cl
ATOM     18  C   UNL     1       5.534  -3.293   3.909  1.00  0.00     0.021 A 
ATOM     19  C   UNL     1       6.766  -1.232   4.068  1.00  0.00     0.021 A 
ATOM     20  Cl  UNL     1       6.550   0.833   2.375  1.00  0.00    -0.084 Cl
ATOM     21  C   UNL     1       6.468  -2.498   4.566  1.00  0.00     0.003 A 
ENDBRANCH  13  14
ENDBRANCH  10  12
ENDBRANCH   7   8
ENDBRANCH   4   7
ENDBRANCH   2   3
ENDBRANCH   1   2
BRANCH   1  22
ATOM     22  C   UNL     1       3.170   4.465   1.486  1.00  0.00     0.023 C 
BRANCH  22  23
ATOM     23  C   UNL     1       2.103   5.494   1.853  1.00  0.00     0.116 C 
BRANCH  23  24
ATOM     24  N   UNL     1       1.274   5.080   2.972  1.00  0.00    -0.352 N 
ATOM     25  C   UNL     1       0.806   5.832   4.024  1.00  0.00     0.251 C 
ATOM     26  H   UNL     1       1.011   4.131   2.979  1.00  0.00     0.163 HD
ATOM     27  O   UNL     1       0.227   5.281   4.956  1.00  0.00    -0.269 OA
BRANCH  25  28
ATOM     28  C   UNL     1       1.039   7.294   4.045  1.00  0.00     0.039 A 
ATOM     29  C   UNL     1       1.511   7.883   5.221  1.00  0.00     0.014 A 
ATOM     30  C   UNL     1       0.811   8.077   2.911  1.00  0.00     0.014 A 
ATOM     31  C   UNL     1       1.823   9.245   5.237  1.00  0.00     0.010 A 
ATOM     32  C   UNL     1       1.185   9.419   2.909  1.00  0.00     0.010 A 
ATOM     33  C   UNL     1       1.700  10.017   4.070  1.00  0.00    -0.014 A 
BRANCH  33  34
ATOM     34  C   UNL     1       2.112  11.445   4.044  1.00  0.00     0.031 A 
ATOM     35  C   UNL     1       1.091  12.522   3.797  1.00  0.00     0.074 A 
ATOM     36  C   UNL     1       3.414  11.767   4.177  1.00  0.00     0.049 A 
ATOM     37  N   UNL     1       1.264  13.812   3.660  1.00  0.00    -0.248 NA
ATOM     38  C   UNL     1      -0.306  12.085   3.658  1.00  0.00     0.031 C 
ATOM     39  C   UNL     1       4.504  10.809   4.381  1.00  0.00     0.029 A 
ATOM     40  N   UNL     1       4.047  12.985   4.152  1.00  0.00    -0.354 N 
ATOM     41  C   UNL     1       0.002  14.340   3.407  1.00  0.00     0.074 A 
ATOM     42  C   UNL     1      -0.914  13.220   3.349  1.00  0.00     0.031 C 
ATOM     43  C   UNL     1       5.664  11.477   4.483  1.00  0.00     0.029 A 
ATOM     44  C   UNL     1       5.412  12.904   4.307  1.00  0.00     0.049 A 
ATOM     45  H   UNL     1       3.568  13.837   4.034  1.00  0.00     0.167 HD
ATOM     46  C   UNL     1      -0.362  15.638   3.259  1.00  0.00     0.034 A 
ATOM     47  C   UNL     1       6.355  13.867   4.294  1.00  0.00     0.034 A 
ATOM     48  C   UNL     1       0.563  16.744   3.329  1.00  0.00     0.049 A 
ATOM     49  C   UNL     1       5.931  15.300   4.099  1.00  0.00     0.074 A 
ATOM     50  C   UNL     1       0.293  18.100   3.251  1.00  0.00     0.029 A 
ATOM     51  N   UNL     1       1.938  16.624   3.485  1.00  0.00    -0.354 N 
ATOM     52  N   UNL     1       4.725  15.787   3.913  1.00  0.00    -0.248 NA
ATOM     53  C   UNL     1       6.993  16.314   4.122  1.00  0.00     0.031 C 
ATOM     54  C   UNL     1       1.508  18.793   3.290  1.00  0.00     0.029 A 
ATOM     55  C   UNL     1       2.532  17.877   3.471  1.00  0.00     0.049 A 
ATOM     56  H   UNL     1       2.421  15.772   3.590  1.00  0.00     0.167 HD
ATOM     57  C   UNL     1       4.884  17.168   3.826  1.00  0.00     0.074 A 
ATOM     58  C   UNL     1       6.297  17.434   3.997  1.00  0.00     0.031 C 
ATOM     59  C   UNL     1       3.946  18.129   3.627  1.00  0.00     0.034 A 
BRANCH  46  60
ATOM     60  C   UNL     1      -1.819  15.923   2.981  1.00  0.00     0.023 A 
ATOM     61  C   UNL     1      -2.826  15.593   3.906  1.00  0.00     0.031 A 
ATOM     62  C   UNL     1      -2.213  16.507   1.764  1.00  0.00     0.131 A 
ATOM     63  C   UNL     1      -4.176  15.774   3.569  1.00  0.00     0.055 A 
ATOM     64  C   UNL     1      -3.554  16.763   1.469  1.00  0.00     0.041 A 
ATOM     65  F   UNL     1      -1.301  16.827   0.832  1.00  0.00    -0.206 F 
ATOM     66  C   UNL     1      -4.546  16.380   2.367  1.00  0.00     0.022 A 
BRANCH  63  67
ATOM     67  S   UNL     1      -5.441  15.070   4.661  1.00  0.00     0.124 S 
ATOM     68  O   UNL     1      -5.082  13.654   4.654  1.00  0.00    -0.237 OA
ATOM     69  O   UNL     1      -5.210  15.782   5.912  1.00  0.00    -0.237 OA
ATOM     70  O   UNL     1      -6.696  15.390   3.982  1.00  0.00    -0.744 OA
ENDBRANCH  63  67
ENDBRANCH  46  60
BRANCH  47  71
ATOM     71  C   UNL     1       7.796  13.517   4.455  1.00  0.00     0.023 A 
ATOM     72  C   UNL     1       8.527  13.958   5.569  1.00  0.00     0.031 A 
ATOM     73  C   UNL     1       8.475  12.772   3.474  1.00  0.00     0.131 A 
ATOM     74  C   UNL     1       9.903  13.694   5.652  1.00  0.00     0.055 A 
ATOM     75  C   UNL     1       9.832  12.466   3.587  1.00  0.00     0.041 A 
ATOM     76  F   UNL     1       7.822  12.321   2.391  1.00  0.00    -0.206 F 
ATOM     77  C   UNL     1      10.558  12.940   4.676  1.00  0.00     0.022 A 
BRANCH  74  78
ATOM     78  S   UNL     1      10.846  14.425   7.019  1.00  0.00     0.124 S 
ATOM     79  O   UNL     1      10.592  15.848   6.828  1.00  0.00    -0.237 OA
ATOM     80  O   UNL     1      10.217  13.810   8.183  1.00  0.00    -0.237 OA
ATOM     81  O   UNL     1      12.217  13.994   6.754  1.00  0.00    -0.744 OA
ENDBRANCH  74  78
ENDBRANCH  47  71
BRANCH  59  82
ATOM     82  C   UNL     1       4.423  19.561   3.624  1.00  0.00     0.023 A 
ATOM     83  C   UNL     1       5.262  20.060   2.613  1.00  0.00     0.031 A 
ATOM     84  C   UNL     1       4.043  20.434   4.659  1.00  0.00     0.131 A 
ATOM     85  C   UNL     1       5.739  21.378   2.688  1.00  0.00     0.055 A 
ATOM     86  C   UNL     1       4.471  21.762   4.696  1.00  0.00     0.041 A 
ATOM     87  F   UNL     1       3.245  20.010   5.653  1.00  0.00    -0.206 F 
ATOM     88  C   UNL     1       5.335  22.237   3.713  1.00  0.00     0.022 A 
BRANCH  85  89
ATOM     89  S   UNL     1       6.970  21.929   1.474  1.00  0.00     0.124 S 
ATOM     90  O   UNL     1       8.055  20.978   1.689  1.00  0.00    -0.237 OA
ATOM     91  O   UNL     1       6.247  21.797   0.214  1.00  0.00    -0.237 OA
ATOM     92  O   UNL     1       7.260  23.303   1.880  1.00  0.00    -0.744 OA
ENDBRANCH  85  89
ENDBRANCH  59  82
ENDBRANCH  33  34
ENDBRANCH  25  28
ENDBRANCH  23  24
ENDBRANCH  22  23
ENDBRANCH   1  22
TORSDOF 17
