REMARK SMILES O=C(NCCCCNC(=O)[C@@H](Cc1ccccc1Br)CC(F)(F)F)c1ccc(-c2c3nc(c(-c4cc(S(=O)(=O)[O-])ccc4F)c4ccc([nH]4)c(-c4cc(S(=O)(=O)[O-])ccc4F)c4nc(c(-c5cc(S(=O)(=O)[O-])ccc5F)c5ccc2[nH]5)C=C4)C=C3)cc1
REMARK SMILES IDX 5 1 4 2 3 3 1 4 2 5 25 7 26 8 87 9 27 10 86 11 28 12 29 13
REMARK SMILES IDX 30 14 80 15 31 16 85 17 79 18 81 19 32 20 84 21 78 22 77 23
REMARK SMILES IDX 33 25 65 26 45 27 64 28 46 29 49 30 63 31 82 32 47 33 48 34
REMARK SMILES IDX 62 36 83 37 50 38 34 39 35 40 43 41 36 42 42 43 44 44 41 45
REMARK SMILES IDX 37 46 38 47 39 48 40 49 66 50 67 51 75 52 68 53 74 54 76 55
REMARK SMILES IDX 73 56 69 57 70 58 71 59 72 60 51 61 52 62 60 63 53 64 59 65
REMARK SMILES IDX 61 66 58 67 54 68 55 69 56 70 57 71 6 72 7 73 8 74 9 75
REMARK SMILES IDX 10 77 11 78 12 79 13 80 14 81 18 82 15 83 17 84 19 85 16 86
REMARK SMILES IDX 20 87 21 88 22 89 23 90 24 91
REMARK H PARENT 3 6 81 24 49 35 8 76
REMARK Flexibility Score: inf
ROOT
ATOM      1  C   UNL     1       5.603  -2.401   0.235  1.00  0.00     0.023 C 
ENDROOT
BRANCH   1   2
ATOM      2  C   UNL     1       4.975  -1.042  -0.047  1.00  0.00     0.116 C 
BRANCH   2   3
ATOM      3  N   UNL     1       3.534  -1.049  -0.261  1.00  0.00    -0.352 N 
ATOM      4  O   UNL     1       1.418  -0.242  -0.050  1.00  0.00    -0.269 OA
ATOM      5  C   UNL     1       2.616  -0.112   0.183  1.00  0.00     0.251 C 
ATOM      6  H   UNL     1       3.172  -1.804  -0.778  1.00  0.00     0.163 HD
BRANCH   5   7
ATOM      7  C   UNL     1       3.106   1.022   1.009  1.00  0.00     0.039 A 
ATOM      8  C   UNL     1       4.196   1.778   0.579  1.00  0.00     0.014 A 
ATOM      9  C   UNL     1       2.581   1.213   2.290  1.00  0.00     0.014 A 
ATOM     10  C   UNL     1       4.906   2.535   1.505  1.00  0.00     0.010 A 
ATOM     11  C   UNL     1       3.239   2.064   3.188  1.00  0.00     0.010 A 
ATOM     12  C   UNL     1       4.455   2.668   2.831  1.00  0.00    -0.014 A 
BRANCH  12  13
ATOM     13  C   UNL     1       5.306   3.391   3.823  1.00  0.00     0.031 A 
ATOM     14  C   UNL     1       5.859   2.684   5.040  1.00  0.00     0.074 A 
ATOM     15  C   UNL     1       5.651   4.673   3.587  1.00  0.00     0.049 A 
ATOM     16  N   UNL     1       6.634   3.151   5.989  1.00  0.00    -0.248 NA
ATOM     17  C   UNL     1       5.482   1.275   5.224  1.00  0.00     0.031 C 
ATOM     18  C   UNL     1       5.191   5.470   2.447  1.00  0.00     0.029 A 
ATOM     19  N   UNL     1       6.491   5.520   4.265  1.00  0.00    -0.354 N 
ATOM     20  C   UNL     1       6.802   2.111   6.901  1.00  0.00     0.074 A 
ATOM     21  C   UNL     1       6.029   0.994   6.399  1.00  0.00     0.031 C 
ATOM     22  C   UNL     1       5.809   6.659   2.464  1.00  0.00     0.029 A 
ATOM     23  C   UNL     1       6.648   6.743   3.654  1.00  0.00     0.049 A 
ATOM     24  H   UNL     1       6.938   5.277   5.107  1.00  0.00     0.167 HD
ATOM     25  C   UNL     1       7.534   2.086   8.045  1.00  0.00     0.034 A 
ATOM     26  C   UNL     1       7.374   7.820   4.012  1.00  0.00     0.034 A 
ATOM     27  C   UNL     1       8.335   3.193   8.516  1.00  0.00     0.049 A 
ATOM     28  C   UNL     1       8.186   7.764   5.276  1.00  0.00     0.074 A 
ATOM     29  C   UNL     1       9.137   3.261   9.644  1.00  0.00     0.029 A 
ATOM     30  N   UNL     1       8.439   4.427   7.887  1.00  0.00    -0.354 N 
ATOM     31  N   UNL     1       8.317   6.776   6.130  1.00  0.00    -0.248 NA
ATOM     32  C   UNL     1       8.947   8.970   5.623  1.00  0.00     0.031 C 
ATOM     33  C   UNL     1       9.681   4.549   9.724  1.00  0.00     0.029 A 
ATOM     34  C   UNL     1       9.273   5.266   8.612  1.00  0.00     0.049 A 
ATOM     35  H   UNL     1       7.987   4.671   7.047  1.00  0.00     0.167 HD
ATOM     36  C   UNL     1       9.187   7.240   7.112  1.00  0.00     0.074 A 
ATOM     37  C   UNL     1       9.568   8.584   6.728  1.00  0.00     0.031 C 
ATOM     38  C   UNL     1       9.629   6.612   8.231  1.00  0.00     0.034 A 
BRANCH  25  39
ATOM     39  C   UNL     1       7.462   0.837   8.895  1.00  0.00     0.023 A 
ATOM     40  C   UNL     1       7.953  -0.403   8.451  1.00  0.00     0.031 A 
ATOM     41  C   UNL     1       6.871   0.889  10.172  1.00  0.00     0.131 A 
ATOM     42  C   UNL     1       7.783  -1.550   9.244  1.00  0.00     0.055 A 
ATOM     43  C   UNL     1       6.773  -0.240  10.988  1.00  0.00     0.041 A 
ATOM     44  F   UNL     1       6.367   2.040  10.645  1.00  0.00    -0.206 F 
ATOM     45  C   UNL     1       7.217  -1.473  10.519  1.00  0.00     0.022 A 
BRANCH  42  46
ATOM     46  S   UNL     1       8.184  -3.168   8.528  1.00  0.00     0.124 S 
ATOM     47  O   UNL     1       7.337  -3.184   7.337  1.00  0.00    -0.237 OA
ATOM     48  O   UNL     1       9.618  -3.061   8.290  1.00  0.00    -0.237 OA
ATOM     49  O   UNL     1       7.792  -4.112   9.572  1.00  0.00    -0.744 OA
ENDBRANCH  42  46
ENDBRANCH  25  39
BRANCH  26  50
ATOM     50  C   UNL     1       7.345   9.051   3.174  1.00  0.00     0.023 A 
ATOM     51  C   UNL     1       8.493   9.501   2.505  1.00  0.00     0.031 A 
ATOM     52  C   UNL     1       6.163   9.803   3.043  1.00  0.00     0.131 A 
ATOM     53  C   UNL     1       8.444  10.688   1.758  1.00  0.00     0.055 A 
ATOM     54  C   UNL     1       6.107  10.955   2.258  1.00  0.00     0.041 A 
ATOM     55  F   UNL     1       5.037   9.411   3.659  1.00  0.00    -0.206 F 
ATOM     56  C   UNL     1       7.255  11.409   1.618  1.00  0.00     0.022 A 
BRANCH  53  57
ATOM     57  S   UNL     1       9.977  11.314   1.019  1.00  0.00     0.124 S 
ATOM     58  O   UNL     1      10.830  11.472   2.192  1.00  0.00    -0.237 OA
ATOM     59  O   UNL     1      10.335  10.233   0.106  1.00  0.00    -0.237 OA
ATOM     60  O   UNL     1       9.562  12.558   0.376  1.00  0.00    -0.744 OA
ENDBRANCH  53  57
ENDBRANCH  26  50
BRANCH  38  61
ATOM     61  C   UNL     1      10.602   7.376   9.093  1.00  0.00     0.023 A 
ATOM     62  C   UNL     1      10.210   8.525   9.803  1.00  0.00     0.031 A 
ATOM     63  C   UNL     1      11.947   6.976   9.167  1.00  0.00     0.131 A 
ATOM     64  C   UNL     1      11.168   9.272  10.505  1.00  0.00     0.055 A 
ATOM     65  C   UNL     1      12.885   7.693   9.912  1.00  0.00     0.041 A 
ATOM     66  F   UNL     1      12.374   5.888   8.507  1.00  0.00    -0.206 F 
ATOM     67  C   UNL     1      12.501   8.857  10.573  1.00  0.00     0.022 A 
BRANCH  64  68
ATOM     68  S   UNL     1      10.671  10.855  11.239  1.00  0.00     0.124 S 
ATOM     69  O   UNL     1      10.142  11.574  10.085  1.00  0.00    -0.237 OA
ATOM     70  O   UNL     1       9.690  10.441  12.237  1.00  0.00    -0.237 OA
ATOM     71  O   UNL     1      11.919  11.388  11.782  1.00  0.00    -0.744 OA
ENDBRANCH  64  68
ENDBRANCH  38  61
ENDBRANCH  12  13
ENDBRANCH   5   7
ENDBRANCH   2   3
ENDBRANCH   1   2
BRANCH   1  72
ATOM     72  C   UNL     1       5.713  -3.357  -0.950  1.00  0.00     0.023 C 
BRANCH  72  73
ATOM     73  C   UNL     1       6.339  -2.756  -2.209  1.00  0.00     0.116 C 
BRANCH  73  74
ATOM     74  N   UNL     1       7.388  -3.572  -2.780  1.00  0.00    -0.356 N 
ATOM     75  C   UNL     1       7.473  -4.352  -3.873  1.00  0.00     0.223 C 
ATOM     76  H   UNL     1       8.221  -3.552  -2.255  1.00  0.00     0.163 HD
ATOM     77  O   UNL     1       8.622  -4.600  -4.261  1.00  0.00    -0.275 OA
BRANCH  75  78
ATOM     78  C   UNL     1       6.306  -5.001  -4.625  1.00  0.00     0.092 C 
BRANCH  78  79
ATOM     79  C   UNL     1       5.071  -5.533  -3.875  1.00  0.00     0.050 C 
BRANCH  79  80
ATOM     80  C   UNL     1       3.824  -4.844  -3.349  1.00  0.00    -0.033 A 
ATOM     81  C   UNL     1       3.186  -5.588  -2.314  1.00  0.00     0.005 A 
ATOM     82  C   UNL     1       3.192  -3.650  -3.730  1.00  0.00     0.021 A 
ATOM     83  C   UNL     1       2.048  -5.136  -1.643  1.00  0.00     0.000 A 
ATOM     84  C   UNL     1       2.043  -3.199  -3.048  1.00  0.00     0.016 A 
ATOM     85  Br  UNL     1       3.742  -2.490  -5.121  1.00  0.00    -0.051 Br
ATOM     86  C   UNL     1       1.482  -3.928  -2.004  1.00  0.00     0.001 A 
ENDBRANCH  79  80
ENDBRANCH  78  79
BRANCH  78  87
ATOM     87  C   UNL     1       6.110  -4.647  -6.108  1.00  0.00     0.129 C 
BRANCH  87  88
ATOM     88  C   UNL     1       6.968  -3.534  -6.669  1.00  0.00     0.389 C 
ATOM     89  F   UNL     1       8.250  -3.913  -6.833  1.00  0.00    -0.171 F 
ATOM     90  F   UNL     1       6.505  -3.193  -7.898  1.00  0.00    -0.171 F 
ATOM     91  F   UNL     1       6.934  -2.426  -5.906  1.00  0.00    -0.171 F 
ENDBRANCH  87  88
ENDBRANCH  78  87
ENDBRANCH  75  78
ENDBRANCH  73  74
ENDBRANCH  72  73
ENDBRANCH   1  72
TORSDOF 18
