REMARK SMILES Cc1ccccc1[C@@H](CC(=O)NCCCCNC(=O)c1ccc(-c2c3nc(c(-c4cc(S(=O)(=O)[O-])ccc4F)c4ccc([nH]4)c(-c4cc(S(=O)(=O)[O-])ccc4F)c4nc(c(-c5cc(S(=O)(=O)[O-])ccc5F)c5ccc2[nH]5)C=C4)C=C3)cc1)NC(=O)C(F)(F)F
REMARK SMILES IDX 14 1 13 2 12 3 10 4 11 5 9 7 8 8 7 9 1 10 2 11 3 12 4 13
REMARK SMILES IDX 6 14 5 15 83 16 84 17 85 19 86 20 87 21 88 22 89 23 15 24
REMARK SMILES IDX 16 25 17 26 18 27 19 29 20 30 21 31 82 32 22 33 81 34 23 35
REMARK SMILES IDX 24 36 25 37 75 38 26 39 80 40 74 41 76 42 27 43 79 44 73 45
REMARK SMILES IDX 72 46 28 48 60 49 40 50 59 51 41 52 44 53 58 54 77 55 42 56
REMARK SMILES IDX 43 57 57 59 78 60 45 61 29 62 30 63 38 64 31 65 37 66 39 67
REMARK SMILES IDX 36 68 32 69 33 70 34 71 35 72 61 73 62 74 70 75 63 76 69 77
REMARK SMILES IDX 71 78 68 79 64 80 65 81 66 82 67 83 46 84 47 85 55 86 48 87
REMARK SMILES IDX 54 88 56 89 53 90 49 91 50 92 51 93 52 94
REMARK H PARENT 12 6 83 18 17 28 76 47 44 58
REMARK Flexibility Score: inf
ROOT
ATOM      1  C   UNL     1      -3.041   1.587   0.527  1.00  0.00     0.023 C 
ENDROOT
BRANCH   1   2
ATOM      2  C   UNL     1      -2.474   1.736  -0.899  1.00  0.00     0.116 C 
BRANCH   2   3
ATOM      3  N   UNL     1      -1.940   3.086  -1.093  1.00  0.00    -0.356 N 
ATOM      4  C   UNL     1      -0.668   3.567  -1.069  1.00  0.00     0.222 C 
ATOM      5  O   UNL     1      -0.532   4.793  -0.995  1.00  0.00    -0.275 OA
ATOM      6  H   UNL     1      -2.626   3.768  -1.273  1.00  0.00     0.163 HD
BRANCH   4   7
ATOM      7  C   UNL     1       0.555   2.675  -1.141  1.00  0.00     0.129 C 
BRANCH   7   8
ATOM      8  C   UNL     1       1.372   2.507   0.164  1.00  0.00     0.122 C 
BRANCH   8   9
ATOM      9  C   UNL     1       1.165   1.116   0.753  1.00  0.00    -0.022 A 
ATOM     10  C   UNL     1       3.258   0.080  -0.364  1.00  0.00     0.045 C 
ATOM     11  C   UNL     1       1.979   0.009   0.425  1.00  0.00    -0.046 A 
ATOM     12  C   UNL     1       1.570  -1.281   0.815  1.00  0.00     0.004 A 
ATOM     13  C   UNL     1       0.413  -1.481   1.560  1.00  0.00     0.000 A 
ATOM     14  C   UNL     1       0.047   0.895   1.579  1.00  0.00     0.006 A 
ATOM     15  C   UNL     1      -0.329  -0.389   1.974  1.00  0.00     0.000 A 
ENDBRANCH   8   9
BRANCH   8  16
ATOM     16  N   UNL     1       1.151   3.549   1.169  1.00  0.00    -0.341 N 
ATOM     17  C   UNL     1       2.000   3.930   2.183  1.00  0.00     0.326 C 
ATOM     18  H   UNL     1       0.296   4.033   1.113  1.00  0.00     0.164 HD
ATOM     19  O   UNL     1       1.552   4.707   3.036  1.00  0.00    -0.265 OA
BRANCH  17  20
ATOM     20  C   UNL     1       3.461   3.421   2.206  1.00  0.00     0.471 C 
ATOM     21  F   UNL     1       3.565   2.069   2.308  1.00  0.00    -0.162 F 
ATOM     22  F   UNL     1       4.144   3.774   1.078  1.00  0.00    -0.162 F 
ATOM     23  F   UNL     1       4.179   3.932   3.249  1.00  0.00    -0.162 F 
ENDBRANCH  17  20
ENDBRANCH   8  16
ENDBRANCH   7   8
ENDBRANCH   4   7
ENDBRANCH   2   3
ENDBRANCH   1   2
BRANCH   1  24
ATOM     24  C   UNL     1      -4.544   1.355   0.736  1.00  0.00     0.023 C 
BRANCH  24  25
ATOM     25  C   UNL     1      -5.151   0.101   0.118  1.00  0.00     0.116 C 
BRANCH  25  26
ATOM     26  N   UNL     1      -4.645  -1.192   0.612  1.00  0.00    -0.352 N 
ATOM     27  C   UNL     1      -4.847  -2.450   0.031  1.00  0.00     0.251 C 
ATOM     28  H   UNL     1      -4.108  -1.168   1.438  1.00  0.00     0.163 HD
ATOM     29  O   UNL     1      -4.914  -3.470   0.714  1.00  0.00    -0.269 OA
BRANCH  27  30
ATOM     30  C   UNL     1      -5.038  -2.501  -1.433  1.00  0.00     0.039 A 
ATOM     31  C   UNL     1      -5.895  -3.369  -2.126  1.00  0.00     0.014 A 
ATOM     32  C   UNL     1      -4.365  -1.516  -2.117  1.00  0.00     0.014 A 
ATOM     33  C   UNL     1      -6.130  -3.140  -3.495  1.00  0.00     0.010 A 
ATOM     34  C   UNL     1      -4.901  -1.067  -3.283  1.00  0.00     0.010 A 
ATOM     35  C   UNL     1      -5.642  -1.958  -4.059  1.00  0.00    -0.014 A 
BRANCH  35  36
ATOM     36  C   UNL     1      -5.521  -1.608  -5.471  1.00  0.00     0.031 A 
ATOM     37  C   UNL     1      -6.606  -1.131  -6.335  1.00  0.00     0.074 A 
ATOM     38  C   UNL     1      -4.238  -1.419  -5.871  1.00  0.00     0.049 A 
ATOM     39  N   UNL     1      -6.522  -1.142  -7.622  1.00  0.00    -0.248 NA
ATOM     40  C   UNL     1      -7.842  -0.541  -5.836  1.00  0.00     0.031 C 
ATOM     41  C   UNL     1      -3.718  -0.625  -6.973  1.00  0.00     0.029 A 
ATOM     42  N   UNL     1      -3.073  -1.867  -5.271  1.00  0.00    -0.354 N 
ATOM     43  C   UNL     1      -7.479  -0.279  -8.095  1.00  0.00     0.074 A 
ATOM     44  C   UNL     1      -8.353  -0.030  -6.966  1.00  0.00     0.031 C 
ATOM     45  C   UNL     1      -2.403  -0.886  -7.106  1.00  0.00     0.029 A 
ATOM     46  C   UNL     1      -2.083  -1.996  -6.224  1.00  0.00     0.049 A 
ATOM     47  H   UNL     1      -2.967  -2.063  -4.312  1.00  0.00     0.167 HD
ATOM     48  C   UNL     1      -7.340   0.286  -9.330  1.00  0.00     0.034 A 
ATOM     49  C   UNL     1      -1.675  -3.251  -6.590  1.00  0.00     0.034 A 
ATOM     50  C   UNL     1      -6.041  -0.025  -9.940  1.00  0.00     0.049 A 
ATOM     51  C   UNL     1      -2.073  -3.580  -8.018  1.00  0.00     0.074 A 
ATOM     52  C   UNL     1      -4.878   0.702 -10.150  1.00  0.00     0.029 A 
ATOM     53  N   UNL     1      -5.705  -1.343 -10.194  1.00  0.00    -0.354 N 
ATOM     54  N   UNL     1      -2.657  -2.745  -8.834  1.00  0.00    -0.248 NA
ATOM     55  C   UNL     1      -1.931  -4.909  -8.605  1.00  0.00     0.031 C 
ATOM     56  C   UNL     1      -3.844  -0.207 -10.529  1.00  0.00     0.029 A 
ATOM     57  C   UNL     1      -4.383  -1.478 -10.582  1.00  0.00     0.049 A 
ATOM     58  H   UNL     1      -6.333  -2.096 -10.109  1.00  0.00     0.167 HD
ATOM     59  C   UNL     1      -3.089  -3.406  -9.949  1.00  0.00     0.074 A 
ATOM     60  C   UNL     1      -2.576  -4.757  -9.774  1.00  0.00     0.031 C 
ATOM     61  C   UNL     1      -3.889  -2.815 -10.890  1.00  0.00     0.034 A 
BRANCH  48  62
ATOM     62  C   UNL     1      -8.273   1.339  -9.878  1.00  0.00     0.023 A 
ATOM     63  C   UNL     1      -7.789   2.308 -10.780  1.00  0.00     0.031 A 
ATOM     64  C   UNL     1      -9.649   1.414  -9.585  1.00  0.00     0.131 A 
ATOM     65  C   UNL     1      -8.616   3.334 -11.270  1.00  0.00     0.055 A 
ATOM     66  C   UNL     1     -10.464   2.464 -10.033  1.00  0.00     0.041 A 
ATOM     67  F   UNL     1     -10.268   0.450  -8.886  1.00  0.00    -0.206 F 
ATOM     68  C   UNL     1      -9.945   3.440 -10.872  1.00  0.00     0.022 A 
BRANCH  65  69
ATOM     69  S   UNL     1      -7.927   4.519 -12.459  1.00  0.00     0.124 S 
ATOM     70  O   UNL     1      -6.834   5.117 -11.699  1.00  0.00    -0.237 OA
ATOM     71  O   UNL     1      -7.543   3.654 -13.569  1.00  0.00    -0.237 OA
ATOM     72  O   UNL     1      -9.050   5.414 -12.735  1.00  0.00    -0.744 OA
ENDBRANCH  65  69
ENDBRANCH  48  62
BRANCH  49  73
ATOM     73  C   UNL     1      -1.695  -4.216  -5.432  1.00  0.00     0.023 A 
ATOM     74  C   UNL     1      -0.865  -3.908  -4.332  1.00  0.00     0.031 A 
ATOM     75  C   UNL     1      -2.783  -5.078  -5.199  1.00  0.00     0.131 A 
ATOM     76  C   UNL     1      -1.228  -4.306  -3.033  1.00  0.00     0.055 A 
ATOM     77  C   UNL     1      -3.095  -5.535  -3.909  1.00  0.00     0.041 A 
ATOM     78  F   UNL     1      -3.643  -5.377  -6.183  1.00  0.00    -0.206 F 
ATOM     79  C   UNL     1      -2.340  -5.118  -2.812  1.00  0.00     0.022 A 
BRANCH  76  80
ATOM     80  S   UNL     1      -0.412  -3.469  -1.638  1.00  0.00     0.124 S 
ATOM     81  O   UNL     1       0.951  -3.985  -1.719  1.00  0.00    -0.237 OA
ATOM     82  O   UNL     1      -0.592  -2.064  -1.999  1.00  0.00    -0.237 OA
ATOM     83  O   UNL     1      -1.177  -3.905  -0.474  1.00  0.00    -0.744 OA
ENDBRANCH  76  80
ENDBRANCH  49  73
BRANCH  61  84
ATOM     84  C   UNL     1      -4.335  -3.509 -12.156  1.00  0.00     0.023 A 
ATOM     85  C   UNL     1      -3.553  -4.499 -12.764  1.00  0.00     0.031 A 
ATOM     86  C   UNL     1      -5.529  -3.168 -12.835  1.00  0.00     0.131 A 
ATOM     87  C   UNL     1      -4.021  -5.208 -13.881  1.00  0.00     0.055 A 
ATOM     88  C   UNL     1      -5.954  -3.816 -13.997  1.00  0.00     0.041 A 
ATOM     89  F   UNL     1      -6.355  -2.208 -12.399  1.00  0.00    -0.206 F 
ATOM     90  C   UNL     1      -5.213  -4.866 -14.512  1.00  0.00     0.022 A 
BRANCH  87  91
ATOM     91  S   UNL     1      -3.071  -6.641 -14.440  1.00  0.00     0.124 S 
ATOM     92  O   UNL     1      -1.730  -6.088 -14.607  1.00  0.00    -0.237 OA
ATOM     93  O   UNL     1      -3.240  -7.562 -13.319  1.00  0.00    -0.237 OA
ATOM     94  O   UNL     1      -3.741  -7.036 -15.677  1.00  0.00    -0.744 OA
ENDBRANCH  87  91
ENDBRANCH  61  84
ENDBRANCH  35  36
ENDBRANCH  27  30
ENDBRANCH  25  26
ENDBRANCH  24  25
ENDBRANCH   1  24
TORSDOF 18
