REMARK SMILES C[N@@H+](CC(=O)NCCCCNC(=O)c1ccc(-c2c3nc(c(-c4cc(S(=O)(=O)[O-])ccc4F)c4ccc([nH]4)c(-c4cc(S(=O)(=O)[O-])ccc4F)c4nc(c(-c5cc(S(=O)(=O)[O-])ccc5F)c5ccc2[nH]5)C=C4)C=C3)cc1)Cc1csc(-c2ccco2)n1
REMARK SMILES IDX 8 1 7 2 6 3 4 4 5 5 3 7 2 8 1 9 77 11 78 12 79 13 87 14
REMARK SMILES IDX 80 15 81 16 82 17 83 18 86 19 84 20 85 21 9 22 10 23 11 24
REMARK SMILES IDX 12 25 13 27 14 28 15 29 76 30 16 31 75 32 17 33 18 34 19 35
REMARK SMILES IDX 69 36 20 37 74 38 68 39 70 40 21 41 73 42 67 43 66 44 22 46
REMARK SMILES IDX 54 47 34 48 53 49 35 50 38 51 52 52 71 53 36 54 37 55 51 57
REMARK SMILES IDX 72 58 39 59 23 60 24 61 32 62 25 63 31 64 33 65 30 66 26 67
REMARK SMILES IDX 27 68 28 69 29 70 55 71 56 72 64 73 57 74 63 75 65 76 62 77
REMARK SMILES IDX 58 78 59 79 60 80 61 81 40 82 41 83 49 84 42 85 48 86 50 87
REMARK SMILES IDX 47 88 43 89 44 90 45 91 46 92
REMARK H PARENT 6 6 2 10 11 26 70 45 38 56
REMARK Flexibility Score: inf
ROOT
ATOM      1  C   UNL     1       0.758  -1.479   1.798  1.00  0.00     0.023 C 
ENDROOT
BRANCH   1   2
ATOM      2  C   UNL     1      -0.543  -1.283   1.022  1.00  0.00     0.116 C 
BRANCH   2   3
ATOM      3  N   UNL     1      -1.256  -0.082   1.401  1.00  0.00    -0.351 N 
ATOM      4  C   UNL     1      -1.527   1.050   0.692  1.00  0.00     0.275 C 
ATOM      5  O   UNL     1      -2.311   1.863   1.191  1.00  0.00    -0.269 OA
ATOM      6  H   UNL     1      -1.601  -0.082   2.323  1.00  0.00     0.163 HD
BRANCH   4   7
ATOM      7  C   UNL     1      -0.934   1.280  -0.695  1.00  0.00     0.363 C 
BRANCH   7   8
ATOM      8  N   UNL     1       0.435   1.795  -0.727  1.00  0.00    -0.325 N 
ATOM      9  C   UNL     1       1.513   0.861  -0.924  1.00  0.00     0.333 C 
ATOM     10  H   UNL     1       0.383   2.172  -1.673  1.00  0.00     0.348 HD
BRANCH   8  11
ATOM     11  C   UNL     1       0.736   3.056  -0.051  1.00  0.00     0.320 C 
BRANCH  11  12
ATOM     12  C   UNL     1       0.702   3.032   1.455  1.00  0.00     0.106 A 
ATOM     13  C   UNL     1       1.374   2.170   2.300  1.00  0.00     0.097 A 
ATOM     14  N   UNL     1      -0.009   4.034   2.126  1.00  0.00    -0.232 NA
ATOM     15  S   UNL     1       1.044   2.535   3.934  1.00  0.00    -0.119 S 
ATOM     16  C   UNL     1       0.095   3.875   3.432  1.00  0.00     0.159 A 
BRANCH  16  17
ATOM     17  C   UNL     1      -0.495   4.757   4.404  1.00  0.00     0.162 A 
ATOM     18  C   UNL     1      -1.479   5.720   4.237  1.00  0.00     0.053 A 
ATOM     19  O   UNL     1      -0.118   4.760   5.728  1.00  0.00    -0.462 OA
ATOM     20  C   UNL     1      -1.712   6.314   5.505  1.00  0.00     0.043 A 
ATOM     21  C   UNL     1      -0.852   5.694   6.377  1.00  0.00     0.196 A 
ENDBRANCH  16  17
ENDBRANCH  11  12
ENDBRANCH   8  11
ENDBRANCH   7   8
ENDBRANCH   4   7
ENDBRANCH   2   3
ENDBRANCH   1   2
BRANCH   1  22
ATOM     22  C   UNL     1       0.622  -1.477   3.317  1.00  0.00     0.023 C 
BRANCH  22  23
ATOM     23  C   UNL     1      -0.158  -2.655   3.869  1.00  0.00     0.116 C 
BRANCH  23  24
ATOM     24  N   UNL     1       0.484  -3.923   3.555  1.00  0.00    -0.352 N 
ATOM     25  C   UNL     1       0.881  -4.926   4.405  1.00  0.00     0.251 C 
ATOM     26  H   UNL     1       0.659  -4.084   2.599  1.00  0.00     0.163 HD
ATOM     27  O   UNL     1       1.622  -5.813   3.999  1.00  0.00    -0.269 OA
BRANCH  25  28
ATOM     28  C   UNL     1       0.417  -4.908   5.808  1.00  0.00     0.039 A 
ATOM     29  C   UNL     1       1.313  -5.231   6.829  1.00  0.00     0.014 A 
ATOM     30  C   UNL     1      -0.901  -4.554   6.109  1.00  0.00     0.014 A 
ATOM     31  C   UNL     1       0.895  -5.147   8.158  1.00  0.00     0.010 A 
ATOM     32  C   UNL     1      -1.280  -4.369   7.431  1.00  0.00     0.010 A 
ATOM     33  C   UNL     1      -0.394  -4.683   8.469  1.00  0.00    -0.014 A 
BRANCH  33  34
ATOM     34  C   UNL     1      -0.854  -4.559   9.874  1.00  0.00     0.031 A 
ATOM     35  C   UNL     1      -2.026  -5.378  10.346  1.00  0.00     0.074 A 
ATOM     36  C   UNL     1      -0.260  -3.672  10.695  1.00  0.00     0.049 A 
ATOM     37  N   UNL     1      -2.634  -5.364  11.503  1.00  0.00    -0.248 NA
ATOM     38  C   UNL     1      -2.618  -6.307   9.370  1.00  0.00     0.031 C 
ATOM     39  C   UNL     1       0.852  -2.792  10.326  1.00  0.00     0.029 A 
ATOM     40  N   UNL     1      -0.508  -3.357  12.007  1.00  0.00    -0.354 N 
ATOM     41  C   UNL     1      -3.686  -6.266  11.388  1.00  0.00     0.074 A 
ATOM     42  C   UNL     1      -3.679  -6.750  10.025  1.00  0.00     0.031 C 
ATOM     43  C   UNL     1       1.211  -2.063  11.395  1.00  0.00     0.029 A 
ATOM     44  C   UNL     1       0.325  -2.384  12.509  1.00  0.00     0.049 A 
ATOM     45  H   UNL     1      -1.216  -3.787  12.539  1.00  0.00     0.167 HD
ATOM     46  C   UNL     1      -4.559  -6.675  12.341  1.00  0.00     0.034 A 
ATOM     47  C   UNL     1       0.361  -1.809  13.728  1.00  0.00     0.034 A 
ATOM     48  C   UNL     1      -4.533  -6.191  13.698  1.00  0.00     0.049 A 
ATOM     49  C   UNL     1      -0.630  -2.269  14.768  1.00  0.00     0.074 A 
ATOM     50  C   UNL     1      -5.325  -6.573  14.765  1.00  0.00     0.029 A 
ATOM     51  N   UNL     1      -3.671  -5.210  14.175  1.00  0.00    -0.354 N 
ATOM     52  N   UNL     1      -1.583  -3.168  14.662  1.00  0.00    -0.248 NA
ATOM     53  C   UNL     1      -0.533  -1.648  16.094  1.00  0.00     0.031 C 
ATOM     54  C   UNL     1      -4.995  -5.773  15.864  1.00  0.00     0.029 A 
ATOM     55  C   UNL     1      -3.936  -4.951  15.510  1.00  0.00     0.049 A 
ATOM     56  H   UNL     1      -2.974  -4.763  13.641  1.00  0.00     0.167 HD
ATOM     57  C   UNL     1      -2.177  -3.241  15.918  1.00  0.00     0.074 A 
ATOM     58  C   UNL     1      -1.462  -2.310  16.768  1.00  0.00     0.031 C 
ATOM     59  C   UNL     1      -3.216  -4.010  16.337  1.00  0.00     0.034 A 
BRANCH  46  60
ATOM     60  C   UNL     1      -5.620  -7.672  11.934  1.00  0.00     0.023 A 
ATOM     61  C   UNL     1      -5.289  -8.953  11.456  1.00  0.00     0.031 A 
ATOM     62  C   UNL     1      -6.982  -7.328  11.996  1.00  0.00     0.131 A 
ATOM     63  C   UNL     1      -6.296  -9.808  10.984  1.00  0.00     0.055 A 
ATOM     64  C   UNL     1      -7.986  -8.218  11.608  1.00  0.00     0.041 A 
ATOM     65  F   UNL     1      -7.361  -6.112  12.421  1.00  0.00    -0.206 F 
ATOM     66  C   UNL     1      -7.645  -9.461  11.083  1.00  0.00     0.022 A 
BRANCH  63  67
ATOM     67  S   UNL     1      -5.809 -11.314  10.098  1.00  0.00     0.124 S 
ATOM     68  O   UNL     1      -5.024 -10.766   8.994  1.00  0.00    -0.237 OA
ATOM     69  O   UNL     1      -5.060 -12.048  11.111  1.00  0.00    -0.237 OA
ATOM     70  O   UNL     1      -7.085 -11.912   9.710  1.00  0.00    -0.744 OA
ENDBRANCH  63  67
ENDBRANCH  46  60
BRANCH  47  71
ATOM     71  C   UNL     1       1.355  -0.740  14.034  1.00  0.00     0.023 A 
ATOM     72  C   UNL     1       2.338  -0.926  15.019  1.00  0.00     0.031 A 
ATOM     73  C   UNL     1       1.313   0.501  13.374  1.00  0.00     0.131 A 
ATOM     74  C   UNL     1       3.204   0.128  15.352  1.00  0.00     0.055 A 
ATOM     75  C   UNL     1       2.215   1.525  13.667  1.00  0.00     0.041 A 
ATOM     76  F   UNL     1       0.396   0.732  12.420  1.00  0.00    -0.206 F 
ATOM     77  C   UNL     1       3.159   1.347  14.673  1.00  0.00     0.022 A 
BRANCH  74  78
ATOM     78  S   UNL     1       4.330  -0.086  16.759  1.00  0.00     0.124 S 
ATOM     79  O   UNL     1       3.400  -0.394  17.839  1.00  0.00    -0.237 OA
ATOM     80  O   UNL     1       5.175  -1.186  16.305  1.00  0.00    -0.237 OA
ATOM     81  O   UNL     1       4.998   1.210  16.860  1.00  0.00    -0.744 OA
ENDBRANCH  74  78
ENDBRANCH  47  71
BRANCH  59  82
ATOM     82  C   UNL     1      -3.604  -3.905  17.791  1.00  0.00     0.023 A 
ATOM     83  C   UNL     1      -4.138  -2.723  18.332  1.00  0.00     0.031 A 
ATOM     84  C   UNL     1      -3.429  -5.006  18.649  1.00  0.00     0.131 A 
ATOM     85  C   UNL     1      -4.421  -2.649  19.704  1.00  0.00     0.055 A 
ATOM     86  C   UNL     1      -3.778  -4.949  19.998  1.00  0.00     0.041 A 
ATOM     87  F   UNL     1      -2.920  -6.159  18.186  1.00  0.00    -0.206 F 
ATOM     88  C   UNL     1      -4.264  -3.761  20.536  1.00  0.00     0.022 A 
BRANCH  85  89
ATOM     89  S   UNL     1      -4.901  -1.049  20.408  1.00  0.00     0.124 S 
ATOM     90  O   UNL     1      -3.760  -0.209  20.058  1.00  0.00    -0.237 OA
ATOM     91  O   UNL     1      -6.146  -0.758  19.704  1.00  0.00    -0.237 OA
ATOM     92  O   UNL     1      -5.048  -1.332  21.835  1.00  0.00    -0.744 OA
ENDBRANCH  85  89
ENDBRANCH  59  82
ENDBRANCH  33  34
ENDBRANCH  25  28
ENDBRANCH  23  24
ENDBRANCH  22  23
ENDBRANCH   1  22
TORSDOF 18
