REMARK SMILES CCSc1cccc(-c2ccc([C@@H](C)C(=O)NCCCCNC(=O)c3ccc(-c4c5nc(c(-c6cc(S(=O)(=O)[O-])ccc6F)c6ccc([nH]6)c(-c6cc(S(=O)(=O)[O-])ccc6F)c6nc(c(-c7cc(S(=O)(=O)[O-])ccc7F)c7ccc4[nH]7)C=C6)C=C5)cc3)cc2)c1
REMARK SMILES IDX 19 1 18 2 17 3 15 4 16 5 13 7 14 8 12 9 9 10 10 11 89 12
REMARK SMILES IDX 11 13 88 14 8 15 4 16 5 17 90 18 6 19 7 20 3 21 2 22 1 23
REMARK SMILES IDX 20 24 21 25 22 26 23 27 24 29 25 30 26 31 87 32 27 33 86 34
REMARK SMILES IDX 28 35 29 36 30 37 80 38 31 39 85 40 79 41 81 42 32 43 84 44
REMARK SMILES IDX 78 45 77 46 33 48 65 49 45 50 64 51 46 52 49 53 63 54 82 55
REMARK SMILES IDX 47 56 48 57 62 59 83 60 50 61 34 62 35 63 43 64 36 65 42 66
REMARK SMILES IDX 44 67 41 68 37 69 38 70 39 71 40 72 66 73 67 74 75 75 68 76
REMARK SMILES IDX 74 77 76 78 73 79 69 80 70 81 71 82 72 83 51 84 52 85 60 86
REMARK SMILES IDX 53 87 59 88 61 89 58 90 54 91 55 92 56 93 57 94
REMARK H PARENT 17 6 22 28 81 47 49 58
REMARK Flexibility Score: inf
ROOT
ATOM      1  C   UNL     1       7.984   3.319  -5.025  1.00  0.00     0.023 C 
ENDROOT
BRANCH   1   2
ATOM      2  C   UNL     1       8.805   4.404  -4.329  1.00  0.00     0.116 C 
BRANCH   2   3
ATOM      3  N   UNL     1       7.976   5.462  -3.790  1.00  0.00    -0.356 N 
ATOM      4  C   UNL     1       7.472   5.660  -2.541  1.00  0.00     0.227 C 
ATOM      5  O   UNL     1       6.736   6.643  -2.386  1.00  0.00    -0.274 OA
ATOM      6  H   UNL     1       7.736   6.161  -4.441  1.00  0.00     0.163 HD
BRANCH   4   7
ATOM      7  C   UNL     1       7.778   4.744  -1.345  1.00  0.00     0.105 C 
ATOM      8  C   UNL     1       9.254   4.711  -0.947  1.00  0.00     0.023 C 
BRANCH   7   9
ATOM      9  C   UNL     1       7.064   3.404  -1.419  1.00  0.00    -0.036 A 
ATOM     10  C   UNL     1       5.564   0.984  -1.708  1.00  0.00    -0.018 A 
ATOM     11  C   UNL     1       6.912   1.067  -2.090  1.00  0.00     0.009 A 
ATOM     12  C   UNL     1       5.000   2.135  -1.133  1.00  0.00     0.009 A 
ATOM     13  C   UNL     1       7.658   2.242  -1.919  1.00  0.00     0.005 A 
ATOM     14  C   UNL     1       5.726   3.326  -1.012  1.00  0.00     0.005 A 
BRANCH  10  15
ATOM     15  C   UNL     1       4.769  -0.254  -1.905  1.00  0.00    -0.017 A 
ATOM     16  C   UNL     1       2.602  -1.358  -2.274  1.00  0.00     0.008 A 
ATOM     17  C   UNL     1       3.232  -2.603  -2.241  1.00  0.00     0.015 A 
ATOM     18  C   UNL     1       3.382  -0.201  -2.151  1.00  0.00     0.023 A 
ATOM     19  C   UNL     1       4.606  -2.689  -2.038  1.00  0.00     0.002 A 
ATOM     20  C   UNL     1       5.361  -1.528  -1.853  1.00  0.00     0.009 A 
BRANCH  16  21
ATOM     21  S   UNL     1       0.827  -1.326  -2.487  1.00  0.00    -0.126 SA
BRANCH  21  22
ATOM     22  C   UNL     1       0.313   0.088  -1.446  1.00  0.00     0.071 C 
ATOM     23  C   UNL     1       0.661  -0.090   0.022  1.00  0.00     0.016 C 
ENDBRANCH  21  22
ENDBRANCH  16  21
ENDBRANCH  10  15
ENDBRANCH   7   9
ENDBRANCH   4   7
ENDBRANCH   2   3
ENDBRANCH   1   2
BRANCH   1  24
ATOM     24  C   UNL     1       7.680   3.584  -6.498  1.00  0.00     0.023 C 
BRANCH  24  25
ATOM     25  C   UNL     1       8.897   3.688  -7.412  1.00  0.00     0.116 C 
BRANCH  25  26
ATOM     26  N   UNL     1       9.764   2.518  -7.381  1.00  0.00    -0.352 N 
ATOM     27  C   UNL     1      10.501   1.976  -8.414  1.00  0.00     0.251 C 
ATOM     28  H   UNL     1       9.834   2.057  -6.514  1.00  0.00     0.163 HD
ATOM     29  O   UNL     1      11.133   0.943  -8.249  1.00  0.00    -0.269 OA
BRANCH  27  30
ATOM     30  C   UNL     1      10.463   2.640  -9.735  1.00  0.00     0.039 A 
ATOM     31  C   UNL     1      10.077   1.897 -10.853  1.00  0.00     0.014 A 
ATOM     32  C   UNL     1      10.712   4.011  -9.842  1.00  0.00     0.014 A 
ATOM     33  C   UNL     1       9.838   2.552 -12.063  1.00  0.00     0.010 A 
ATOM     34  C   UNL     1      10.410   4.669 -11.029  1.00  0.00     0.010 A 
ATOM     35  C   UNL     1       9.948   3.950 -12.144  1.00  0.00    -0.014 A 
BRANCH  35  36
ATOM     36  C   UNL     1       9.550   4.697 -13.365  1.00  0.00     0.031 A 
ATOM     37  C   UNL     1      10.575   5.489 -14.124  1.00  0.00     0.074 A 
ATOM     38  C   UNL     1       8.250   4.750 -13.718  1.00  0.00     0.049 A 
ATOM     39  N   UNL     1      10.407   6.334 -15.107  1.00  0.00    -0.248 NA
ATOM     40  C   UNL     1      11.972   5.334 -13.692  1.00  0.00     0.031 C 
ATOM     41  C   UNL     1       7.156   4.054 -13.035  1.00  0.00     0.029 A 
ATOM     42  N   UNL     1       7.622   5.440 -14.725  1.00  0.00    -0.354 N 
ATOM     43  C   UNL     1      11.673   6.830 -15.399  1.00  0.00     0.074 A 
ATOM     44  C   UNL     1      12.588   6.225 -14.453  1.00  0.00     0.031 C 
ATOM     45  C   UNL     1       5.997   4.347 -13.646  1.00  0.00     0.029 A 
ATOM     46  C   UNL     1       6.254   5.289 -14.730  1.00  0.00     0.049 A 
ATOM     47  H   UNL     1       8.105   5.992 -15.382  1.00  0.00     0.167 HD
ATOM     48  C   UNL     1      12.039   7.694 -16.378  1.00  0.00     0.034 A 
ATOM     49  C   UNL     1       5.311   5.865 -15.502  1.00  0.00     0.034 A 
ATOM     50  C   UNL     1      11.116   8.269 -17.325  1.00  0.00     0.049 A 
ATOM     51  C   UNL     1       5.737   6.850 -16.559  1.00  0.00     0.074 A 
ATOM     52  C   UNL     1      11.389   9.086 -18.409  1.00  0.00     0.029 A 
ATOM     53  N   UNL     1       9.738   8.096 -17.296  1.00  0.00    -0.354 N 
ATOM     54  N   UNL     1       6.945   7.270 -16.857  1.00  0.00    -0.248 NA
ATOM     55  C   UNL     1       4.673   7.442 -17.381  1.00  0.00     0.031 C 
ATOM     56  C   UNL     1      10.174   9.455 -18.997  1.00  0.00     0.029 A 
ATOM     57  C   UNL     1       9.145   8.821 -18.318  1.00  0.00     0.049 A 
ATOM     58  H   UNL     1       9.253   7.540 -16.644  1.00  0.00     0.167 HD
ATOM     59  C   UNL     1       6.786   8.162 -17.912  1.00  0.00     0.074 A 
ATOM     60  C   UNL     1       5.369   8.211 -18.207  1.00  0.00     0.031 C 
ATOM     61  C   UNL     1       7.728   8.875 -18.581  1.00  0.00     0.034 A 
BRANCH  48  62
ATOM     62  C   UNL     1      13.495   8.082 -16.448  1.00  0.00     0.023 A 
ATOM     63  C   UNL     1      14.496   7.137 -16.728  1.00  0.00     0.031 A 
ATOM     64  C   UNL     1      13.890   9.408 -16.197  1.00  0.00     0.131 A 
ATOM     65  C   UNL     1      15.847   7.511 -16.670  1.00  0.00     0.055 A 
ATOM     66  C   UNL     1      15.233   9.791 -16.219  1.00  0.00     0.041 A 
ATOM     67  F   UNL     1      12.979  10.350 -15.906  1.00  0.00    -0.206 F 
ATOM     68  C   UNL     1      16.222   8.836 -16.440  1.00  0.00     0.022 A 
BRANCH  65  69
ATOM     69  S   UNL     1      17.107   6.210 -16.756  1.00  0.00     0.124 S 
ATOM     70  O   UNL     1      16.754   5.381 -15.605  1.00  0.00    -0.237 OA
ATOM     71  O   UNL     1      16.863   5.620 -18.066  1.00  0.00    -0.237 OA
ATOM     72  O   UNL     1      18.365   6.942 -16.625  1.00  0.00    -0.744 OA
ENDBRANCH  65  69
ENDBRANCH  48  62
BRANCH  49  73
ATOM     73  C   UNL     1       3.869   5.559 -15.287  1.00  0.00     0.023 A 
ATOM     74  C   UNL     1       3.125   4.873 -16.259  1.00  0.00     0.031 A 
ATOM     75  C   UNL     1       3.205   5.982 -14.122  1.00  0.00     0.131 A 
ATOM     76  C   UNL     1       1.751   4.662 -16.067  1.00  0.00     0.055 A 
ATOM     77  C   UNL     1       1.847   5.731 -13.915  1.00  0.00     0.041 A 
ATOM     78  F   UNL     1       3.873   6.638 -13.160  1.00  0.00    -0.206 F 
ATOM     79  C   UNL     1       1.109   5.076 -14.897  1.00  0.00     0.022 A 
BRANCH  76  80
ATOM     80  S   UNL     1       0.795   3.895 -17.404  1.00  0.00     0.124 S 
ATOM     81  O   UNL     1       1.027   4.822 -18.506  1.00  0.00    -0.237 OA
ATOM     82  O   UNL     1       1.432   2.588 -17.520  1.00  0.00    -0.237 OA
ATOM     83  O   UNL     1      -0.569   3.877 -16.880  1.00  0.00    -0.744 OA
ENDBRANCH  76  80
ENDBRANCH  49  73
BRANCH  61  84
ATOM     84  C   UNL     1       7.246   9.745 -19.712  1.00  0.00     0.023 A 
ATOM     85  C   UNL     1       6.514  10.920 -19.473  1.00  0.00     0.031 A 
ATOM     86  C   UNL     1       7.526   9.393 -21.044  1.00  0.00     0.131 A 
ATOM     87  C   UNL     1       6.051  11.684 -20.554  1.00  0.00     0.055 A 
ATOM     88  C   UNL     1       7.104  10.183 -22.114  1.00  0.00     0.041 A 
ATOM     89  F   UNL     1       8.221   8.280 -21.325  1.00  0.00    -0.206 F 
ATOM     90  C   UNL     1       6.355  11.332 -21.872  1.00  0.00     0.022 A 
BRANCH  87  91
ATOM     91  S   UNL     1       4.999  13.123 -20.219  1.00  0.00     0.124 S 
ATOM     92  O   UNL     1       3.826  12.505 -19.610  1.00  0.00    -0.237 OA
ATOM     93  O   UNL     1       5.834  13.923 -19.329  1.00  0.00    -0.237 OA
ATOM     94  O   UNL     1       4.778  13.702 -21.543  1.00  0.00    -0.744 OA
ENDBRANCH  87  91
ENDBRANCH  61  84
ENDBRANCH  35  36
ENDBRANCH  27  30
ENDBRANCH  25  26
ENDBRANCH  24  25
ENDBRANCH   1  24
TORSDOF 18
