REMARK SMILES Cc1c(Cl)cccc1NC(=O)C[C@H](C(=O)NCCCCNC(=O)c1ccc(-c2c3nc(c(-c4cc(S(=O)(=O)[O-])ccc4F)c4ccc([nH]4)c(-c4cc(S(=O)(=O)[O-])ccc4F)c4nc(c(-c5cc(S(=O)(=O)[O-])ccc5F)c5ccc2[nH]5)C=C4)C=C3)cc1)[C@H](C)c1ccccc1
REMARK SMILES IDX 18 1 17 2 16 3 14 4 15 5 13 7 12 8 10 9 9 10 11 12 8 13 1 14
REMARK SMILES IDX 2 15 3 16 4 17 5 18 7 19 6 20 87 21 88 22 89 23 90 24 94 25
REMARK SMILES IDX 91 26 93 27 92 28 19 29 20 30 21 31 22 32 23 34 24 35 25 36
REMARK SMILES IDX 86 37 26 38 85 39 27 40 28 41 29 42 79 43 30 44 84 45 78 46
REMARK SMILES IDX 80 47 31 48 83 49 77 50 76 51 32 53 64 54 44 55 63 56 45 57
REMARK SMILES IDX 48 58 62 59 81 60 46 61 47 62 61 64 82 65 49 66 33 67 34 68
REMARK SMILES IDX 42 69 35 70 41 71 43 72 40 73 36 74 37 75 38 76 39 77 65 78
REMARK SMILES IDX 66 79 74 80 67 81 73 82 75 83 72 84 68 85 69 86 70 87 71 88
REMARK SMILES IDX 50 89 51 90 59 91 52 92 58 93 60 94 57 95 53 96 54 97 55 98
REMARK SMILES IDX 56 99
REMARK H PARENT 16 6 9 11 21 33 80 52 48 63
REMARK Flexibility Score: inf
ROOT
ATOM      1  C   UNL     1      -4.569   0.422   2.688  1.00  0.00     0.023 C 
ENDROOT
BRANCH   1   2
ATOM      2  C   UNL     1      -4.914  -0.755   0.881  1.00  0.00     0.116 C 
BRANCH   2   3
ATOM      3  N   UNL     1      -6.254  -1.399   0.256  1.00  0.00    -0.356 N 
ATOM      4  C   UNL     1      -6.911  -1.230  -0.921  1.00  0.00     0.224 C 
ATOM      5  O   UNL     1      -7.984  -1.820  -1.069  1.00  0.00    -0.275 OA
ATOM      6  H   UNL     1      -6.687  -2.051   0.853  1.00  0.00     0.163 HD
BRANCH   4   7
ATOM      7  C   UNL     1      -6.368  -0.310  -2.007  1.00  0.00     0.095 C 
BRANCH   7   8
ATOM      8  C   UNL     1      -6.792   1.131  -1.621  1.00  0.00     0.114 C 
BRANCH   8   9
ATOM      9  C   UNL     1      -5.809   2.246  -1.339  1.00  0.00     0.225 C 
ATOM     10  N   UNL     1      -5.160   2.368  -0.143  1.00  0.00    -0.326 N 
ATOM     11  H   UNL     1      -4.777   3.250   0.070  1.00  0.00     0.169 HD
ATOM     12  O   UNL     1      -5.552   3.078  -2.215  1.00  0.00    -0.275 OA
BRANCH  10  13
ATOM     13  C   UNL     1      -4.989   1.359   0.805  1.00  0.00     0.045 A 
ATOM     14  C   UNL     1      -2.137   1.465   0.444  1.00  0.00     0.048 C 
ATOM     15  C   UNL     1      -3.316   0.701   0.973  1.00  0.00    -0.009 A 
ATOM     16  C   UNL     1      -3.037  -0.825   1.880  1.00  0.00     0.046 A 
ATOM     17  Cl  UNL     1      -1.457  -1.490   1.989  1.00  0.00    -0.084 Cl
ATOM     18  C   UNL     1      -4.413  -1.675   2.673  1.00  0.00     0.021 A 
ATOM     19  C   UNL     1      -6.370   0.549   1.636  1.00  0.00     0.026 A 
ATOM     20  C   UNL     1      -6.083  -0.983   2.577  1.00  0.00     0.004 A 
ENDBRANCH  10  13
ENDBRANCH   8   9
ENDBRANCH   7   8
BRANCH   7  21
ATOM     21  C   UNL     1      -4.943  -0.795  -2.426  1.00  0.00     0.029 C 
ATOM     22  C   UNL     1      -3.842   0.251  -2.587  1.00  0.00     0.013 C 
BRANCH  21  23
ATOM     23  C   UNL     1      -4.914  -1.824  -3.564  1.00  0.00    -0.044 A 
ATOM     24  C   UNL     1      -5.310  -3.149  -3.300  1.00  0.00     0.004 A 
ATOM     25  C   UNL     1      -4.312  -1.545  -4.799  1.00  0.00     0.004 A 
ATOM     26  C   UNL     1      -5.011  -4.174  -4.197  1.00  0.00     0.000 A 
ATOM     27  C   UNL     1      -3.999  -2.574  -5.686  1.00  0.00     0.000 A 
ATOM     28  C   UNL     1      -4.328  -3.890  -5.376  1.00  0.00     0.000 A 
ENDBRANCH  21  23
ENDBRANCH   7  21
ENDBRANCH   4   7
ENDBRANCH   2   3
ENDBRANCH   1   2
BRANCH   1  29
ATOM     29  C   UNL     1      -5.026   0.341   4.344  1.00  0.00     0.023 C 
BRANCH  29  30
ATOM     30  C   UNL     1      -4.446  -0.721   5.274  1.00  0.00     0.116 C 
BRANCH  30  31
ATOM     31  N   UNL     1      -3.008  -0.904   5.132  1.00  0.00    -0.352 N 
ATOM     32  C   UNL     1      -2.198  -1.712   5.887  1.00  0.00     0.251 C 
ATOM     33  H   UNL     1      -2.569  -0.391   4.415  1.00  0.00     0.163 HD
ATOM     34  O   UNL     1      -1.000  -1.819   5.666  1.00  0.00    -0.269 OA
BRANCH  32  35
ATOM     35  C   UNL     1      -2.828  -2.362   7.038  1.00  0.00     0.039 A 
ATOM     36  C   UNL     1      -2.552  -1.827   8.294  1.00  0.00     0.014 A 
ATOM     37  C   UNL     1      -3.835  -3.309   6.840  1.00  0.00     0.014 A 
ATOM     38  C   UNL     1      -3.332  -2.218   9.371  1.00  0.00     0.010 A 
ATOM     39  C   UNL     1      -4.666  -3.632   7.903  1.00  0.00     0.010 A 
ATOM     40  C   UNL     1      -4.415  -3.091   9.174  1.00  0.00    -0.014 A 
BRANCH  40  41
ATOM     41  C   UNL     1      -5.267  -3.463  10.323  1.00  0.00     0.031 A 
ATOM     42  C   UNL     1      -5.254  -4.881  10.807  1.00  0.00     0.074 A 
ATOM     43  C   UNL     1      -6.016  -2.518  10.924  1.00  0.00     0.049 A 
ATOM     44  N   UNL     1      -5.897  -5.412  11.811  1.00  0.00    -0.248 NA
ATOM     45  C   UNL     1      -4.424  -5.834  10.051  1.00  0.00     0.031 C 
ATOM     46  C   UNL     1      -6.100  -1.115  10.506  1.00  0.00     0.029 A 
ATOM     47  N   UNL     1      -6.831  -2.583  12.023  1.00  0.00    -0.354 N 
ATOM     48  C   UNL     1      -5.550  -6.758  11.807  1.00  0.00     0.074 A 
ATOM     49  C   UNL     1      -4.699  -6.976  10.660  1.00  0.00     0.031 C 
ATOM     50  C   UNL     1      -6.881  -0.445  11.368  1.00  0.00     0.029 A 
ATOM     51  C   UNL     1      -7.399  -1.376  12.363  1.00  0.00     0.049 A 
ATOM     52  H   UNL     1      -6.995  -3.415  12.523  1.00  0.00     0.167 HD
ATOM     53  C   UNL     1      -5.894  -7.715  12.700  1.00  0.00     0.034 A 
ATOM     54  C   UNL     1      -8.249  -1.067  13.363  1.00  0.00     0.034 A 
ATOM     55  C   UNL     1      -6.742  -7.462  13.836  1.00  0.00     0.049 A 
ATOM     56  C   UNL     1      -8.661  -2.169  14.309  1.00  0.00     0.074 A 
ATOM     57  C   UNL     1      -7.135  -8.342  14.827  1.00  0.00     0.029 A 
ATOM     58  N   UNL     1      -7.337  -6.240  14.127  1.00  0.00    -0.354 N 
ATOM     59  N   UNL     1      -8.290  -3.430  14.318  1.00  0.00    -0.248 NA
ATOM     60  C   UNL     1      -9.595  -1.809  15.381  1.00  0.00     0.031 C 
ATOM     61  C   UNL     1      -8.040  -7.680  15.660  1.00  0.00     0.029 A 
ATOM     62  C   UNL     1      -8.129  -6.357  15.256  1.00  0.00     0.049 A 
ATOM     63  H   UNL     1      -7.214  -5.414  13.606  1.00  0.00     0.167 HD
ATOM     64  C   UNL     1      -8.917  -4.002  15.421  1.00  0.00     0.074 A 
ATOM     65  C   UNL     1      -9.671  -2.943  16.060  1.00  0.00     0.031 C 
ATOM     66  C   UNL     1      -8.874  -5.283  15.870  1.00  0.00     0.034 A 
BRANCH  53  67
ATOM     67  C   UNL     1      -5.389  -9.114  12.456  1.00  0.00     0.023 A 
ATOM     68  C   UNL     1      -4.017  -9.421  12.456  1.00  0.00     0.031 A 
ATOM     69  C   UNL     1      -6.298 -10.157  12.204  1.00  0.00     0.131 A 
ATOM     70  C   UNL     1      -3.592 -10.722  12.150  1.00  0.00     0.055 A 
ATOM     71  C   UNL     1      -5.871 -11.467  11.986  1.00  0.00     0.041 A 
ATOM     72  F   UNL     1      -7.617  -9.917  12.156  1.00  0.00    -0.206 F 
ATOM     73  C   UNL     1      -4.510 -11.754  11.946  1.00  0.00     0.022 A 
BRANCH  70  74
ATOM     74  S   UNL     1      -1.822 -11.015  11.882  1.00  0.00     0.124 S 
ATOM     75  O   UNL     1      -1.538 -10.104  10.775  1.00  0.00    -0.237 OA
ATOM     76  O   UNL     1      -1.243 -10.655  13.171  1.00  0.00    -0.237 OA
ATOM     77  O   UNL     1      -1.758 -12.435  11.542  1.00  0.00    -0.744 OA
ENDBRANCH  70  74
ENDBRANCH  53  67
BRANCH  54  78
ATOM     78  C   UNL     1      -8.786   0.318  13.516  1.00  0.00     0.023 A 
ATOM     79  C   UNL     1      -8.581   1.051  14.695  1.00  0.00     0.031 A 
ATOM     80  C   UNL     1      -9.580   0.903  12.512  1.00  0.00     0.131 A 
ATOM     81  C   UNL     1      -9.219   2.290  14.871  1.00  0.00     0.055 A 
ATOM     82  C   UNL     1     -10.151   2.168  12.661  1.00  0.00     0.041 A 
ATOM     83  F   UNL     1      -9.815   0.249  11.363  1.00  0.00    -0.206 F 
ATOM     84  C   UNL     1      -9.988   2.861  13.856  1.00  0.00     0.022 A 
BRANCH  81  85
ATOM     85  S   UNL     1      -9.143   3.079  16.503  1.00  0.00     0.124 S 
ATOM     86  O   UNL     1      -9.673   2.027  17.363  1.00  0.00    -0.237 OA
ATOM     87  O   UNL     1      -7.718   3.362  16.636  1.00  0.00    -0.237 OA
ATOM     88  O   UNL     1     -10.000   4.254  16.352  1.00  0.00    -0.744 OA
ENDBRANCH  81  85
ENDBRANCH  54  78
BRANCH  66  89
ATOM     89  C   UNL     1      -9.623  -5.589  17.144  1.00  0.00     0.023 A 
ATOM     90  C   UNL     1     -11.022  -5.488  17.226  1.00  0.00     0.031 A 
ATOM     91  C   UNL     1      -8.919  -5.989  18.295  1.00  0.00     0.131 A 
ATOM     92  C   UNL     1     -11.666  -5.718  18.449  1.00  0.00     0.055 A 
ATOM     93  C   UNL     1      -9.574  -6.297  19.486  1.00  0.00     0.041 A 
ATOM     94  F   UNL     1      -7.581  -6.097  18.276  1.00  0.00    -0.206 F 
ATOM     95  C   UNL     1     -10.955  -6.146  19.573  1.00  0.00     0.022 A 
BRANCH  92  96
ATOM     96  S   UNL     1     -13.432  -5.333  18.583  1.00  0.00     0.124 S 
ATOM     97  O   UNL     1     -13.462  -3.922  18.211  1.00  0.00    -0.237 OA
ATOM     98  O   UNL     1     -14.027  -6.257  17.623  1.00  0.00    -0.237 OA
ATOM     99  O   UNL     1     -13.738  -5.612  19.985  1.00  0.00    -0.744 OA
ENDBRANCH  92  96
ENDBRANCH  66  89
ENDBRANCH  40  41
ENDBRANCH  32  35
ENDBRANCH  30  31
ENDBRANCH  29  30
ENDBRANCH   1  29
TORSDOF 19
