REMARK SMILES CC(=O)Oc1ccccc1C(=O)NCCCCNC(=O)c1ccc(-c2c3nc(c(-c4cc(S(=O)(=O)[O-])ccc4F)c4ccc([nH]4)c(-c4cc(S(=O)(=O)[O-])ccc4F)c4nc(c(-c5cc(S(=O)(=O)[O-])ccc5F)c5ccc2[nH]5)C=C4)C=C3)cc1
REMARK SMILES IDX 16 1 15 2 14 3 13 4 11 5 12 6 10 8 5 9 6 10 7 11 9 12 8 13
REMARK SMILES IDX 4 14 2 15 1 16 3 17 17 18 18 19 19 20 20 22 21 23 22 24
REMARK SMILES IDX 83 25 23 26 82 27 24 28 25 29 26 30 76 31 27 32 81 33 75 34
REMARK SMILES IDX 77 35 28 36 80 37 74 38 73 39 29 41 61 42 41 43 60 44 42 45
REMARK SMILES IDX 45 46 59 47 78 48 43 49 44 50 58 52 79 53 46 54 30 55 31 56
REMARK SMILES IDX 39 57 32 58 38 59 40 60 37 61 33 62 34 63 35 64 36 65 62 66
REMARK SMILES IDX 63 67 71 68 64 69 70 70 72 71 69 72 65 73 66 74 67 75 68 76
REMARK SMILES IDX 47 77 48 78 56 79 49 80 55 81 57 82 54 83 50 84 51 85 52 86
REMARK SMILES IDX 53 87
REMARK H PARENT 13 7 18 21 77 40 45 51
REMARK Flexibility Score: inf
ROOT
ATOM      1  C   UNL     1      -0.809   2.049  -1.259  1.00  0.00     0.023 C 
ENDROOT
BRANCH   1   2
ATOM      2  C   UNL     1      -0.442   0.940  -2.244  1.00  0.00     0.023 C 
BRANCH   2   3
ATOM      3  C   UNL     1      -0.262  -0.456  -1.671  1.00  0.00     0.116 C 
BRANCH   3   4
ATOM      4  N   UNL     1      -1.449  -1.132  -1.210  1.00  0.00    -0.352 N 
ATOM      5  C   UNL     1      -1.697  -2.484  -1.091  1.00  0.00     0.255 C 
ATOM      6  O   UNL     1      -2.773  -2.821  -0.591  1.00  0.00    -0.269 OA
ATOM      7  H   UNL     1      -2.190  -0.543  -0.940  1.00  0.00     0.163 HD
BRANCH   5   8
ATOM      8  C   UNL     1      -0.802  -3.549  -1.643  1.00  0.00     0.082 A 
ATOM      9  C   UNL     1       0.599  -3.585  -1.652  1.00  0.00     0.143 A 
ATOM     10  C   UNL     1       1.292  -4.601  -2.330  1.00  0.00     0.048 A 
ATOM     11  C   UNL     1       0.597  -5.640  -2.945  1.00  0.00     0.004 A 
ATOM     12  C   UNL     1      -1.480  -4.639  -2.231  1.00  0.00     0.018 A 
ATOM     13  C   UNL     1      -0.790  -5.672  -2.875  1.00  0.00     0.001 A 
BRANCH   9  14
ATOM     14  O   UNL     1       1.432  -2.601  -1.101  1.00  0.00    -0.426 OA
BRANCH  14  15
ATOM     15  C   UNL     1       1.505  -2.527   0.285  1.00  0.00     0.308 C 
ATOM     16  C   UNL     1       2.425  -1.396   0.659  1.00  0.00     0.139 C 
ATOM     17  O   UNL     1       0.944  -3.271   1.082  1.00  0.00    -0.252 OA
ENDBRANCH  14  15
ENDBRANCH   9  14
ENDBRANCH   5   8
ENDBRANCH   3   4
ENDBRANCH   2   3
ENDBRANCH   1   2
BRANCH   1  18
ATOM     18  C   UNL     1       0.011   2.163   0.026  1.00  0.00     0.116 C 
BRANCH  18  19
ATOM     19  N   UNL     1       1.446   2.312  -0.172  1.00  0.00    -0.352 N 
ATOM     20  C   UNL     1       2.332   3.182   0.430  1.00  0.00     0.251 C 
ATOM     21  H   UNL     1       1.843   1.701  -0.834  1.00  0.00     0.163 HD
ATOM     22  O   UNL     1       3.519   3.140   0.117  1.00  0.00    -0.269 OA
BRANCH  20  23
ATOM     23  C   UNL     1       1.849   4.204   1.389  1.00  0.00     0.039 A 
ATOM     24  C   UNL     1       2.251   5.530   1.205  1.00  0.00     0.014 A 
ATOM     25  C   UNL     1       0.963   3.883   2.421  1.00  0.00     0.014 A 
ATOM     26  C   UNL     1       1.675   6.543   1.976  1.00  0.00     0.010 A 
ATOM     27  C   UNL     1       0.328   4.903   3.131  1.00  0.00     0.010 A 
ATOM     28  C   UNL     1       0.658   6.247   2.900  1.00  0.00    -0.014 A 
BRANCH  28  29
ATOM     29  C   UNL     1      -0.098   7.346   3.564  1.00  0.00     0.031 A 
ATOM     30  C   UNL     1      -0.063   7.524   5.057  1.00  0.00     0.074 A 
ATOM     31  C   UNL     1      -0.850   8.173   2.809  1.00  0.00     0.049 A 
ATOM     32  N   UNL     1      -0.621   8.453   5.792  1.00  0.00    -0.248 NA
ATOM     33  C   UNL     1       0.670   6.510   5.825  1.00  0.00     0.031 C 
ATOM     34  C   UNL     1      -1.021   8.064   1.357  1.00  0.00     0.029 A 
ATOM     35  N   UNL     1      -1.600   9.272   3.146  1.00  0.00    -0.354 N 
ATOM     36  C   UNL     1      -0.302   8.141   7.109  1.00  0.00     0.074 A 
ATOM     37  C   UNL     1       0.430   6.891   7.070  1.00  0.00     0.031 C 
ATOM     38  C   UNL     1      -1.773   9.088   0.924  1.00  0.00     0.029 A 
ATOM     39  C   UNL     1      -2.179   9.900   2.066  1.00  0.00     0.049 A 
ATOM     40  H   UNL     1      -1.714   9.583   4.073  1.00  0.00     0.167 HD
ATOM     41  C   UNL     1      -0.568   8.843   8.240  1.00  0.00     0.034 A 
ATOM     42  C   UNL     1      -2.944  11.007   1.997  1.00  0.00     0.034 A 
ATOM     43  C   UNL     1      -1.317  10.079   8.260  1.00  0.00     0.049 A 
ATOM     44  C   UNL     1      -3.254  11.754   3.268  1.00  0.00     0.074 A 
ATOM     45  C   UNL     1      -1.605  10.897   9.340  1.00  0.00     0.029 A 
ATOM     46  N   UNL     1      -1.917  10.668   7.152  1.00  0.00    -0.354 N 
ATOM     47  N   UNL     1      -2.878  11.488   4.498  1.00  0.00    -0.248 NA
ATOM     48  C   UNL     1      -4.081  12.959   3.136  1.00  0.00     0.031 C 
ATOM     49  C   UNL     1      -2.444  11.928   8.901  1.00  0.00     0.029 A 
ATOM     50  C   UNL     1      -2.607  11.812   7.530  1.00  0.00     0.049 A 
ATOM     51  H   UNL     1      -1.860  10.323   6.232  1.00  0.00     0.167 HD
ATOM     52  C   UNL     1      -3.406  12.508   5.285  1.00  0.00     0.074 A 
ATOM     53  C   UNL     1      -4.097  13.408   4.381  1.00  0.00     0.031 C 
ATOM     54  C   UNL     1      -3.327  12.686   6.630  1.00  0.00     0.034 A 
BRANCH  41  55
ATOM     55  C   UNL     1      -0.068   8.263   9.546  1.00  0.00     0.023 A 
ATOM     56  C   UNL     1       1.302   8.032   9.773  1.00  0.00     0.031 A 
ATOM     57  C   UNL     1      -0.969   7.889  10.558  1.00  0.00     0.131 A 
ATOM     58  C   UNL     1       1.719   7.356  10.930  1.00  0.00     0.055 A 
ATOM     59  C   UNL     1      -0.537   7.305  11.752  1.00  0.00     0.041 A 
ATOM     60  F   UNL     1      -2.290   8.064  10.398  1.00  0.00    -0.206 F 
ATOM     61  C   UNL     1       0.812   7.016  11.934  1.00  0.00     0.022 A 
BRANCH  58  62
ATOM     62  S   UNL     1       3.433   6.766  11.014  1.00  0.00     0.124 S 
ATOM     63  O   UNL     1       3.523   5.949   9.807  1.00  0.00    -0.237 OA
ATOM     64  O   UNL     1       4.195   8.009  11.003  1.00  0.00    -0.237 OA
ATOM     65  O   UNL     1       3.476   6.017  12.268  1.00  0.00    -0.744 OA
ENDBRANCH  58  62
ENDBRANCH  41  55
BRANCH  42  66
ATOM     66  C   UNL     1      -3.462  11.487   0.682  1.00  0.00     0.023 A 
ATOM     67  C   UNL     1      -3.059  12.723   0.151  1.00  0.00     0.031 A 
ATOM     68  C   UNL     1      -4.388  10.725  -0.052  1.00  0.00     0.131 A 
ATOM     69  C   UNL     1      -3.608  13.178  -1.058  1.00  0.00     0.055 A 
ATOM     70  C   UNL     1      -4.890  11.157  -1.281  1.00  0.00     0.041 A 
ATOM     71  F   UNL     1      -4.805   9.534   0.407  1.00  0.00    -0.206 F 
ATOM     72  C   UNL     1      -4.508  12.396  -1.785  1.00  0.00     0.022 A 
BRANCH  69  73
ATOM     73  S   UNL     1      -3.181  14.844  -1.637  1.00  0.00     0.124 S 
ATOM     74  O   UNL     1      -3.653  15.672  -0.534  1.00  0.00    -0.237 OA
ATOM     75  O   UNL     1      -1.734  14.748  -1.795  1.00  0.00    -0.237 OA
ATOM     76  O   UNL     1      -3.933  14.974  -2.883  1.00  0.00    -0.744 OA
ENDBRANCH  69  73
ENDBRANCH  42  66
BRANCH  54  77
ATOM     77  C   UNL     1      -3.997  13.920   7.192  1.00  0.00     0.023 A 
ATOM     78  C   UNL     1      -5.386  14.120   7.084  1.00  0.00     0.031 A 
ATOM     79  C   UNL     1      -3.233  14.935   7.795  1.00  0.00     0.131 A 
ATOM     80  C   UNL     1      -5.952  15.339   7.487  1.00  0.00     0.055 A 
ATOM     81  C   UNL     1      -3.816  16.112   8.270  1.00  0.00     0.041 A 
ATOM     82  F   UNL     1      -1.903  14.807   7.923  1.00  0.00    -0.206 F 
ATOM     83  C   UNL     1      -5.180  16.328   8.098  1.00  0.00     0.022 A 
BRANCH  80  84
ATOM     84  S   UNL     1      -7.686  15.671   7.064  1.00  0.00     0.124 S 
ATOM     85  O   UNL     1      -7.682  15.492   5.616  1.00  0.00    -0.237 OA
ATOM     86  O   UNL     1      -8.395  14.652   7.831  1.00  0.00    -0.237 OA
ATOM     87  O   UNL     1      -7.892  17.045   7.518  1.00  0.00    -0.744 OA
ENDBRANCH  80  84
ENDBRANCH  54  77
ENDBRANCH  28  29
ENDBRANCH  20  23
ENDBRANCH  18  19
ENDBRANCH   1  18
TORSDOF 16
