REMARK SMILES O=C(NCCCCNC(=O)c1cc(-c2ccc(C(F)(F)F)cc2)cc([N+](=O)[O-])c1)c1ccc(-c2c3nc(c(-c4cc(S(=O)(=O)[O-])ccc4F)c4ccc([nH]4)c(-c4cc(S(=O)(=O)[O-])ccc4F)c4nc(c(-c5cc(S(=O)(=O)[O-])ccc5F)c5ccc2[nH]5)C=C4)C=C3)cc1
REMARK SMILES IDX 5 1 4 2 3 3 1 4 2 5 30 7 31 8 92 9 32 10 91 11 33 12 34 13
REMARK SMILES IDX 35 14 85 15 36 16 90 17 84 18 86 19 37 20 89 21 83 22 82 23
REMARK SMILES IDX 38 25 70 26 50 27 69 28 51 29 54 30 68 31 87 32 52 33 53 34
REMARK SMILES IDX 67 36 88 37 55 38 39 39 40 40 48 41 41 42 47 43 49 44 46 45
REMARK SMILES IDX 42 46 43 47 44 48 45 49 71 50 72 51 80 52 73 53 79 54 81 55
REMARK SMILES IDX 78 56 74 57 75 58 76 59 77 60 56 61 57 62 65 63 58 64 64 65
REMARK SMILES IDX 66 66 63 67 59 68 60 69 61 70 62 71 6 72 7 73 8 74 9 75
REMARK SMILES IDX 10 77 11 78 12 79 29 80 13 81 25 82 24 83 14 84 15 85 23 86
REMARK SMILES IDX 16 87 22 88 17 89 18 90 19 91 20 92 21 93 26 94 27 95 28 96
REMARK H PARENT 3 6 86 24 54 35 8 76
REMARK Flexibility Score: inf
ROOT
ATOM      1  C   UNL     1       4.945   2.219   1.271  1.00  0.00     0.023 C 
ENDROOT
BRANCH   1   2
ATOM      2  C   UNL     1       4.614   0.754   1.021  1.00  0.00     0.116 C 
BRANCH   2   3
ATOM      3  N   UNL     1       3.183   0.499   0.991  1.00  0.00    -0.352 N 
ATOM      4  O   UNL     1       1.204  -0.070   0.073  1.00  0.00    -0.269 OA
ATOM      5  C   UNL     1       2.431  -0.078  -0.003  1.00  0.00     0.251 C 
ATOM      6  H   UNL     1       2.684   0.778   1.793  1.00  0.00     0.163 HD
BRANCH   5   7
ATOM      7  C   UNL     1       3.103  -0.687  -1.170  1.00  0.00     0.039 A 
ATOM      8  C   UNL     1       4.196  -1.541  -0.993  1.00  0.00     0.014 A 
ATOM      9  C   UNL     1       2.632  -0.403  -2.454  1.00  0.00     0.014 A 
ATOM     10  C   UNL     1       4.891  -2.014  -2.100  1.00  0.00     0.010 A 
ATOM     11  C   UNL     1       3.285  -0.944  -3.566  1.00  0.00     0.010 A 
ATOM     12  C   UNL     1       4.429  -1.739  -3.397  1.00  0.00    -0.014 A 
BRANCH  12  13
ATOM     13  C   UNL     1       5.099  -2.373  -4.561  1.00  0.00     0.031 A 
ATOM     14  C   UNL     1       5.821  -1.546  -5.587  1.00  0.00     0.074 A 
ATOM     15  C   UNL     1       5.034  -3.713  -4.682  1.00  0.00     0.049 A 
ATOM     16  N   UNL     1       6.419  -1.937  -6.683  1.00  0.00    -0.248 NA
ATOM     17  C   UNL     1       5.874  -0.095  -5.359  1.00  0.00     0.031 C 
ATOM     18  C   UNL     1       4.350  -4.608  -3.743  1.00  0.00     0.029 A 
ATOM     19  N   UNL     1       5.540  -4.560  -5.634  1.00  0.00    -0.354 N 
ATOM     20  C   UNL     1       6.900  -0.782  -7.290  1.00  0.00     0.074 A 
ATOM     21  C   UNL     1       6.508   0.328  -6.446  1.00  0.00     0.031 C 
ATOM     22  C   UNL     1       4.495  -5.875  -4.156  1.00  0.00     0.029 A 
ATOM     23  C   UNL     1       5.215  -5.880  -5.423  1.00  0.00     0.049 A 
ATOM     24  H   UNL     1       6.082  -4.252  -6.396  1.00  0.00     0.167 HD
ATOM     25  C   UNL     1       7.601  -0.667  -8.445  1.00  0.00     0.034 A 
ATOM     26  C   UNL     1       5.432  -6.970  -6.184  1.00  0.00     0.034 A 
ATOM     27  C   UNL     1       7.992  -1.792  -9.262  1.00  0.00     0.049 A 
ATOM     28  C   UNL     1       6.169  -6.803  -7.484  1.00  0.00     0.074 A 
ATOM     29  C   UNL     1       8.777  -1.797 -10.403  1.00  0.00     0.029 A 
ATOM     30  N   UNL     1       7.610  -3.109  -9.040  1.00  0.00    -0.354 N 
ATOM     31  N   UNL     1       6.665  -5.709  -8.015  1.00  0.00    -0.248 NA
ATOM     32  C   UNL     1       6.373  -8.012  -8.289  1.00  0.00     0.031 C 
ATOM     33  C   UNL     1       8.805  -3.100 -10.911  1.00  0.00     0.029 A 
ATOM     34  C   UNL     1       8.099  -3.924 -10.050  1.00  0.00     0.049 A 
ATOM     35  H   UNL     1       7.070  -3.419  -8.277  1.00  0.00     0.167 HD
ATOM     36  C   UNL     1       7.250  -6.103  -9.213  1.00  0.00     0.074 A 
ATOM     37  C   UNL     1       7.067  -7.537  -9.313  1.00  0.00     0.031 C 
ATOM     38  C   UNL     1       7.882  -5.348 -10.147  1.00  0.00     0.034 A 
BRANCH  25  39
ATOM     39  C   UNL     1       7.951   0.720  -8.926  1.00  0.00     0.023 A 
ATOM     40  C   UNL     1       8.854   1.546  -8.236  1.00  0.00     0.031 A 
ATOM     41  C   UNL     1       7.382   1.214 -10.114  1.00  0.00     0.131 A 
ATOM     42  C   UNL     1       9.126   2.838  -8.713  1.00  0.00     0.055 A 
ATOM     43  C   UNL     1       7.705   2.475 -10.618  1.00  0.00     0.041 A 
ATOM     44  F   UNL     1       6.499   0.476 -10.806  1.00  0.00    -0.206 F 
ATOM     45  C   UNL     1       8.575   3.300  -9.912  1.00  0.00     0.022 A 
BRANCH  42  46
ATOM     46  S   UNL     1      10.132   3.950  -7.693  1.00  0.00     0.124 S 
ATOM     47  O   UNL     1       9.352   4.009  -6.459  1.00  0.00    -0.237 OA
ATOM     48  O   UNL     1      11.403   3.240  -7.612  1.00  0.00    -0.237 OA
ATOM     49  O   UNL     1      10.160   5.193  -8.463  1.00  0.00    -0.744 OA
ENDBRANCH  42  46
ENDBRANCH  25  39
BRANCH  26  50
ATOM     50  C   UNL     1       4.890  -8.294  -5.769  1.00  0.00     0.023 A 
ATOM     51  C   UNL     1       5.741  -9.371  -5.483  1.00  0.00     0.031 A 
ATOM     52  C   UNL     1       3.502  -8.508  -5.685  1.00  0.00     0.131 A 
ATOM     53  C   UNL     1       5.196 -10.625  -5.166  1.00  0.00     0.055 A 
ATOM     54  C   UNL     1       2.966  -9.742  -5.314  1.00  0.00     0.041 A 
ATOM     55  F   UNL     1       2.643  -7.510  -5.947  1.00  0.00    -0.206 F 
ATOM     56  C   UNL     1       3.816 -10.814  -5.065  1.00  0.00     0.022 A 
BRANCH  53  57
ATOM     57  S   UNL     1       6.320 -12.036  -4.978  1.00  0.00     0.124 S 
ATOM     58  O   UNL     1       7.039 -12.016  -6.247  1.00  0.00    -0.237 OA
ATOM     59  O   UNL     1       7.090 -11.653  -3.799  1.00  0.00    -0.237 OA
ATOM     60  O   UNL     1       5.416 -13.168  -4.791  1.00  0.00    -0.744 OA
ENDBRANCH  53  57
ENDBRANCH  26  50
BRANCH  38  61
ATOM     61  C   UNL     1       8.434  -6.078 -11.344  1.00  0.00     0.023 A 
ATOM     62  C   UNL     1       7.586  -6.649 -12.308  1.00  0.00     0.031 A 
ATOM     63  C   UNL     1       9.823  -6.216 -11.513  1.00  0.00     0.131 A 
ATOM     64  C   UNL     1       8.134  -7.375 -13.375  1.00  0.00     0.055 A 
ATOM     65  C   UNL     1      10.364  -6.892 -12.606  1.00  0.00     0.041 A 
ATOM     66  F   UNL     1      10.675  -5.692 -10.617  1.00  0.00    -0.206 F 
ATOM     67  C   UNL     1       9.518  -7.486 -13.540  1.00  0.00     0.022 A 
BRANCH  64  68
ATOM     68  S   UNL     1       7.013  -8.235 -14.512  1.00  0.00     0.124 S 
ATOM     69  O   UNL     1       6.350  -9.183 -13.622  1.00  0.00    -0.237 OA
ATOM     70  O   UNL     1       6.181  -7.147 -15.016  1.00  0.00    -0.237 OA
ATOM     71  O   UNL     1       7.913  -8.832 -15.496  1.00  0.00    -0.744 OA
ENDBRANCH  64  68
ENDBRANCH  38  61
ENDBRANCH  12  13
ENDBRANCH   5   7
ENDBRANCH   2   3
ENDBRANCH   1   2
BRANCH   1  72
ATOM     72  C   UNL     1       4.441   2.782   2.598  1.00  0.00     0.023 C 
BRANCH  72  73
ATOM     73  C   UNL     1       4.806   1.967   3.835  1.00  0.00     0.116 C 
BRANCH  73  74
ATOM     74  N   UNL     1       6.241   1.806   3.998  1.00  0.00    -0.352 N 
ATOM     75  C   UNL     1       7.034   2.065   5.082  1.00  0.00     0.251 C 
ATOM     76  H   UNL     1       6.714   1.457   3.209  1.00  0.00     0.163 HD
ATOM     77  O   UNL     1       8.259   1.993   4.987  1.00  0.00    -0.269 OA
BRANCH  75  78
ATOM     78  C   UNL     1       6.440   2.450   6.377  1.00  0.00     0.047 A 
ATOM     79  C   UNL     1       7.044   3.488   7.098  1.00  0.00     0.023 A 
ATOM     80  C   UNL     1       5.364   1.748   6.923  1.00  0.00     0.099 A 
ATOM     81  C   UNL     1       6.562   3.868   8.361  1.00  0.00    -0.011 A 
ATOM     82  C   UNL     1       4.839   2.159   8.150  1.00  0.00     0.270 A 
ATOM     83  C   UNL     1       5.425   3.215   8.865  1.00  0.00     0.094 A 
BRANCH  81  84
ATOM     84  C   UNL     1       7.299   4.844   9.174  1.00  0.00    -0.018 A 
ATOM     85  C   UNL     1       7.599   6.130   8.705  1.00  0.00     0.009 A 
ATOM     86  C   UNL     1       7.792   4.465  10.434  1.00  0.00     0.009 A 
ATOM     87  C   UNL     1       8.392   7.001   9.463  1.00  0.00     0.014 A 
ATOM     88  C   UNL     1       8.585   5.329  11.190  1.00  0.00     0.014 A 
ATOM     89  C   UNL     1       8.905   6.603  10.707  1.00  0.00     0.056 A 
BRANCH  89  90
ATOM     90  C   UNL     1       9.805   7.525  11.492  1.00  0.00     0.416 C 
ATOM     91  F   UNL     1      10.934   7.859  10.809  1.00  0.00    -0.166 F 
ATOM     92  F   UNL     1       9.198   8.701  11.812  1.00  0.00    -0.166 F 
ATOM     93  F   UNL     1      10.229   6.994  12.674  1.00  0.00    -0.166 F 
ENDBRANCH  89  90
ENDBRANCH  81  84
BRANCH  82  94
ATOM     94  N   UNL     1       3.671   1.465   8.704  1.00  0.00     0.062 N 
ATOM     95  O   UNL     1       3.275   1.810   9.826  1.00  0.00    -0.258 OA
ATOM     96  O   UNL     1       3.146   0.582   8.012  1.00  0.00    -0.258 OA
ENDBRANCH  82  94
ENDBRANCH  75  78
ENDBRANCH  73  74
ENDBRANCH  72  73
ENDBRANCH   1  72
TORSDOF 17
