REMARK SMILES Cc1c(C)c2c(c(C)c1O)CC[C@@](C)(C(=O)NCCCCNC(=O)c1ccc(-c3c4nc(c(-c5cc(S(=O)(=O)[O-])ccc5F)c5ccc([nH]5)c(-c5cc(S(=O)(=O)[O-])ccc5F)c5nc(c(-c6cc(S(=O)(=O)[O-])ccc6F)c6ccc3[nH]6)C=C5)C=C4)cc1)O2
REMARK SMILES IDX 20 1 19 2 18 3 17 4 15 5 16 6 13 8 1 9 2 10 3 11 9 12 4 13
REMARK SMILES IDX 5 14 7 15 6 16 88 17 8 18 11 19 12 20 14 21 10 22 21 24
REMARK SMILES IDX 22 25 23 26 24 28 25 29 26 30 87 31 27 32 86 33 28 34 29 35
REMARK SMILES IDX 30 36 80 37 31 38 85 39 79 40 81 41 32 42 84 43 78 44 77 45
REMARK SMILES IDX 33 47 65 48 45 49 64 50 46 51 49 52 63 53 82 54 47 55 48 56
REMARK SMILES IDX 62 58 83 59 50 60 34 61 35 62 43 63 36 64 42 65 44 66 41 67
REMARK SMILES IDX 37 68 38 69 39 70 40 71 66 72 67 73 75 74 68 75 74 76 76 77
REMARK SMILES IDX 73 78 69 79 70 80 71 81 72 82 51 83 52 84 60 85 53 86 59 87
REMARK SMILES IDX 61 88 58 89 54 90 55 91 56 92 57 93
REMARK H PARENT 17 7 10 23 22 27 81 46 49 57
REMARK Flexibility Score: inf
ROOT
ATOM      1  C   UNL     1      -3.568   6.758   7.962  1.00  0.00     0.023 C 
ENDROOT
BRANCH   1   2
ATOM      2  C   UNL     1      -2.514   6.490   6.891  1.00  0.00     0.023 C 
BRANCH   2   3
ATOM      3  C   UNL     1      -1.701   5.215   7.099  1.00  0.00     0.116 C 
BRANCH   3   4
ATOM      4  N   UNL     1      -2.453   4.018   6.761  1.00  0.00    -0.353 N 
ATOM      5  C   UNL     1      -2.316   3.118   5.735  1.00  0.00     0.263 C 
ATOM      6  O   UNL     1      -3.116   2.178   5.721  1.00  0.00    -0.270 OA
ATOM      7  H   UNL     1      -3.192   3.816   7.380  1.00  0.00     0.163 HD
BRANCH   5   8
ATOM      8  C   UNL     1      -1.199   3.274   4.661  1.00  0.00     0.184 C 
ATOM      9  C   UNL     1       0.844  -0.109  -0.058  1.00  0.00     0.049 C 
ATOM     10  C   UNL     1       0.509   1.147   0.706  1.00  0.00    -0.002 A 
ATOM     11  C   UNL     1      -0.338   1.116   1.840  1.00  0.00    -0.002 A 
ATOM     12  C   UNL     1       1.054   2.383   0.296  1.00  0.00     0.122 A 
ATOM     13  C   UNL     1      -0.948  -0.180   2.316  1.00  0.00     0.049 C 
ATOM     14  C   UNL     1      -0.582   2.309   2.549  1.00  0.00     0.127 A 
ATOM     15  C   UNL     1       0.796   3.575   0.987  1.00  0.00    -0.002 A 
ATOM     16  C   UNL     1      -0.050   3.537   2.112  1.00  0.00     0.001 A 
ATOM     17  O   UNL     1      -1.349   2.209   3.691  1.00  0.00    -0.477 OA
ATOM     18  C   UNL     1       1.405   4.882   0.542  1.00  0.00     0.049 C 
ATOM     19  C   UNL     1      -0.343   4.801   2.871  1.00  0.00     0.044 C 
ATOM     20  C   UNL     1      -1.421   4.588   3.908  1.00  0.00     0.063 C 
ATOM     21  C   UNL     1       0.162   3.053   5.352  1.00  0.00     0.067 C 
BRANCH  12  22
ATOM     22  O   UNL     1       1.873   2.472  -0.801  1.00  0.00    -0.507 OA
ATOM     23  H   UNL     1       2.077   1.704  -1.298  1.00  0.00     0.293 HD
ENDBRANCH  12  22
ENDBRANCH   5   8
ENDBRANCH   3   4
ENDBRANCH   2   3
ENDBRANCH   1   2
BRANCH   1  24
ATOM     24  C   UNL     1      -3.044   6.801   9.393  1.00  0.00     0.116 C 
BRANCH  24  25
ATOM     25  N   UNL     1      -1.954   7.748   9.580  1.00  0.00    -0.352 N 
ATOM     26  C   UNL     1      -1.767   8.650  10.600  1.00  0.00     0.251 C 
ATOM     27  H   UNL     1      -1.259   7.742   8.883  1.00  0.00     0.163 HD
ATOM     28  O   UNL     1      -0.844   9.457  10.547  1.00  0.00    -0.269 OA
BRANCH  26  29
ATOM     29  C   UNL     1      -2.713   8.659  11.734  1.00  0.00     0.039 A 
ATOM     30  C   UNL     1      -3.310   9.865  12.105  1.00  0.00     0.014 A 
ATOM     31  C   UNL     1      -3.047   7.469  12.388  1.00  0.00     0.014 A 
ATOM     32  C   UNL     1      -4.304   9.866  13.085  1.00  0.00     0.010 A 
ATOM     33  C   UNL     1      -4.083   7.462  13.316  1.00  0.00     0.010 A 
ATOM     34  C   UNL     1      -4.725   8.659  13.668  1.00  0.00    -0.014 A 
BRANCH  34  35
ATOM     35  C   UNL     1      -5.831   8.630  14.656  1.00  0.00     0.031 A 
ATOM     36  C   UNL     1      -5.550   8.236  16.079  1.00  0.00     0.074 A 
ATOM     37  C   UNL     1      -7.090   8.907  14.261  1.00  0.00     0.049 A 
ATOM     38  N   UNL     1      -6.388   8.063  17.068  1.00  0.00    -0.248 NA
ATOM     39  C   UNL     1      -4.144   7.980  16.428  1.00  0.00     0.031 C 
ATOM     40  C   UNL     1      -7.489   9.276  12.900  1.00  0.00     0.029 A 
ATOM     41  N   UNL     1      -8.267   8.923  14.966  1.00  0.00    -0.354 N 
ATOM     42  C   UNL     1      -5.614   7.668  18.152  1.00  0.00     0.074 A 
ATOM     43  C   UNL     1      -4.246   7.579  17.686  1.00  0.00     0.031 C 
ATOM     44  C   UNL     1      -8.811   9.512  12.879  1.00  0.00     0.029 A 
ATOM     45  C   UNL     1      -9.361   9.273  14.210  1.00  0.00     0.049 A 
ATOM     46  H   UNL     1      -8.323   8.703  15.924  1.00  0.00     0.167 HD
ATOM     47  C   UNL     1      -6.004   7.425  19.426  1.00  0.00     0.034 A 
ATOM     48  C   UNL     1     -10.660   9.383  14.550  1.00  0.00     0.034 A 
ATOM     49  C   UNL     1      -7.363   7.543  19.887  1.00  0.00     0.049 A 
ATOM     50  C   UNL     1     -11.072   9.088  15.967  1.00  0.00     0.074 A 
ATOM     51  C   UNL     1      -7.857   7.357  21.166  1.00  0.00     0.029 A 
ATOM     52  N   UNL     1      -8.444   7.884  19.087  1.00  0.00    -0.354 N 
ATOM     53  N   UNL     1     -10.326   8.713  16.980  1.00  0.00    -0.248 NA
ATOM     54  C   UNL     1     -12.499   9.229  16.288  1.00  0.00     0.031 C 
ATOM     55  C   UNL     1      -9.243   7.542  21.131  1.00  0.00     0.029 A 
ATOM     56  C   UNL     1      -9.606   7.896  19.841  1.00  0.00     0.049 A 
ATOM     57  H   UNL     1      -8.393   8.086  18.125  1.00  0.00     0.167 HD
ATOM     58  C   UNL     1     -11.191   8.590  18.061  1.00  0.00     0.074 A 
ATOM     59  C   UNL     1     -12.514   8.935  17.581  1.00  0.00     0.031 C 
ATOM     60  C   UNL     1     -10.916   8.228  19.339  1.00  0.00     0.034 A 
BRANCH  47  61
ATOM     61  C   UNL     1      -4.944   7.000  20.406  1.00  0.00     0.023 A 
ATOM     62  C   UNL     1      -3.940   7.888  20.827  1.00  0.00     0.031 A 
ATOM     63  C   UNL     1      -4.937   5.694  20.924  1.00  0.00     0.131 A 
ATOM     64  C   UNL     1      -2.938   7.443  21.700  1.00  0.00     0.055 A 
ATOM     65  C   UNL     1      -3.974   5.276  21.843  1.00  0.00     0.041 A 
ATOM     66  F   UNL     1      -5.863   4.801  20.538  1.00  0.00    -0.206 F 
ATOM     67  C   UNL     1      -2.961   6.150  22.230  1.00  0.00     0.022 A 
BRANCH  64  68
ATOM     68  S   UNL     1      -1.555   8.553  22.075  1.00  0.00     0.124 S 
ATOM     69  O   UNL     1      -0.884   8.630  20.779  1.00  0.00    -0.237 OA
ATOM     70  O   UNL     1      -2.230   9.768  22.516  1.00  0.00    -0.237 OA
ATOM     71  O   UNL     1      -0.815   7.839  23.113  1.00  0.00    -0.744 OA
ENDBRANCH  64  68
ENDBRANCH  47  61
BRANCH  48  72
ATOM     72  C   UNL     1     -11.669   9.783  13.532  1.00  0.00     0.023 A 
ATOM     73  C   UNL     1     -12.292  11.038  13.593  1.00  0.00     0.031 A 
ATOM     74  C   UNL     1     -12.033   8.910  12.492  1.00  0.00     0.131 A 
ATOM     75  C   UNL     1     -13.270  11.378  12.646  1.00  0.00     0.055 A 
ATOM     76  C   UNL     1     -12.982   9.266  11.532  1.00  0.00     0.041 A 
ATOM     77  F   UNL     1     -11.456   7.702  12.387  1.00  0.00    -0.206 F 
ATOM     78  C   UNL     1     -13.611  10.505  11.610  1.00  0.00     0.022 A 
BRANCH  75  79
ATOM     79  S   UNL     1     -14.117  12.974  12.804  1.00  0.00     0.124 S 
ATOM     80  O   UNL     1     -14.814  12.816  14.075  1.00  0.00    -0.237 OA
ATOM     81  O   UNL     1     -13.001  13.914  12.796  1.00  0.00    -0.237 OA
ATOM     82  O   UNL     1     -14.975  13.022  11.621  1.00  0.00    -0.744 OA
ENDBRANCH  75  79
ENDBRANCH  48  72
BRANCH  60  83
ATOM     83  C   UNL     1     -12.063   8.211  20.311  1.00  0.00     0.023 A 
ATOM     84  C   UNL     1     -13.034   7.198  20.279  1.00  0.00     0.031 A 
ATOM     85  C   UNL     1     -12.160   9.201  21.305  1.00  0.00     0.131 A 
ATOM     86  C   UNL     1     -14.082   7.211  21.210  1.00  0.00     0.055 A 
ATOM     87  C   UNL     1     -13.181   9.186  22.254  1.00  0.00     0.041 A 
ATOM     88  F   UNL     1     -11.251  10.187  21.376  1.00  0.00    -0.206 F 
ATOM     89  C   UNL     1     -14.153   8.190  22.207  1.00  0.00     0.022 A 
BRANCH  86  90
ATOM     90  S   UNL     1     -15.373   5.943  21.091  1.00  0.00     0.124 S 
ATOM     91  O   UNL     1     -16.010   6.280  19.822  1.00  0.00    -0.237 OA
ATOM     92  O   UNL     1     -14.601   4.704  21.107  1.00  0.00    -0.237 OA
ATOM     93  O   UNL     1     -16.192   6.175  22.279  1.00  0.00    -0.744 OA
ENDBRANCH  86  90
ENDBRANCH  60  83
ENDBRANCH  34  35
ENDBRANCH  26  29
ENDBRANCH  24  25
ENDBRANCH   1  24
TORSDOF 15
