REMARK SMILES CN1C(=O)[C@H](CC(=O)NCCCCNC(=O)c2ccc(-c3c4nc(c(-c5cc(S(=O)(=O)[O-])ccc5F)c5ccc([nH]5)c(-c5cc(S(=O)(=O)[O-])ccc5F)c5nc(c(-c6cc(S(=O)(=O)[O-])ccc6F)c6ccc3[nH]6)C=C5)C=C4)cc2)S/C1=[NH+]\N=C\c1ccc(O)cc1O
REMARK SMILES IDX 11 1 10 2 9 3 7 4 8 5 6 7 5 8 1 9 2 10 3 11 81 12 4 13 80 14
REMARK SMILES IDX 82 15 83 17 84 18 85 19 86 20 91 21 87 22 90 23 88 24 92 25
REMARK SMILES IDX 89 27 12 29 13 30 14 31 15 32 16 34 17 35 18 36 79 37 19 38
REMARK SMILES IDX 78 39 20 40 21 41 22 42 72 43 23 44 77 45 71 46 73 47 24 48
REMARK SMILES IDX 76 49 70 50 69 51 25 53 57 54 37 55 56 56 38 57 41 58 55 59
REMARK SMILES IDX 74 60 39 61 40 62 54 64 75 65 42 66 26 67 27 68 35 69 28 70
REMARK SMILES IDX 34 71 36 72 33 73 29 74 30 75 31 76 32 77 58 78 59 79 67 80
REMARK SMILES IDX 60 81 66 82 68 83 65 84 61 85 62 86 63 87 64 88 43 89 44 90
REMARK SMILES IDX 52 91 45 92 51 93 53 94 50 95 46 96 47 97 48 98 49 99
REMARK H PARENT 9 6 82 16 92 26 89 28 14 33 73 52 41 63
REMARK Flexibility Score: inf
ROOT
ATOM      1  C   UNL     1       0.148  -3.132  -5.005  1.00  0.00     0.023 C 
ENDROOT
BRANCH   1   2
ATOM      2  C   UNL     1       1.615  -2.881  -4.648  1.00  0.00     0.116 C 
BRANCH   2   3
ATOM      3  N   UNL     1       2.201  -1.857  -5.493  1.00  0.00    -0.356 N 
ATOM      4  C   UNL     1       2.465  -0.549  -5.223  1.00  0.00     0.221 C 
ATOM      5  O   UNL     1       2.942   0.157  -6.111  1.00  0.00    -0.275 OA
ATOM      6  H   UNL     1       2.445  -2.153  -6.400  1.00  0.00     0.163 HD
BRANCH   4   7
ATOM      7  C   UNL     1       2.220   0.009  -3.841  1.00  0.00     0.127 C 
BRANCH   7   8
ATOM      8  C   UNL     1       0.736   0.152  -3.519  1.00  0.00     0.183 C 
ATOM      9  C   UNL     1       0.267   0.432   0.197  1.00  0.00     0.301 C 
ATOM     10  N   UNL     1       0.300   0.697  -1.225  1.00  0.00    -0.191 N 
ATOM     11  C   UNL     1       0.497  -0.338  -2.108  1.00  0.00     0.324 C 
ATOM     12  C   UNL     1       0.053   1.926  -1.765  1.00  0.00     0.339 C 
ATOM     13  O   UNL     1       0.524  -1.524  -1.794  1.00  0.00    -0.245 OA
ATOM     14  S   UNL     1       0.172   1.874  -3.510  1.00  0.00    -0.020 SA
ATOM     15  N   UNL     1      -0.237   2.968  -1.050  1.00  0.00    -0.142 N 
ATOM     16  H   UNL     1      -0.210   2.973  -0.066  1.00  0.00     0.343 HD
BRANCH  15  17
ATOM     17  N   UNL     1      -0.590   4.075  -1.807  1.00  0.00    -0.093 NA
ATOM     18  C   UNL     1      -0.386   5.194  -1.193  1.00  0.00     0.170 C 
BRANCH  18  19
ATOM     19  C   UNL     1      -0.725   6.466  -1.857  1.00  0.00     0.039 A 
ATOM     20  C   UNL     1      -0.294   7.657  -1.265  1.00  0.00     0.017 A 
ATOM     21  C   UNL     1      -1.453   6.505  -3.056  1.00  0.00     0.128 A 
ATOM     22  C   UNL     1      -0.581   8.877  -1.883  1.00  0.00     0.047 A 
ATOM     23  C   UNL     1      -1.746   7.721  -3.665  1.00  0.00     0.093 A 
ATOM     24  C   UNL     1      -1.299   8.899  -3.075  1.00  0.00     0.119 A 
BRANCH  21  25
ATOM     25  O   UNL     1      -1.918   5.386  -3.694  1.00  0.00    -0.507 OA
ATOM     26  H   UNL     1      -1.753   4.538  -3.332  1.00  0.00     0.293 HD
ENDBRANCH  21  25
BRANCH  24  27
ATOM     27  O   UNL     1      -1.545  10.112  -3.648  1.00  0.00    -0.508 OA
ATOM     28  H   UNL     1      -1.236  10.895  -3.236  1.00  0.00     0.293 HD
ENDBRANCH  24  27
ENDBRANCH  18  19
ENDBRANCH  15  17
ENDBRANCH   7   8
ENDBRANCH   4   7
ENDBRANCH   2   3
ENDBRANCH   1   2
BRANCH   1  29
ATOM     29  C   UNL     1      -0.060  -3.838  -6.345  1.00  0.00     0.023 C 
BRANCH  29  30
ATOM     30  C   UNL     1       0.496  -5.254  -6.406  1.00  0.00     0.116 C 
BRANCH  30  31
ATOM     31  N   UNL     1      -0.129  -6.151  -5.445  1.00  0.00    -0.352 N 
ATOM     32  C   UNL     1      -0.399  -7.491  -5.601  1.00  0.00     0.251 C 
ATOM     33  H   UNL     1      -0.388  -5.753  -4.583  1.00  0.00     0.163 HD
ATOM     34  O   UNL     1      -1.039  -8.103  -4.753  1.00  0.00    -0.269 OA
BRANCH  32  35
ATOM     35  C   UNL     1       0.059  -8.159  -6.835  1.00  0.00     0.039 A 
ATOM     36  C   UNL     1      -0.873  -8.824  -7.635  1.00  0.00     0.014 A 
ATOM     37  C   UNL     1       1.392  -8.043  -7.238  1.00  0.00     0.014 A 
ATOM     38  C   UNL     1      -0.482  -9.309  -8.885  1.00  0.00     0.010 A 
ATOM     39  C   UNL     1       1.761  -8.469  -8.508  1.00  0.00     0.010 A 
ATOM     40  C   UNL     1       0.826  -9.097  -9.347  1.00  0.00    -0.014 A 
BRANCH  40  41
ATOM     41  C   UNL     1       1.261  -9.525 -10.701  1.00  0.00     0.031 A 
ATOM     42  C   UNL     1       2.338 -10.564 -10.833  1.00  0.00     0.074 A 
ATOM     43  C   UNL     1       0.771  -8.907 -11.793  1.00  0.00     0.049 A 
ATOM     44  N   UNL     1       3.000 -10.943 -11.894  1.00  0.00    -0.248 NA
ATOM     45  C   UNL     1       2.749 -11.236  -9.591  1.00  0.00     0.031 C 
ATOM     46  C   UNL     1      -0.258  -7.864 -11.788  1.00  0.00     0.029 A 
ATOM     47  N   UNL     1       1.092  -9.048 -13.120  1.00  0.00    -0.354 N 
ATOM     48  C   UNL     1       3.928 -11.877 -11.446  1.00  0.00     0.074 A 
ATOM     49  C   UNL     1       3.772 -11.966 -10.009  1.00  0.00     0.031 C 
ATOM     50  C   UNL     1      -0.485  -7.465 -13.050  1.00  0.00     0.029 A 
ATOM     51  C   UNL     1       0.414  -8.183 -13.948  1.00  0.00     0.049 A 
ATOM     52  H   UNL     1       1.746  -9.706 -13.448  1.00  0.00     0.167 HD
ATOM     53  C   UNL     1       4.817 -12.601 -12.169  1.00  0.00     0.034 A 
ATOM     54  C   UNL     1       0.525  -7.975 -15.275  1.00  0.00     0.034 A 
ATOM     55  C   UNL     1       4.939 -12.516 -13.603  1.00  0.00     0.049 A 
ATOM     56  C   UNL     1       1.528  -8.783 -16.059  1.00  0.00     0.074 A 
ATOM     57  C   UNL     1       5.766 -13.241 -14.444  1.00  0.00     0.029 A 
ATOM     58  N   UNL     1       4.214 -11.649 -14.410  1.00  0.00    -0.354 N 
ATOM     59  N   UNL     1       2.383  -9.681 -15.625  1.00  0.00    -0.248 NA
ATOM     60  C   UNL     1       1.580  -8.553 -17.509  1.00  0.00     0.031 C 
ATOM     61  C   UNL     1       5.577 -12.777 -15.751  1.00  0.00     0.029 A 
ATOM     62  C   UNL     1       4.588 -11.806 -15.735  1.00  0.00     0.049 A 
ATOM     63  H   UNL     1       3.533 -11.014 -14.088  1.00  0.00     0.167 HD
ATOM     64  C   UNL     1       3.049 -10.145 -16.755  1.00  0.00     0.074 A 
ATOM     65  C   UNL     1       2.498  -9.431 -17.888  1.00  0.00     0.031 C 
ATOM     66  C   UNL     1       4.024 -11.085 -16.850  1.00  0.00     0.034 A 
BRANCH  53  67
ATOM     67  C   UNL     1       5.738 -13.523 -11.408  1.00  0.00     0.023 A 
ATOM     68  C   UNL     1       5.244 -14.609 -10.665  1.00  0.00     0.031 A 
ATOM     69  C   UNL     1       7.123 -13.287 -11.389  1.00  0.00     0.131 A 
ATOM     70  C   UNL     1       6.116 -15.366  -9.868  1.00  0.00     0.055 A 
ATOM     71  C   UNL     1       7.997 -14.096 -10.660  1.00  0.00     0.041 A 
ATOM     72  F   UNL     1       7.650 -12.252 -12.062  1.00  0.00    -0.206 F 
ATOM     73  C   UNL     1       7.493 -15.133  -9.880  1.00  0.00     0.022 A 
BRANCH  70  74
ATOM     74  S   UNL     1       5.404 -16.559  -8.703  1.00  0.00     0.124 S 
ATOM     75  O   UNL     1       4.574 -15.694  -7.867  1.00  0.00    -0.237 OA
ATOM     76  O   UNL     1       4.688 -17.473  -9.585  1.00  0.00    -0.237 OA
ATOM     77  O   UNL     1       6.574 -17.124  -8.034  1.00  0.00    -0.744 OA
ENDBRANCH  70  74
ENDBRANCH  53  67
BRANCH  54  78
ATOM     78  C   UNL     1      -0.316  -6.947 -15.951  1.00  0.00     0.023 A 
ATOM     79  C   UNL     1      -1.294  -7.317 -16.887  1.00  0.00     0.031 A 
ATOM     80  C   UNL     1      -0.128  -5.577 -15.699  1.00  0.00     0.131 A 
ATOM     81  C   UNL     1      -2.019  -6.329 -17.570  1.00  0.00     0.055 A 
ATOM     82  C   UNL     1      -0.883  -4.598 -16.347  1.00  0.00     0.041 A 
ATOM     83  F   UNL     1       0.790  -5.170 -14.807  1.00  0.00    -0.206 F 
ATOM     84  C   UNL     1      -1.828  -4.972 -17.298  1.00  0.00     0.022 A 
BRANCH  81  85
ATOM     85  S   UNL     1      -3.167  -6.841 -18.877  1.00  0.00     0.124 S 
ATOM     86  O   UNL     1      -2.281  -7.563 -19.784  1.00  0.00    -0.237 OA
ATOM     87  O   UNL     1      -4.126  -7.653 -18.135  1.00  0.00    -0.237 OA
ATOM     88  O   UNL     1      -3.687  -5.575 -19.388  1.00  0.00    -0.744 OA
ENDBRANCH  81  85
ENDBRANCH  54  78
BRANCH  66  89
ATOM     89  C   UNL     1       4.507 -11.435 -18.233  1.00  0.00     0.023 A 
ATOM     90  C   UNL     1       5.296 -10.552 -18.988  1.00  0.00     0.031 A 
ATOM     91  C   UNL     1       4.179 -12.683 -18.792  1.00  0.00     0.131 A 
ATOM     92  C   UNL     1       5.703 -10.916 -20.281  1.00  0.00     0.055 A 
ATOM     93  C   UNL     1       4.625 -13.058 -20.059  1.00  0.00     0.041 A 
ATOM     94  F   UNL     1       3.428 -13.561 -18.109  1.00  0.00    -0.206 F 
ATOM     95  C   UNL     1       5.385 -12.169 -20.815  1.00  0.00     0.022 A 
BRANCH  92  96
ATOM     96  S   UNL     1       6.615  -9.710 -21.282  1.00  0.00     0.124 S 
ATOM     97  O   UNL     1       5.644  -8.629 -21.415  1.00  0.00    -0.237 OA
ATOM     98  O   UNL     1       7.777  -9.423 -20.447  1.00  0.00    -0.237 OA
ATOM     99  O   UNL     1       6.907 -10.438 -22.516  1.00  0.00    -0.744 OA
ENDBRANCH  92  96
ENDBRANCH  66  89
ENDBRANCH  40  41
ENDBRANCH  32  35
ENDBRANCH  30  31
ENDBRANCH  29  30
ENDBRANCH   1  29
TORSDOF 19
