REMARK SMILES CC(C)OCCS(=O)(=O)Nc1ccc(O)c(C(=O)NCCCCNC(=O)c2ccc(-c3c4nc(c(-c5cc(S(=O)(=O)[O-])ccc5F)c5ccc([nH]5)c(-c5cc(S(=O)(=O)[O-])ccc5F)c5nc(c(-c6cc(S(=O)(=O)[O-])ccc6F)c6ccc3[nH]6)C=C5)C=C4)cc2)c1
REMARK SMILES IDX 20 1 19 2 17 3 18 4 16 6 11 7 12 8 90 9 13 10 14 11 10 12
REMARK SMILES IDX 7 14 8 15 9 16 6 17 5 18 4 19 2 20 1 21 3 22 15 23 21 25
REMARK SMILES IDX 22 26 23 27 24 28 25 29 26 31 27 32 28 33 89 34 29 35 88 36
REMARK SMILES IDX 30 37 31 38 32 39 82 40 33 41 87 42 81 43 83 44 34 45 86 46
REMARK SMILES IDX 80 47 79 48 35 50 67 51 47 52 66 53 48 54 51 55 65 56 84 57
REMARK SMILES IDX 49 58 50 59 64 61 85 62 52 63 36 64 37 65 45 66 38 67 44 68
REMARK SMILES IDX 46 69 43 70 39 71 40 72 41 73 42 74 68 75 69 76 77 77 70 78
REMARK SMILES IDX 76 79 78 80 75 81 71 82 72 83 73 84 74 85 53 86 54 87 62 88
REMARK SMILES IDX 55 89 61 90 63 91 60 92 56 93 57 94 58 95 59 96
REMARK H PARENT 19 5 10 13 15 24 24 30 83 49 51 60
REMARK Flexibility Score: inf
ROOT
ATOM      1  C   UNL     1      -2.419   6.965   2.765  1.00  0.00     0.116 C 
ENDROOT
BRANCH   1   2
ATOM      2  N   UNL     1      -1.144   7.387   2.236  1.00  0.00    -0.352 N 
ATOM      3  C   UNL     1      -0.194   6.703   1.528  1.00  0.00     0.255 C 
ATOM      4  O   UNL     1       0.835   7.317   1.234  1.00  0.00    -0.269 OA
ATOM      5  H   UNL     1      -0.920   8.329   2.414  1.00  0.00     0.163 HD
BRANCH   3   6
ATOM      6  C   UNL     1      -0.317   5.290   1.060  1.00  0.00     0.083 A 
ATOM      7  C   UNL     1       0.501   3.709  -0.601  1.00  0.00     0.050 A 
ATOM      8  C   UNL     1       0.055   2.692   0.214  1.00  0.00     0.030 A 
ATOM      9  C   UNL     1       0.375   5.012  -0.147  1.00  0.00     0.044 A 
ATOM     10  C   UNL     1      -0.712   2.915   1.330  1.00  0.00     0.049 A 
ATOM     11  C   UNL     1      -0.909   4.217   1.749  1.00  0.00     0.128 A 
BRANCH   7  12
ATOM     12  N   UNL     1       1.290   3.364  -1.728  1.00  0.00    -0.283 N 
ATOM     13  H   UNL     1       2.240   3.622  -1.737  1.00  0.00     0.180 HD
BRANCH  12  14
ATOM     14  S   UNL     1       0.667   2.533  -3.043  1.00  0.00     0.235 S 
ATOM     15  O   UNL     1       1.726   1.633  -3.458  1.00  0.00    -0.207 OA
ATOM     16  O   UNL     1       0.191   3.541  -3.969  1.00  0.00    -0.207 OA
BRANCH  14  17
ATOM     17  C   UNL     1      -0.771   1.544  -2.572  1.00  0.00     0.188 C 
BRANCH  17  18
ATOM     18  C   UNL     1      -0.498   0.086  -2.192  1.00  0.00     0.178 C 
BRANCH  18  19
ATOM     19  O   UNL     1      -0.493  -0.104  -0.777  1.00  0.00    -0.378 OA
BRANCH  19  20
ATOM     20  C   UNL     1       0.642  -0.713  -0.147  1.00  0.00     0.112 C 
ATOM     21  C   UNL     1       0.465  -2.216  -0.049  1.00  0.00     0.038 C 
ATOM     22  C   UNL     1       2.006  -0.325  -0.715  1.00  0.00     0.038 C 
ENDBRANCH  19  20
ENDBRANCH  18  19
ENDBRANCH  17  18
ENDBRANCH  14  17
ENDBRANCH  12  14
ENDBRANCH   7  12
BRANCH  11  23
ATOM     23  O   UNL     1      -1.632   4.319   2.888  1.00  0.00    -0.507 OA
ATOM     24  H   UNL     1      -1.993   3.550   3.285  1.00  0.00     0.293 HD
ENDBRANCH  11  23
ENDBRANCH   3   6
ENDBRANCH   1   2
BRANCH   1  25
ATOM     25  C   UNL     1      -2.265   6.488   4.215  1.00  0.00     0.023 C 
BRANCH  25  26
ATOM     26  C   UNL     1      -2.295   7.571   5.279  1.00  0.00     0.023 C 
BRANCH  26  27
ATOM     27  C   UNL     1      -3.571   8.384   5.286  1.00  0.00     0.116 C 
BRANCH  27  28
ATOM     28  N   UNL     1      -4.779   7.576   5.377  1.00  0.00    -0.352 N 
ATOM     29  C   UNL     1      -6.017   7.990   5.820  1.00  0.00     0.251 C 
ATOM     30  H   UNL     1      -4.704   6.637   5.093  1.00  0.00     0.163 HD
ATOM     31  O   UNL     1      -6.936   7.204   5.950  1.00  0.00    -0.269 OA
BRANCH  29  32
ATOM     32  C   UNL     1      -6.152   9.414   6.185  1.00  0.00     0.039 A 
ATOM     33  C   UNL     1      -6.519   9.739   7.490  1.00  0.00     0.014 A 
ATOM     34  C   UNL     1      -5.760  10.401   5.277  1.00  0.00     0.014 A 
ATOM     35  C   UNL     1      -6.436  11.067   7.903  1.00  0.00     0.010 A 
ATOM     36  C   UNL     1      -5.583  11.702   5.722  1.00  0.00     0.010 A 
ATOM     37  C   UNL     1      -5.933  12.050   7.035  1.00  0.00    -0.014 A 
BRANCH  37  38
ATOM     38  C   UNL     1      -5.802  13.461   7.474  1.00  0.00     0.031 A 
ATOM     39  C   UNL     1      -6.616  14.524   6.790  1.00  0.00     0.074 A 
ATOM     40  C   UNL     1      -4.931  13.781   8.451  1.00  0.00     0.049 A 
ATOM     41  N   UNL     1      -6.633  15.814   6.999  1.00  0.00    -0.248 NA
ATOM     42  C   UNL     1      -7.505  14.080   5.703  1.00  0.00     0.031 C 
ATOM     43  C   UNL     1      -4.052  12.837   9.146  1.00  0.00     0.029 A 
ATOM     44  N   UNL     1      -4.641  14.989   9.031  1.00  0.00    -0.354 N 
ATOM     45  C   UNL     1      -7.526  16.334   6.067  1.00  0.00     0.074 A 
ATOM     46  C   UNL     1      -7.964  15.232   5.241  1.00  0.00     0.031 C 
ATOM     47  C   UNL     1      -3.352  13.496  10.084  1.00  0.00     0.029 A 
ATOM     48  C   UNL     1      -3.698  14.912  10.031  1.00  0.00     0.049 A 
ATOM     49  H   UNL     1      -5.068  15.834   8.759  1.00  0.00     0.167 HD
ATOM     50  C   UNL     1      -7.966  17.608   5.937  1.00  0.00     0.034 A 
ATOM     51  C   UNL     1      -3.173  15.878  10.811  1.00  0.00     0.034 A 
ATOM     52  C   UNL     1      -7.528  18.690   6.782  1.00  0.00     0.049 A 
ATOM     53  C   UNL     1      -3.665  17.294  10.634  1.00  0.00     0.074 A 
ATOM     54  C   UNL     1      -7.940  20.010   6.776  1.00  0.00     0.029 A 
ATOM     55  N   UNL     1      -6.570  18.576   7.783  1.00  0.00    -0.354 N 
ATOM     56  N   UNL     1      -4.557  17.759   9.789  1.00  0.00    -0.248 NA
ATOM     57  C   UNL     1      -3.090  18.310  11.523  1.00  0.00     0.031 C 
ATOM     58  C   UNL     1      -7.186  20.708   7.725  1.00  0.00     0.029 A 
ATOM     59  C   UNL     1      -6.359  19.809   8.380  1.00  0.00     0.049 A 
ATOM     60  H   UNL     1      -6.110  17.742   8.031  1.00  0.00     0.167 HD
ATOM     61  C   UNL     1      -4.673  19.118  10.071  1.00  0.00     0.074 A 
ATOM     62  C   UNL     1      -3.774  19.390  11.174  1.00  0.00     0.031 C 
ATOM     63  C   UNL     1      -5.452  20.058   9.476  1.00  0.00     0.034 A 
BRANCH  50  64
ATOM     64  C   UNL     1      -8.956  17.890   4.832  1.00  0.00     0.023 A 
ATOM     65  C   UNL     1     -10.225  17.284   4.807  1.00  0.00     0.031 A 
ATOM     66  C   UNL     1      -8.618  18.750   3.773  1.00  0.00     0.131 A 
ATOM     67  C   UNL     1     -11.076  17.482   3.710  1.00  0.00     0.055 A 
ATOM     68  C   UNL     1      -9.504  19.011   2.726  1.00  0.00     0.041 A 
ATOM     69  F   UNL     1      -7.413  19.340   3.729  1.00  0.00    -0.206 F 
ATOM     70  C   UNL     1     -10.736  18.364   2.682  1.00  0.00     0.022 A 
BRANCH  67  71
ATOM     71  S   UNL     1     -12.568  16.460   3.576  1.00  0.00     0.124 S 
ATOM     72  O   UNL     1     -12.001  15.114   3.540  1.00  0.00    -0.237 OA
ATOM     73  O   UNL     1     -13.302  16.812   4.786  1.00  0.00    -0.237 OA
ATOM     74  O   UNL     1     -13.177  16.906   2.324  1.00  0.00    -0.744 OA
ENDBRANCH  67  71
ENDBRANCH  50  64
BRANCH  51  75
ATOM     75  C   UNL     1      -2.132  15.554  11.829  1.00  0.00     0.023 A 
ATOM     76  C   UNL     1      -2.371  15.753  13.199  1.00  0.00     0.031 A 
ATOM     77  C   UNL     1      -0.860  15.094  11.445  1.00  0.00     0.131 A 
ATOM     78  C   UNL     1      -1.339  15.548  14.128  1.00  0.00     0.055 A 
ATOM     79  C   UNL     1       0.146  14.835  12.379  1.00  0.00     0.041 A 
ATOM     80  F   UNL     1      -0.577  14.881  10.150  1.00  0.00    -0.206 F 
ATOM     81  C   UNL     1      -0.086  15.078  13.729  1.00  0.00     0.022 A 
BRANCH  78  82
ATOM     82  S   UNL     1      -1.628  16.003  15.860  1.00  0.00     0.124 S 
ATOM     83  O   UNL     1      -1.997  17.409  15.740  1.00  0.00    -0.237 OA
ATOM     84  O   UNL     1      -2.699  15.088  16.238  1.00  0.00    -0.237 OA
ATOM     85  O   UNL     1      -0.338  15.748  16.498  1.00  0.00    -0.744 OA
ENDBRANCH  78  82
ENDBRANCH  51  75
BRANCH  63  86
ATOM     86  C   UNL     1      -5.394  21.454  10.044  1.00  0.00     0.023 A 
ATOM     87  C   UNL     1      -4.232  22.241   9.959  1.00  0.00     0.031 A 
ATOM     88  C   UNL     1      -6.519  22.002  10.686  1.00  0.00     0.131 A 
ATOM     89  C   UNL     1      -4.203  23.508  10.559  1.00  0.00     0.055 A 
ATOM     90  C   UNL     1      -6.505  23.289  11.224  1.00  0.00     0.041 A 
ATOM     91  F   UNL     1      -7.655  21.294  10.797  1.00  0.00    -0.206 F 
ATOM     92  C   UNL     1      -5.337  24.044  11.175  1.00  0.00     0.022 A 
BRANCH  89  93
ATOM     93  S   UNL     1      -2.630  24.410  10.609  1.00  0.00     0.124 S 
ATOM     94  O   UNL     1      -1.767  23.475  11.323  1.00  0.00    -0.237 OA
ATOM     95  O   UNL     1      -2.333  24.597   9.193  1.00  0.00    -0.237 OA
ATOM     96  O   UNL     1      -2.959  25.632  11.339  1.00  0.00    -0.744 OA
ENDBRANCH  89  93
ENDBRANCH  63  86
ENDBRANCH  37  38
ENDBRANCH  29  32
ENDBRANCH  27  28
ENDBRANCH  26  27
ENDBRANCH  25  26
ENDBRANCH   1  25
TORSDOF 21
