REMARK SMILES Cc1cc([C@@H]2[C@H](C(=O)NCCCCNC(=O)c3ccc(-c4c5nc(c(-c6cc(S(=O)(=O)[O-])ccc6F)c6ccc([nH]6)c(-c6cc(S(=O)(=O)[O-])ccc6F)c6nc(c(-c7cc(S(=O)(=O)[O-])ccc7F)c7ccc4[nH]7)C=C6)C=C5)cc3)CCCC(=O)N2C)ccc1Br
REMARK SMILES IDX 11 1 10 2 9 3 7 4 8 5 6 7 5 8 4 9 1 10 2 11 3 12 89 13 88 14
REMARK SMILES IDX 90 15 87 16 85 17 86 18 83 19 84 20 80 22 81 23 82 24 12 26
REMARK SMILES IDX 13 27 14 28 15 29 16 31 17 32 18 33 79 34 19 35 78 36 20 37
REMARK SMILES IDX 21 38 22 39 72 40 23 41 77 42 71 43 73 44 24 45 76 46 70 47
REMARK SMILES IDX 69 48 25 50 57 51 37 52 56 53 38 54 41 55 55 56 74 57 39 58
REMARK SMILES IDX 40 59 54 61 75 62 42 63 26 64 27 65 35 66 28 67 34 68 36 69
REMARK SMILES IDX 33 70 29 71 30 72 31 73 32 74 58 75 59 76 67 77 60 78 66 79
REMARK SMILES IDX 68 80 65 81 61 82 62 83 63 84 64 85 43 86 44 87 52 88 45 89
REMARK SMILES IDX 51 90 53 91 50 92 46 93 47 94 48 95 49 96
REMARK H PARENT 9 6 14 30 73 49 41 60
REMARK Flexibility Score: 90.00
ROOT
ATOM      1  C   UNL     1       5.699  -2.756   2.266  1.00  0.00     0.023 C 
ENDROOT
BRANCH   1   2
ATOM      2  C   UNL     1       6.273  -2.683   0.857  1.00  0.00     0.116 C 
BRANCH   2   3
ATOM      3  N   UNL     1       5.305  -2.848  -0.204  1.00  0.00    -0.356 N 
ATOM      4  C   UNL     1       4.935  -2.042  -1.228  1.00  0.00     0.225 C 
ATOM      5  O   UNL     1       4.361  -2.610  -2.168  1.00  0.00    -0.275 OA
ATOM      6  H   UNL     1       4.825  -3.707  -0.177  1.00  0.00     0.163 HD
BRANCH   4   7
ATOM      7  C   UNL     1       5.135  -0.525  -1.301  1.00  0.00     0.105 C 
BRANCH   7   8
ATOM      8  C   UNL     1       4.582   0.385  -0.181  1.00  0.00     0.127 C 
BRANCH   8   9
ATOM      9  C   UNL     1       3.036   0.338  -0.127  1.00  0.00    -0.024 A 
ATOM     10  C   UNL     1       0.197  -2.223   0.033  1.00  0.00     0.045 C 
ATOM     11  C   UNL     1       0.899  -0.893  -0.017  1.00  0.00    -0.037 A 
ATOM     12  C   UNL     1       2.307  -0.864  -0.028  1.00  0.00     0.010 A 
ATOM     13  C   UNL     1       0.209   0.323  -0.060  1.00  0.00     0.020 A 
ATOM     14  C   UNL     1       0.910   1.530  -0.121  1.00  0.00     0.016 A 
ATOM     15  Br  UNL     1      -1.688   0.405  -0.029  1.00  0.00    -0.051 Br
ATOM     16  C   UNL     1       2.308   1.537  -0.160  1.00  0.00     0.007 A 
ENDBRANCH   8   9
BRANCH   8  17
ATOM     17  N   UNL     1       5.247   0.347   1.136  1.00  0.00    -0.338 N 
ATOM     18  C   UNL     1       4.393   0.331   2.332  1.00  0.00     0.147 C 
BRANCH  17  19
ATOM     19  C   UNL     1       6.582   0.661   1.361  1.00  0.00     0.222 CG0
ATOM     20  O   UNL     1       6.989   0.888   2.508  1.00  0.00    -0.275 OA
ATOM     21  G   UNL     1       7.600   0.812   0.237  1.00  0.00     0.000 G0
ENDBRANCH  17  19
ENDBRANCH   8  17
ENDBRANCH   7   8
BRANCH   7  22
ATOM     22  C   UNL     1       6.478  -0.083  -1.879  1.00  0.00     0.016 C 
BRANCH  22  23
ATOM     23  C   UNL     1       7.671  -0.127  -0.955  1.00  0.00     0.011 C 
BRANCH  23  24
ATOM     24  C   UNL     1       7.600   0.812   0.237  1.00  0.00     0.100 CG0
ATOM     25  G   UNL     1       6.582   0.661   1.361  1.00  0.00     0.000 G0
ENDBRANCH  23  24
ENDBRANCH  22  23
ENDBRANCH   7  22
ENDBRANCH   4   7
ENDBRANCH   2   3
ENDBRANCH   1   2
BRANCH   1  26
ATOM     26  C   UNL     1       6.078  -4.002   3.052  1.00  0.00     0.023 C 
BRANCH  26  27
ATOM     27  C   UNL     1       7.568  -4.306   3.144  1.00  0.00     0.116 C 
BRANCH  27  28
ATOM     28  N   UNL     1       8.367  -3.318   3.854  1.00  0.00    -0.352 N 
ATOM     29  C   UNL     1       9.418  -3.562   4.722  1.00  0.00     0.251 C 
ATOM     30  H   UNL     1       8.134  -2.373   3.700  1.00  0.00     0.163 HD
ATOM     31  O   UNL     1      10.006  -2.648   5.279  1.00  0.00    -0.269 OA
BRANCH  29  32
ATOM     32  C   UNL     1       9.767  -4.973   5.011  1.00  0.00     0.039 A 
ATOM     33  C   UNL     1       9.698  -5.426   6.330  1.00  0.00     0.014 A 
ATOM     34  C   UNL     1       9.989  -5.870   3.963  1.00  0.00     0.014 A 
ATOM     35  C   UNL     1       9.741  -6.799   6.586  1.00  0.00     0.010 A 
ATOM     36  C   UNL     1       9.926  -7.237   4.213  1.00  0.00     0.010 A 
ATOM     37  C   UNL     1       9.789  -7.719   5.526  1.00  0.00    -0.014 A 
BRANCH  37  38
ATOM     38  C   UNL     1       9.687  -9.187   5.762  1.00  0.00     0.031 A 
ATOM     39  C   UNL     1      10.802 -10.095   5.316  1.00  0.00     0.074 A 
ATOM     40  C   UNL     1       8.565  -9.711   6.298  1.00  0.00     0.049 A 
ATOM     41  N   UNL     1      10.866 -11.401   5.329  1.00  0.00    -0.248 NA
ATOM     42  C   UNL     1      11.984  -9.443   4.731  1.00  0.00     0.031 C 
ATOM     43  C   UNL     1       7.383  -8.949   6.710  1.00  0.00     0.029 A 
ATOM     44  N   UNL     1       8.228 -11.013   6.580  1.00  0.00    -0.354 N 
ATOM     45  C   UNL     1      12.078 -11.727   4.730  1.00  0.00     0.074 A 
ATOM     46  C   UNL     1      12.678 -10.483   4.298  1.00  0.00     0.031 C 
ATOM     47  C   UNL     1       6.471  -9.791   7.224  1.00  0.00     0.029 A 
ATOM     48  C   UNL     1       6.979 -11.156   7.140  1.00  0.00     0.049 A 
ATOM     49  H   UNL     1       8.826 -11.774   6.399  1.00  0.00     0.167 HD
ATOM     50  C   UNL     1      12.654 -12.946   4.581  1.00  0.00     0.034 A 
ATOM     51  C   UNL     1       6.316 -12.261   7.538  1.00  0.00     0.034 A 
ATOM     52  C   UNL     1      12.062 -14.173   5.053  1.00  0.00     0.049 A 
ATOM     53  C   UNL     1       6.985 -13.604   7.387  1.00  0.00     0.074 A 
ATOM     54  C   UNL     1      12.587 -15.453   5.019  1.00  0.00     0.029 A 
ATOM     55  N   UNL     1      10.811 -14.273   5.648  1.00  0.00    -0.354 N 
ATOM     56  N   UNL     1       8.157 -13.889   6.868  1.00  0.00    -0.248 NA
ATOM     57  C   UNL     1       6.248 -14.772   7.886  1.00  0.00     0.031 C 
ATOM     58  C   UNL     1      11.633 -16.332   5.546  1.00  0.00     0.029 A 
ATOM     59  C   UNL     1      10.539 -15.594   5.968  1.00  0.00     0.049 A 
ATOM     60  H   UNL     1      10.205 -13.515   5.818  1.00  0.00     0.167 HD
ATOM     61  C   UNL     1       8.308 -15.266   7.006  1.00  0.00     0.074 A 
ATOM     62  C   UNL     1       7.115 -15.750   7.670  1.00  0.00     0.031 C 
ATOM     63  C   UNL     1       9.341 -16.059   6.624  1.00  0.00     0.034 A 
BRANCH  50  64
ATOM     64  C   UNL     1      13.985 -12.997   3.869  1.00  0.00     0.023 A 
ATOM     65  C   UNL     1      15.118 -12.338   4.378  1.00  0.00     0.031 A 
ATOM     66  C   UNL     1      14.113 -13.669   2.641  1.00  0.00     0.131 A 
ATOM     67  C   UNL     1      16.297 -12.282   3.620  1.00  0.00     0.055 A 
ATOM     68  C   UNL     1      15.318 -13.687   1.934  1.00  0.00     0.041 A 
ATOM     69  F   UNL     1      13.063 -14.301   2.094  1.00  0.00    -0.206 F 
ATOM     70  C   UNL     1      16.413 -12.974   2.413  1.00  0.00     0.022 A 
BRANCH  67  71
ATOM     71  S   UNL     1      17.615 -11.159   4.158  1.00  0.00     0.124 S 
ATOM     72  O   UNL     1      16.931  -9.868   4.125  1.00  0.00    -0.237 OA
ATOM     73  O   UNL     1      17.948 -11.672   5.481  1.00  0.00    -0.237 OA
ATOM     74  O   UNL     1      18.650 -11.333   3.141  1.00  0.00    -0.744 OA
ENDBRANCH  67  71
ENDBRANCH  50  64
BRANCH  51  75
ATOM     75  C   UNL     1       4.947 -12.159   8.120  1.00  0.00     0.023 A 
ATOM     76  C   UNL     1       4.706 -12.497   9.462  1.00  0.00     0.031 A 
ATOM     77  C   UNL     1       3.850 -11.764   7.333  1.00  0.00     0.131 A 
ATOM     78  C   UNL     1       3.395 -12.482   9.964  1.00  0.00     0.055 A 
ATOM     79  C   UNL     1       2.555 -11.704   7.851  1.00  0.00     0.041 A 
ATOM     80  F   UNL     1       4.026 -11.423   6.047  1.00  0.00    -0.206 F 
ATOM     81  C   UNL     1       2.319 -12.077   9.171  1.00  0.00     0.022 A 
BRANCH  78  82
ATOM     82  S   UNL     1       3.104 -13.077  11.654  1.00  0.00     0.124 S 
ATOM     83  O   UNL     1       3.629 -14.436  11.585  1.00  0.00    -0.237 OA
ATOM     84  O   UNL     1       3.881 -12.128  12.445  1.00  0.00    -0.237 OA
ATOM     85  O   UNL     1       1.655 -12.973  11.806  1.00  0.00    -0.744 OA
ENDBRANCH  78  82
ENDBRANCH  51  75
BRANCH  63  86
ATOM     86  C   UNL     1       9.238 -17.525   6.960  1.00  0.00     0.023 A 
ATOM     87  C   UNL     1       8.297 -18.362   6.335  1.00  0.00     0.031 A 
ATOM     88  C   UNL     1      10.091 -18.089   7.925  1.00  0.00     0.131 A 
ATOM     89  C   UNL     1       8.197 -19.707   6.720  1.00  0.00     0.055 A 
ATOM     90  C   UNL     1      10.023 -19.440   8.265  1.00  0.00     0.041 A 
ATOM     91  F   UNL     1      11.007 -17.333   8.552  1.00  0.00    -0.206 F 
ATOM     92  C   UNL     1       9.064 -20.255   7.670  1.00  0.00     0.022 A 
BRANCH  89  93
ATOM     93  S   UNL     1       6.862 -20.716   6.020  1.00  0.00     0.124 S 
ATOM     94  O   UNL     1       5.673 -19.980   6.439  1.00  0.00    -0.237 OA
ATOM     95  O   UNL     1       7.162 -20.684   4.593  1.00  0.00    -0.237 OA
ATOM     96  O   UNL     1       7.043 -22.017   6.661  1.00  0.00    -0.744 OA
ENDBRANCH  89  93
ENDBRANCH  63  86
ENDBRANCH  37  38
ENDBRANCH  29  32
ENDBRANCH  27  28
ENDBRANCH  26  27
ENDBRANCH   1  26
TORSDOF 15
