REMARK SMILES Cc1cc(OC(F)(F)F)cc2c1O[C@@H](C(F)(F)F)C(C(=O)NCCCCNC(=O)c1ccc(-c3c4nc(c(-c5cc(S(=O)(=O)[O-])ccc5F)c5ccc([nH]5)c(-c5cc(S(=O)(=O)[O-])ccc5F)c5nc(c(-c6cc(S(=O)(=O)[O-])ccc6F)c6ccc3[nH]6)C=C5)C=C4)cc1)=C2
REMARK SMILES IDX 25 1 24 2 23 3 22 4 20 5 21 6 19 8 1 9 2 10 3 11 12 12 4 13
REMARK SMILES IDX 11 14 13 15 10 16 93 17 14 18 5 19 6 20 7 21 8 22 9 23 15 24
REMARK SMILES IDX 16 25 17 26 18 27 26 28 27 29 28 30 29 32 30 33 31 34 92 35
REMARK SMILES IDX 32 36 91 37 33 38 34 39 35 40 85 41 36 42 90 43 84 44 86 45
REMARK SMILES IDX 37 46 89 47 83 48 82 49 38 51 70 52 50 53 69 54 51 55 54 56
REMARK SMILES IDX 68 57 87 58 52 59 53 60 67 62 88 63 55 64 39 65 40 66 48 67
REMARK SMILES IDX 41 68 47 69 49 70 46 71 42 72 43 73 44 74 45 75 71 76 72 77
REMARK SMILES IDX 80 78 73 79 79 80 81 81 78 82 74 83 75 84 76 85 77 86 56 87
REMARK SMILES IDX 57 88 65 89 58 90 64 91 66 92 63 93 59 94 60 95 61 96 62 97
REMARK H PARENT 22 7 27 31 86 50 54 61
REMARK Flexibility Score: inf
ROOT
ATOM      1  C   UNL     1      -2.780  -2.828   7.468  1.00  0.00     0.023 C 
ENDROOT
BRANCH   1   2
ATOM      2  C   UNL     1      -2.226  -2.351   6.125  1.00  0.00     0.023 C 
BRANCH   2   3
ATOM      3  C   UNL     1      -3.179  -1.455   5.337  1.00  0.00     0.116 C 
BRANCH   3   4
ATOM      4  N   UNL     1      -3.003  -0.063   5.695  1.00  0.00    -0.352 N 
ATOM      5  C   UNL     1      -2.413   1.024   5.151  1.00  0.00     0.251 C 
ATOM      6  O   UNL     1      -2.562   2.074   5.785  1.00  0.00    -0.270 OA
ATOM      7  H   UNL     1      -3.424   0.146   6.560  1.00  0.00     0.163 HD
BRANCH   5   8
ATOM      8  C   UNL     1      -1.620   1.039   3.887  1.00  0.00     0.067 C 
ATOM      9  C   UNL     1       1.042   0.186  -0.453  1.00  0.00     0.048 C 
ATOM     10  C   UNL     1       0.680   1.380   0.384  1.00  0.00    -0.005 A 
ATOM     11  C   UNL     1       1.183   2.643   0.024  1.00  0.00     0.054 A 
ATOM     12  C   UNL     1      -0.154   1.277   1.503  1.00  0.00     0.131 A 
ATOM     13  C   UNL     1       0.860   3.781   0.768  1.00  0.00     0.130 A 
ATOM     14  C   UNL     1      -0.480   2.406   2.255  1.00  0.00     0.021 A 
ATOM     15  O   UNL     1      -0.675   0.050   1.807  1.00  0.00    -0.475 OA
ATOM     16  C   UNL     1       0.029   3.653   1.885  1.00  0.00     0.058 A 
ATOM     17  C   UNL     1      -1.356   2.270   3.410  1.00  0.00     0.025 C 
ATOM     18  C   UNL     1      -1.026  -0.165   3.205  1.00  0.00     0.314 C 
BRANCH  13  19
ATOM     19  O   UNL     1       1.281   5.057   0.524  1.00  0.00    -0.406 OA
BRANCH  19  20
ATOM     20  C   UNL     1       2.043   5.287  -0.647  1.00  0.00     0.573 C 
ATOM     21  F   UNL     1       3.220   4.626  -0.603  1.00  0.00    -0.132 F 
ATOM     22  F   UNL     1       1.363   4.922  -1.755  1.00  0.00    -0.132 F 
ATOM     23  F   UNL     1       2.310   6.609  -0.738  1.00  0.00    -0.132 F 
ENDBRANCH  19  20
ENDBRANCH  13  19
BRANCH  18  24
ATOM     24  C   UNL     1       0.161  -0.799   3.955  1.00  0.00     0.429 C 
ATOM     25  F   UNL     1       0.399  -0.225   5.155  1.00  0.00    -0.167 F 
ATOM     26  F   UNL     1      -0.077  -2.116   4.182  1.00  0.00    -0.167 F 
ATOM     27  F   UNL     1       1.317  -0.736   3.251  1.00  0.00    -0.167 F 
ENDBRANCH  18  24
ENDBRANCH   5   8
ENDBRANCH   3   4
ENDBRANCH   2   3
ENDBRANCH   1   2
BRANCH   1  28
ATOM     28  C   UNL     1      -4.054  -3.664   7.384  1.00  0.00     0.116 C 
BRANCH  28  29
ATOM     29  N   UNL     1      -3.939  -4.811   6.494  1.00  0.00    -0.352 N 
ATOM     30  C   UNL     1      -4.511  -6.056   6.644  1.00  0.00     0.251 C 
ATOM     31  H   UNL     1      -3.387  -4.682   5.689  1.00  0.00     0.163 HD
ATOM     32  O   UNL     1      -4.285  -6.955   5.859  1.00  0.00    -0.269 OA
BRANCH  30  33
ATOM     33  C   UNL     1      -5.383  -6.267   7.817  1.00  0.00     0.039 A 
ATOM     34  C   UNL     1      -5.008  -7.216   8.769  1.00  0.00     0.014 A 
ATOM     35  C   UNL     1      -6.495  -5.444   8.012  1.00  0.00     0.014 A 
ATOM     36  C   UNL     1      -5.722  -7.298   9.964  1.00  0.00     0.010 A 
ATOM     37  C   UNL     1      -7.171  -5.492   9.224  1.00  0.00     0.010 A 
ATOM     38  C   UNL     1      -6.787  -6.416  10.209  1.00  0.00    -0.014 A 
BRANCH  38  39
ATOM     39  C   UNL     1      -7.522  -6.446  11.494  1.00  0.00     0.031 A 
ATOM     40  C   UNL     1      -8.947  -6.915  11.519  1.00  0.00     0.074 A 
ATOM     41  C   UNL     1      -6.931  -5.984  12.613  1.00  0.00     0.049 A 
ATOM     42  N   UNL     1      -9.778  -6.966  12.524  1.00  0.00    -0.248 NA
ATOM     43  C   UNL     1      -9.520  -7.361  10.238  1.00  0.00     0.031 C 
ATOM     44  C   UNL     1      -5.570  -5.451  12.689  1.00  0.00     0.029 A 
ATOM     45  N   UNL     1      -7.404  -5.873  13.896  1.00  0.00    -0.354 N 
ATOM     46  C   UNL     1     -10.973  -7.438  11.999  1.00  0.00     0.074 A 
ATOM     47  C   UNL     1     -10.777  -7.609  10.577  1.00  0.00     0.031 C 
ATOM     48  C   UNL     1      -5.314  -5.081  13.954  1.00  0.00     0.029 A 
ATOM     49  C   UNL     1      -6.498  -5.328  14.774  1.00  0.00     0.049 A 
ATOM     50  H   UNL     1      -8.309  -6.157  14.162  1.00  0.00     0.167 HD
ATOM     51  C   UNL     1     -12.123  -7.727  12.650  1.00  0.00     0.034 A 
ATOM     52  C   UNL     1      -6.608  -5.063  16.092  1.00  0.00     0.034 A 
ATOM     53  C   UNL     1     -12.296  -7.581  14.069  1.00  0.00     0.049 A 
ATOM     54  C   UNL     1      -7.888  -5.425  16.803  1.00  0.00     0.074 A 
ATOM     55  C   UNL     1     -13.402  -7.903  14.834  1.00  0.00     0.029 A 
ATOM     56  N   UNL     1     -11.336  -7.081  14.937  1.00  0.00    -0.354 N 
ATOM     57  N   UNL     1      -8.979  -5.962  16.309  1.00  0.00    -0.248 NA
ATOM     58  C   UNL     1      -7.952  -5.162  18.247  1.00  0.00     0.031 C 
ATOM     59  C   UNL     1     -13.122  -7.573  16.162  1.00  0.00     0.029 A 
ATOM     60  C   UNL     1     -11.828  -7.078  16.230  1.00  0.00     0.049 A 
ATOM     61  H   UNL     1     -10.440  -6.773  14.673  1.00  0.00     0.167 HD
ATOM     62  C   UNL     1      -9.846  -6.126  17.384  1.00  0.00     0.074 A 
ATOM     63  C   UNL     1      -9.149  -5.645  18.558  1.00  0.00     0.031 C 
ATOM     64  C   UNL     1     -11.107  -6.626  17.395  1.00  0.00     0.034 A 
BRANCH  51  65
ATOM     65  C   UNL     1     -13.274  -8.266  11.847  1.00  0.00     0.023 A 
ATOM     66  C   UNL     1     -14.446  -7.507  11.690  1.00  0.00     0.031 A 
ATOM     67  C   UNL     1     -13.236  -9.565  11.309  1.00  0.00     0.131 A 
ATOM     68  C   UNL     1     -15.543  -8.062  11.020  1.00  0.00     0.055 A 
ATOM     69  C   UNL     1     -14.321 -10.101  10.617  1.00  0.00     0.041 A 
ATOM     70  F   UNL     1     -12.133 -10.320  11.429  1.00  0.00    -0.206 F 
ATOM     71  C   UNL     1     -15.485  -9.351  10.476  1.00  0.00     0.022 A 
BRANCH  68  72
ATOM     72  S   UNL     1     -17.093  -7.139  10.837  1.00  0.00     0.124 S 
ATOM     73  O   UNL     1     -17.334  -7.232   9.399  1.00  0.00    -0.237 OA
ATOM     74  O   UNL     1     -18.006  -7.910  11.675  1.00  0.00    -0.237 OA
ATOM     75  O   UNL     1     -16.762  -5.803  11.321  1.00  0.00    -0.744 OA
ENDBRANCH  68  72
ENDBRANCH  51  65
BRANCH  52  76
ATOM     76  C   UNL     1      -5.441  -4.496  16.824  1.00  0.00     0.023 A 
ATOM     77  C   UNL     1      -4.973  -3.197  16.557  1.00  0.00     0.031 A 
ATOM     78  C   UNL     1      -4.726  -5.284  17.742  1.00  0.00     0.131 A 
ATOM     79  C   UNL     1      -3.799  -2.742  17.172  1.00  0.00     0.055 A 
ATOM     80  C   UNL     1      -3.587  -4.807  18.392  1.00  0.00     0.041 A 
ATOM     81  F   UNL     1      -5.130  -6.534  18.016  1.00  0.00    -0.206 F 
ATOM     82  C   UNL     1      -3.112  -3.533  18.100  1.00  0.00     0.022 A 
BRANCH  79  83
ATOM     83  S   UNL     1      -3.073  -1.140  16.728  1.00  0.00     0.124 S 
ATOM     84  O   UNL     1      -2.981  -0.475  18.025  1.00  0.00    -0.237 OA
ATOM     85  O   UNL     1      -1.802  -1.546  16.135  1.00  0.00    -0.237 OA
ATOM     86  O   UNL     1      -4.041  -0.570  15.796  1.00  0.00    -0.744 OA
ENDBRANCH  79  83
ENDBRANCH  52  76
BRANCH  64  87
ATOM     87  C   UNL     1     -11.836  -6.710  18.709  1.00  0.00     0.023 A 
ATOM     88  C   UNL     1     -12.156  -7.968  19.253  1.00  0.00     0.031 A 
ATOM     89  C   UNL     1     -12.355  -5.560  19.327  1.00  0.00     0.131 A 
ATOM     90  C   UNL     1     -13.008  -8.048  20.360  1.00  0.00     0.055 A 
ATOM     91  C   UNL     1     -13.174  -5.644  20.453  1.00  0.00     0.041 A 
ATOM     92  F   UNL     1     -12.082  -4.341  18.834  1.00  0.00    -0.206 F 
ATOM     93  C   UNL     1     -13.514  -6.893  20.966  1.00  0.00     0.022 A 
BRANCH  90  94
ATOM     94  S   UNL     1     -13.546  -9.653  21.011  1.00  0.00     0.124 S 
ATOM     95  O   UNL     1     -13.145  -9.562  22.414  1.00  0.00    -0.237 OA
ATOM     96  O   UNL     1     -14.986  -9.614  20.770  1.00  0.00    -0.237 OA
ATOM     97  O   UNL     1     -12.802 -10.624  20.216  1.00  0.00    -0.744 OA
ENDBRANCH  90  94
ENDBRANCH  64  87
ENDBRANCH  38  39
ENDBRANCH  30  33
ENDBRANCH  28  29
ENDBRANCH   1  28
TORSDOF 17
