REMARK SMILES CC[C@](O)(C(=O)NCCCCNC(=O)c1ccc(-c2c3nc(c(-c4cc(S(=O)(=O)[O-])ccc4F)c4ccc([nH]4)c(-c4cc(S(=O)(=O)[O-])ccc4F)c4nc(c(-c5cc(S(=O)(=O)[O-])ccc5F)c5ccc2[nH]5)C=C4)C=C3)cc1)[C@H](C)c1ccc(F)cc1F
REMARK SMILES IDX 10 1 9 2 8 3 7 4 5 5 6 6 3 8 2 9 1 10 4 11 78 13 79 14 80 15
REMARK SMILES IDX 81 16 86 17 82 18 85 19 87 20 83 21 84 22 11 23 12 24 13 25
REMARK SMILES IDX 14 27 15 28 16 29 77 30 17 31 76 32 18 33 19 34 20 35 70 36
REMARK SMILES IDX 21 37 75 38 69 39 71 40 22 41 74 42 68 43 67 44 23 46 55 47
REMARK SMILES IDX 35 48 54 49 36 50 39 51 53 52 72 53 37 54 38 55 52 57 73 58
REMARK SMILES IDX 40 59 24 60 25 61 33 62 26 63 32 64 34 65 31 66 27 67 28 68
REMARK SMILES IDX 29 69 30 70 56 71 57 72 65 73 58 74 64 75 66 76 63 77 59 78
REMARK SMILES IDX 60 79 61 80 62 81 41 82 42 83 50 84 43 85 49 86 51 87 48 88
REMARK SMILES IDX 44 89 45 90 46 91 47 92
REMARK H PARENT 7 7 4 12 12 26 71 45 39 56
REMARK Flexibility Score: inf
ROOT
ATOM      1  C   UNL     1       5.964   4.721  -5.224  1.00  0.00     0.023 C 
ENDROOT
BRANCH   1   2
ATOM      2  C   UNL     1       5.431   4.189  -3.895  1.00  0.00     0.023 C 
BRANCH   2   3
ATOM      3  C   UNL     1       3.925   3.953  -3.854  1.00  0.00     0.116 C 
BRANCH   3   4
ATOM      4  N   UNL     1       3.534   2.705  -4.473  1.00  0.00    -0.354 N 
ATOM      5  C   UNL     1       3.055   1.534  -3.952  1.00  0.00     0.252 C 
ATOM      6  O   UNL     1       2.700   0.691  -4.781  1.00  0.00    -0.272 OA
ATOM      7  H   UNL     1       3.630   2.696  -5.452  1.00  0.00     0.163 HD
BRANCH   5   8
ATOM      8  C   UNL     1       2.982   1.273  -2.392  1.00  0.00     0.149 C 
BRANCH   8   9
ATOM      9  C   UNL     1       1.981   2.259  -1.716  1.00  0.00     0.043 C 
ATOM     10  C   UNL     1       2.526   3.318  -0.754  1.00  0.00     0.007 C 
ENDBRANCH   8   9
BRANCH   8  11
ATOM     11  O   UNL     1       4.322   1.378  -1.893  1.00  0.00    -0.379 OA
ATOM     12  H   UNL     1       4.634   2.291  -1.995  1.00  0.00     0.212 HD
ENDBRANCH   8  11
BRANCH   8  13
ATOM     13  C   UNL     1       2.540  -0.238  -2.193  1.00  0.00     0.060 C 
ATOM     14  C   UNL     1       1.061  -0.480  -2.572  1.00  0.00     0.016 C 
BRANCH  13  15
ATOM     15  C   UNL     1       2.834  -0.959  -0.868  1.00  0.00    -0.006 A 
ATOM     16  C   UNL     1       2.788  -2.371  -0.864  1.00  0.00     0.010 A 
ATOM     17  C   UNL     1       3.147  -0.331   0.345  1.00  0.00     0.129 A 
ATOM     18  C   UNL     1       3.050  -3.104   0.296  1.00  0.00     0.040 A 
ATOM     19  C   UNL     1       3.425  -1.055   1.502  1.00  0.00     0.078 A 
ATOM     20  F   UNL     1       3.176   0.998   0.456  1.00  0.00    -0.207 F 
ATOM     21  C   UNL     1       3.373  -2.437   1.468  1.00  0.00     0.126 A 
ATOM     22  F   UNL     1       3.630  -3.136   2.581  1.00  0.00    -0.207 F 
ENDBRANCH  13  15
ENDBRANCH   8  13
ENDBRANCH   5   8
ENDBRANCH   3   4
ENDBRANCH   2   3
ENDBRANCH   1   2
BRANCH   1  23
ATOM     23  C   UNL     1       5.307   6.000  -5.736  1.00  0.00     0.116 C 
BRANCH  23  24
ATOM     24  N   UNL     1       5.283   7.084  -4.762  1.00  0.00    -0.352 N 
ATOM     25  C   UNL     1       5.419   8.436  -4.991  1.00  0.00     0.251 C 
ATOM     26  H   UNL     1       5.153   6.817  -3.823  1.00  0.00     0.163 HD
ATOM     27  O   UNL     1       5.439   9.227  -4.058  1.00  0.00    -0.269 OA
BRANCH  25  28
ATOM     28  C   UNL     1       5.592   8.900  -6.383  1.00  0.00     0.039 A 
ATOM     29  C   UNL     1       6.737   9.629  -6.713  1.00  0.00     0.014 A 
ATOM     30  C   UNL     1       4.681   8.514  -7.370  1.00  0.00     0.014 A 
ATOM     31  C   UNL     1       7.024   9.883  -8.055  1.00  0.00     0.010 A 
ATOM     32  C   UNL     1       5.001   8.715  -8.708  1.00  0.00     0.010 A 
ATOM     33  C   UNL     1       6.188   9.377  -9.064  1.00  0.00    -0.014 A 
BRANCH  33  34
ATOM     34  C   UNL     1       6.553   9.475 -10.501  1.00  0.00     0.031 A 
ATOM     35  C   UNL     1       5.683  10.261 -11.441  1.00  0.00     0.074 A 
ATOM     36  C   UNL     1       7.591   8.756 -10.972  1.00  0.00     0.049 A 
ATOM     37  N   UNL     1       5.734  10.337 -12.744  1.00  0.00    -0.248 NA
ATOM     38  C   UNL     1       4.590  11.034 -10.833  1.00  0.00     0.031 C 
ATOM     39  C   UNL     1       8.477   7.915 -10.160  1.00  0.00     0.029 A 
ATOM     40  N   UNL     1       8.062   8.588 -12.251  1.00  0.00    -0.354 N 
ATOM     41  C   UNL     1       4.664  11.141 -13.118  1.00  0.00     0.074 A 
ATOM     42  C   UNL     1       3.962  11.498 -11.903  1.00  0.00     0.031 C 
ATOM     43  C   UNL     1       9.377   7.321 -10.960  1.00  0.00     0.029 A 
ATOM     44  C   UNL     1       9.107   7.697 -12.344  1.00  0.00     0.049 A 
ATOM     45  H   UNL     1       7.686   9.060 -13.029  1.00  0.00     0.167 HD
ATOM     46  C   UNL     1       4.310  11.550 -14.361  1.00  0.00     0.034 A 
ATOM     47  C   UNL     1       9.754   7.213 -13.423  1.00  0.00     0.034 A 
ATOM     48  C   UNL     1       5.043  11.215 -15.555  1.00  0.00     0.049 A 
ATOM     49  C   UNL     1       9.336   7.681 -14.793  1.00  0.00     0.074 A 
ATOM     50  C   UNL     1       4.842  11.673 -16.846  1.00  0.00     0.029 A 
ATOM     51  N   UNL     1       6.110  10.328 -15.610  1.00  0.00    -0.354 N 
ATOM     52  N   UNL     1       8.371   8.509 -15.122  1.00  0.00    -0.248 NA
ATOM     53  C   UNL     1      10.092   7.153 -15.937  1.00  0.00     0.031 C 
ATOM     54  C   UNL     1       5.745  11.016 -17.689  1.00  0.00     0.029 A 
ATOM     55  C   UNL     1       6.549  10.193 -16.917  1.00  0.00     0.049 A 
ATOM     56  H   UNL     1       6.497   9.863 -14.833  1.00  0.00     0.167 HD
ATOM     57  C   UNL     1       8.422   8.617 -16.509  1.00  0.00     0.074 A 
ATOM     58  C   UNL     1       9.518   7.781 -16.953  1.00  0.00     0.031 C 
ATOM     59  C   UNL     1       7.635   9.344 -17.341  1.00  0.00     0.034 A 
BRANCH  46  60
ATOM     60  C   UNL     1       3.061  12.383 -14.492  1.00  0.00     0.023 A 
ATOM     61  C   UNL     1       2.970  13.674 -13.948  1.00  0.00     0.031 A 
ATOM     62  C   UNL     1       1.940  11.871 -15.171  1.00  0.00     0.131 A 
ATOM     63  C   UNL     1       1.765  14.387 -14.037  1.00  0.00     0.055 A 
ATOM     64  C   UNL     1       0.767  12.612 -15.316  1.00  0.00     0.041 A 
ATOM     65  F   UNL     1       1.965  10.635 -15.694  1.00  0.00    -0.206 F 
ATOM     66  C   UNL     1       0.670  13.874 -14.737  1.00  0.00     0.022 A 
BRANCH  63  67
ATOM     67  S   UNL     1       1.612  15.947 -13.126  1.00  0.00     0.124 S 
ATOM     68  O   UNL     1       1.807  15.504 -11.747  1.00  0.00    -0.237 OA
ATOM     69  O   UNL     1       2.686  16.752 -13.695  1.00  0.00    -0.237 OA
ATOM     70  O   UNL     1       0.258  16.398 -13.443  1.00  0.00    -0.744 OA
ENDBRANCH  63  67
ENDBRANCH  46  60
BRANCH  47  71
ATOM     71  C   UNL     1      10.836   6.198 -13.268  1.00  0.00     0.023 A 
ATOM     72  C   UNL     1      12.161   6.492 -13.626  1.00  0.00     0.031 A 
ATOM     73  C   UNL     1      10.548   4.899 -12.813  1.00  0.00     0.131 A 
ATOM     74  C   UNL     1      13.140   5.488 -13.570  1.00  0.00     0.055 A 
ATOM     75  C   UNL     1      11.536   3.917 -12.712  1.00  0.00     0.041 A 
ATOM     76  F   UNL     1       9.298   4.566 -12.453  1.00  0.00    -0.206 F 
ATOM     77  C   UNL     1      12.838   4.205 -13.106  1.00  0.00     0.022 A 
BRANCH  74  78
ATOM     78  S   UNL     1      14.799   5.858 -14.204  1.00  0.00     0.124 S 
ATOM     79  O   UNL     1      14.507   6.301 -15.562  1.00  0.00    -0.237 OA
ATOM     80  O   UNL     1      15.253   6.888 -13.276  1.00  0.00    -0.237 OA
ATOM     81  O   UNL     1      15.495   4.577 -14.101  1.00  0.00    -0.744 OA
ENDBRANCH  74  78
ENDBRANCH  47  71
BRANCH  59  82
ATOM     82  C   UNL     1       7.962   9.287 -18.811  1.00  0.00     0.023 A 
ATOM     83  C   UNL     1       7.725   8.130 -19.571  1.00  0.00     0.031 A 
ATOM     84  C   UNL     1       8.515  10.407 -19.456  1.00  0.00     0.131 A 
ATOM     85  C   UNL     1       8.079   8.104 -20.928  1.00  0.00     0.055 A 
ATOM     86  C   UNL     1       8.819  10.392 -20.817  1.00  0.00     0.041 A 
ATOM     87  F   UNL     1       8.760  11.536 -18.772  1.00  0.00    -0.206 F 
ATOM     88  C   UNL     1       8.609   9.233 -21.559  1.00  0.00     0.022 A 
BRANCH  85  89
ATOM     89  S   UNL     1       7.889   6.554 -21.850  1.00  0.00     0.124 S 
ATOM     90  O   UNL     1       8.811   5.668 -21.146  1.00  0.00    -0.237 OA
ATOM     91  O   UNL     1       6.470   6.260 -21.681  1.00  0.00    -0.237 OA
ATOM     92  O   UNL     1       8.288   6.912 -23.210  1.00  0.00    -0.744 OA
ENDBRANCH  85  89
ENDBRANCH  59  82
ENDBRANCH  33  34
ENDBRANCH  25  28
ENDBRANCH  23  24
ENDBRANCH   1  23
TORSDOF 18
