REMARK SMILES O=C(NCCCCNC(=O)c1cccc(OS(=O)(=O)c2cccc([N+](=O)[O-])c2)c1)c1ccc(-c2c3nc(c(-c4cc(S(=O)(=O)[O-])ccc4F)c4ccc([nH]4)c(-c4cc(S(=O)(=O)[O-])ccc4F)c4nc(c(-c5cc(S(=O)(=O)[O-])ccc5F)c5ccc2[nH]5)C=C4)C=C3)cc1
REMARK SMILES IDX 6 1 5 2 4 3 3 4 1 5 2 6 30 8 31 9 92 10 32 11 91 12 33 13
REMARK SMILES IDX 34 14 35 15 85 16 36 17 90 18 84 19 86 20 37 21 89 22 83 23
REMARK SMILES IDX 82 24 38 26 70 27 50 28 69 29 51 30 54 31 68 32 87 33 52 34
REMARK SMILES IDX 53 35 67 37 88 38 55 39 39 40 40 41 48 42 41 43 47 44 49 45
REMARK SMILES IDX 46 46 42 47 43 48 44 49 45 50 71 51 72 52 80 53 73 54 79 55
REMARK SMILES IDX 81 56 78 57 74 58 75 59 76 60 77 61 56 62 57 63 65 64 58 65
REMARK SMILES IDX 64 66 66 67 63 68 59 69 60 70 61 71 62 72 7 73 8 74 9 75
REMARK SMILES IDX 10 77 11 78 12 79 29 80 13 81 15 82 14 83 16 84 17 85 18 86
REMARK SMILES IDX 19 87 20 88 21 89 28 90 22 91 24 92 23 93 25 94 26 95 27 96
REMARK H PARENT 3 7 86 25 54 36 8 76
REMARK Flexibility Score: inf
ROOT
ATOM      1  C   UNL     1       4.421   3.703  -0.881  1.00  0.00     0.023 C 
ENDROOT
BRANCH   1   2
ATOM      2  C   UNL     1       4.881   2.281  -1.190  1.00  0.00     0.023 C 
BRANCH   2   3
ATOM      3  C   UNL     1       4.569   1.250  -0.114  1.00  0.00     0.116 C 
BRANCH   3   4
ATOM      4  N   UNL     1       3.140   1.062   0.095  1.00  0.00    -0.352 N 
ATOM      5  O   UNL     1       1.169  -0.034   0.066  1.00  0.00    -0.269 OA
ATOM      6  C   UNL     1       2.394  -0.091   0.009  1.00  0.00     0.251 C 
ATOM      7  H   UNL     1       2.637   1.875   0.331  1.00  0.00     0.163 HD
BRANCH   6   8
ATOM      8  C   UNL     1       3.072  -1.394  -0.176  1.00  0.00     0.039 A 
ATOM      9  C   UNL     1       4.196  -1.725   0.583  1.00  0.00     0.014 A 
ATOM     10  C   UNL     1       2.576  -2.296  -1.122  1.00  0.00     0.014 A 
ATOM     11  C   UNL     1       4.908  -2.885   0.296  1.00  0.00     0.010 A 
ATOM     12  C   UNL     1       3.245  -3.504  -1.349  1.00  0.00     0.010 A 
ATOM     13  C   UNL     1       4.434  -3.795  -0.663  1.00  0.00    -0.014 A 
BRANCH  13  14
ATOM     14  C   UNL     1       5.168  -5.069  -0.880  1.00  0.00     0.031 A 
ATOM     15  C   UNL     1       5.837  -5.369  -2.193  1.00  0.00     0.074 A 
ATOM     16  C   UNL     1       5.251  -5.945   0.141  1.00  0.00     0.049 A 
ATOM     17  N   UNL     1       6.523  -6.427  -2.545  1.00  0.00    -0.248 NA
ATOM     18  C   UNL     1       5.715  -4.356  -3.252  1.00  0.00     0.031 C 
ATOM     19  C   UNL     1       4.635  -5.760   1.458  1.00  0.00     0.029 A 
ATOM     20  N   UNL     1       5.891  -7.153   0.245  1.00  0.00    -0.354 N 
ATOM     21  C   UNL     1       6.901  -6.219  -3.868  1.00  0.00     0.074 A 
ATOM     22  C   UNL     1       6.344  -4.941  -4.263  1.00  0.00     0.031 C 
ATOM     23  C   UNL     1       4.963  -6.792   2.248  1.00  0.00     0.029 A 
ATOM     24  C   UNL     1       5.751  -7.746   1.478  1.00  0.00     0.049 A 
ATOM     25  H   UNL     1       6.404  -7.557  -0.493  1.00  0.00     0.167 HD
ATOM     26  C   UNL     1       7.645  -7.019  -4.672  1.00  0.00     0.034 A 
ATOM     27  C   UNL     1       6.186  -8.937   1.934  1.00  0.00     0.034 A 
ATOM     28  C   UNL     1       8.201  -8.286  -4.256  1.00  0.00     0.049 A 
ATOM     29  C   UNL     1       6.985  -9.815   1.010  1.00  0.00     0.074 A 
ATOM     30  C   UNL     1       9.002  -9.155  -4.978  1.00  0.00     0.029 A 
ATOM     31  N   UNL     1       8.008  -8.872  -3.011  1.00  0.00    -0.354 N 
ATOM     32  N   UNL     1       7.349  -9.590  -0.231  1.00  0.00    -0.248 NA
ATOM     33  C   UNL     1       7.435 -11.103   1.549  1.00  0.00     0.031 C 
ATOM     34  C   UNL     1       9.240 -10.290  -4.195  1.00  0.00     0.029 A 
ATOM     35  C   UNL     1       8.647 -10.102  -2.957  1.00  0.00     0.049 A 
ATOM     36  H   UNL     1       7.492  -8.472  -2.273  1.00  0.00     0.167 HD
ATOM     37  C   UNL     1       8.086 -10.705  -0.615  1.00  0.00     0.074 A 
ATOM     38  C   UNL     1       8.135 -11.587   0.534  1.00  0.00     0.031 C 
ATOM     39  C   UNL     1       8.669 -10.978  -1.810  1.00  0.00     0.034 A 
BRANCH  26  40
ATOM     40  C   UNL     1       7.866  -6.573  -6.097  1.00  0.00     0.023 A 
ATOM     41  C   UNL     1       8.635  -5.440  -6.413  1.00  0.00     0.031 A 
ATOM     42  C   UNL     1       7.305  -7.305  -7.160  1.00  0.00     0.131 A 
ATOM     43  C   UNL     1       8.782  -5.044  -7.753  1.00  0.00     0.055 A 
ATOM     44  C   UNL     1       7.509  -6.945  -8.493  1.00  0.00     0.041 A 
ATOM     45  F   UNL     1       6.546  -8.386  -6.918  1.00  0.00    -0.206 F 
ATOM     46  C   UNL     1       8.243  -5.802  -8.796  1.00  0.00     0.022 A 
BRANCH  43  47
ATOM     47  S   UNL     1       9.601  -3.466  -8.111  1.00  0.00     0.124 S 
ATOM     48  O   UNL     1       8.741  -2.519  -7.404  1.00  0.00    -0.237 OA
ATOM     49  O   UNL     1      10.931  -3.664  -7.546  1.00  0.00    -0.237 OA
ATOM     50  O   UNL     1       9.550  -3.375  -9.569  1.00  0.00    -0.744 OA
ENDBRANCH  43  47
ENDBRANCH  26  40
BRANCH  27  51
ATOM     51  C   UNL     1       5.841  -9.384   3.313  1.00  0.00     0.023 A 
ATOM     52  C   UNL     1       6.837  -9.603   4.276  1.00  0.00     0.031 A 
ATOM     53  C   UNL     1       4.505  -9.635   3.675  1.00  0.00     0.131 A 
ATOM     54  C   UNL     1       6.487 -10.101   5.541  1.00  0.00     0.055 A 
ATOM     55  C   UNL     1       4.157 -10.075   4.952  1.00  0.00     0.041 A 
ATOM     56  F   UNL     1       3.513  -9.439   2.792  1.00  0.00    -0.206 F 
ATOM     57  C   UNL     1       5.153 -10.324   5.890  1.00  0.00     0.022 A 
BRANCH  54  58
ATOM     58  S   UNL     1       7.813 -10.541   6.697  1.00  0.00     0.124 S 
ATOM     59  O   UNL     1       8.601 -11.478   5.904  1.00  0.00    -0.237 OA
ATOM     60  O   UNL     1       8.430  -9.245   6.958  1.00  0.00    -0.237 OA
ATOM     61  O   UNL     1       7.097 -11.129   7.827  1.00  0.00    -0.744 OA
ENDBRANCH  54  58
ENDBRANCH  27  51
BRANCH  39  62
ATOM     62  C   UNL     1       9.436 -12.272  -1.906  1.00  0.00     0.023 A 
ATOM     63  C   UNL     1       8.786 -13.518  -1.860  1.00  0.00     0.031 A 
ATOM     64  C   UNL     1      10.838 -12.258  -2.011  1.00  0.00     0.131 A 
ATOM     65  C   UNL     1       9.542 -14.699  -1.857  1.00  0.00     0.055 A 
ATOM     66  C   UNL     1      11.581 -13.438  -2.066  1.00  0.00     0.041 A 
ATOM     67  F   UNL     1      11.508 -11.095  -2.056  1.00  0.00    -0.206 F 
ATOM     68  C   UNL     1      10.934 -14.667  -1.975  1.00  0.00     0.022 A 
BRANCH  65  69
ATOM     69  S   UNL     1       8.687 -16.279  -1.605  1.00  0.00     0.124 S 
ATOM     70  O   UNL     1       8.056 -16.079  -0.305  1.00  0.00    -0.237 OA
ATOM     71  O   UNL     1       7.785 -16.333  -2.750  1.00  0.00    -0.237 OA
ATOM     72  O   UNL     1       9.770 -17.262  -1.624  1.00  0.00    -0.744 OA
ENDBRANCH  65  69
ENDBRANCH  39  62
ENDBRANCH  13  14
ENDBRANCH   6   8
ENDBRANCH   3   4
ENDBRANCH   2   3
ENDBRANCH   1   2
BRANCH   1  73
ATOM     73  C   UNL     1       4.934   4.280   0.435  1.00  0.00     0.116 C 
BRANCH  73  74
ATOM     74  N   UNL     1       6.387   4.388   0.477  1.00  0.00    -0.352 N 
ATOM     75  C   UNL     1       7.160   5.477   0.805  1.00  0.00     0.251 C 
ATOM     76  H   UNL     1       6.882   3.571   0.239  1.00  0.00     0.163 HD
ATOM     77  O   UNL     1       8.377   5.461   0.670  1.00  0.00    -0.269 OA
BRANCH  75  78
ATOM     78  C   UNL     1       6.500   6.693   1.317  1.00  0.00     0.043 A 
ATOM     79  C   UNL     1       6.725   7.917   0.689  1.00  0.00     0.014 A 
ATOM     80  C   UNL     1       5.634   6.600   2.409  1.00  0.00     0.062 A 
ATOM     81  C   UNL     1       6.024   9.043   1.121  1.00  0.00     0.005 A 
ATOM     82  C   UNL     1       4.889   7.709   2.804  1.00  0.00     0.143 A 
ATOM     83  C   UNL     1       5.098   8.935   2.166  1.00  0.00     0.048 A 
BRANCH  82  84
ATOM     84  O   UNL     1       3.931   7.675   3.790  1.00  0.00    -0.379 OA
BRANCH  84  85
ATOM     85  S   UNL     1       3.233   6.256   4.215  1.00  0.00     0.339 S 
ATOM     86  O   UNL     1       2.578   5.690   3.050  1.00  0.00    -0.181 OA
ATOM     87  O   UNL     1       4.184   5.491   4.997  1.00  0.00    -0.181 OA
BRANCH  85  88
ATOM     88  C   UNL     1       1.929   6.669   5.347  1.00  0.00     0.112 A 
ATOM     89  C   UNL     1       1.625   7.997   5.657  1.00  0.00     0.024 A 
ATOM     90  C   UNL     1       1.245   5.606   5.952  1.00  0.00     0.109 A 
ATOM     91  C   UNL     1       0.624   8.267   6.593  1.00  0.00     0.009 A 
ATOM     92  C   UNL     1       0.247   5.891   6.889  1.00  0.00     0.270 A 
ATOM     93  C   UNL     1      -0.065   7.219   7.213  1.00  0.00     0.086 A 
BRANCH  92  94
ATOM     94  N   UNL     1      -0.470   4.790   7.547  1.00  0.00     0.062 N 
ATOM     95  O   UNL     1      -1.300   5.087   8.417  1.00  0.00    -0.258 OA
ATOM     96  O   UNL     1      -0.201   3.635   7.192  1.00  0.00    -0.258 OA
ENDBRANCH  92  94
ENDBRANCH  85  88
ENDBRANCH  84  85
ENDBRANCH  82  84
ENDBRANCH  75  78
ENDBRANCH  73  74
ENDBRANCH   1  73
TORSDOF 18
