REMARK SMILES Cc1ccc([C@H](C)NC(=O)[C@H]2[C@@H]3CC[C@@H](C3)[C@@H]2C(=O)NCCCCNC(=O)c2ccc(-c3c4nc(c(-c5cc(S(=O)(=O)[O-])ccc5F)c5ccc([nH]5)c(-c5cc(S(=O)(=O)[O-])ccc5F)c5nc(c(-c6cc(S(=O)(=O)[O-])ccc6F)c6ccc3[nH]6)C=C5)C=C4)cc2)cc1
REMARK SMILES IDX 22 1 21 2 20 3 18 4 19 5 17 7 11 8 12 9 13 10 16 11 15 12
REMARK SMILES IDX 14 13 9 14 8 15 10 17 6 18 7 19 5 20 1 21 2 22 3 23 92 24
REMARK SMILES IDX 4 25 91 26 23 27 24 28 25 29 26 30 27 32 28 33 29 34 90 35
REMARK SMILES IDX 30 36 89 37 31 38 32 39 33 40 83 41 34 42 88 43 82 44 84 45
REMARK SMILES IDX 35 46 87 47 81 48 80 49 36 51 68 52 48 53 67 54 49 55 52 56
REMARK SMILES IDX 66 57 85 58 50 59 51 60 65 62 86 63 53 64 37 65 38 66 46 67
REMARK SMILES IDX 39 68 45 69 47 70 44 71 40 72 41 73 42 74 43 75 69 76 70 77
REMARK SMILES IDX 78 78 71 79 77 80 79 81 76 82 72 83 73 84 74 85 75 86 54 87
REMARK SMILES IDX 55 88 63 89 56 90 62 91 64 92 61 93 57 94 58 95 59 96 60 97
REMARK H PARENT 20 6 8 16 25 31 84 50 52 61
REMARK Flexibility Score: inf
ROOT
ATOM      1  C   UNL     1      -8.084   0.856   2.649  1.00  0.00     0.023 C 
ENDROOT
BRANCH   1   2
ATOM      2  C   UNL     1      -7.515   0.403   1.294  1.00  0.00     0.116 C 
BRANCH   2   3
ATOM      3  N   UNL     1      -7.496   1.504   0.346  1.00  0.00    -0.356 N 
ATOM      4  C   UNL     1      -6.534   2.397   0.017  1.00  0.00     0.224 C 
ATOM      5  O   UNL     1      -6.864   3.275  -0.792  1.00  0.00    -0.275 OA
ATOM      6  H   UNL     1      -8.339   1.623  -0.149  1.00  0.00     0.163 HD
BRANCH   4   7
ATOM      7  C   UNL     1      -5.072   2.283   0.461  1.00  0.00     0.094 C 
ATOM      8  C   UNL     1      -4.670   1.791   1.863  1.00  0.00     0.094 C 
ATOM      9  C   UNL     1      -3.843   2.971   2.437  1.00  0.00     0.002 C 
ATOM     10  C   UNL     1      -4.790   4.148   2.727  1.00  0.00     0.005 C 
ATOM     11  C   UNL     1      -3.093   3.457   1.203  1.00  0.00     0.009 C 
ATOM     12  C   UNL     1      -4.376   3.681   0.404  1.00  0.00     0.002 C 
ATOM     13  C   UNL     1      -5.102   4.684   1.326  1.00  0.00     0.005 C 
BRANCH   8  14
ATOM     14  C   UNL     1      -3.854   0.498   2.020  1.00  0.00     0.224 C 
ATOM     15  N   UNL     1      -3.709  -0.378   0.987  1.00  0.00    -0.349 N 
ATOM     16  H   UNL     1      -4.214  -1.222   1.027  1.00  0.00     0.164 HD
ATOM     17  O   UNL     1      -3.372   0.194   3.114  1.00  0.00    -0.275 OA
BRANCH  15  18
ATOM     18  C   UNL     1      -2.856  -0.152  -0.174  1.00  0.00     0.109 C 
ATOM     19  C   UNL     1      -1.398  -0.515   0.131  1.00  0.00     0.036 C 
BRANCH  18  20
ATOM     20  C   UNL     1      -3.380  -0.887  -1.391  1.00  0.00    -0.026 A 
ATOM     21  C   UNL     1      -4.798  -2.905  -4.946  1.00  0.00     0.044 C 
ATOM     22  C   UNL     1      -4.312  -2.213  -3.707  1.00  0.00    -0.051 A 
ATOM     23  C   UNL     1      -4.335  -0.818  -3.632  1.00  0.00     0.004 A 
ATOM     24  C   UNL     1      -3.845  -2.942  -2.610  1.00  0.00     0.004 A 
ATOM     25  C   UNL     1      -3.873  -0.162  -2.488  1.00  0.00     0.006 A 
ATOM     26  C   UNL     1      -3.389  -2.287  -1.462  1.00  0.00     0.006 A 
ENDBRANCH  18  20
ENDBRANCH  15  18
ENDBRANCH   8  14
ENDBRANCH   4   7
ENDBRANCH   2   3
ENDBRANCH   1   2
BRANCH   1  27
ATOM     27  C   UNL     1      -9.578   1.184   2.648  1.00  0.00     0.023 C 
BRANCH  27  28
ATOM     28  C   UNL     1     -10.471  -0.019   2.370  1.00  0.00     0.116 C 
BRANCH  28  29
ATOM     29  N   UNL     1     -11.186  -0.545   3.526  1.00  0.00    -0.352 N 
ATOM     30  C   UNL     1     -12.065  -1.620   3.564  1.00  0.00     0.251 C 
ATOM     31  H   UNL     1     -11.028  -0.083   4.381  1.00  0.00     0.163 HD
ATOM     32  O   UNL     1     -12.627  -1.961   4.590  1.00  0.00    -0.269 OA
BRANCH  30  33
ATOM     33  C   UNL     1     -12.212  -2.437   2.332  1.00  0.00     0.039 A 
ATOM     34  C   UNL     1     -11.861  -3.788   2.411  1.00  0.00     0.014 A 
ATOM     35  C   UNL     1     -12.411  -1.828   1.095  1.00  0.00     0.014 A 
ATOM     36  C   UNL     1     -11.471  -4.457   1.253  1.00  0.00     0.010 A 
ATOM     37  C   UNL     1     -11.929  -2.458  -0.038  1.00  0.00     0.010 A 
ATOM     38  C   UNL     1     -11.397  -3.748   0.051  1.00  0.00    -0.014 A 
BRANCH  38  39
ATOM     39  C   UNL     1     -10.634  -4.236  -1.096  1.00  0.00     0.031 A 
ATOM     40  C   UNL     1     -11.313  -4.745  -2.303  1.00  0.00     0.074 A 
ATOM     41  C   UNL     1      -9.284  -4.262  -1.053  1.00  0.00     0.049 A 
ATOM     42  N   UNL     1     -10.870  -5.726  -3.020  1.00  0.00    -0.248 NA
ATOM     43  C   UNL     1     -12.578  -4.197  -2.780  1.00  0.00     0.031 C 
ATOM     44  C   UNL     1      -8.368  -4.571  -2.149  1.00  0.00     0.029 A 
ATOM     45  N   UNL     1      -8.477  -4.256   0.082  1.00  0.00    -0.354 N 
ATOM     46  C   UNL     1     -11.621  -5.760  -4.169  1.00  0.00     0.074 A 
ATOM     47  C   UNL     1     -12.712  -4.837  -3.945  1.00  0.00     0.031 C 
ATOM     48  C   UNL     1      -7.199  -4.978  -1.632  1.00  0.00     0.029 A 
ATOM     49  C   UNL     1      -7.360  -5.061  -0.191  1.00  0.00     0.049 A 
ATOM     50  H   UNL     1      -8.658  -3.776   0.922  1.00  0.00     0.167 HD
ATOM     51  C   UNL     1     -11.192  -6.441  -5.266  1.00  0.00     0.034 A 
ATOM     52  C   UNL     1      -7.071  -6.149   0.580  1.00  0.00     0.034 A 
ATOM     53  C   UNL     1      -9.900  -7.082  -5.062  1.00  0.00     0.049 A 
ATOM     54  C   UNL     1      -7.080  -7.453  -0.180  1.00  0.00     0.074 A 
ATOM     55  C   UNL     1      -8.610  -6.707  -5.398  1.00  0.00     0.029 A 
ATOM     56  N   UNL     1      -9.782  -8.138  -4.164  1.00  0.00    -0.354 N 
ATOM     57  N   UNL     1      -7.564  -7.600  -1.382  1.00  0.00    -0.248 NA
ATOM     58  C   UNL     1      -6.578  -8.705   0.380  1.00  0.00     0.031 C 
ATOM     59  C   UNL     1      -7.712  -7.489  -4.627  1.00  0.00     0.029 A 
ATOM     60  C   UNL     1      -8.454  -8.367  -3.855  1.00  0.00     0.049 A 
ATOM     61  H   UNL     1     -10.539  -8.650  -3.799  1.00  0.00     0.167 HD
ATOM     62  C   UNL     1      -7.521  -8.925  -1.729  1.00  0.00     0.074 A 
ATOM     63  C   UNL     1      -6.846  -9.567  -0.614  1.00  0.00     0.031 C 
ATOM     64  C   UNL     1      -8.073  -9.390  -2.890  1.00  0.00     0.034 A 
BRANCH  51  65
ATOM     65  C   UNL     1     -11.832  -6.203  -6.606  1.00  0.00     0.023 A 
ATOM     66  C   UNL     1     -11.035  -5.967  -7.742  1.00  0.00     0.031 A 
ATOM     67  C   UNL     1     -13.225  -6.129  -6.794  1.00  0.00     0.131 A 
ATOM     68  C   UNL     1     -11.614  -5.580  -8.963  1.00  0.00     0.055 A 
ATOM     69  C   UNL     1     -13.799  -5.691  -7.992  1.00  0.00     0.041 A 
ATOM     70  F   UNL     1     -14.072  -6.463  -5.806  1.00  0.00    -0.206 F 
ATOM     71  C   UNL     1     -12.991  -5.398  -9.083  1.00  0.00     0.022 A 
BRANCH  68  72
ATOM     72  S   UNL     1     -10.537  -5.303 -10.397  1.00  0.00     0.124 S 
ATOM     73  O   UNL     1      -9.608  -4.293  -9.901  1.00  0.00    -0.237 OA
ATOM     74  O   UNL     1      -9.980  -6.633 -10.624  1.00  0.00    -0.237 OA
ATOM     75  O   UNL     1     -11.460  -4.837 -11.431  1.00  0.00    -0.744 OA
ENDBRANCH  68  72
ENDBRANCH  51  65
BRANCH  52  76
ATOM     76  C   UNL     1      -7.459  -5.986   2.009  1.00  0.00     0.023 A 
ATOM     77  C   UNL     1      -6.891  -4.899   2.702  1.00  0.00     0.031 A 
ATOM     78  C   UNL     1      -8.598  -6.590   2.555  1.00  0.00     0.131 A 
ATOM     79  C   UNL     1      -7.557  -4.334   3.796  1.00  0.00     0.055 A 
ATOM     80  C   UNL     1      -9.219  -6.068   3.698  1.00  0.00     0.041 A 
ATOM     81  F   UNL     1      -9.201  -7.609   1.926  1.00  0.00    -0.206 F 
ATOM     82  C   UNL     1      -8.727  -4.906   4.295  1.00  0.00     0.022 A 
BRANCH  79  83
ATOM     83  S   UNL     1      -7.037  -2.688   4.355  1.00  0.00     0.124 S 
ATOM     84  O   UNL     1      -6.047  -3.013   5.373  1.00  0.00    -0.237 OA
ATOM     85  O   UNL     1      -6.522  -2.088   3.124  1.00  0.00    -0.237 OA
ATOM     86  O   UNL     1      -8.278  -2.087   4.840  1.00  0.00    -0.744 OA
ENDBRANCH  79  83
ENDBRANCH  52  76
BRANCH  64  87
ATOM     87  C   UNL     1      -8.215 -10.850  -3.248  1.00  0.00     0.023 A 
ATOM     88  C   UNL     1      -8.249 -11.873  -2.288  1.00  0.00     0.031 A 
ATOM     89  C   UNL     1      -8.381 -11.259  -4.591  1.00  0.00     0.131 A 
ATOM     90  C   UNL     1      -8.319 -13.225  -2.668  1.00  0.00     0.055 A 
ATOM     91  C   UNL     1      -8.542 -12.598  -4.961  1.00  0.00     0.041 A 
ATOM     92  F   UNL     1      -8.392 -10.374  -5.599  1.00  0.00    -0.206 F 
ATOM     93  C   UNL     1      -8.487 -13.595  -3.999  1.00  0.00     0.022 A 
BRANCH  90  94
ATOM     94  S   UNL     1      -8.089 -14.487  -1.388  1.00  0.00     0.124 S 
ATOM     95  O   UNL     1      -6.744 -14.180  -0.906  1.00  0.00    -0.237 OA
ATOM     96  O   UNL     1      -9.176 -14.196  -0.461  1.00  0.00    -0.237 OA
ATOM     97  O   UNL     1      -8.212 -15.746  -2.119  1.00  0.00    -0.744 OA
ENDBRANCH  90  94
ENDBRANCH  64  87
ENDBRANCH  38  39
ENDBRANCH  30  33
ENDBRANCH  28  29
ENDBRANCH  27  28
ENDBRANCH   1  27
TORSDOF 17
