REMARK SMILES COc1ccc(/C=C2\SC(=S)[NH+]=C2NCCCCNC(=O)c2ccc(-c3c4nc(c(-c5cc(S(=O)(=O)[O-])ccc5F)c5ccc([nH]5)c(-c5cc(S(=O)(=O)[O-])ccc5F)c5nc(c(-c6cc(S(=O)(=O)[O-])ccc6F)c6ccc3[nH]6)C=C5)C=C4)cc2)c(C(=O)[O-])c1OC
REMARK SMILES IDX 17 1 16 2 15 3 14 4 7 5 8 6 9 7 13 8 10 9 12 10 11 11 6 14
REMARK SMILES IDX 3 15 4 16 89 17 5 18 85 19 2 20 1 21 90 22 91 23 86 24 87 25
REMARK SMILES IDX 88 26 18 27 19 28 20 29 21 31 22 32 23 33 84 34 24 35 83 36
REMARK SMILES IDX 25 37 26 38 27 39 77 40 28 41 82 42 76 43 78 44 29 45 81 46
REMARK SMILES IDX 75 47 74 48 30 50 62 51 42 52 61 53 43 54 46 55 60 56 79 57
REMARK SMILES IDX 44 58 45 59 59 61 80 62 47 63 31 64 32 65 40 66 33 67 39 68
REMARK SMILES IDX 41 69 38 70 34 71 35 72 36 73 37 74 63 75 64 76 72 77 65 78
REMARK SMILES IDX 71 79 73 80 70 81 66 82 67 83 68 84 69 85 48 86 49 87 57 88
REMARK SMILES IDX 50 89 56 90 58 91 55 92 51 93 52 94 53 95 54 96
REMARK H PARENT 12 12 14 13 19 30 78 49 46 60
REMARK Flexibility Score: inf
ROOT
ATOM      1  C   UNL     1       3.069  -2.003 -10.746  1.00  0.00     0.025 C 
ENDROOT
BRANCH   1   2
ATOM      2  C   UNL     1       1.884  -2.963 -10.859  1.00  0.00     0.048 C 
BRANCH   2   3
ATOM      3  C   UNL     1       1.940  -4.163  -9.915  1.00  0.00     0.234 C 
BRANCH   3   4
ATOM      4  N   UNL     1       1.786  -3.747  -8.527  1.00  0.00    -0.273 N 
ATOM      5  C   UNL     1       1.361  -2.976  -5.544  1.00  0.00     0.033 C 
ATOM      6  C   UNL     1       0.498  -3.693  -6.295  1.00  0.00     0.106 C 
ATOM      7  S   UNL     1      -1.021  -4.373  -5.819  1.00  0.00    -0.027 SA
ATOM      8  C   UNL     1       0.703  -4.093  -7.750  1.00  0.00     0.288 C 
ATOM      9  C   UNL     1      -1.247  -5.123  -7.391  1.00  0.00     0.230 C 
ATOM     10  N   UNL     1      -0.246  -4.828  -8.278  1.00  0.00    -0.225 N 
ATOM     11  S   UNL     1      -2.557  -6.112  -7.716  1.00  0.00    -0.026 S 
ATOM     12  H   UNL     1      -0.240  -5.136  -9.213  1.00  0.00     0.314 HD
ATOM     13  H   UNL     1       2.491  -3.190  -8.124  1.00  0.00     0.305 HD
BRANCH   5  14
ATOM     14  C   UNL     1       1.303  -2.526  -4.107  1.00  0.00    -0.011 A 
ATOM     15  C   UNL     1       1.077  -1.628  -1.403  1.00  0.00     0.161 A 
ATOM     16  C   UNL     1      -0.055  -1.952  -2.141  1.00  0.00     0.051 A 
ATOM     17  C   UNL     1       2.347  -1.753  -1.979  1.00  0.00     0.170 A 
ATOM     18  C   UNL     1       0.060  -2.365  -3.470  1.00  0.00     0.013 A 
ATOM     19  C   UNL     1       2.457  -2.179  -3.338  1.00  0.00     0.050 A 
BRANCH  15  20
ATOM     20  O   UNL     1       0.914  -1.284  -0.087  1.00  0.00    -0.493 OA
ATOM     21  C   UNL     1       0.254  -0.022   0.053  1.00  0.00     0.278 C 
ENDBRANCH  15  20
BRANCH  17  22
ATOM     22  O   UNL     1       3.516  -1.593  -1.270  1.00  0.00    -0.492 OA
ATOM     23  C   UNL     1       3.549  -0.565  -0.284  1.00  0.00     0.278 C 
ENDBRANCH  17  22
BRANCH  19  24
ATOM     24  C   UNL     1       3.816  -2.276  -3.938  1.00  0.00     0.076 C 
ATOM     25  O   UNL     1       4.212  -3.152  -4.689  1.00  0.00    -0.545 OA
ATOM     26  O   UNL     1       4.587  -1.212  -3.643  1.00  0.00    -0.545 OA
ENDBRANCH  19  24
ENDBRANCH   5  14
ENDBRANCH   3   4
ENDBRANCH   2   3
ENDBRANCH   1   2
BRANCH   1  27
ATOM     27  C   UNL     1       4.441  -2.632 -10.970  1.00  0.00     0.116 C 
BRANCH  27  28
ATOM     28  N   UNL     1       4.610  -3.171 -12.310  1.00  0.00    -0.352 N 
ATOM     29  C   UNL     1       5.653  -2.998 -13.190  1.00  0.00     0.251 C 
ATOM     30  H   UNL     1       3.874  -3.739 -12.633  1.00  0.00     0.163 HD
ATOM     31  O   UNL     1       5.551  -3.416 -14.340  1.00  0.00    -0.269 OA
BRANCH  29  32
ATOM     32  C   UNL     1       6.875  -2.277 -12.763  1.00  0.00     0.039 A 
ATOM     33  C   UNL     1       7.436  -1.331 -13.626  1.00  0.00     0.014 A 
ATOM     34  C   UNL     1       7.461  -2.517 -11.517  1.00  0.00     0.014 A 
ATOM     35  C   UNL     1       8.537  -0.577 -13.209  1.00  0.00     0.010 A 
ATOM     36  C   UNL     1       8.505  -1.707 -11.072  1.00  0.00     0.010 A 
ATOM     37  C   UNL     1       9.055  -0.727 -11.911  1.00  0.00    -0.014 A 
BRANCH  37  38
ATOM     38  C   UNL     1      10.167   0.134 -11.421  1.00  0.00     0.031 A 
ATOM     39  C   UNL     1      11.483  -0.480 -11.022  1.00  0.00     0.074 A 
ATOM     40  C   UNL     1       9.976   1.462 -11.285  1.00  0.00     0.049 A 
ATOM     41  N   UNL     1      12.544   0.093 -10.515  1.00  0.00    -0.248 NA
ATOM     42  C   UNL     1      11.610  -1.936 -11.189  1.00  0.00     0.031 C 
ATOM     43  C   UNL     1       8.735   2.173 -11.602  1.00  0.00     0.029 A 
ATOM     44  N   UNL     1      10.817   2.452 -10.841  1.00  0.00    -0.354 N 
ATOM     45  C   UNL     1      13.462  -0.929 -10.296  1.00  0.00     0.074 A 
ATOM     46  C   UNL     1      12.803  -2.165 -10.662  1.00  0.00     0.031 C 
ATOM     47  C   UNL     1       8.907   3.484 -11.374  1.00  0.00     0.029 A 
ATOM     48  C   UNL     1      10.248   3.706 -10.842  1.00  0.00     0.049 A 
ATOM     49  H   UNL     1      11.742   2.281 -10.549  1.00  0.00     0.167 HD
ATOM     50  C   UNL     1      14.742  -0.844  -9.854  1.00  0.00     0.034 A 
ATOM     51  C   UNL     1      10.742   4.897 -10.446  1.00  0.00     0.034 A 
ATOM     52  C   UNL     1      15.386   0.398  -9.499  1.00  0.00     0.049 A 
ATOM     53  C   UNL     1      12.154   4.961  -9.918  1.00  0.00     0.074 A 
ATOM     54  C   UNL     1      16.692   0.602  -9.087  1.00  0.00     0.029 A 
ATOM     55  N   UNL     1      14.774   1.645  -9.500  1.00  0.00    -0.354 N 
ATOM     56  N   UNL     1      13.024   3.990  -9.763  1.00  0.00    -0.248 NA
ATOM     57  C   UNL     1      12.653   6.284  -9.523  1.00  0.00     0.031 C 
ATOM     58  C   UNL     1      16.845   1.953  -8.760  1.00  0.00     0.029 A 
ATOM     59  C   UNL     1      15.664   2.614  -9.059  1.00  0.00     0.049 A 
ATOM     60  H   UNL     1      13.844   1.816  -9.773  1.00  0.00     0.167 HD
ATOM     61  C   UNL     1      14.185   4.593  -9.287  1.00  0.00     0.074 A 
ATOM     62  C   UNL     1      13.908   6.011  -9.196  1.00  0.00     0.031 C 
ATOM     63  C   UNL     1      15.376   4.026  -8.960  1.00  0.00     0.034 A 
BRANCH  50  64
ATOM     64  C   UNL     1      15.516  -2.133  -9.705  1.00  0.00     0.023 A 
ATOM     65  C   UNL     1      15.787  -2.966 -10.805  1.00  0.00     0.031 A 
ATOM     66  C   UNL     1      15.975  -2.547  -8.442  1.00  0.00     0.131 A 
ATOM     67  C   UNL     1      16.424  -4.201 -10.611  1.00  0.00     0.055 A 
ATOM     68  C   UNL     1      16.689  -3.735  -8.268  1.00  0.00     0.041 A 
ATOM     69  F   UNL     1      15.729  -1.808  -7.349  1.00  0.00    -0.206 F 
ATOM     70  C   UNL     1      16.903  -4.578  -9.354  1.00  0.00     0.022 A 
BRANCH  67  71
ATOM     71  S   UNL     1      16.481  -5.373 -11.994  1.00  0.00     0.124 S 
ATOM     72  O   UNL     1      15.061  -5.537 -12.298  1.00  0.00    -0.237 OA
ATOM     73  O   UNL     1      17.268  -4.652 -12.986  1.00  0.00    -0.237 OA
ATOM     74  O   UNL     1      17.126  -6.551 -11.418  1.00  0.00    -0.744 OA
ENDBRANCH  67  71
ENDBRANCH  50  64
BRANCH  51  75
ATOM     75  C   UNL     1       9.899   6.127 -10.513  1.00  0.00     0.023 A 
ATOM     76  C   UNL     1      10.261   7.212 -11.328  1.00  0.00     0.031 A 
ATOM     77  C   UNL     1       8.743   6.257  -9.722  1.00  0.00     0.131 A 
ATOM     78  C   UNL     1       9.508   8.397 -11.293  1.00  0.00     0.055 A 
ATOM     79  C   UNL     1       7.961   7.414  -9.739  1.00  0.00     0.041 A 
ATOM     80  F   UNL     1       8.349   5.252  -8.924  1.00  0.00    -0.206 F 
ATOM     81  C   UNL     1       8.352   8.499 -10.517  1.00  0.00     0.022 A 
BRANCH  78  82
ATOM     82  S   UNL     1      10.121   9.843 -12.200  1.00  0.00     0.124 S 
ATOM     83  O   UNL     1      11.441  10.026 -11.606  1.00  0.00    -0.237 OA
ATOM     84  O   UNL     1      10.097   9.368 -13.579  1.00  0.00    -0.237 OA
ATOM     85  O   UNL     1       9.143  10.882 -11.883  1.00  0.00    -0.744 OA
ENDBRANCH  78  82
ENDBRANCH  51  75
BRANCH  63  86
ATOM     86  C   UNL     1      16.485   4.954  -8.523  1.00  0.00     0.023 A 
ATOM     87  C   UNL     1      16.400   5.713  -7.342  1.00  0.00     0.031 A 
ATOM     88  C   UNL     1      17.643   5.091  -9.311  1.00  0.00     0.131 A 
ATOM     89  C   UNL     1      17.421   6.619  -7.017  1.00  0.00     0.055 A 
ATOM     90  C   UNL     1      18.688   5.940  -8.945  1.00  0.00     0.041 A 
ATOM     91  F   UNL     1      17.779   4.397 -10.452  1.00  0.00    -0.206 F 
ATOM     92  C   UNL     1      18.574   6.722  -7.800  1.00  0.00     0.022 A 
BRANCH  89  93
ATOM     93  S   UNL     1      17.174   7.744  -5.615  1.00  0.00     0.124 S 
ATOM     94  O   UNL     1      15.941   8.429  -5.991  1.00  0.00    -0.237 OA
ATOM     95  O   UNL     1      17.072   6.822  -4.489  1.00  0.00    -0.237 OA
ATOM     96  O   UNL     1      18.375   8.576  -5.627  1.00  0.00    -0.744 OA
ENDBRANCH  89  93
ENDBRANCH  63  86
ENDBRANCH  37  38
ENDBRANCH  29  32
ENDBRANCH  27  28
ENDBRANCH   1  27
TORSDOF 17
