REMARK SMILES CC[C@@H](C)[C@H](NC(=O)N1CCn2c1nc1ccccc12)C(=O)N[C@H](C)C(=O)NCCCCNC(=O)c1ccc(-c2c3nc(c(-c4cc(S(=O)(=O)[O-])ccc4F)c4ccc([nH]4)c(-c4cc(S(=O)(=O)[O-])ccc4F)c4nc(c(-c5cc(S(=O)(=O)[O-])ccc5F)c5ccc2[nH]5)C=C4)C=C3)cc1
REMARK SMILES IDX 30 1 29 2 28 3 26 4 27 5 24 7 25 8 23 9 21 10 22 11 5 13
REMARK SMILES IDX 3 14 4 15 2 16 1 17 6 18 7 19 8 21 9 22 10 23 13 24 11 25
REMARK SMILES IDX 12 26 14 27 20 28 15 29 19 30 16 31 18 32 17 33 31 34 32 35
REMARK SMILES IDX 33 36 34 37 35 39 36 40 37 41 98 42 38 43 97 44 39 45 40 46
REMARK SMILES IDX 41 47 91 48 42 49 96 50 90 51 92 52 43 53 95 54 89 55 88 56
REMARK SMILES IDX 44 58 76 59 56 60 75 61 57 62 60 63 74 64 93 65 58 66 59 67
REMARK SMILES IDX 73 69 94 70 61 71 45 72 46 73 54 74 47 75 53 76 55 77 52 78
REMARK SMILES IDX 48 79 49 80 50 81 51 82 77 83 78 84 86 85 79 86 85 87 87 88
REMARK SMILES IDX 84 89 80 90 81 91 82 92 83 93 62 94 63 95 71 96 64 97 70 98
REMARK SMILES IDX 72 99 69 100 65 101 66 102 67 103 68 104
REMARK H PARENT 28 6 23 12 6 20 33 38 92 57 60 68
REMARK Flexibility Score: inf
ROOT
ATOM      1  C   UNL     1       4.882  -2.454   7.502  1.00  0.00     0.023 C 
ENDROOT
BRANCH   1   2
ATOM      2  C   UNL     1       5.282  -1.921   6.126  1.00  0.00     0.116 C 
BRANCH   2   3
ATOM      3  N   UNL     1       5.263  -2.945   5.083  1.00  0.00    -0.354 N 
ATOM      4  C   UNL     1       4.471  -3.050   3.967  1.00  0.00     0.242 C 
ATOM      5  O   UNL     1       4.611  -4.020   3.222  1.00  0.00    -0.273 OA
ATOM      6  H   UNL     1       5.919  -3.670   5.198  1.00  0.00     0.163 HD
BRANCH   4   7
ATOM      7  C   UNL     1       3.401  -1.969   3.698  1.00  0.00     0.168 C 
ATOM      8  C   UNL     1       2.369  -2.111   4.816  1.00  0.00     0.041 C 
BRANCH   7   9
ATOM      9  N   UNL     1       4.152  -0.703   3.557  1.00  0.00    -0.343 N 
ATOM     10  C   UNL     1       3.910   0.584   3.203  1.00  0.00     0.243 C 
ATOM     11  O   UNL     1       4.914   1.292   3.056  1.00  0.00    -0.273 OA
ATOM     12  H   UNL     1       5.101  -0.831   3.786  1.00  0.00     0.164 HD
BRANCH  10  13
ATOM     13  C   UNL     1       2.500   1.183   2.993  1.00  0.00     0.176 C 
BRANCH  13  14
ATOM     14  C   UNL     1       1.711   1.127   4.337  1.00  0.00     0.018 C 
ATOM     15  C   UNL     1       0.364   0.407   4.293  1.00  0.00     0.010 C 
BRANCH  14  16
ATOM     16  C   UNL     1       1.648   2.526   4.999  1.00  0.00     0.002 C 
ATOM     17  C   UNL     1       0.598   2.693   6.086  1.00  0.00     0.004 C 
ENDBRANCH  14  16
ENDBRANCH  13  14
BRANCH  13  18
ATOM     18  N   UNL     1       1.937   0.556   1.794  1.00  0.00    -0.326 N 
ATOM     19  C   UNL     1       0.796   0.731   1.094  1.00  0.00     0.324 C 
ATOM     20  H   UNL     1       2.517  -0.144   1.417  1.00  0.00     0.166 HD
ATOM     21  O   UNL     1       0.567  -0.093   0.202  1.00  0.00    -0.248 OA
BRANCH  19  22
ATOM     22  N   UNL     1      -0.152   1.620   1.470  1.00  0.00    -0.262 N 
ATOM     23  C   UNL     1      -1.585   1.293   1.395  1.00  0.00     0.152 C 
ATOM     24  C   UNL     1      -0.005   2.925   1.854  1.00  0.00     0.214 A 
ATOM     25  C   UNL     1      -2.287   2.439   2.142  1.00  0.00     0.148 C 
ATOM     26  N   UNL     1      -1.218   3.412   2.249  1.00  0.00    -0.308 N 
ATOM     27  N   UNL     1       0.922   3.840   1.935  1.00  0.00    -0.212 NA
ATOM     28  C   UNL     1      -1.077   4.644   2.777  1.00  0.00     0.070 A 
ATOM     29  C   UNL     1       0.274   4.923   2.529  1.00  0.00     0.091 A 
ATOM     30  C   UNL     1      -1.939   5.518   3.442  1.00  0.00     0.028 A 
ATOM     31  C   UNL     1       0.789   6.163   2.939  1.00  0.00     0.031 A 
ATOM     32  C   UNL     1      -1.392   6.734   3.867  1.00  0.00     0.002 A 
ATOM     33  C   UNL     1      -0.056   7.057   3.614  1.00  0.00     0.002 A 
ENDBRANCH  19  22
ENDBRANCH  13  18
ENDBRANCH  10  13
ENDBRANCH   7   9
ENDBRANCH   4   7
ENDBRANCH   2   3
ENDBRANCH   1   2
BRANCH   1  34
ATOM     34  C   UNL     1       5.744  -3.608   8.008  1.00  0.00     0.023 C 
BRANCH  34  35
ATOM     35  C   UNL     1       7.241  -3.326   7.957  1.00  0.00     0.116 C 
BRANCH  35  36
ATOM     36  N   UNL     1       7.699  -2.472   9.038  1.00  0.00    -0.352 N 
ATOM     37  C   UNL     1       8.208  -2.854  10.265  1.00  0.00     0.251 C 
ATOM     38  H   UNL     1       7.640  -1.503   8.878  1.00  0.00     0.163 HD
ATOM     39  O   UNL     1       8.504  -2.035  11.109  1.00  0.00    -0.269 OA
BRANCH  37  40
ATOM     40  C   UNL     1       8.350  -4.303  10.509  1.00  0.00     0.039 A 
ATOM     41  C   UNL     1       9.190  -5.061   9.684  1.00  0.00     0.014 A 
ATOM     42  C   UNL     1       7.533  -4.907  11.461  1.00  0.00     0.014 A 
ATOM     43  C   UNL     1       9.110  -6.446   9.711  1.00  0.00     0.010 A 
ATOM     44  C   UNL     1       7.491  -6.297  11.519  1.00  0.00     0.010 A 
ATOM     45  C   UNL     1       8.249  -7.067  10.617  1.00  0.00    -0.014 A 
BRANCH  45  46
ATOM     46  C   UNL     1       8.269  -8.536  10.682  1.00  0.00     0.031 A 
ATOM     47  C   UNL     1       8.950  -9.044  11.896  1.00  0.00     0.074 A 
ATOM     48  C   UNL     1       7.283  -9.317  10.191  1.00  0.00     0.049 A 
ATOM     49  N   UNL     1       8.310  -9.030  13.023  1.00  0.00    -0.248 NA
ATOM     50  C   UNL     1      10.375  -9.317  12.022  1.00  0.00     0.031 C 
ATOM     51  C   UNL     1       5.948  -8.835   9.809  1.00  0.00     0.029 A 
ATOM     52  N   UNL     1       7.175 -10.690  10.150  1.00  0.00    -0.354 N 
ATOM     53  C   UNL     1       9.230  -9.226  14.026  1.00  0.00     0.074 A 
ATOM     54  C   UNL     1      10.499  -9.429  13.357  1.00  0.00     0.031 C 
ATOM     55  C   UNL     1       5.108  -9.889   9.763  1.00  0.00     0.029 A 
ATOM     56  C   UNL     1       5.872 -11.116   9.935  1.00  0.00     0.049 A 
ATOM     57  H   UNL     1       7.938 -11.301  10.262  1.00  0.00     0.167 HD
ATOM     58  C   UNL     1       8.863  -9.203  15.334  1.00  0.00     0.034 A 
ATOM     59  C   UNL     1       5.355 -12.325  10.270  1.00  0.00     0.034 A 
ATOM     60  C   UNL     1       7.457  -9.010  15.652  1.00  0.00     0.049 A 
ATOM     61  C   UNL     1       5.181 -12.201  11.764  1.00  0.00     0.074 A 
ATOM     62  C   UNL     1       6.700  -8.534  16.706  1.00  0.00     0.029 A 
ATOM     63  N   UNL     1       6.533  -9.404  14.720  1.00  0.00    -0.354 N 
ATOM     64  N   UNL     1       4.203 -11.572  12.371  1.00  0.00    -0.248 NA
ATOM     65  C   UNL     1       6.293 -12.590  12.647  1.00  0.00     0.031 C 
ATOM     66  C   UNL     1       5.326  -8.860  16.439  1.00  0.00     0.029 A 
ATOM     67  C   UNL     1       5.283  -9.570  15.252  1.00  0.00     0.049 A 
ATOM     68  H   UNL     1       6.745  -9.552  13.770  1.00  0.00     0.167 HD
ATOM     69  C   UNL     1       4.707 -11.266  13.631  1.00  0.00     0.074 A 
ATOM     70  C   UNL     1       5.928 -12.027  13.791  1.00  0.00     0.031 C 
ATOM     71  C   UNL     1       4.305 -10.218  14.408  1.00  0.00     0.034 A 
BRANCH  58  72
ATOM     72  C   UNL     1       9.801  -9.626  16.401  1.00  0.00     0.023 A 
ATOM     73  C   UNL     1      10.796  -8.805  16.949  1.00  0.00     0.031 A 
ATOM     74  C   UNL     1       9.603 -10.909  16.947  1.00  0.00     0.131 A 
ATOM     75  C   UNL     1      11.546  -9.283  18.037  1.00  0.00     0.055 A 
ATOM     76  C   UNL     1      10.342 -11.372  18.030  1.00  0.00     0.041 A 
ATOM     77  F   UNL     1       8.670 -11.727  16.431  1.00  0.00    -0.206 F 
ATOM     78  C   UNL     1      11.317 -10.554  18.584  1.00  0.00     0.022 A 
BRANCH  75  79
ATOM     79  S   UNL     1      12.848  -8.281  18.808  1.00  0.00     0.124 S 
ATOM     80  O   UNL     1      12.355  -8.134  20.175  1.00  0.00    -0.237 OA
ATOM     81  O   UNL     1      14.022  -9.137  18.655  1.00  0.00    -0.237 OA
ATOM     82  O   UNL     1      12.864  -7.058  18.012  1.00  0.00    -0.744 OA
ENDBRANCH  75  79
ENDBRANCH  58  72
BRANCH  59  83
ATOM     83  C   UNL     1       6.008 -13.481   9.575  1.00  0.00     0.023 A 
ATOM     84  C   UNL     1       6.601 -14.580  10.207  1.00  0.00     0.031 A 
ATOM     85  C   UNL     1       6.062 -13.462   8.160  1.00  0.00     0.131 A 
ATOM     86  C   UNL     1       7.363 -15.498   9.464  1.00  0.00     0.055 A 
ATOM     87  C   UNL     1       6.766 -14.413   7.416  1.00  0.00     0.041 A 
ATOM     88  F   UNL     1       5.429 -12.498   7.468  1.00  0.00    -0.206 F 
ATOM     89  C   UNL     1       7.451 -15.424   8.073  1.00  0.00     0.022 A 
BRANCH  86  90
ATOM     90  S   UNL     1       8.325 -16.782  10.312  1.00  0.00     0.124 S 
ATOM     91  O   UNL     1       8.079 -17.959   9.484  1.00  0.00    -0.237 OA
ATOM     92  O   UNL     1       9.671 -16.224  10.236  1.00  0.00    -0.237 OA
ATOM     93  O   UNL     1       7.731 -16.819  11.644  1.00  0.00    -0.744 OA
ENDBRANCH  86  90
ENDBRANCH  59  83
BRANCH  71  94
ATOM     94  C   UNL     1       2.923  -9.690  14.255  1.00  0.00     0.023 A 
ATOM     95  C   UNL     1       2.672  -8.311  14.146  1.00  0.00     0.031 A 
ATOM     96  C   UNL     1       1.823 -10.562  14.350  1.00  0.00     0.131 A 
ATOM     97  C   UNL     1       1.351  -7.844  14.144  1.00  0.00     0.055 A 
ATOM     98  C   UNL     1       0.510 -10.094  14.321  1.00  0.00     0.041 A 
ATOM     99  F   UNL     1       2.004 -11.880  14.536  1.00  0.00    -0.206 F 
ATOM    100  C   UNL     1       0.269  -8.729  14.220  1.00  0.00     0.022 A 
BRANCH  97 101
ATOM    101  S   UNL     1       0.988  -6.070  14.065  1.00  0.00     0.124 S 
ATOM    102  O   UNL     1      -0.092  -6.009  13.082  1.00  0.00    -0.237 OA
ATOM    103  O   UNL     1       0.591  -5.783  15.441  1.00  0.00    -0.237 OA
ATOM    104  O   UNL     1       2.247  -5.471  13.632  1.00  0.00    -0.744 OA
ENDBRANCH  97 101
ENDBRANCH  71  94
ENDBRANCH  45  46
ENDBRANCH  37  40
ENDBRANCH  35  36
ENDBRANCH  34  35
ENDBRANCH   1  34
TORSDOF 20
