REMARK SMILES O=C(NCCCCNC(=O)c1cnc(OCC2CC2)c(Cl)c1)c1ccc(-c2c3nc(c(-c4cc(S(=O)(=O)[O-])ccc4F)c4ccc([nH]4)c(-c4cc(S(=O)(=O)[O-])ccc4F)c4nc(c(-c5cc(S(=O)(=O)[O-])ccc5F)c5ccc2[nH]5)C=C4)C=C3)cc1
REMARK SMILES IDX 5 1 4 2 3 3 1 4 2 5 23 7 24 8 85 9 25 10 84 11 26 12 27 13
REMARK SMILES IDX 28 14 78 15 29 16 83 17 77 18 79 19 30 20 82 21 76 22 75 23
REMARK SMILES IDX 31 25 63 26 43 27 62 28 44 29 47 30 61 31 80 32 45 33 46 34
REMARK SMILES IDX 60 36 81 37 48 38 32 39 33 40 41 41 34 42 40 43 42 44 39 45
REMARK SMILES IDX 35 46 36 47 37 48 38 49 64 50 65 51 73 52 66 53 72 54 74 55
REMARK SMILES IDX 71 56 67 57 68 58 69 59 70 60 49 61 50 62 58 63 51 64 57 65
REMARK SMILES IDX 59 66 56 67 52 68 53 69 54 70 55 71 6 72 7 73 8 74 9 75
REMARK SMILES IDX 10 77 11 78 12 79 22 80 13 81 20 82 14 83 21 84 15 85 16 86
REMARK SMILES IDX 17 87 18 88 19 89
REMARK H PARENT 3 6 79 24 47 35 8 76
REMARK Flexibility Score: inf
ROOT
ATOM      1  C   UNL     1       4.910  -2.482   1.069  1.00  0.00     0.023 C 
ENDROOT
BRANCH   1   2
ATOM      2  C   UNL     1       4.618  -1.358   0.082  1.00  0.00     0.116 C 
BRANCH   2   3
ATOM      3  N   UNL     1       3.196  -1.184  -0.175  1.00  0.00    -0.352 N 
ATOM      4  O   UNL     1       1.221  -0.098  -0.234  1.00  0.00    -0.269 OA
ATOM      5  C   UNL     1       2.441  -0.035  -0.118  1.00  0.00     0.251 C 
ATOM      6  H   UNL     1       2.707  -2.001  -0.425  1.00  0.00     0.163 HD
BRANCH   5   7
ATOM      7  C   UNL     1       3.105   1.267   0.109  1.00  0.00     0.039 A 
ATOM      8  C   UNL     1       4.252   1.615  -0.607  1.00  0.00     0.014 A 
ATOM      9  C   UNL     1       2.579   2.144   1.062  1.00  0.00     0.014 A 
ATOM     10  C   UNL     1       4.953   2.767  -0.270  1.00  0.00     0.010 A 
ATOM     11  C   UNL     1       3.242   3.342   1.342  1.00  0.00     0.010 A 
ATOM     12  C   UNL     1       4.454   3.648   0.703  1.00  0.00    -0.014 A 
BRANCH  12  13
ATOM     13  C   UNL     1       5.199   4.897   1.007  1.00  0.00     0.031 A 
ATOM     14  C   UNL     1       5.820   5.122   2.358  1.00  0.00     0.074 A 
ATOM     15  C   UNL     1       5.340   5.820   0.036  1.00  0.00     0.049 A 
ATOM     16  N   UNL     1       6.519   6.143   2.787  1.00  0.00    -0.248 NA
ATOM     17  C   UNL     1       5.620   4.068   3.362  1.00  0.00     0.031 C 
ATOM     18  C   UNL     1       4.778   5.711  -1.313  1.00  0.00     0.029 A 
ATOM     19  N   UNL     1       6.009   7.016   0.021  1.00  0.00    -0.354 N 
ATOM     20  C   UNL     1       6.830   5.866   4.114  1.00  0.00     0.074 A 
ATOM     21  C   UNL     1       6.207   4.595   4.427  1.00  0.00     0.031 C 
ATOM     22  C   UNL     1       5.166   6.770  -2.037  1.00  0.00     0.029 A 
ATOM     23  C   UNL     1       5.947   7.664  -1.190  1.00  0.00     0.049 A 
ATOM     24  H   UNL     1       6.488   7.376   0.802  1.00  0.00     0.167 HD
ATOM     25  C   UNL     1       7.572   6.598   4.984  1.00  0.00     0.034 A 
ATOM     26  C   UNL     1       6.446   8.853  -1.574  1.00  0.00     0.034 A 
ATOM     27  C   UNL     1       8.184   7.864   4.651  1.00  0.00     0.049 A 
ATOM     28  C   UNL     1       7.227   9.667  -0.581  1.00  0.00     0.074 A 
ATOM     29  C   UNL     1       8.985   8.671   5.442  1.00  0.00     0.029 A 
ATOM     30  N   UNL     1       8.055   8.516   3.430  1.00  0.00    -0.354 N 
ATOM     31  N   UNL     1       7.525   9.383   0.666  1.00  0.00    -0.248 NA
ATOM     32  C   UNL     1       7.739  10.960  -1.048  1.00  0.00     0.031 C 
ATOM     33  C   UNL     1       9.281   9.838   4.726  1.00  0.00     0.029 A 
ATOM     34  C   UNL     1       8.729   9.729   3.459  1.00  0.00     0.049 A 
ATOM     35  H   UNL     1       7.556   8.168   2.656  1.00  0.00     0.167 HD
ATOM     36  C   UNL     1       8.276  10.459   1.128  1.00  0.00     0.074 A 
ATOM     37  C   UNL     1       8.399  11.385   0.020  1.00  0.00     0.031 C 
ATOM     38  C   UNL     1       8.819  10.659   2.356  1.00  0.00     0.034 A 
BRANCH  25  39
ATOM     39  C   UNL     1       7.715   6.064   6.392  1.00  0.00     0.023 A 
ATOM     40  C   UNL     1       8.351   4.839   6.661  1.00  0.00     0.031 A 
ATOM     41  C   UNL     1       7.169   6.771   7.479  1.00  0.00     0.131 A 
ATOM     42  C   UNL     1       8.350   4.319   7.965  1.00  0.00     0.055 A 
ATOM     43  C   UNL     1       7.246   6.288   8.787  1.00  0.00     0.041 A 
ATOM     44  F   UNL     1       6.533   7.937   7.286  1.00  0.00    -0.206 F 
ATOM     45  C   UNL     1       7.822   5.046   9.034  1.00  0.00     0.022 A 
BRANCH  42  46
ATOM     46  S   UNL     1       8.898   2.607   8.215  1.00  0.00     0.124 S 
ATOM     47  O   UNL     1       8.033   1.880   7.289  1.00  0.00    -0.237 OA
ATOM     48  O   UNL     1      10.309   2.673   7.854  1.00  0.00    -0.237 OA
ATOM     49  O   UNL     1       8.625   2.362   9.630  1.00  0.00    -0.744 OA
ENDBRANCH  42  46
ENDBRANCH  25  39
BRANCH  26  50
ATOM     50  C   UNL     1       6.199   9.350  -2.955  1.00  0.00     0.023 A 
ATOM     51  C   UNL     1       7.250   9.489  -3.874  1.00  0.00     0.031 A 
ATOM     52  C   UNL     1       4.901   9.688  -3.377  1.00  0.00     0.131 A 
ATOM     53  C   UNL     1       6.989   9.978  -5.162  1.00  0.00     0.055 A 
ATOM     54  C   UNL     1       4.639  10.131  -4.673  1.00  0.00     0.041 A 
ATOM     55  F   UNL     1       3.861   9.563  -2.537  1.00  0.00    -0.206 F 
ATOM     56  C   UNL     1       5.689  10.286  -5.572  1.00  0.00     0.022 A 
BRANCH  53  57
ATOM     57  S   UNL     1       8.384  10.251  -6.288  1.00  0.00     0.124 S 
ATOM     58  O   UNL     1       9.173  11.232  -5.551  1.00  0.00    -0.237 OA
ATOM     59  O   UNL     1       8.957   8.913  -6.391  1.00  0.00    -0.237 OA
ATOM     60  O   UNL     1       7.747  10.748  -7.505  1.00  0.00    -0.744 OA
ENDBRANCH  53  57
ENDBRANCH  26  50
BRANCH  38  61
ATOM     61  C   UNL     1       9.622  11.922   2.542  1.00  0.00     0.023 A 
ATOM     62  C   UNL     1       9.016  13.191   2.524  1.00  0.00     0.031 A 
ATOM     63  C   UNL     1      11.017  11.856   2.707  1.00  0.00     0.131 A 
ATOM     64  C   UNL     1       9.810  14.345   2.609  1.00  0.00     0.055 A 
ATOM     65  C   UNL     1      11.794  13.006   2.849  1.00  0.00     0.041 A 
ATOM     66  F   UNL     1      11.647  10.671   2.728  1.00  0.00    -0.206 F 
ATOM     67  C   UNL     1      11.193  14.260   2.787  1.00  0.00     0.022 A 
BRANCH  64  68
ATOM     68  S   UNL     1       9.021  15.964   2.388  1.00  0.00     0.124 S 
ATOM     69  O   UNL     1       8.436  15.837   1.057  1.00  0.00    -0.237 OA
ATOM     70  O   UNL     1       8.076  16.006   3.499  1.00  0.00    -0.237 OA
ATOM     71  O   UNL     1      10.136  16.905   2.488  1.00  0.00    -0.744 OA
ENDBRANCH  64  68
ENDBRANCH  38  61
ENDBRANCH  12  13
ENDBRANCH   5   7
ENDBRANCH   2   3
ENDBRANCH   1   2
BRANCH   1  72
ATOM     72  C   UNL     1       4.452  -3.873   0.628  1.00  0.00     0.023 C 
BRANCH  72  73
ATOM     73  C   UNL     1       4.979  -4.324  -0.732  1.00  0.00     0.116 C 
BRANCH  73  74
ATOM     74  N   UNL     1       6.428  -4.447  -0.740  1.00  0.00    -0.352 N 
ATOM     75  C   UNL     1       7.184  -5.563  -0.985  1.00  0.00     0.252 C 
ATOM     76  H   UNL     1       6.929  -3.623  -0.544  1.00  0.00     0.163 HD
ATOM     77  O   UNL     1       8.398  -5.570  -0.833  1.00  0.00    -0.269 OA
BRANCH  75  78
ATOM     78  C   UNL     1       6.514  -6.774  -1.459  1.00  0.00     0.059 A 
ATOM     79  C   UNL     1       6.426  -7.879  -0.636  1.00  0.00     0.129 A 
ATOM     80  C   UNL     1       5.995  -6.844  -2.748  1.00  0.00     0.041 A 
ATOM     81  N   UNL     1       5.794  -9.019  -1.004  1.00  0.00    -0.220 NA
ATOM     82  C   UNL     1       5.381  -8.025  -3.169  1.00  0.00     0.104 A 
ATOM     83  C   UNL     1       5.266  -9.078  -2.257  1.00  0.00     0.232 A 
ATOM     84  Cl  UNL     1       4.907  -8.104  -4.824  1.00  0.00    -0.078 Cl
BRANCH  83  85
ATOM     85  O   UNL     1       4.745 -10.309  -2.520  1.00  0.00    -0.476 OA
BRANCH  85  86
ATOM     86  C   UNL     1       3.431 -10.396  -3.074  1.00  0.00     0.235 C 
BRANCH  86  87
ATOM     87  C   UNL     1       2.388  -9.611  -2.334  1.00  0.00     0.027 C 
ATOM     88  C   UNL     1       1.726  -8.397  -2.941  1.00  0.00     0.007 C 
ATOM     89  C   UNL     1       0.960  -9.682  -2.823  1.00  0.00     0.007 C 
ENDBRANCH  86  87
ENDBRANCH  85  86
ENDBRANCH  83  85
ENDBRANCH  75  78
ENDBRANCH  73  74
ENDBRANCH  72  73
ENDBRANCH   1  72
TORSDOF 17
