REMARK SMILES C[C@@H](Nc1ccc(C(=O)NCCCCNC(=O)c2ccc(-c3c4nc(c(-c5cc(S(=O)(=O)[O-])ccc5F)c5ccc([nH]5)c(-c5cc(S(=O)(=O)[O-])ccc5F)c5nc(c(-c6cc(S(=O)(=O)[O-])ccc6F)c6ccc3[nH]6)C=C5)C=C4)cc2)c(F)c1F)C(N)=O
REMARK SMILES IDX 12 1 11 2 10 3 8 4 9 5 7 7 4 8 5 9 83 10 6 11 81 12 84 13
REMARK SMILES IDX 82 14 3 15 2 17 1 18 85 19 86 20 87 21 13 24 14 25 15 26
REMARK SMILES IDX 16 27 17 29 18 30 19 31 80 32 20 33 79 34 21 35 22 36 23 37
REMARK SMILES IDX 73 38 24 39 78 40 72 41 74 42 25 43 77 44 71 45 70 46 26 48
REMARK SMILES IDX 58 49 38 50 57 51 39 52 42 53 56 54 75 55 40 56 41 57 55 59
REMARK SMILES IDX 76 60 43 61 27 62 28 63 36 64 29 65 35 66 37 67 34 68 30 69
REMARK SMILES IDX 31 70 32 71 33 72 59 73 60 74 68 75 61 76 67 77 69 78 66 79
REMARK SMILES IDX 62 80 63 81 64 82 65 83 44 84 45 85 53 86 46 87 52 88 54 89
REMARK SMILES IDX 51 90 47 91 48 92 49 93 50 94
REMARK H PARENT 10 6 3 16 86 22 86 23 15 28 74 47 42 58
REMARK Flexibility Score: inf
ROOT
ATOM      1  C   UNL     1      -1.983  -6.768  -4.638  1.00  0.00     0.023 C 
ENDROOT
BRANCH   1   2
ATOM      2  C   UNL     1      -1.251  -5.553  -5.201  1.00  0.00     0.116 C 
BRANCH   2   3
ATOM      3  N   UNL     1      -2.089  -4.677  -5.999  1.00  0.00    -0.352 N 
ATOM      4  C   UNL     1      -2.129  -3.308  -6.073  1.00  0.00     0.254 C 
ATOM      5  O   UNL     1      -2.924  -2.776  -6.847  1.00  0.00    -0.269 OA
ATOM      6  H   UNL     1      -2.733  -5.141  -6.582  1.00  0.00     0.163 HD
BRANCH   4   7
ATOM      7  C   UNL     1      -1.315  -2.438  -5.197  1.00  0.00     0.078 A 
ATOM      8  C   UNL     1       0.068  -0.687  -3.432  1.00  0.00     0.074 A 
ATOM      9  C   UNL     1      -1.247  -0.432  -3.816  1.00  0.00     0.030 A 
ATOM     10  C   UNL     1       0.692  -1.800  -4.027  1.00  0.00     0.182 A 
ATOM     11  C   UNL     1      -1.937  -1.296  -4.678  1.00  0.00     0.019 A 
ATOM     12  C   UNL     1       0.026  -2.648  -4.913  1.00  0.00     0.173 A 
ATOM     13  F   UNL     1       1.978  -2.058  -3.724  1.00  0.00    -0.201 F 
ATOM     14  F   UNL     1       0.713  -3.648  -5.485  1.00  0.00    -0.203 F 
BRANCH   8  15
ATOM     15  N   UNL     1       0.780   0.097  -2.537  1.00  0.00    -0.371 N 
ATOM     16  H   UNL     1       1.709   0.300  -2.793  1.00  0.00     0.161 HD
BRANCH  15  17
ATOM     17  C   UNL     1       0.331   0.667  -1.251  1.00  0.00     0.165 C 
ATOM     18  C   UNL     1       1.008  -0.084  -0.104  1.00  0.00     0.041 C 
BRANCH  17  19
ATOM     19  C   UNL     1      -1.185   0.704  -0.997  1.00  0.00     0.239 C 
ATOM     20  N   UNL     1      -1.818   1.856  -1.385  1.00  0.00    -0.368 N 
ATOM     21  O   UNL     1      -1.830  -0.203  -0.479  1.00  0.00    -0.273 OA
ATOM     22  H   UNL     1      -1.302   2.585  -1.800  1.00  0.00     0.159 HD
ATOM     23  H   UNL     1      -2.788   1.955  -1.248  1.00  0.00     0.159 HD
ENDBRANCH  17  19
ENDBRANCH  15  17
ENDBRANCH   8  15
ENDBRANCH   4   7
ENDBRANCH   2   3
ENDBRANCH   1   2
BRANCH   1  24
ATOM     24  C   UNL     1      -2.648  -7.695  -5.654  1.00  0.00     0.023 C 
BRANCH  24  25
ATOM     25  C   UNL     1      -1.784  -8.142  -6.827  1.00  0.00     0.116 C 
BRANCH  25  26
ATOM     26  N   UNL     1      -0.571  -8.839  -6.428  1.00  0.00    -0.352 N 
ATOM     27  C   UNL     1      -0.107 -10.082  -6.801  1.00  0.00     0.251 C 
ATOM     28  H   UNL     1       0.004  -8.350  -5.797  1.00  0.00     0.163 HD
ATOM     29  O   UNL     1       0.905 -10.536  -6.283  1.00  0.00    -0.269 OA
BRANCH  27  30
ATOM     30  C   UNL     1      -0.864 -10.883  -7.791  1.00  0.00     0.039 A 
ATOM     31  C   UNL     1      -1.166 -12.214  -7.494  1.00  0.00     0.014 A 
ATOM     32  C   UNL     1      -1.310 -10.312  -8.985  1.00  0.00     0.014 A 
ATOM     33  C   UNL     1      -2.004 -12.941  -8.345  1.00  0.00     0.010 A 
ATOM     34  C   UNL     1      -2.206 -11.011  -9.789  1.00  0.00     0.010 A 
ATOM     35  C   UNL     1      -2.575 -12.328  -9.470  1.00  0.00    -0.014 A 
BRANCH  35  36
ATOM     36  C   UNL     1      -3.567 -13.028 -10.330  1.00  0.00     0.031 A 
ATOM     37  C   UNL     1      -3.258 -13.271 -11.782  1.00  0.00     0.074 A 
ATOM     38  C   UNL     1      -4.780 -13.350  -9.834  1.00  0.00     0.049 A 
ATOM     39  N   UNL     1      -4.040 -13.703 -12.737  1.00  0.00    -0.248 NA
ATOM     40  C   UNL     1      -1.893 -12.944 -12.221  1.00  0.00     0.031 C 
ATOM     41  C   UNL     1      -5.215 -13.135  -8.452  1.00  0.00     0.029 A 
ATOM     42  N   UNL     1      -5.878 -13.908 -10.442  1.00  0.00    -0.354 N 
ATOM     43  C   UNL     1      -3.273 -13.671 -13.897  1.00  0.00     0.074 A 
ATOM     44  C   UNL     1      -1.982 -13.127 -13.529  1.00  0.00     0.031 C 
ATOM     45  C   UNL     1      -6.480 -13.565  -8.316  1.00  0.00     0.029 A 
ATOM     46  C   UNL     1      -6.965 -14.040  -9.608  1.00  0.00     0.049 A 
ATOM     47  H   UNL     1      -5.887 -14.187 -11.386  1.00  0.00     0.167 HD
ATOM     48  C   UNL     1      -3.608 -14.075 -15.148  1.00  0.00     0.034 A 
ATOM     49  C   UNL     1      -8.218 -14.472  -9.860  1.00  0.00     0.034 A 
ATOM     50  C   UNL     1      -4.890 -14.639 -15.491  1.00  0.00     0.049 A 
ATOM     51  C   UNL     1      -8.571 -14.910 -11.259  1.00  0.00     0.074 A 
ATOM     52  C   UNL     1      -5.317 -15.134 -16.712  1.00  0.00     0.029 A 
ATOM     53  N   UNL     1      -5.956 -14.784 -14.611  1.00  0.00    -0.354 N 
ATOM     54  N   UNL     1      -7.824 -14.904 -12.339  1.00  0.00    -0.248 NA
ATOM     55  C   UNL     1      -9.933 -15.417 -11.472  1.00  0.00     0.031 C 
ATOM     56  C   UNL     1      -6.654 -15.526 -16.584  1.00  0.00     0.029 A 
ATOM     57  C   UNL     1      -7.043 -15.340 -15.268  1.00  0.00     0.049 A 
ATOM     58  H   UNL     1      -5.941 -14.529 -13.661  1.00  0.00     0.167 HD
ATOM     59  C   UNL     1      -8.617 -15.440 -13.350  1.00  0.00     0.074 A 
ATOM     60  C   UNL     1      -9.896 -15.761 -12.751  1.00  0.00     0.031 C 
ATOM     61  C   UNL     1      -8.312 -15.655 -14.654  1.00  0.00     0.034 A 
BRANCH  48  62
ATOM     62  C   UNL     1      -2.575 -13.893 -16.233  1.00  0.00     0.023 A 
ATOM     63  C   UNL     1      -1.336 -14.556 -16.191  1.00  0.00     0.031 A 
ATOM     64  C   UNL     1      -2.813 -13.013 -17.304  1.00  0.00     0.131 A 
ATOM     65  C   UNL     1      -0.352 -14.265 -17.147  1.00  0.00     0.055 A 
ATOM     66  C   UNL     1      -1.861 -12.793 -18.302  1.00  0.00     0.041 A 
ATOM     67  F   UNL     1      -3.970 -12.337 -17.389  1.00  0.00    -0.206 F 
ATOM     68  C   UNL     1      -0.615 -13.407 -18.217  1.00  0.00     0.022 A 
BRANCH  65  69
ATOM     69  S   UNL     1       1.324 -14.906 -16.884  1.00  0.00     0.124 S 
ATOM     70  O   UNL     1       1.668 -14.309 -15.596  1.00  0.00    -0.237 OA
ATOM     71  O   UNL     1       1.114 -16.349 -16.884  1.00  0.00    -0.237 OA
ATOM     72  O   UNL     1       2.073 -14.384 -18.025  1.00  0.00    -0.744 OA
ENDBRANCH  65  69
ENDBRANCH  48  62
BRANCH  49  73
ATOM     73  C   UNL     1      -9.240 -14.501  -8.775  1.00  0.00     0.023 A 
ATOM     74  C   UNL     1      -9.767 -15.718  -8.313  1.00  0.00     0.031 A 
ATOM     75  C   UNL     1      -9.737 -13.312  -8.213  1.00  0.00     0.131 A 
ATOM     76  C   UNL     1     -10.790 -15.718  -7.353  1.00  0.00     0.055 A 
ATOM     77  C   UNL     1     -10.720 -13.319  -7.222  1.00  0.00     0.041 A 
ATOM     78  F   UNL     1      -9.262 -12.122  -8.614  1.00  0.00    -0.206 F 
ATOM     79  C   UNL     1     -11.262 -14.528  -6.795  1.00  0.00     0.022 A 
BRANCH  76  80
ATOM     80  S   UNL     1     -11.553 -17.300  -6.898  1.00  0.00     0.124 S 
ATOM     81  O   UNL     1     -12.042 -17.776  -8.187  1.00  0.00    -0.237 OA
ATOM     82  O   UNL     1     -10.424 -18.029  -6.330  1.00  0.00    -0.237 OA
ATOM     83  O   UNL     1     -12.588 -16.915  -5.940  1.00  0.00    -0.744 OA
ENDBRANCH  76  80
ENDBRANCH  49  73
BRANCH  61  84
ATOM     84  C   UNL     1      -9.361 -16.325 -15.504  1.00  0.00     0.023 A 
ATOM     85  C   UNL     1     -10.549 -15.671 -15.871  1.00  0.00     0.031 A 
ATOM     86  C   UNL     1      -9.159 -17.641 -15.958  1.00  0.00     0.131 A 
ATOM     87  C   UNL     1     -11.511 -16.350 -16.636  1.00  0.00     0.055 A 
ATOM     88  C   UNL     1     -10.096 -18.293 -16.760  1.00  0.00     0.041 A 
ATOM     89  F   UNL     1      -8.041 -18.310 -15.634  1.00  0.00    -0.206 F 
ATOM     90  C   UNL     1     -11.284 -17.651 -17.095  1.00  0.00     0.022 A 
BRANCH  87  91
ATOM     91  S   UNL     1     -13.094 -15.533 -16.974  1.00  0.00     0.124 S 
ATOM     92  O   UNL     1     -13.623 -15.326 -15.630  1.00  0.00    -0.237 OA
ATOM     93  O   UNL     1     -12.680 -14.329 -17.688  1.00  0.00    -0.237 OA
ATOM     94  O   UNL     1     -13.820 -16.511 -17.782  1.00  0.00    -0.744 OA
ENDBRANCH  87  91
ENDBRANCH  61  84
ENDBRANCH  35  36
ENDBRANCH  27  30
ENDBRANCH  25  26
ENDBRANCH  24  25
ENDBRANCH   1  24
TORSDOF 17
