REMARK SMILES CC[C@@H](C)[C@H](NC(=O)CCc1ccc(F)c(F)c1)C(=O)NCCCCNC(=O)c1ccc(-c2c3nc(c(-c4cc(S(=O)(=O)[O-])ccc4F)c4ccc([nH]4)c(-c4cc(S(=O)(=O)[O-])ccc4F)c4nc(c(-c5cc(S(=O)(=O)[O-])ccc5F)c5ccc2[nH]5)C=C4)C=C3)cc1
REMARK SMILES IDX 23 1 22 2 21 3 19 4 20 5 5 7 3 8 4 9 2 10 1 11 6 12 7 13
REMARK SMILES IDX 8 15 9 16 10 17 11 18 12 19 18 20 13 21 16 22 14 23 17 24
REMARK SMILES IDX 15 25 24 26 25 27 26 28 27 29 28 31 29 32 30 33 91 34 31 35
REMARK SMILES IDX 90 36 32 37 33 38 34 39 84 40 35 41 89 42 83 43 85 44 36 45
REMARK SMILES IDX 88 46 82 47 81 48 37 50 69 51 49 52 68 53 50 54 53 55 67 56
REMARK SMILES IDX 86 57 51 58 52 59 66 61 87 62 54 63 38 64 39 65 47 66 40 67
REMARK SMILES IDX 46 68 48 69 45 70 41 71 42 72 43 73 44 74 70 75 71 76 79 77
REMARK SMILES IDX 72 78 78 79 80 80 77 81 73 82 74 83 75 84 76 85 55 86 56 87
REMARK SMILES IDX 64 88 57 89 63 90 65 91 62 92 58 93 59 94 60 95 61 96
REMARK H PARENT 21 6 6 14 26 30 85 49 53 60
REMARK Flexibility Score: inf
ROOT
ATOM      1  C   UNL     1       4.448   3.655  -0.959  1.00  0.00     0.023 C 
ENDROOT
BRANCH   1   2
ATOM      2  C   UNL     1       3.664   3.691   0.344  1.00  0.00     0.116 C 
BRANCH   2   3
ATOM      3  N   UNL     1       2.606   4.678   0.350  1.00  0.00    -0.354 N 
ATOM      4  C   UNL     1       1.384   4.628   0.951  1.00  0.00     0.242 C 
ATOM      5  O   UNL     1       0.761   5.688   1.069  1.00  0.00    -0.273 OA
ATOM      6  H   UNL     1       2.796   5.504  -0.152  1.00  0.00     0.163 HD
BRANCH   4   7
ATOM      7  C   UNL     1       0.820   3.322   1.550  1.00  0.00     0.174 C 
BRANCH   7   8
ATOM      8  C   UNL     1       1.227   3.024   3.026  1.00  0.00     0.018 C 
ATOM      9  C   UNL     1       2.671   3.362   3.397  1.00  0.00     0.010 C 
BRANCH   8  10
ATOM     10  C   UNL     1       0.892   1.568   3.431  1.00  0.00     0.002 C 
ATOM     11  C   UNL     1       0.931   1.321   4.933  1.00  0.00     0.004 C 
ENDBRANCH   8  10
ENDBRANCH   7   8
BRANCH   7  12
ATOM     12  N   UNL     1       0.907   2.175   0.643  1.00  0.00    -0.344 N 
ATOM     13  C   UNL     1       0.075   1.841  -0.384  1.00  0.00     0.220 C 
ATOM     14  H   UNL     1       1.665   1.565   0.795  1.00  0.00     0.164 HD
ATOM     15  O   UNL     1       0.248   0.758  -0.945  1.00  0.00    -0.275 OA
BRANCH  13  16
ATOM     16  C   UNL     1      -1.035   2.777  -0.829  1.00  0.00     0.105 C 
BRANCH  16  17
ATOM     17  C   UNL     1      -2.402   2.406  -0.240  1.00  0.00     0.045 C 
BRANCH  17  18
ATOM     18  C   UNL     1      -2.648   3.006   1.126  1.00  0.00    -0.044 A 
ATOM     19  C   UNL     1      -2.746   4.401   1.280  1.00  0.00     0.007 A 
ATOM     20  C   UNL     1      -2.675   2.193   2.268  1.00  0.00     0.046 A 
ATOM     21  C   UNL     1      -2.791   4.975   2.554  1.00  0.00     0.043 A 
ATOM     22  C   UNL     1      -2.727   2.774   3.533  1.00  0.00     0.159 A 
ATOM     23  C   UNL     1      -2.769   4.155   3.675  1.00  0.00     0.158 A 
ATOM     24  F   UNL     1      -2.680   1.987   4.617  1.00  0.00    -0.204 F 
ATOM     25  F   UNL     1      -2.761   4.708   4.896  1.00  0.00    -0.204 F 
ENDBRANCH  17  18
ENDBRANCH  16  17
ENDBRANCH  13  16
ENDBRANCH   7  12
ENDBRANCH   4   7
ENDBRANCH   2   3
ENDBRANCH   1   2
BRANCH   1  26
ATOM     26  C   UNL     1       5.208   4.939  -1.290  1.00  0.00     0.023 C 
BRANCH  26  27
ATOM     27  C   UNL     1       6.011   5.546  -0.145  1.00  0.00     0.116 C 
BRANCH  27  28
ATOM     28  N   UNL     1       6.950   4.614   0.463  1.00  0.00    -0.352 N 
ATOM     29  C   UNL     1       8.282   4.806   0.765  1.00  0.00     0.251 C 
ATOM     30  H   UNL     1       6.585   3.728   0.689  1.00  0.00     0.163 HD
ATOM     31  O   UNL     1       8.956   3.895   1.208  1.00  0.00    -0.269 OA
BRANCH  29  32
ATOM     32  C   UNL     1       8.874   6.131   0.489  1.00  0.00     0.039 A 
ATOM     33  C   UNL     1       9.973   6.212  -0.368  1.00  0.00     0.014 A 
ATOM     34  C   UNL     1       8.273   7.285   0.996  1.00  0.00     0.014 A 
ATOM     35  C   UNL     1      10.420   7.465  -0.790  1.00  0.00     0.010 A 
ATOM     36  C   UNL     1       8.673   8.526   0.516  1.00  0.00     0.010 A 
ATOM     37  C   UNL     1       9.744   8.627  -0.388  1.00  0.00    -0.014 A 
BRANCH  37  38
ATOM     38  C   UNL     1      10.137   9.972  -0.881  1.00  0.00     0.031 A 
ATOM     39  C   UNL     1      10.614  11.003   0.102  1.00  0.00     0.074 A 
ATOM     40  C   UNL     1       9.962  10.295  -2.177  1.00  0.00     0.049 A 
ATOM     41  N   UNL     1      10.829  12.281  -0.071  1.00  0.00    -0.248 NA
ATOM     42  C   UNL     1      10.830  10.534   1.478  1.00  0.00     0.031 C 
ATOM     43  C   UNL     1       9.470   9.391  -3.218  1.00  0.00     0.029 A 
ATOM     44  N   UNL     1      10.157  11.483  -2.836  1.00  0.00    -0.354 N 
ATOM     45  C   UNL     1      11.172  12.777   1.182  1.00  0.00     0.074 A 
ATOM     46  C   UNL     1      11.076  11.670   2.111  1.00  0.00     0.031 C 
ATOM     47  C   UNL     1       9.409  10.055  -4.385  1.00  0.00     0.029 A 
ATOM     48  C   UNL     1       9.813  11.440  -4.167  1.00  0.00     0.049 A 
ATOM     49  H   UNL     1      10.511  12.290  -2.397  1.00  0.00     0.167 HD
ATOM     50  C   UNL     1      11.550  14.035   1.521  1.00  0.00     0.034 A 
ATOM     51  C   UNL     1       9.802  12.413  -5.100  1.00  0.00     0.034 A 
ATOM     52  C   UNL     1      11.664  15.116   0.574  1.00  0.00     0.049 A 
ATOM     53  C   UNL     1      10.234  13.803  -4.707  1.00  0.00     0.074 A 
ATOM     54  C   UNL     1      12.088  16.415   0.790  1.00  0.00     0.029 A 
ATOM     55  N   UNL     1      11.349  15.022  -0.777  1.00  0.00    -0.354 N 
ATOM     56  N   UNL     1      10.585  14.254  -3.525  1.00  0.00    -0.248 NA
ATOM     57  C   UNL     1      10.278  14.810  -5.775  1.00  0.00     0.031 C 
ATOM     58  C   UNL     1      11.980  17.119  -0.415  1.00  0.00     0.029 A 
ATOM     59  C   UNL     1      11.553  16.243  -1.401  1.00  0.00     0.049 A 
ATOM     60  H   UNL     1      11.028  14.206  -1.226  1.00  0.00     0.167 HD
ATOM     61  C   UNL     1      10.923  15.591  -3.715  1.00  0.00     0.074 A 
ATOM     62  C   UNL     1      10.736  15.871  -5.124  1.00  0.00     0.031 C 
ATOM     63  C   UNL     1      11.359  16.502  -2.808  1.00  0.00     0.034 A 
BRANCH  50  64
ATOM     64  C   UNL     1      11.833  14.296   2.982  1.00  0.00     0.023 A 
ATOM     65  C   UNL     1      12.851  13.612   3.670  1.00  0.00     0.031 A 
ATOM     66  C   UNL     1      11.031  15.188   3.715  1.00  0.00     0.131 A 
ATOM     67  C   UNL     1      12.971  13.748   5.060  1.00  0.00     0.055 A 
ATOM     68  C   UNL     1      11.218  15.391   5.085  1.00  0.00     0.041 A 
ATOM     69  F   UNL     1      10.030  15.856   3.120  1.00  0.00    -0.206 F 
ATOM     70  C   UNL     1      12.179  14.652   5.770  1.00  0.00     0.022 A 
BRANCH  67  71
ATOM     71  S   UNL     1      14.050  12.591   5.948  1.00  0.00     0.124 S 
ATOM     72  O   UNL     1      13.469  11.303   5.576  1.00  0.00    -0.237 OA
ATOM     73  O   UNL     1      15.362  12.887   5.384  1.00  0.00    -0.237 OA
ATOM     74  O   UNL     1      13.873  12.964   7.350  1.00  0.00    -0.744 OA
ENDBRANCH  67  71
ENDBRANCH  50  64
BRANCH  51  75
ATOM     75  C   UNL     1       9.360  12.115  -6.490  1.00  0.00     0.023 A 
ATOM     76  C   UNL     1      10.270  12.143  -7.559  1.00  0.00     0.031 A 
ATOM     77  C   UNL     1       8.016  11.815  -6.774  1.00  0.00     0.131 A 
ATOM     78  C   UNL     1       9.819  11.910  -8.867  1.00  0.00     0.055 A 
ATOM     79  C   UNL     1       7.580  11.542  -8.072  1.00  0.00     0.041 A 
ATOM     80  F   UNL     1       7.109  11.764  -5.785  1.00  0.00    -0.206 F 
ATOM     81  C   UNL     1       8.482  11.600  -9.129  1.00  0.00     0.022 A 
BRANCH  78  82
ATOM     82  S   UNL     1      10.998  12.074 -10.235  1.00  0.00     0.124 S 
ATOM     83  O   UNL     1      11.410  13.467 -10.108  1.00  0.00    -0.237 OA
ATOM     84  O   UNL     1      12.003  11.073  -9.890  1.00  0.00    -0.237 OA
ATOM     85  O   UNL     1      10.195  11.764 -11.416  1.00  0.00    -0.744 OA
ENDBRANCH  78  82
ENDBRANCH  51  75
BRANCH  63  86
ATOM     86  C   UNL     1      11.722  17.869  -3.329  1.00  0.00     0.023 A 
ATOM     87  C   UNL     1      10.749  18.772  -3.791  1.00  0.00     0.031 A 
ATOM     88  C   UNL     1      13.069  18.273  -3.353  1.00  0.00     0.131 A 
ATOM     89  C   UNL     1      11.142  20.021  -4.295  1.00  0.00     0.055 A 
ATOM     90  C   UNL     1      13.449  19.535  -3.809  1.00  0.00     0.041 A 
ATOM     91  F   UNL     1      14.037  17.447  -2.923  1.00  0.00    -0.206 F 
ATOM     92  C   UNL     1      12.484  20.413  -4.293  1.00  0.00     0.022 A 
BRANCH  89  93
ATOM     93  S   UNL     1       9.881  21.107  -5.017  1.00  0.00     0.124 S 
ATOM     94  O   UNL     1       9.361  20.286  -6.106  1.00  0.00    -0.237 OA
ATOM     95  O   UNL     1       8.975  21.325  -3.894  1.00  0.00    -0.237 OA
ATOM     96  O   UNL     1      10.641  22.284  -5.436  1.00  0.00    -0.744 OA
ENDBRANCH  89  93
ENDBRANCH  63  86
ENDBRANCH  37  38
ENDBRANCH  29  32
ENDBRANCH  27  28
ENDBRANCH  26  27
ENDBRANCH   1  26
TORSDOF 20
