REMARK SMILES Cc1cccc(-c2ccc(Cl)c(C(=O)NCCCCNC(=O)c3ccc(-c4c5nc(c(-c6cc(S(=O)(=O)[O-])ccc6F)c6ccc([nH]6)c(-c6cc(S(=O)(=O)[O-])ccc6F)c6nc(c(-c7cc(S(=O)(=O)[O-])ccc7F)c7ccc4[nH]7)C=C6)C=C5)cc3)c2)c1
REMARK SMILES IDX 18 1 17 2 16 3 15 4 13 5 14 6 12 8 7 9 8 10 86 11 9 12 10 13
REMARK SMILES IDX 11 14 6 15 1 16 2 17 3 18 87 19 4 20 5 21 19 22 20 23 21 24
REMARK SMILES IDX 22 26 23 27 24 28 85 29 25 30 84 31 26 32 27 33 28 34 78 35
REMARK SMILES IDX 29 36 83 37 77 38 79 39 30 40 82 41 76 42 75 43 31 45 63 46
REMARK SMILES IDX 43 47 62 48 44 49 47 50 61 51 80 52 45 53 46 54 60 56 81 57
REMARK SMILES IDX 48 58 32 59 33 60 41 61 34 62 40 63 42 64 39 65 35 66 36 67
REMARK SMILES IDX 37 68 38 69 64 70 65 71 73 72 66 73 72 74 74 75 71 76 67 77
REMARK SMILES IDX 68 78 69 79 70 80 49 81 50 82 58 83 51 84 57 85 59 86 56 87
REMARK SMILES IDX 52 88 53 89 54 90 55 91
REMARK H PARENT 15 7 20 25 79 44 47 55
REMARK Flexibility Score: inf
ROOT
ATOM      1  C   UNL     1      -7.856   6.707   0.899  1.00  0.00     0.023 C 
ENDROOT
BRANCH   1   2
ATOM      2  C   UNL     1      -6.778   6.275  -0.089  1.00  0.00     0.023 C 
BRANCH   2   3
ATOM      3  C   UNL     1      -5.333   6.346   0.407  1.00  0.00     0.116 C 
BRANCH   3   4
ATOM      4  N   UNL     1      -5.058   5.539   1.595  1.00  0.00    -0.352 N 
ATOM      5  C   UNL     1      -4.030   4.665   1.874  1.00  0.00     0.252 C 
ATOM      6  O   UNL     1      -4.019   4.092   2.964  1.00  0.00    -0.269 OA
ATOM      7  H   UNL     1      -5.719   5.637   2.318  1.00  0.00     0.163 HD
BRANCH   5   8
ATOM      8  C   UNL     1      -3.000   4.302   0.868  1.00  0.00     0.059 A 
ATOM      9  C   UNL     1      -1.705   2.489  -0.166  1.00  0.00    -0.017 A 
ATOM     10  C   UNL     1      -1.217   3.424  -1.094  1.00  0.00     0.010 A 
ATOM     11  C   UNL     1      -2.657   2.934   0.767  1.00  0.00     0.024 A 
ATOM     12  C   UNL     1      -1.485   4.783  -0.949  1.00  0.00     0.022 A 
ATOM     13  C   UNL     1      -2.296   5.229   0.095  1.00  0.00     0.053 A 
ATOM     14  Cl  UNL     1      -2.215   6.912   0.472  1.00  0.00    -0.083 Cl
BRANCH   9  15
ATOM     15  C   UNL     1      -1.099   1.145  -0.104  1.00  0.00    -0.018 A 
ATOM     16  C   UNL     1       2.466  -0.252   0.031  1.00  0.00     0.044 C 
ATOM     17  C   UNL     1       0.967  -0.193   0.004  1.00  0.00    -0.051 A 
ATOM     18  C   UNL     1       0.201  -1.359   0.045  1.00  0.00     0.003 A 
ATOM     19  C   UNL     1       0.309   1.040  -0.068  1.00  0.00     0.012 A 
ATOM     20  C   UNL     1      -1.194  -1.282   0.025  1.00  0.00     0.001 A 
ATOM     21  C   UNL     1      -1.841  -0.040  -0.045  1.00  0.00     0.009 A 
ENDBRANCH   9  15
ENDBRANCH   5   8
ENDBRANCH   3   4
ENDBRANCH   2   3
ENDBRANCH   1   2
BRANCH   1  22
ATOM     22  C   UNL     1      -7.770   8.146   1.394  1.00  0.00     0.116 C 
BRANCH  22  23
ATOM     23  N   UNL     1      -8.467   9.128   0.574  1.00  0.00    -0.352 N 
ATOM     24  C   UNL     1      -8.702  10.480   0.821  1.00  0.00     0.251 C 
ATOM     25  H   UNL     1      -8.823   8.788  -0.279  1.00  0.00     0.163 HD
ATOM     26  O   UNL     1      -9.390  11.140   0.075  1.00  0.00    -0.269 OA
BRANCH  24  27
ATOM     27  C   UNL     1      -8.006  11.137   1.964  1.00  0.00     0.039 A 
ATOM     28  C   UNL     1      -7.327  12.337   1.714  1.00  0.00     0.014 A 
ATOM     29  C   UNL     1      -7.853  10.496   3.186  1.00  0.00     0.014 A 
ATOM     30  C   UNL     1      -6.313  12.745   2.580  1.00  0.00     0.010 A 
ATOM     31  C   UNL     1      -6.773  10.825   3.978  1.00  0.00     0.010 A 
ATOM     32  C   UNL     1      -5.961  11.911   3.639  1.00  0.00    -0.014 A 
BRANCH  32  33
ATOM     33  C   UNL     1      -4.689  11.993   4.351  1.00  0.00     0.031 A 
ATOM     34  C   UNL     1      -4.633  12.381   5.773  1.00  0.00     0.074 A 
ATOM     35  C   UNL     1      -3.576  11.537   3.737  1.00  0.00     0.049 A 
ATOM     36  N   UNL     1      -3.562  12.746   6.392  1.00  0.00    -0.248 NA
ATOM     37  C   UNL     1      -5.821  12.419   6.614  1.00  0.00     0.031 C 
ATOM     38  C   UNL     1      -2.292  11.203   4.344  1.00  0.00     0.029 A 
ATOM     39  N   UNL     1      -3.327  11.516   2.364  1.00  0.00    -0.354 N 
ATOM     40  C   UNL     1      -3.841  12.761   7.740  1.00  0.00     0.074 A 
ATOM     41  C   UNL     1      -5.277  12.631   7.815  1.00  0.00     0.031 C 
ATOM     42  C   UNL     1      -1.338  11.283   3.404  1.00  0.00     0.029 A 
ATOM     43  C   UNL     1      -1.958  11.819   2.206  1.00  0.00     0.049 A 
ATOM     44  H   UNL     1      -3.976  11.327   1.648  1.00  0.00     0.167 HD
ATOM     45  C   UNL     1      -2.808  12.744   8.634  1.00  0.00     0.034 A 
ATOM     46  C   UNL     1      -1.588  12.973   1.574  1.00  0.00     0.034 A 
ATOM     47  C   UNL     1      -1.510  12.890   7.962  1.00  0.00     0.049 A 
ATOM     48  C   UNL     1      -0.859  13.965   2.465  1.00  0.00     0.074 A 
ATOM     49  C   UNL     1      -0.473  12.030   7.637  1.00  0.00     0.029 A 
ATOM     50  N   UNL     1      -1.255  14.062   7.269  1.00  0.00    -0.354 N 
ATOM     51  N   UNL     1      -0.599  13.779   3.732  1.00  0.00    -0.248 NA
ATOM     52  C   UNL     1      -0.440  15.290   2.007  1.00  0.00     0.031 C 
ATOM     53  C   UNL     1       0.372  12.691   6.693  1.00  0.00     0.029 A 
ATOM     54  C   UNL     1      -0.135  13.957   6.467  1.00  0.00     0.049 A 
ATOM     55  H   UNL     1      -1.807  14.874   7.340  1.00  0.00     0.167 HD
ATOM     56  C   UNL     1      -0.073  14.927   4.266  1.00  0.00     0.074 A 
ATOM     57  C   UNL     1       0.017  15.843   3.143  1.00  0.00     0.031 C 
ATOM     58  C   UNL     1       0.207  15.073   5.596  1.00  0.00     0.034 A 
BRANCH  45  59
ATOM     59  C   UNL     1      -2.945  12.343  10.091  1.00  0.00     0.023 A 
ATOM     60  C   UNL     1      -1.825  11.809  10.762  1.00  0.00     0.031 A 
ATOM     61  C   UNL     1      -4.125  12.398  10.860  1.00  0.00     0.131 A 
ATOM     62  C   UNL     1      -1.927  11.271  12.060  1.00  0.00     0.055 A 
ATOM     63  C   UNL     1      -4.246  11.806  12.125  1.00  0.00     0.041 A 
ATOM     64  F   UNL     1      -5.200  13.087  10.463  1.00  0.00    -0.206 F 
ATOM     65  C   UNL     1      -3.145  11.225  12.728  1.00  0.00     0.022 A 
BRANCH  62  66
ATOM     66  S   UNL     1      -0.435  10.639  12.874  1.00  0.00     0.124 S 
ATOM     67  O   UNL     1      -0.003   9.589  11.958  1.00  0.00    -0.237 OA
ATOM     68  O   UNL     1       0.405  11.829  12.941  1.00  0.00    -0.237 OA
ATOM     69  O   UNL     1      -0.931  10.163  14.166  1.00  0.00    -0.744 OA
ENDBRANCH  62  66
ENDBRANCH  45  59
BRANCH  46  70
ATOM     70  C   UNL     1      -2.509  13.316   0.447  1.00  0.00     0.023 A 
ATOM     71  C   UNL     1      -2.658  12.357  -0.583  1.00  0.00     0.031 A 
ATOM     72  C   UNL     1      -3.494  14.306   0.566  1.00  0.00     0.131 A 
ATOM     73  C   UNL     1      -3.835  12.309  -1.342  1.00  0.00     0.055 A 
ATOM     74  C   UNL     1      -4.639  14.293  -0.241  1.00  0.00     0.041 A 
ATOM     75  F   UNL     1      -3.436  15.217   1.548  1.00  0.00    -0.206 F 
ATOM     76  C   UNL     1      -4.835  13.267  -1.165  1.00  0.00     0.022 A 
BRANCH  73  77
ATOM     77  S   UNL     1      -4.175  10.848  -2.372  1.00  0.00     0.124 S 
ATOM     78  O   UNL     1      -3.734  11.296  -3.689  1.00  0.00    -0.237 OA
ATOM     79  O   UNL     1      -3.364   9.801  -1.755  1.00  0.00    -0.237 OA
ATOM     80  O   UNL     1      -5.615  10.658  -2.219  1.00  0.00    -0.744 OA
ENDBRANCH  73  77
ENDBRANCH  46  70
BRANCH  58  81
ATOM     81  C   UNL     1       0.810  16.331   6.168  1.00  0.00     0.023 A 
ATOM     82  C   UNL     1       1.832  17.026   5.500  1.00  0.00     0.031 A 
ATOM     83  C   UNL     1       0.433  16.835   7.432  1.00  0.00     0.131 A 
ATOM     84  C   UNL     1       2.375  18.203   6.045  1.00  0.00     0.055 A 
ATOM     85  C   UNL     1       1.041  17.951   8.013  1.00  0.00     0.041 A 
ATOM     86  F   UNL     1      -0.572  16.294   8.136  1.00  0.00    -0.206 F 
ATOM     87  C   UNL     1       2.010  18.653   7.312  1.00  0.00     0.022 A 
BRANCH  84  88
ATOM     88  S   UNL     1       3.503  19.188   5.027  1.00  0.00     0.124 S 
ATOM     89  O   UNL     1       4.521  18.215   4.643  1.00  0.00    -0.237 OA
ATOM     90  O   UNL     1       2.616  19.635   3.955  1.00  0.00    -0.237 OA
ATOM     91  O   UNL     1       3.957  20.240   5.933  1.00  0.00    -0.744 OA
ENDBRANCH  84  88
ENDBRANCH  58  81
ENDBRANCH  32  33
ENDBRANCH  24  27
ENDBRANCH  22  23
ENDBRANCH   1  22
TORSDOF 15
