REMARK SMILES Cc1c(CC(=O)NCCCCNC(=O)c2ccc(-c3c4nc(c(-c5cc(S(=O)(=O)[O-])ccc5F)c5ccc([nH]5)c(-c5cc(S(=O)(=O)[O-])ccc5F)c5nc(c(-c6cc(S(=O)(=O)[O-])ccc6F)c6ccc3[nH]6)C=C5)C=C4)cc2)cc(-c2ccc(S(C)(=O)=O)cc2)n1-c1cccc(F)c1
REMARK SMILES IDX 9 1 8 2 7 3 5 4 6 5 4 7 3 8 1 9 2 10 90 11 78 12 79 13 91 14
REMARK SMILES IDX 92 15 97 16 93 17 95 18 94 19 96 20 80 21 81 22 89 23 82 24
REMARK SMILES IDX 88 25 83 26 84 27 85 28 86 29 87 30 10 31 11 32 12 33 13 34
REMARK SMILES IDX 14 36 15 37 16 38 77 39 17 40 76 41 18 42 19 43 20 44 70 45
REMARK SMILES IDX 21 46 75 47 69 48 71 49 22 50 74 51 68 52 67 53 23 55 55 56
REMARK SMILES IDX 35 57 54 58 36 59 39 60 53 61 72 62 37 63 38 64 52 66 73 67
REMARK SMILES IDX 40 68 24 69 25 70 33 71 26 72 32 73 34 74 31 75 27 76 28 77
REMARK SMILES IDX 29 78 30 79 56 80 57 81 65 82 58 83 64 84 66 85 63 86 59 87
REMARK SMILES IDX 60 88 61 89 62 90 41 91 42 92 50 93 43 94 49 95 51 96 48 97
REMARK SMILES IDX 44 98 45 99 46 100 47 101
REMARK H PARENT 7 6 12 35 71 54 39 65
REMARK Flexibility Score: inf
ROOT
ATOM      1  C   UNL     1       3.592  -1.360  -3.856  1.00  0.00     0.023 C 
ENDROOT
BRANCH   1   2
ATOM      2  C   UNL     1       2.946  -2.647  -3.343  1.00  0.00     0.116 C 
BRANCH   2   3
ATOM      3  N   UNL     1       3.057  -2.786  -1.900  1.00  0.00    -0.356 N 
ATOM      4  C   UNL     1       2.086  -2.844  -0.946  1.00  0.00     0.224 C 
ATOM      5  O   UNL     1       2.432  -2.975   0.231  1.00  0.00    -0.275 OA
ATOM      6  H   UNL     1       3.978  -2.848  -1.559  1.00  0.00     0.163 HD
BRANCH   4   7
ATOM      7  C   UNL     1       0.622  -2.764  -1.334  1.00  0.00     0.137 C 
BRANCH   7   8
ATOM      8  C   UNL     1       0.238  -1.410  -1.847  1.00  0.00    -0.017 A 
ATOM      9  C   UNL     1       0.927   0.075   0.159  1.00  0.00     0.065 C 
ATOM     10  C   UNL     1       0.417  -0.182  -1.224  1.00  0.00     0.024 A 
ATOM     11  N   UNL     1      -0.009   0.815  -2.095  1.00  0.00    -0.313 N 
ATOM     12  C   UNL     1      -0.383  -1.151  -3.094  1.00  0.00     0.033 A 
ATOM     13  C   UNL     1      -0.479   0.217  -3.264  1.00  0.00     0.053 A 
BRANCH  11  14
ATOM     14  C   UNL     1       0.026   2.213  -1.846  1.00  0.00     0.049 A 
ATOM     15  C   UNL     1      -1.121   2.984  -2.078  1.00  0.00     0.027 A 
ATOM     16  C   UNL     1       1.211   2.815  -1.413  1.00  0.00     0.065 A 
ATOM     17  C   UNL     1      -1.084   4.364  -1.871  1.00  0.00     0.005 A 
ATOM     18  C   UNL     1       1.234   4.192  -1.234  1.00  0.00     0.125 A 
ATOM     19  C   UNL     1       0.101   4.970  -1.455  1.00  0.00     0.039 A 
ATOM     20  F   UNL     1       2.373   4.788  -0.858  1.00  0.00    -0.207 F 
ENDBRANCH  11  14
BRANCH  13  21
ATOM     21  C   UNL     1      -0.850   0.923  -4.495  1.00  0.00    -0.001 A 
ATOM     22  C   UNL     1       0.060   1.786  -5.126  1.00  0.00     0.011 A 
ATOM     23  C   UNL     1      -2.098   0.695  -5.088  1.00  0.00     0.011 A 
ATOM     24  C   UNL     1      -0.278   2.431  -6.317  1.00  0.00     0.021 A 
ATOM     25  C   UNL     1      -2.446   1.339  -6.278  1.00  0.00     0.021 A 
ATOM     26  C   UNL     1      -1.535   2.210  -6.882  1.00  0.00     0.067 A 
BRANCH  26  27
ATOM     27  S   UNL     1      -1.954   3.001  -8.417  1.00  0.00     0.175 S 
ATOM     28  C   UNL     1      -1.956   4.731  -8.033  1.00  0.00     0.163 C 
ATOM     29  O   UNL     1      -0.856   2.745  -9.339  1.00  0.00    -0.224 OA
ATOM     30  O   UNL     1      -3.311   2.632  -8.754  1.00  0.00    -0.224 OA
ENDBRANCH  26  27
ENDBRANCH  13  21
ENDBRANCH   7   8
ENDBRANCH   4   7
ENDBRANCH   2   3
ENDBRANCH   1   2
BRANCH   1  31
ATOM     31  C   UNL     1       5.063  -1.139  -3.466  1.00  0.00     0.023 C 
BRANCH  31  32
ATOM     32  C   UNL     1       5.990  -2.361  -3.381  1.00  0.00     0.116 C 
BRANCH  32  33
ATOM     33  N   UNL     1       6.540  -2.822  -4.627  1.00  0.00    -0.352 N 
ATOM     34  C   UNL     1       7.530  -3.787  -4.763  1.00  0.00     0.251 C 
ATOM     35  H   UNL     1       6.186  -2.420  -5.453  1.00  0.00     0.163 HD
ATOM     36  O   UNL     1       8.010  -3.964  -5.878  1.00  0.00    -0.269 OA
BRANCH  34  37
ATOM     37  C   UNL     1       8.084  -4.500  -3.548  1.00  0.00     0.039 A 
ATOM     38  C   UNL     1       9.200  -3.962  -2.944  1.00  0.00     0.014 A 
ATOM     39  C   UNL     1       7.633  -5.731  -3.032  1.00  0.00     0.014 A 
ATOM     40  C   UNL     1       9.792  -4.612  -1.823  1.00  0.00     0.010 A 
ATOM     41  C   UNL     1       8.320  -6.445  -1.944  1.00  0.00     0.010 A 
ATOM     42  C   UNL     1       9.451  -5.921  -1.294  1.00  0.00    -0.014 A 
BRANCH  42  43
ATOM     43  C   UNL     1      10.632  -6.689  -0.410  1.00  0.00     0.031 A 
ATOM     44  C   UNL     1      11.860  -6.242  -1.138  1.00  0.00     0.074 A 
ATOM     45  C   UNL     1      10.895  -7.652   0.586  1.00  0.00     0.049 A 
ATOM     46  N   UNL     1      11.930  -6.478  -2.420  1.00  0.00    -0.248 NA
ATOM     47  C   UNL     1      12.745  -5.166  -0.680  1.00  0.00     0.031 C 
ATOM     48  C   UNL     1       9.937  -8.539   1.271  1.00  0.00     0.029 A 
ATOM     49  N   UNL     1      12.109  -8.104   1.240  1.00  0.00    -0.354 N 
ATOM     50  C   UNL     1      13.042  -5.836  -2.890  1.00  0.00     0.074 A 
ATOM     51  C   UNL     1      13.351  -4.869  -1.839  1.00  0.00     0.031 C 
ATOM     52  C   UNL     1      10.515  -9.252   2.290  1.00  0.00     0.029 A 
ATOM     53  C   UNL     1      11.955  -8.992   2.394  1.00  0.00     0.049 A 
ATOM     54  H   UNL     1      12.998  -7.826   0.922  1.00  0.00     0.167 HD
ATOM     55  C   UNL     1      13.905  -6.628  -3.592  1.00  0.00     0.034 A 
ATOM     56  C   UNL     1      12.887  -9.549   3.298  1.00  0.00     0.034 A 
ATOM     57  C   UNL     1      14.960  -7.107  -2.735  1.00  0.00     0.049 A 
ATOM     58  C   UNL     1      14.137  -9.667   2.554  1.00  0.00     0.074 A 
ATOM     59  C   UNL     1      15.739  -6.493  -1.772  1.00  0.00     0.029 A 
ATOM     60  N   UNL     1      14.937  -8.449  -2.425  1.00  0.00    -0.354 N 
ATOM     61  N   UNL     1      14.319 -10.575   1.647  1.00  0.00    -0.248 NA
ATOM     62  C   UNL     1      15.248  -8.755   2.786  1.00  0.00     0.031 C 
ATOM     63  C   UNL     1      15.657  -7.362  -0.660  1.00  0.00     0.029 A 
ATOM     64  C   UNL     1      15.273  -8.623  -1.098  1.00  0.00     0.049 A 
ATOM     65  H   UNL     1      14.715  -9.173  -3.053  1.00  0.00     0.167 HD
ATOM     66  C   UNL     1      15.263  -9.997   0.856  1.00  0.00     0.074 A 
ATOM     67  C   UNL     1      15.974  -9.061   1.712  1.00  0.00     0.031 C 
ATOM     68  C   UNL     1      14.988  -9.896  -0.468  1.00  0.00     0.034 A 
BRANCH  55  69
ATOM     69  C   UNL     1      13.245  -7.475  -4.661  1.00  0.00     0.023 A 
ATOM     70  C   UNL     1      13.560  -7.247  -6.006  1.00  0.00     0.031 A 
ATOM     71  C   UNL     1      12.255  -8.448  -4.383  1.00  0.00     0.131 A 
ATOM     72  C   UNL     1      12.846  -7.920  -7.016  1.00  0.00     0.055 A 
ATOM     73  C   UNL     1      11.497  -9.052  -5.385  1.00  0.00     0.041 A 
ATOM     74  F   UNL     1      12.023  -8.860  -3.126  1.00  0.00    -0.206 F 
ATOM     75  C   UNL     1      11.787  -8.783  -6.714  1.00  0.00     0.022 A 
BRANCH  72  76
ATOM     76  S   UNL     1      13.359  -7.701  -8.740  1.00  0.00     0.124 S 
ATOM     77  O   UNL     1      13.069  -6.290  -8.977  1.00  0.00    -0.237 OA
ATOM     78  O   UNL     1      14.776  -8.052  -8.689  1.00  0.00    -0.237 OA
ATOM     79  O   UNL     1      12.518  -8.641  -9.479  1.00  0.00    -0.744 OA
ENDBRANCH  72  76
ENDBRANCH  55  69
BRANCH  56  80
ATOM     80  C   UNL     1      13.085 -10.223   4.715  1.00  0.00     0.023 A 
ATOM     81  C   UNL     1      14.212 -11.095   5.059  1.00  0.00     0.031 A 
ATOM     82  C   UNL     1      12.434  -9.685   5.834  1.00  0.00     0.131 A 
ATOM     83  C   UNL     1      14.629 -11.339   6.414  1.00  0.00     0.055 A 
ATOM     84  C   UNL     1      12.852  -9.930   7.168  1.00  0.00     0.041 A 
ATOM     85  F   UNL     1      11.434  -8.807   5.670  1.00  0.00    -0.206 F 
ATOM     86  C   UNL     1      13.950 -10.736   7.463  1.00  0.00     0.022 A 
BRANCH  83  87
ATOM     87  S   UNL     1      16.151 -12.308   6.869  1.00  0.00     0.124 S 
ATOM     88  O   UNL     1      15.784 -13.678   6.536  1.00  0.00    -0.237 OA
ATOM     89  O   UNL     1      17.188 -11.690   6.050  1.00  0.00    -0.237 OA
ATOM     90  O   UNL     1      16.304 -12.060   8.307  1.00  0.00    -0.744 OA
ENDBRANCH  83  87
ENDBRANCH  56  80
BRANCH  68  91
ATOM     91  C   UNL     1      14.285 -11.067  -1.147  1.00  0.00     0.023 A 
ATOM     92  C   UNL     1      13.133 -11.758  -0.688  1.00  0.00     0.031 A 
ATOM     93  C   UNL     1      14.868 -11.544  -2.335  1.00  0.00     0.131 A 
ATOM     94  C   UNL     1      12.627 -12.868  -1.402  1.00  0.00     0.055 A 
ATOM     95  C   UNL     1      14.339 -12.607  -3.065  1.00  0.00     0.041 A 
ATOM     96  F   UNL     1      15.981 -10.967  -2.818  1.00  0.00    -0.206 F 
ATOM     97  C   UNL     1      13.221 -13.281  -2.596  1.00  0.00     0.022 A 
BRANCH  94  98
ATOM     98  S   UNL     1      11.228 -13.847  -0.749  1.00  0.00     0.124 S 
ATOM     99  O   UNL     1      11.620 -14.116   0.630  1.00  0.00    -0.237 OA
ATOM    100  O   UNL     1      10.094 -12.945  -0.925  1.00  0.00    -0.237 OA
ATOM    101  O   UNL     1      11.207 -15.030  -1.613  1.00  0.00    -0.744 OA
ENDBRANCH  94  98
ENDBRANCH  68  91
ENDBRANCH  42  43
ENDBRANCH  34  37
ENDBRANCH  32  33
ENDBRANCH  31  32
ENDBRANCH   1  31
TORSDOF 18
