REMARK SMILES NS(=O)(=O)c1ccc(-n2nc(C(=O)NCCCC(=O)NCCCCNC(=O)c3ccc(-c4c5nc(c(-c6cc(S(=O)(=O)[O-])ccc6F)c6ccc([nH]6)c(-c6cc(S(=O)(=O)[O-])ccc6F)c6nc(c(-c7cc(S(=O)(=O)[O-])ccc7F)c7ccc4[nH]7)C=C6)C=C5)cc3)cc2-c2ccccc2)cc1
REMARK SMILES IDX 18 1 19 2 20 3 17 5 16 6 15 7 14 8 12 9 13 10 11 12 9 13
REMARK SMILES IDX 10 14 92 15 91 16 8 17 5 18 6 19 100 20 7 21 99 22 2 23 3 24
REMARK SMILES IDX 4 25 1 26 93 29 94 30 98 31 95 32 97 33 96 34 21 35 22 36
REMARK SMILES IDX 23 37 24 38 25 39 26 40 27 42 28 43 29 44 90 45 30 46 89 47
REMARK SMILES IDX 31 48 32 49 33 50 83 51 34 52 88 53 82 54 84 55 35 56 87 57
REMARK SMILES IDX 81 58 80 59 36 61 68 62 48 63 67 64 49 65 52 66 66 67 85 68
REMARK SMILES IDX 50 69 51 70 65 72 86 73 53 74 37 75 38 76 46 77 39 78 45 79
REMARK SMILES IDX 47 80 44 81 40 82 41 83 42 84 43 85 69 86 70 87 78 88 71 89
REMARK SMILES IDX 77 90 79 91 76 92 72 93 73 94 74 95 75 96 54 97 55 98 63 99
REMARK SMILES IDX 56 100 62 101 64 102 61 103 57 104 58 105 59 106 60 107
REMARK H PARENT 20 4 14 11 1 27 1 28 25 41 84 60 52 71
REMARK Flexibility Score: inf
ROOT
ATOM      1  C   UNL     1       4.679  13.655   2.084  1.00  0.00     0.220 C 
ATOM      2  O   UNL     1       5.735  14.275   1.950  1.00  0.00    -0.275 OA
ATOM      3  N   UNL     1       4.464  12.994   3.255  1.00  0.00    -0.356 N 
ATOM      4  H   UNL     1       5.126  13.182   3.959  1.00  0.00     0.163 HD
ENDROOT
BRANCH   1   5
ATOM      5  C   UNL     1       3.652  13.635   0.969  1.00  0.00     0.102 C 
BRANCH   5   6
ATOM      6  C   UNL     1       3.947  12.618  -0.135  1.00  0.00     0.031 C 
BRANCH   6   7
ATOM      7  C   UNL     1       3.520  11.184   0.161  1.00  0.00     0.116 C 
BRANCH   7   8
ATOM      8  N   UNL     1       2.122  11.044   0.514  1.00  0.00    -0.351 N 
ATOM      9  C   UNL     1       1.359   9.910   0.694  1.00  0.00     0.271 C 
ATOM     10  O   UNL     1       0.167  10.075   0.954  1.00  0.00    -0.267 OA
ATOM     11  H   UNL     1       1.641  11.893   0.647  1.00  0.00     0.163 HD
BRANCH   9  12
ATOM     12  C   UNL     1       1.962   8.573   0.548  1.00  0.00     0.151 A 
ATOM     13  N   UNL     1       2.065   6.476   0.109  1.00  0.00    -0.232 N 
ATOM     14  N   UNL     1       1.252   7.552   0.029  1.00  0.00    -0.162 NA
ATOM     15  C   UNL     1       3.373   6.849   0.392  1.00  0.00     0.075 A 
ATOM     16  C   UNL     1       3.278   8.144   0.853  1.00  0.00     0.065 A 
BRANCH  13  17
ATOM     17  C   UNL     1       1.575   5.166  -0.138  1.00  0.00     0.065 A 
ATOM     18  C   UNL     1       0.814   2.575  -0.812  1.00  0.00     0.082 A 
ATOM     19  C   UNL     1       1.798   2.770   0.158  1.00  0.00     0.024 A 
ATOM     20  C   UNL     1       0.152   3.665  -1.391  1.00  0.00     0.024 A 
ATOM     21  C   UNL     1       2.179   4.067   0.491  1.00  0.00     0.030 A 
ATOM     22  C   UNL     1       0.520   4.968  -1.037  1.00  0.00     0.030 A 
BRANCH  18  23
ATOM     23  S   UNL     1       0.407   0.945  -1.357  1.00  0.00     0.238 S 
ATOM     24  O   UNL     1       1.177   0.661  -2.544  1.00  0.00    -0.207 OA
ATOM     25  O   UNL     1      -1.026   0.771  -1.293  1.00  0.00    -0.207 OA
BRANCH  23  26
ATOM     26  N   UNL     1       1.029  -0.067  -0.166  1.00  0.00    -0.225 NA
ATOM     27  H   UNL     1       0.834  -1.038  -0.409  1.00  0.00     0.137 HD
ATOM     28  H   UNL     1       0.593   0.153   0.729  1.00  0.00     0.137 HD
ENDBRANCH  23  26
ENDBRANCH  18  23
ENDBRANCH  13  17
BRANCH  15  29
ATOM     29  C   UNL     1       4.573   6.068   0.093  1.00  0.00     0.000 A 
ATOM     30  C   UNL     1       4.733   5.494  -1.179  1.00  0.00     0.010 A 
ATOM     31  C   UNL     1       5.597   5.929   1.034  1.00  0.00     0.010 A 
ATOM     32  C   UNL     1       5.881   4.769  -1.494  1.00  0.00     0.001 A 
ATOM     33  C   UNL     1       6.750   5.206   0.715  1.00  0.00     0.001 A 
ATOM     34  C   UNL     1       6.890   4.625  -0.546  1.00  0.00     0.000 A 
ENDBRANCH  15  29
ENDBRANCH   9  12
ENDBRANCH   7   8
ENDBRANCH   6   7
ENDBRANCH   5   6
ENDBRANCH   1   5
BRANCH   3  35
ATOM     35  C   UNL     1       3.421  12.058   3.640  1.00  0.00     0.116 C 
BRANCH  35  36
ATOM     36  C   UNL     1       3.975  10.631   3.739  1.00  0.00     0.023 C 
BRANCH  36  37
ATOM     37  C   UNL     1       4.775  10.308   5.006  1.00  0.00     0.023 C 
BRANCH  37  38
ATOM     38  C   UNL     1       3.932  10.168   6.265  1.00  0.00     0.116 C 
BRANCH  38  39
ATOM     39  N   UNL     1       3.010   9.032   6.208  1.00  0.00    -0.352 N 
ATOM     40  C   UNL     1       1.957   8.768   7.065  1.00  0.00     0.251 C 
ATOM     41  H   UNL     1       3.156   8.386   5.480  1.00  0.00     0.163 HD
ATOM     42  O   UNL     1       1.522   7.631   7.198  1.00  0.00    -0.269 OA
BRANCH  40  43
ATOM     43  C   UNL     1       1.382   9.898   7.812  1.00  0.00     0.039 A 
ATOM     44  C   UNL     1       1.185   9.836   9.195  1.00  0.00     0.014 A 
ATOM     45  C   UNL     1       1.145  11.071   7.100  1.00  0.00     0.014 A 
ATOM     46  C   UNL     1       0.851  11.004   9.878  1.00  0.00     0.010 A 
ATOM     47  C   UNL     1       0.943  12.240   7.790  1.00  0.00     0.010 A 
ATOM     48  C   UNL     1       0.761  12.214   9.174  1.00  0.00    -0.014 A 
BRANCH  48  49
ATOM     49  C   UNL     1       0.634  13.493   9.877  1.00  0.00     0.031 A 
ATOM     50  C   UNL     1       1.702  13.790  10.878  1.00  0.00     0.074 A 
ATOM     51  C   UNL     1      -0.202  14.462   9.439  1.00  0.00     0.049 A 
ATOM     52  N   UNL     1       1.562  14.029  12.140  1.00  0.00    -0.248 NA
ATOM     53  C   UNL     1       3.110  13.701  10.456  1.00  0.00     0.031 C 
ATOM     54  C   UNL     1      -1.095  14.411   8.277  1.00  0.00     0.029 A 
ATOM     55  N   UNL     1      -0.300  15.763   9.830  1.00  0.00    -0.354 N 
ATOM     56  C   UNL     1       2.829  14.350  12.625  1.00  0.00     0.074 A 
ATOM     57  C   UNL     1       3.752  13.937  11.602  1.00  0.00     0.031 C 
ATOM     58  C   UNL     1      -1.411  15.666   7.897  1.00  0.00     0.029 A 
ATOM     59  C   UNL     1      -0.881  16.597   8.877  1.00  0.00     0.049 A 
ATOM     60  H   UNL     1       0.011  16.084  10.707  1.00  0.00     0.167 HD
ATOM     61  C   UNL     1       2.990  15.136  13.729  1.00  0.00     0.034 A 
ATOM     62  C   UNL     1      -0.884  17.957   8.856  1.00  0.00     0.034 A 
ATOM     63  C   UNL     1       1.748  15.255  14.461  1.00  0.00     0.049 A 
ATOM     64  C   UNL     1      -0.661  18.399  10.257  1.00  0.00     0.074 A 
ATOM     65  C   UNL     1       0.871  14.346  15.025  1.00  0.00     0.029 A 
ATOM     66  N   UNL     1       1.036  16.430  14.353  1.00  0.00    -0.354 N 
ATOM     67  N   UNL     1      -1.502  18.148  11.224  1.00  0.00    -0.248 NA
ATOM     68  C   UNL     1       0.704  18.666  10.686  1.00  0.00     0.031 C 
ATOM     69  C   UNL     1      -0.423  14.854  14.708  1.00  0.00     0.029 A 
ATOM     70  C   UNL     1      -0.263  16.086  14.069  1.00  0.00     0.049 A 
ATOM     71  H   UNL     1       1.391  17.343  14.459  1.00  0.00     0.167 HD
ATOM     72  C   UNL     1      -0.710  17.771  12.298  1.00  0.00     0.074 A 
ATOM     73  C   UNL     1       0.637  18.221  11.946  1.00  0.00     0.031 C 
ATOM     74  C   UNL     1      -1.150  16.871  13.230  1.00  0.00     0.034 A 
BRANCH  61  75
ATOM     75  C   UNL     1       4.146  16.087  13.981  1.00  0.00     0.023 A 
ATOM     76  C   UNL     1       4.116  16.832  15.179  1.00  0.00     0.031 A 
ATOM     77  C   UNL     1       5.089  16.517  13.022  1.00  0.00     0.131 A 
ATOM     78  C   UNL     1       4.886  17.998  15.331  1.00  0.00     0.055 A 
ATOM     79  C   UNL     1       5.908  17.637  13.209  1.00  0.00     0.041 A 
ATOM     80  F   UNL     1       5.212  15.947  11.819  1.00  0.00    -0.206 F 
ATOM     81  C   UNL     1       5.783  18.408  14.351  1.00  0.00     0.022 A 
BRANCH  78  82
ATOM     82  S   UNL     1       4.538  19.079  16.743  1.00  0.00     0.124 S 
ATOM     83  O   UNL     1       3.096  19.266  16.619  1.00  0.00    -0.237 OA
ATOM     84  O   UNL     1       4.988  18.260  17.864  1.00  0.00    -0.237 OA
ATOM     85  O   UNL     1       5.347  20.264  16.471  1.00  0.00    -0.744 OA
ENDBRANCH  78  82
ENDBRANCH  61  75
BRANCH  62  86
ATOM     86  C   UNL     1      -0.794  18.843   7.657  1.00  0.00     0.023 A 
ATOM     87  C   UNL     1      -1.113  20.217   7.689  1.00  0.00     0.031 A 
ATOM     88  C   UNL     1      -0.169  18.374   6.475  1.00  0.00     0.131 A 
ATOM     89  C   UNL     1      -0.819  21.048   6.579  1.00  0.00     0.055 A 
ATOM     90  C   UNL     1       0.107  19.195   5.378  1.00  0.00     0.041 A 
ATOM     91  F   UNL     1       0.277  17.113   6.373  1.00  0.00    -0.206 F 
ATOM     92  C   UNL     1      -0.209  20.541   5.429  1.00  0.00     0.022 A 
BRANCH  89  93
ATOM     93  S   UNL     1      -1.124  22.845   6.652  1.00  0.00     0.124 S 
ATOM     94  O   UNL     1      -2.575  22.917   6.531  1.00  0.00    -0.237 OA
ATOM     95  O   UNL     1      -0.561  23.208   7.948  1.00  0.00    -0.237 OA
ATOM     96  O   UNL     1      -0.385  23.363   5.500  1.00  0.00    -0.744 OA
ENDBRANCH  89  93
ENDBRANCH  62  86
BRANCH  74  97
ATOM     97  C   UNL     1      -2.617  16.477  13.242  1.00  0.00     0.023 A 
ATOM     98  C   UNL     1      -3.318  15.937  12.139  1.00  0.00     0.031 A 
ATOM     99  C   UNL     1      -3.285  16.510  14.479  1.00  0.00     0.131 A 
ATOM    100  C   UNL     1      -4.637  15.466  12.300  1.00  0.00     0.055 A 
ATOM    101  C   UNL     1      -4.581  16.020  14.641  1.00  0.00     0.041 A 
ATOM    102  F   UNL     1      -2.667  16.983  15.575  1.00  0.00    -0.206 F 
ATOM    103  C   UNL     1      -5.264  15.501  13.549  1.00  0.00     0.022 A 
BRANCH 100 104
ATOM    104  S   UNL     1      -5.571  14.809  10.879  1.00  0.00     0.124 S 
ATOM    105  O   UNL     1      -5.353  15.806   9.837  1.00  0.00    -0.237 OA
ATOM    106  O   UNL     1      -4.945  13.508  10.663  1.00  0.00    -0.237 OA
ATOM    107  O   UNL     1      -6.946  14.744  11.379  1.00  0.00    -0.744 OA
ENDBRANCH 100 104
ENDBRANCH  74  97
ENDBRANCH  48  49
ENDBRANCH  40  43
ENDBRANCH  38  39
ENDBRANCH  37  38
ENDBRANCH  36  37
ENDBRANCH  35  36
ENDBRANCH   3  35
TORSDOF 22
