REMARK SMILES Cc1ccc(C(=O)NC2CC2)cc1NC(=O)[C@@H]1[C@@H](C(=O)NCCCCNC(=O)c2ccc(-c3c4nc(c(-c5cc(S(=O)(=O)[O-])ccc5F)c5ccc([nH]5)c(-c5cc(S(=O)(=O)[O-])ccc5F)c5nc(c(-c6cc(S(=O)(=O)[O-])ccc6F)c6ccc3[nH]6)C=C5)C=C4)cc2)[C@H]2C=C[C@@H]1C2
REMARK SMILES IDX 23 1 22 2 21 3 19 4 20 5 18 7 17 8 95 9 92 10 94 11 96 12
REMARK SMILES IDX 93 13 15 14 14 15 16 17 13 18 1 19 2 20 3 21 4 22 12 23 5 24
REMARK SMILES IDX 6 25 7 26 8 27 9 29 10 30 11 31 24 32 25 33 26 34 27 35
REMARK SMILES IDX 28 37 29 38 30 39 91 40 31 41 90 42 32 43 33 44 34 45 84 46
REMARK SMILES IDX 35 47 89 48 83 49 85 50 36 51 88 52 82 53 81 54 37 56 69 57
REMARK SMILES IDX 49 58 68 59 50 60 53 61 67 62 86 63 51 64 52 65 66 67 87 68
REMARK SMILES IDX 54 69 38 70 39 71 47 72 40 73 46 74 48 75 45 76 41 77 42 78
REMARK SMILES IDX 43 79 44 80 70 81 71 82 79 83 72 84 78 85 80 86 77 87 73 88
REMARK SMILES IDX 74 89 75 90 76 91 55 92 56 93 64 94 57 95 63 96 65 97 62 98
REMARK SMILES IDX 58 99 59 100 60 101 61 102
REMARK H PARENT 21 6 14 16 8 28 26 36 85 55 53 66
REMARK Flexibility Score: inf
ROOT
ATOM      1  C   UNL     1      -3.082   9.257   0.492  1.00  0.00     0.023 C 
ENDROOT
BRANCH   1   2
ATOM      2  C   UNL     1      -3.517   7.811   0.743  1.00  0.00     0.116 C 
BRANCH   2   3
ATOM      3  N   UNL     1      -3.075   6.914  -0.314  1.00  0.00    -0.356 N 
ATOM      4  C   UNL     1      -2.178   5.903  -0.348  1.00  0.00     0.224 C 
ATOM      5  O   UNL     1      -1.989   5.401  -1.466  1.00  0.00    -0.275 OA
ATOM      6  H   UNL     1      -3.518   7.076  -1.178  1.00  0.00     0.163 HD
BRANCH   4   7
ATOM      7  C   UNL     1      -1.329   5.445   0.839  1.00  0.00     0.098 C 
ATOM      8  C   UNL     1      -0.969   3.912   0.634  1.00  0.00     0.099 C 
ATOM      9  C   UNL     1      -1.278   3.292   2.022  1.00  0.00     0.025 C 
ATOM     10  C   UNL     1      -1.911   5.424   2.270  1.00  0.00     0.025 C 
ATOM     11  C   UNL     1      -2.778   3.294   2.207  1.00  0.00    -0.027 C 
ATOM     12  C   UNL     1      -0.944   4.450   2.959  1.00  0.00     0.017 C 
ATOM     13  C   UNL     1      -3.159   4.574   2.327  1.00  0.00    -0.027 C 
BRANCH   8  14
ATOM     14  C   UNL     1       0.460   3.638   0.195  1.00  0.00     0.228 C 
ATOM     15  N   UNL     1       0.894   2.372  -0.116  1.00  0.00    -0.326 N 
ATOM     16  H   UNL     1       1.855   2.332  -0.324  1.00  0.00     0.169 HD
ATOM     17  O   UNL     1       1.314   4.531   0.176  1.00  0.00    -0.274 OA
BRANCH  15  18
ATOM     18  C   UNL     1       0.253   1.116  -0.198  1.00  0.00     0.044 A 
ATOM     19  C   UNL     1       2.486  -0.088   0.292  1.00  0.00     0.046 C 
ATOM     20  C   UNL     1       0.998  -0.053   0.062  1.00  0.00    -0.027 A 
ATOM     21  C   UNL     1       0.332  -1.290   0.087  1.00  0.00     0.006 A 
ATOM     22  C   UNL     1      -1.041  -1.372  -0.144  1.00  0.00     0.014 A 
ATOM     23  C   UNL     1      -1.101   0.985  -0.554  1.00  0.00     0.040 A 
ATOM     24  C   UNL     1      -1.784  -0.235  -0.484  1.00  0.00     0.041 A 
BRANCH  24  25
ATOM     25  C   UNL     1      -3.246  -0.447  -0.754  1.00  0.00     0.251 C 
ATOM     26  O   UNL     1      -3.671  -1.607  -0.770  1.00  0.00    -0.269 OA
ATOM     27  N   UNL     1      -4.162   0.561  -0.961  1.00  0.00    -0.349 N 
ATOM     28  H   UNL     1      -5.086   0.248  -1.089  1.00  0.00     0.164 HD
BRANCH  27  29
ATOM     29  C   UNL     1      -4.011   1.970  -1.022  1.00  0.00     0.082 C 
ATOM     30  C   UNL     1      -3.910   2.651  -2.359  1.00  0.00     0.027 C 
ATOM     31  C   UNL     1      -5.112   2.877  -1.494  1.00  0.00     0.027 C 
ENDBRANCH  27  29
ENDBRANCH  24  25
ENDBRANCH  15  18
ENDBRANCH   8  14
ENDBRANCH   4   7
ENDBRANCH   2   3
ENDBRANCH   1   2
BRANCH   1  32
ATOM     32  C   UNL     1      -3.718   9.917  -0.730  1.00  0.00     0.023 C 
BRANCH  32  33
ATOM     33  C   UNL     1      -5.225  10.131  -0.627  1.00  0.00     0.116 C 
BRANCH  33  34
ATOM     34  N   UNL     1      -5.621  11.393  -0.020  1.00  0.00    -0.352 N 
ATOM     35  C   UNL     1      -6.896  11.922   0.144  1.00  0.00     0.251 C 
ATOM     36  H   UNL     1      -4.884  11.949   0.321  1.00  0.00     0.163 HD
ATOM     37  O   UNL     1      -7.073  13.038   0.585  1.00  0.00    -0.269 OA
BRANCH  35  38
ATOM     38  C   UNL     1      -8.064  11.033  -0.102  1.00  0.00     0.039 A 
ATOM     39  C   UNL     1      -8.975  10.877   0.951  1.00  0.00     0.014 A 
ATOM     40  C   UNL     1      -8.129  10.204  -1.216  1.00  0.00     0.014 A 
ATOM     41  C   UNL     1      -9.781   9.743   0.995  1.00  0.00     0.010 A 
ATOM     42  C   UNL     1      -8.859   9.032  -1.132  1.00  0.00     0.010 A 
ATOM     43  C   UNL     1      -9.631   8.771   0.005  1.00  0.00    -0.014 A 
BRANCH  43  44
ATOM     44  C   UNL     1     -10.104   7.400   0.170  1.00  0.00     0.031 A 
ATOM     45  C   UNL     1     -11.280   6.899  -0.565  1.00  0.00     0.074 A 
ATOM     46  C   UNL     1      -9.436   6.562   0.993  1.00  0.00     0.049 A 
ATOM     47  N   UNL     1     -12.065   5.968  -0.136  1.00  0.00    -0.248 NA
ATOM     48  C   UNL     1     -11.683   7.447  -1.852  1.00  0.00     0.031 C 
ATOM     49  C   UNL     1      -9.602   5.118   1.119  1.00  0.00     0.029 A 
ATOM     50  N   UNL     1      -8.620   6.907   2.061  1.00  0.00    -0.354 N 
ATOM     51  C   UNL     1     -12.868   5.587  -1.186  1.00  0.00     0.074 A 
ATOM     52  C   UNL     1     -12.648   6.591  -2.203  1.00  0.00     0.031 C 
ATOM     53  C   UNL     1      -9.127   4.729   2.314  1.00  0.00     0.029 A 
ATOM     54  C   UNL     1      -8.766   5.928   3.051  1.00  0.00     0.049 A 
ATOM     55  H   UNL     1      -8.039   7.700   2.113  1.00  0.00     0.167 HD
ATOM     56  C   UNL     1     -13.508   4.381  -1.150  1.00  0.00     0.034 A 
ATOM     57  C   UNL     1      -9.222   6.256   4.296  1.00  0.00     0.034 A 
ATOM     58  C   UNL     1     -13.257   3.669   0.104  1.00  0.00     0.049 A 
ATOM     59  C   UNL     1     -10.524   5.577   4.659  1.00  0.00     0.074 A 
ATOM     60  C   UNL     1     -12.394   2.635   0.432  1.00  0.00     0.029 A 
ATOM     61  N   UNL     1     -13.737   4.176   1.308  1.00  0.00    -0.354 N 
ATOM     62  N   UNL     1     -11.307   4.991   3.795  1.00  0.00    -0.248 NA
ATOM     63  C   UNL     1     -11.056   5.525   6.017  1.00  0.00     0.031 C 
ATOM     64  C   UNL     1     -12.302   2.571   1.845  1.00  0.00     0.029 A 
ATOM     65  C   UNL     1     -13.132   3.542   2.378  1.00  0.00     0.049 A 
ATOM     66  H   UNL     1     -14.413   4.888   1.387  1.00  0.00     0.167 HD
ATOM     67  C   UNL     1     -12.428   4.524   4.433  1.00  0.00     0.074 A 
ATOM     68  C   UNL     1     -12.207   4.856   5.830  1.00  0.00     0.031 C 
ATOM     69  C   UNL     1     -13.446   3.917   3.751  1.00  0.00     0.034 A 
BRANCH  56  70
ATOM     70  C   UNL     1     -14.063   3.703  -2.387  1.00  0.00     0.023 A 
ATOM     71  C   UNL     1     -14.041   2.294  -2.474  1.00  0.00     0.031 A 
ATOM     72  C   UNL     1     -14.569   4.365  -3.521  1.00  0.00     0.131 A 
ATOM     73  C   UNL     1     -14.370   1.624  -3.667  1.00  0.00     0.055 A 
ATOM     74  C   UNL     1     -14.836   3.707  -4.730  1.00  0.00     0.041 A 
ATOM     75  F   UNL     1     -14.876   5.670  -3.491  1.00  0.00    -0.206 F 
ATOM     76  C   UNL     1     -14.718   2.328  -4.814  1.00  0.00     0.022 A 
BRANCH  73  77
ATOM     77  S   UNL     1     -14.345  -0.190  -3.693  1.00  0.00     0.124 S 
ATOM     78  O   UNL     1     -12.961  -0.486  -3.339  1.00  0.00    -0.237 OA
ATOM     79  O   UNL     1     -15.355  -0.526  -2.695  1.00  0.00    -0.237 OA
ATOM     80  O   UNL     1     -14.712  -0.513  -5.072  1.00  0.00    -0.744 OA
ENDBRANCH  73  77
ENDBRANCH  56  70
BRANCH  57  81
ATOM     81  C   UNL     1      -8.807   7.621   4.732  1.00  0.00     0.023 A 
ATOM     82  C   UNL     1      -7.421   7.887   4.761  1.00  0.00     0.031 A 
ATOM     83  C   UNL     1      -9.685   8.712   4.713  1.00  0.00     0.131 A 
ATOM     84  C   UNL     1      -6.948   9.193   4.583  1.00  0.00     0.055 A 
ATOM     85  C   UNL     1      -9.206  10.026   4.616  1.00  0.00     0.041 A 
ATOM     86  F   UNL     1     -11.011   8.524   4.656  1.00  0.00    -0.206 F 
ATOM     87  C   UNL     1      -7.835  10.267   4.500  1.00  0.00     0.022 A 
BRANCH  84  88
ATOM     88  S   UNL     1      -5.197   9.434   4.159  1.00  0.00     0.124 S 
ATOM     89  O   UNL     1      -4.598   9.720   5.457  1.00  0.00    -0.237 OA
ATOM     90  O   UNL     1      -4.825   8.155   3.557  1.00  0.00    -0.237 OA
ATOM     91  O   UNL     1      -5.224  10.546   3.212  1.00  0.00    -0.744 OA
ENDBRANCH  84  88
ENDBRANCH  57  81
BRANCH  69  92
ATOM     92  C   UNL     1     -14.786   3.530   4.337  1.00  0.00     0.023 A 
ATOM     93  C   UNL     1     -15.312   4.105   5.504  1.00  0.00     0.031 A 
ATOM     94  C   UNL     1     -15.627   2.598   3.680  1.00  0.00     0.131 A 
ATOM     95  C   UNL     1     -16.552   3.691   6.025  1.00  0.00     0.055 A 
ATOM     96  C   UNL     1     -16.895   2.249   4.156  1.00  0.00     0.041 A 
ATOM     97  F   UNL     1     -15.254   1.989   2.545  1.00  0.00    -0.206 F 
ATOM     98  C   UNL     1     -17.358   2.781   5.348  1.00  0.00     0.022 A 
BRANCH  95  99
ATOM     99  S   UNL     1     -17.050   4.317   7.651  1.00  0.00     0.124 S 
ATOM    100  O   UNL     1     -15.976   3.818   8.506  1.00  0.00    -0.237 OA
ATOM    101  O   UNL     1     -17.071   5.761   7.439  1.00  0.00    -0.237 OA
ATOM    102  O   UNL     1     -18.356   3.701   7.874  1.00  0.00    -0.744 OA
ENDBRANCH  95  99
ENDBRANCH  69  92
ENDBRANCH  43  44
ENDBRANCH  35  38
ENDBRANCH  33  34
ENDBRANCH  32  33
ENDBRANCH   1  32
TORSDOF 18
