REMARK SMILES Cc1n[nH]c(C(=O)Nc2cc(C(=O)NCCCCNC(=O)c3ccc(-c4c5nc(c(-c6cc(S(=O)(=O)[O-])ccc6F)c6ccc([nH]6)c(-c6cc(S(=O)(=O)[O-])ccc6F)c6nc(c(-c7cc(S(=O)(=O)[O-])ccc7F)c7ccc4[nH]7)C=C6)C=C5)cc3)[nH]n2)n1
REMARK SMILES IDX 17 1 16 2 15 3 14 4 12 5 13 6 11 8 9 9 10 10 86 11 85 12
REMARK SMILES IDX 8 14 6 15 7 16 5 18 1 19 2 20 3 21 87 22 4 23 18 25 19 26
REMARK SMILES IDX 20 27 21 29 22 30 23 31 84 32 24 33 83 34 25 35 26 36 27 37
REMARK SMILES IDX 77 38 28 39 82 40 76 41 78 42 29 43 81 44 75 45 74 46 30 48
REMARK SMILES IDX 62 49 42 50 61 51 43 52 46 53 60 54 79 55 44 56 45 57 59 59
REMARK SMILES IDX 80 60 47 61 31 62 32 63 40 64 33 65 39 66 41 67 38 68 34 69
REMARK SMILES IDX 35 70 36 71 37 72 63 73 64 74 72 75 65 76 71 77 73 78 70 79
REMARK SMILES IDX 66 80 67 81 68 82 69 83 48 84 49 85 57 86 50 87 56 88 58 89
REMARK SMILES IDX 55 90 51 91 52 92 53 93 54 94
REMARK H PARENT 14 7 85 13 8 17 4 24 19 28 78 47 46 58
REMARK Flexibility Score: inf
ROOT
ATOM      1  C   UNL     1      -5.537  -2.329  -2.469  1.00  0.00     0.023 C 
ENDROOT
BRANCH   1   2
ATOM      2  C   UNL     1      -4.437  -1.372  -2.954  1.00  0.00     0.023 C 
BRANCH   2   3
ATOM      3  C   UNL     1      -3.039  -1.993  -3.019  1.00  0.00     0.116 C 
BRANCH   3   4
ATOM      4  N   UNL     1      -2.893  -2.876  -4.164  1.00  0.00    -0.351 N 
ATOM      5  C   UNL     1      -2.380  -2.673  -5.421  1.00  0.00     0.269 C 
ATOM      6  O   UNL     1      -2.328  -3.631  -6.179  1.00  0.00    -0.268 OA
ATOM      7  H   UNL     1      -3.225  -3.789  -4.009  1.00  0.00     0.163 HD
BRANCH   5   8
ATOM      8  C   UNL     1      -1.856  -1.390  -5.813  1.00  0.00     0.125 A 
ATOM      9  C   UNL     1      -0.937   0.616  -6.004  1.00  0.00     0.155 A 
ATOM     10  C   UNL     1      -1.931  -0.108  -5.316  1.00  0.00     0.082 A 
ATOM     11  N   UNL     1      -0.501  -0.050  -7.068  1.00  0.00    -0.157 NA
ATOM     12  N   UNL     1      -1.057  -1.270  -6.926  1.00  0.00    -0.271 N 
ATOM     13  H   UNL     1      -0.905  -2.007  -7.561  1.00  0.00     0.190 HD
BRANCH   9  14
ATOM     14  N   UNL     1      -0.392   1.817  -5.645  1.00  0.00    -0.302 N 
ATOM     15  C   UNL     1      -0.164   2.272  -4.358  1.00  0.00     0.294 C 
ATOM     16  O   UNL     1      -0.061   3.491  -4.201  1.00  0.00    -0.265 OA
ATOM     17  H   UNL     1      -0.134   2.422  -6.379  1.00  0.00     0.172 HD
BRANCH  15  18
ATOM     18  C   UNL     1       0.081   1.302  -3.292  1.00  0.00     0.214 A 
ATOM     19  C   UNL     1       0.850   0.265   0.019  1.00  0.00     0.092 C 
ATOM     20  C   UNL     1       0.516   0.398  -1.415  1.00  0.00     0.148 A 
ATOM     21  N   UNL     1       0.649  -0.619  -2.271  1.00  0.00    -0.159 NA
ATOM     22  N   UNL     1       0.122   1.579  -1.998  1.00  0.00    -0.207 NA
ATOM     23  N   UNL     1       0.459  -0.006  -3.444  1.00  0.00    -0.255 N 
ATOM     24  H   UNL     1       0.578  -0.444  -4.317  1.00  0.00     0.192 HD
ENDBRANCH  15  18
ENDBRANCH   9  14
ENDBRANCH   5   8
ENDBRANCH   3   4
ENDBRANCH   2   3
ENDBRANCH   1   2
BRANCH   1  25
ATOM     25  C   UNL     1      -5.414  -2.767  -1.010  1.00  0.00     0.116 C 
BRANCH  25  26
ATOM     26  N   UNL     1      -5.515  -1.652  -0.071  1.00  0.00    -0.352 N 
ATOM     27  C   UNL     1      -5.165  -1.629   1.266  1.00  0.00     0.251 C 
ATOM     28  H   UNL     1      -5.878  -0.813  -0.436  1.00  0.00     0.163 HD
ATOM     29  O   UNL     1      -5.690  -0.825   2.028  1.00  0.00    -0.269 OA
BRANCH  27  30
ATOM     30  C   UNL     1      -4.150  -2.581   1.757  1.00  0.00     0.039 A 
ATOM     31  C   UNL     1      -4.297  -3.236   2.982  1.00  0.00     0.014 A 
ATOM     32  C   UNL     1      -3.041  -2.827   0.950  1.00  0.00     0.014 A 
ATOM     33  C   UNL     1      -3.369  -4.214   3.340  1.00  0.00     0.010 A 
ATOM     34  C   UNL     1      -2.194  -3.870   1.245  1.00  0.00     0.010 A 
ATOM     35  C   UNL     1      -2.331  -4.548   2.453  1.00  0.00    -0.014 A 
BRANCH  35  36
ATOM     36  C   UNL     1      -1.478  -5.711   2.702  1.00  0.00     0.031 A 
ATOM     37  C   UNL     1      -2.219  -6.991   2.873  1.00  0.00     0.074 A 
ATOM     38  C   UNL     1      -0.136  -5.707   2.545  1.00  0.00     0.049 A 
ATOM     39  N   UNL     1      -2.369  -7.677   3.956  1.00  0.00    -0.248 NA
ATOM     40  C   UNL     1      -3.026  -7.488   1.747  1.00  0.00     0.031 C 
ATOM     41  C   UNL     1       0.712  -4.613   2.064  1.00  0.00     0.029 A 
ATOM     42  N   UNL     1       0.751  -6.736   2.670  1.00  0.00    -0.354 N 
ATOM     43  C   UNL     1      -3.067  -8.826   3.592  1.00  0.00     0.074 A 
ATOM     44  C   UNL     1      -3.634  -8.539   2.302  1.00  0.00     0.031 C 
ATOM     45  C   UNL     1       1.924  -5.098   1.714  1.00  0.00     0.029 A 
ATOM     46  C   UNL     1       1.999  -6.499   2.093  1.00  0.00     0.049 A 
ATOM     47  H   UNL     1       0.528  -7.577   3.129  1.00  0.00     0.167 HD
ATOM     48  C   UNL     1      -2.903  -9.996   4.274  1.00  0.00     0.034 A 
ATOM     49  C   UNL     1       3.009  -7.393   1.910  1.00  0.00     0.034 A 
ATOM     50  C   UNL     1      -2.210  -9.761   5.526  1.00  0.00     0.049 A 
ATOM     51  C   UNL     1       2.780  -8.500   2.872  1.00  0.00     0.074 A 
ATOM     52  C   UNL     1      -2.442  -8.959   6.628  1.00  0.00     0.029 A 
ATOM     53  N   UNL     1      -0.877 -10.109   5.602  1.00  0.00    -0.354 N 
ATOM     54  N   UNL     1       2.855  -8.351   4.165  1.00  0.00    -0.248 NA
ATOM     55  C   UNL     1       1.992  -9.640   2.428  1.00  0.00     0.031 C 
ATOM     56  C   UNL     1      -1.158  -8.450   6.985  1.00  0.00     0.029 A 
ATOM     57  C   UNL     1      -0.206  -9.047   6.156  1.00  0.00     0.049 A 
ATOM     58  H   UNL     1      -0.480 -10.962   5.313  1.00  0.00     0.167 HD
ATOM     59  C   UNL     1       1.784  -9.069   4.670  1.00  0.00     0.074 A 
ATOM     60  C   UNL     1       1.353  -9.927   3.566  1.00  0.00     0.031 C 
ATOM     61  C   UNL     1       1.163  -8.694   5.829  1.00  0.00     0.034 A 
BRANCH  48  62
ATOM     62  C   UNL     1      -3.004 -11.390   3.681  1.00  0.00     0.023 A 
ATOM     63  C   UNL     1      -2.730 -12.468   4.548  1.00  0.00     0.031 A 
ATOM     64  C   UNL     1      -3.056 -11.716   2.308  1.00  0.00     0.131 A 
ATOM     65  C   UNL     1      -2.384 -13.734   4.049  1.00  0.00     0.055 A 
ATOM     66  C   UNL     1      -2.783 -12.999   1.820  1.00  0.00     0.041 A 
ATOM     67  F   UNL     1      -3.285 -10.811   1.352  1.00  0.00    -0.206 F 
ATOM     68  C   UNL     1      -2.404 -14.008   2.687  1.00  0.00     0.022 A 
BRANCH  65  69
ATOM     69  S   UNL     1      -1.712 -14.952   5.208  1.00  0.00     0.124 S 
ATOM     70  O   UNL     1      -0.595 -14.212   5.786  1.00  0.00    -0.237 OA
ATOM     71  O   UNL     1      -2.852 -15.191   6.086  1.00  0.00    -0.237 OA
ATOM     72  O   UNL     1      -1.343 -16.072   4.346  1.00  0.00    -0.744 OA
ENDBRANCH  65  69
ENDBRANCH  48  62
BRANCH  49  73
ATOM     73  C   UNL     1       3.988  -7.479   0.788  1.00  0.00     0.023 A 
ATOM     74  C   UNL     1       5.168  -8.252   0.865  1.00  0.00     0.031 A 
ATOM     75  C   UNL     1       3.633  -6.998  -0.491  1.00  0.00     0.131 A 
ATOM     76  C   UNL     1       5.925  -8.523  -0.302  1.00  0.00     0.055 A 
ATOM     77  C   UNL     1       4.384  -7.265  -1.639  1.00  0.00     0.041 A 
ATOM     78  F   UNL     1       2.488  -6.326  -0.690  1.00  0.00    -0.206 F 
ATOM     79  C   UNL     1       5.528  -8.041  -1.551  1.00  0.00     0.022 A 
BRANCH  76  80
ATOM     80  S   UNL     1       7.387  -9.613  -0.236  1.00  0.00     0.124 S 
ATOM     81  O   UNL     1       8.383  -8.756   0.396  1.00  0.00    -0.237 OA
ATOM     82  O   UNL     1       6.906 -10.742   0.551  1.00  0.00    -0.237 OA
ATOM     83  O   UNL     1       7.646  -9.919  -1.644  1.00  0.00    -0.744 OA
ENDBRANCH  76  80
ENDBRANCH  49  73
BRANCH  61  84
ATOM     84  C   UNL     1       1.854  -7.693   6.736  1.00  0.00     0.023 A 
ATOM     85  C   UNL     1       2.319  -6.416   6.343  1.00  0.00     0.031 A 
ATOM     86  C   UNL     1       1.954  -8.027   8.099  1.00  0.00     0.131 A 
ATOM     87  C   UNL     1       2.873  -5.541   7.300  1.00  0.00     0.055 A 
ATOM     88  C   UNL     1       2.478  -7.149   9.046  1.00  0.00     0.041 A 
ATOM     89  F   UNL     1       1.511  -9.215   8.544  1.00  0.00    -0.206 F 
ATOM     90  C   UNL     1       2.949  -5.905   8.648  1.00  0.00     0.022 A 
BRANCH  87  91
ATOM     91  S   UNL     1       3.547  -3.921   6.807  1.00  0.00     0.124 S 
ATOM     92  O   UNL     1       4.290  -4.211   5.587  1.00  0.00    -0.237 OA
ATOM     93  O   UNL     1       2.340  -3.115   6.644  1.00  0.00    -0.237 OA
ATOM     94  O   UNL     1       4.380  -3.541   7.951  1.00  0.00    -0.744 OA
ENDBRANCH  87  91
ENDBRANCH  61  84
ENDBRANCH  35  36
ENDBRANCH  27  30
ENDBRANCH  25  26
ENDBRANCH   1  25
TORSDOF 16
