REMARK SMILES O=C(NCCCCNC(=O)c1ccc(-c2c3nc(c(-c4cc(S(=O)(=O)[O-])ccc4F)c4ccc([nH]4)c(-c4cc(S(=O)(=O)[O-])ccc4F)c4nc(c(-c5cc(S(=O)(=O)[O-])ccc5F)c5ccc2[nH]5)C=C4)C=C3)cc1)C1=Cc2cc(C(F)(F)F)ccc2O[C@@H]1C(F)(F)F
REMARK SMILES IDX 6 1 5 2 4 3 3 4 1 5 2 6 74 8 75 9 87 10 76 11 86 12 77 13
REMARK SMILES IDX 85 14 78 15 84 16 83 17 88 18 89 19 90 20 91 21 79 22 80 23
REMARK SMILES IDX 81 24 82 25 7 26 8 27 9 28 10 30 11 31 12 32 73 33 13 34
REMARK SMILES IDX 72 35 14 36 15 37 16 38 66 39 17 40 71 41 65 42 67 43 18 44
REMARK SMILES IDX 70 45 64 46 63 47 19 49 51 50 31 51 50 52 32 53 35 54 49 55
REMARK SMILES IDX 68 56 33 57 34 58 48 60 69 61 36 62 20 63 21 64 29 65 22 66
REMARK SMILES IDX 28 67 30 68 27 69 23 70 24 71 25 72 26 73 52 74 53 75 61 76
REMARK SMILES IDX 54 77 60 78 62 79 59 80 55 81 56 82 57 83 58 84 37 85 38 86
REMARK SMILES IDX 46 87 39 88 45 89 47 90 44 91 40 92 41 93 42 94 43 95
REMARK H PARENT 3 7 8 29 67 48 35 59
REMARK Flexibility Score: inf
ROOT
ATOM      1  C   UNL     1       3.959   0.622  -4.417  1.00  0.00     0.023 C 
ENDROOT
BRANCH   1   2
ATOM      2  C   UNL     1       4.071  -0.292  -3.193  1.00  0.00     0.023 C 
BRANCH   2   3
ATOM      3  C   UNL     1       3.437   0.288  -1.924  1.00  0.00     0.116 C 
BRANCH   3   4
ATOM      4  N   UNL     1       2.387  -0.555  -1.353  1.00  0.00    -0.352 N 
ATOM      5  O   UNL     1       1.009  -1.340   0.249  1.00  0.00    -0.270 OA
ATOM      6  C   UNL     1       2.118  -0.913  -0.057  1.00  0.00     0.251 C 
ATOM      7  H   UNL     1       1.763  -0.932  -2.016  1.00  0.00     0.163 HD
BRANCH   6   8
ATOM      8  C   UNL     1       3.134  -0.712   1.005  1.00  0.00     0.067 C 
ATOM      9  C   UNL     1       4.345  -1.252   0.835  1.00  0.00     0.025 C 
ATOM     10  C   UNL     1       2.952   0.502   1.870  1.00  0.00     0.314 C 
ATOM     11  C   UNL     1       5.440  -0.294   0.828  1.00  0.00     0.018 A 
ATOM     12  O   UNL     1       4.020   1.476   1.734  1.00  0.00    -0.475 OA
ATOM     13  C   UNL     1       6.592  -0.637   0.113  1.00  0.00     0.025 A 
ATOM     14  C   UNL     1       5.198   1.039   1.185  1.00  0.00     0.128 A 
ATOM     15  C   UNL     1       7.472   0.364  -0.322  1.00  0.00     0.056 A 
ATOM     16  C   UNL     1       6.112   2.026   0.829  1.00  0.00     0.048 A 
ATOM     17  C   UNL     1       7.232   1.694   0.059  1.00  0.00     0.017 A 
BRANCH  10  18
ATOM     18  C   UNL     1       2.811   0.067   3.343  1.00  0.00     0.429 C 
ATOM     19  F   UNL     1       2.518   1.121   4.144  1.00  0.00    -0.167 F 
ATOM     20  F   UNL     1       1.821  -0.841   3.517  1.00  0.00    -0.167 F 
ATOM     21  F   UNL     1       3.948  -0.494   3.826  1.00  0.00    -0.167 F 
ENDBRANCH  10  18
BRANCH  15  22
ATOM     22  C   UNL     1       8.617   0.005  -1.239  1.00  0.00     0.416 C 
ATOM     23  F   UNL     1       9.732  -0.366  -0.558  1.00  0.00    -0.166 F 
ATOM     24  F   UNL     1       8.312  -1.040  -2.061  1.00  0.00    -0.166 F 
ATOM     25  F   UNL     1       8.983   1.023  -2.057  1.00  0.00    -0.166 F 
ENDBRANCH  15  22
ENDBRANCH   6   8
ENDBRANCH   3   4
ENDBRANCH   2   3
ENDBRANCH   1   2
BRANCH   1  26
ATOM     26  C   UNL     1       4.529   2.032  -4.271  1.00  0.00     0.116 C 
BRANCH  26  27
ATOM     27  N   UNL     1       5.969   2.092  -4.070  1.00  0.00    -0.352 N 
ATOM     28  C   UNL     1       6.890   2.935  -4.672  1.00  0.00     0.251 C 
ATOM     29  H   UNL     1       6.337   1.450  -3.421  1.00  0.00     0.163 HD
ATOM     30  O   UNL     1       8.070   2.867  -4.394  1.00  0.00    -0.269 OA
BRANCH  28  31
ATOM     31  C   UNL     1       6.414   3.874  -5.716  1.00  0.00     0.039 A 
ATOM     32  C   UNL     1       6.957   3.772  -6.999  1.00  0.00     0.014 A 
ATOM     33  C   UNL     1       5.353   4.744  -5.460  1.00  0.00     0.014 A 
ATOM     34  C   UNL     1       6.341   4.441  -8.059  1.00  0.00     0.010 A 
ATOM     35  C   UNL     1       4.696   5.348  -6.528  1.00  0.00     0.010 A 
ATOM     36  C   UNL     1       5.159   5.168  -7.842  1.00  0.00    -0.014 A 
BRANCH  36  37
ATOM     37  C   UNL     1       4.344   5.671  -8.979  1.00  0.00     0.031 A 
ATOM     38  C   UNL     1       4.100   7.143  -9.147  1.00  0.00     0.074 A 
ATOM     39  C   UNL     1       3.728   4.786  -9.791  1.00  0.00     0.049 A 
ATOM     40  N   UNL     1       3.326   7.762 -10.000  1.00  0.00    -0.248 NA
ATOM     41  C   UNL     1       4.792   8.031  -8.203  1.00  0.00     0.031 C 
ATOM     42  C   UNL     1       3.830   3.328  -9.684  1.00  0.00     0.029 A 
ATOM     43  N   UNL     1       2.876   4.978 -10.849  1.00  0.00    -0.354 N 
ATOM     44  C   UNL     1       3.424   9.113  -9.689  1.00  0.00     0.074 A 
ATOM     45  C   UNL     1       4.286   9.210  -8.528  1.00  0.00     0.031 C 
ATOM     46  C   UNL     1       3.079   2.761 -10.640  1.00  0.00     0.029 A 
ATOM     47  C   UNL     1       2.408   3.808 -11.402  1.00  0.00     0.049 A 
ATOM     48  H   UNL     1       2.623   5.869 -11.182  1.00  0.00     0.167 HD
ATOM     49  C   UNL     1       2.866  10.173 -10.325  1.00  0.00     0.034 A 
ATOM     50  C   UNL     1       1.522   3.598 -12.396  1.00  0.00     0.034 A 
ATOM     51  C   UNL     1       2.015  10.056 -11.485  1.00  0.00     0.049 A 
ATOM     52  C   UNL     1       0.908   4.787 -13.087  1.00  0.00     0.074 A 
ATOM     53  C   UNL     1       1.460  11.063 -12.255  1.00  0.00     0.029 A 
ATOM     54  N   UNL     1       1.582   8.854 -12.034  1.00  0.00    -0.354 N 
ATOM     55  N   UNL     1       1.071   6.063 -12.828  1.00  0.00    -0.248 NA
ATOM     56  C   UNL     1      -0.000   4.508 -14.206  1.00  0.00     0.031 C 
ATOM     57  C   UNL     1       0.645  10.473 -13.230  1.00  0.00     0.029 A 
ATOM     58  C   UNL     1       0.741   9.096 -13.110  1.00  0.00     0.049 A 
ATOM     59  H   UNL     1       1.837   7.961 -11.707  1.00  0.00     0.167 HD
ATOM     60  C   UNL     1       0.296   6.741 -13.764  1.00  0.00     0.074 A 
ATOM     61  C   UNL     1      -0.321   5.731 -14.601  1.00  0.00     0.031 C 
ATOM     62  C   UNL     1       0.114   8.077 -13.919  1.00  0.00     0.034 A 
BRANCH  49  63
ATOM     63  C   UNL     1       3.146  11.542  -9.753  1.00  0.00     0.023 A 
ATOM     64  C   UNL     1       4.453  12.057  -9.685  1.00  0.00     0.031 A 
ATOM     65  C   UNL     1       2.106  12.319  -9.215  1.00  0.00     0.131 A 
ATOM     66  C   UNL     1       4.699  13.261  -9.009  1.00  0.00     0.055 A 
ATOM     67  C   UNL     1       2.346  13.560  -8.621  1.00  0.00     0.041 A 
ATOM     68  F   UNL     1       0.839  11.874  -9.234  1.00  0.00    -0.206 F 
ATOM     69  C   UNL     1       3.651  14.028  -8.497  1.00  0.00     0.022 A 
BRANCH  66  70
ATOM     70  S   UNL     1       6.419  13.719  -8.662  1.00  0.00     0.124 S 
ATOM     71  O   UNL     1       6.887  12.556  -7.910  1.00  0.00    -0.237 OA
ATOM     72  O   UNL     1       6.978  13.882  -9.999  1.00  0.00    -0.237 OA
ATOM     73  O   UNL     1       6.296  14.948  -7.881  1.00  0.00    -0.744 OA
ENDBRANCH  66  70
ENDBRANCH  49  63
BRANCH  50  74
ATOM     74  C   UNL     1       1.142   2.210 -12.781  1.00  0.00     0.023 A 
ATOM     75  C   UNL     1       1.514   1.672 -14.023  1.00  0.00     0.031 A 
ATOM     76  C   UNL     1       0.385   1.405 -11.911  1.00  0.00     0.131 A 
ATOM     77  C   UNL     1       1.099   0.378 -14.375  1.00  0.00     0.055 A 
ATOM     78  C   UNL     1       0.010   0.104 -12.249  1.00  0.00     0.041 A 
ATOM     79  F   UNL     1       0.015   1.869 -10.706  1.00  0.00    -0.206 F 
ATOM     80  C   UNL     1       0.359  -0.413 -13.493  1.00  0.00     0.022 A 
BRANCH  77  81
ATOM     81  S   UNL     1       1.496  -0.241 -16.033  1.00  0.00     0.124 S 
ATOM     82  O   UNL     1       0.836   0.742 -16.885  1.00  0.00    -0.237 OA
ATOM     83  O   UNL     1       2.955  -0.208 -16.026  1.00  0.00    -0.237 OA
ATOM     84  O   UNL     1       0.906  -1.578 -16.048  1.00  0.00    -0.744 OA
ENDBRANCH  77  81
ENDBRANCH  50  74
BRANCH  62  85
ATOM     85  C   UNL     1      -0.773   8.514 -15.057  1.00  0.00     0.023 A 
ATOM     86  C   UNL     1      -2.161   8.295 -15.034  1.00  0.00     0.031 A 
ATOM     87  C   UNL     1      -0.219   9.152 -16.180  1.00  0.00     0.131 A 
ATOM     88  C   UNL     1      -2.945   8.672 -16.134  1.00  0.00     0.055 A 
ATOM     89  C   UNL     1      -1.010   9.570 -17.250  1.00  0.00     0.041 A 
ATOM     90  F   UNL     1       1.102   9.382 -16.252  1.00  0.00    -0.206 F 
ATOM     91  C   UNL     1      -2.380   9.322 -17.236  1.00  0.00     0.022 A 
BRANCH  88  92
ATOM     92  S   UNL     1      -4.707   8.243 -16.139  1.00  0.00     0.124 S 
ATOM     93  O   UNL     1      -4.663   6.785 -16.082  1.00  0.00    -0.237 OA
ATOM     94  O   UNL     1      -5.196   8.913 -14.939  1.00  0.00    -0.237 OA
ATOM     95  O   UNL     1      -5.192   8.800 -17.400  1.00  0.00    -0.744 OA
ENDBRANCH  88  92
ENDBRANCH  62  85
ENDBRANCH  36  37
ENDBRANCH  28  31
ENDBRANCH  26  27
ENDBRANCH   1  26
TORSDOF 16
