REMARK SMILES COc1cc2ccccc2cc1C(=O)Nc1cc(C(=O)NCCCCNC(=O)c2ccc(-c3c4nc(c(-c5cc(S(=O)(=O)[O-])ccc5F)c5ccc([nH]5)c(-c5cc(S(=O)(=O)[O-])ccc5F)c5nc(c(-c6cc(S(=O)(=O)[O-])ccc6F)c6ccc3[nH]6)C=C5)C=C4)cc2)ccc1C
REMARK SMILES IDX 23 1 22 2 21 3 19 4 20 5 18 7 16 8 17 9 94 10 93 11 95 12
REMARK SMILES IDX 92 13 15 14 13 15 14 16 12 18 3 19 4 20 5 21 11 22 6 23
REMARK SMILES IDX 10 24 7 25 9 26 8 27 2 28 1 29 24 30 25 31 26 32 27 33 28 35
REMARK SMILES IDX 29 36 30 37 91 38 31 39 90 40 32 41 33 42 34 43 84 44 35 45
REMARK SMILES IDX 89 46 83 47 85 48 36 49 88 50 82 51 81 52 37 54 69 55 49 56
REMARK SMILES IDX 68 57 50 58 53 59 67 60 86 61 51 62 52 63 66 65 87 66 54 67
REMARK SMILES IDX 38 68 39 69 47 70 40 71 46 72 48 73 45 74 41 75 42 76 43 77
REMARK SMILES IDX 44 78 70 79 71 80 79 81 72 82 78 83 80 84 77 85 73 86 74 87
REMARK SMILES IDX 75 88 76 89 55 90 56 91 64 92 57 93 63 94 65 95 62 96 58 97
REMARK SMILES IDX 59 98 60 99 61 100
REMARK H PARENT 21 6 15 17 26 34 85 53 53 64
REMARK Flexibility Score: inf
ROOT
ATOM      1  C   UNL     1       1.679   5.017   2.036  1.00  0.00     0.023 C 
ENDROOT
BRANCH   1   2
ATOM      2  C   UNL     1       0.515   4.076   2.382  1.00  0.00     0.116 C 
BRANCH   2   3
ATOM      3  N   UNL     1      -0.603   4.236   1.468  1.00  0.00    -0.352 N 
ATOM      4  C   UNL     1      -0.894   3.731   0.226  1.00  0.00     0.251 C 
ATOM      5  O   UNL     1      -1.957   4.105  -0.281  1.00  0.00    -0.269 OA
ATOM      6  H   UNL     1      -1.302   4.837   1.814  1.00  0.00     0.163 HD
BRANCH   4   7
ATOM      7  C   UNL     1      -0.049   2.753  -0.530  1.00  0.00     0.041 A 
ATOM      8  C   UNL     1       1.798   1.186  -0.773  1.00  0.00     0.045 A 
ATOM      9  C   UNL     1       1.188   2.267  -0.122  1.00  0.00     0.040 A 
ATOM     10  C   UNL     1       1.307   0.720  -2.000  1.00  0.00    -0.027 A 
ATOM     11  C   UNL     1       0.087   1.241  -2.450  1.00  0.00     0.006 A 
ATOM     12  C   UNL     1       1.900  -0.451  -2.729  1.00  0.00     0.046 C 
ATOM     13  C   UNL     1      -0.595   2.215  -1.708  1.00  0.00     0.014 A 
BRANCH   8  14
ATOM     14  N   UNL     1       2.799   0.464  -0.100  1.00  0.00    -0.322 N 
ATOM     15  C   UNL     1       2.736  -0.043   1.192  1.00  0.00     0.259 C 
ATOM     16  O   UNL     1       3.678  -0.709   1.619  1.00  0.00    -0.269 OA
ATOM     17  H   UNL     1       3.633   0.300  -0.597  1.00  0.00     0.170 HD
BRANCH  15  18
ATOM     18  C   UNL     1       1.506   0.086   2.024  1.00  0.00     0.082 A 
ATOM     19  C   UNL     1       0.226  -0.253   1.558  1.00  0.00     0.132 A 
ATOM     20  C   UNL     1      -0.913   0.044   2.306  1.00  0.00     0.056 A 
ATOM     21  C   UNL     1      -0.795   0.582   3.583  1.00  0.00    -0.015 A 
ATOM     22  C   UNL     1       1.640   0.576   3.328  1.00  0.00     0.026 A 
ATOM     23  C   UNL     1      -1.942   0.864   4.342  1.00  0.00     0.009 A 
ATOM     24  C   UNL     1       0.495   0.831   4.109  1.00  0.00    -0.017 A 
ATOM     25  C   UNL     1      -1.825   1.388   5.620  1.00  0.00     0.001 A 
ATOM     26  C   UNL     1       0.592   1.366   5.394  1.00  0.00     0.009 A 
ATOM     27  C   UNL     1      -0.562   1.649   6.130  1.00  0.00     0.001 A 
BRANCH  19  28
ATOM     28  O   UNL     1      -0.022  -0.840   0.344  1.00  0.00    -0.496 OA
ATOM     29  C   UNL     1       0.376  -2.206   0.365  1.00  0.00     0.278 C 
ENDBRANCH  19  28
ENDBRANCH  15  18
ENDBRANCH   8  14
ENDBRANCH   4   7
ENDBRANCH   2   3
ENDBRANCH   1   2
BRANCH   1  30
ATOM     30  C   UNL     1       1.438   6.456   2.500  1.00  0.00     0.023 C 
BRANCH  30  31
ATOM     31  C   UNL     1       1.515   6.584   4.016  1.00  0.00     0.116 C 
BRANCH  31  32
ATOM     32  N   UNL     1       2.733   7.174   4.535  1.00  0.00    -0.352 N 
ATOM     33  C   UNL     1       3.146   7.335   5.850  1.00  0.00     0.251 C 
ATOM     34  H   UNL     1       3.360   7.510   3.854  1.00  0.00     0.163 HD
ATOM     35  O   UNL     1       4.122   8.024   6.093  1.00  0.00    -0.269 OA
BRANCH  33  36
ATOM     36  C   UNL     1       2.466   6.605   6.962  1.00  0.00     0.039 A 
ATOM     37  C   UNL     1       3.250   6.189   8.053  1.00  0.00     0.014 A 
ATOM     38  C   UNL     1       1.135   6.213   6.898  1.00  0.00     0.014 A 
ATOM     39  C   UNL     1       2.755   5.246   8.957  1.00  0.00     0.010 A 
ATOM     40  C   UNL     1       0.684   5.195   7.707  1.00  0.00     0.010 A 
ATOM     41  C   UNL     1       1.502   4.691   8.718  1.00  0.00    -0.014 A 
BRANCH  41  42
ATOM     42  C   UNL     1       0.961   3.528   9.403  1.00  0.00     0.031 A 
ATOM     43  C   UNL     1      -0.174   3.676  10.329  1.00  0.00     0.074 A 
ATOM     44  C   UNL     1       1.320   2.309   8.949  1.00  0.00     0.049 A 
ATOM     45  N   UNL     1      -0.589   2.747  11.113  1.00  0.00    -0.248 NA
ATOM     46  C   UNL     1      -0.954   4.904  10.435  1.00  0.00     0.031 C 
ATOM     47  C   UNL     1       0.648   1.026   9.158  1.00  0.00     0.029 A 
ATOM     48  N   UNL     1       2.458   1.964   8.236  1.00  0.00    -0.354 N 
ATOM     49  C   UNL     1      -1.825   3.114  11.585  1.00  0.00     0.074 A 
ATOM     50  C   UNL     1      -1.984   4.491  11.179  1.00  0.00     0.031 C 
ATOM     51  C   UNL     1       1.492   0.033   8.832  1.00  0.00     0.029 A 
ATOM     52  C   UNL     1       2.783   0.654   8.600  1.00  0.00     0.049 A 
ATOM     53  H   UNL     1       2.944   2.533   7.596  1.00  0.00     0.167 HD
ATOM     54  C   UNL     1      -2.625   2.165  12.151  1.00  0.00     0.034 A 
ATOM     55  C   UNL     1       3.925   0.361   9.287  1.00  0.00     0.034 A 
ATOM     56  C   UNL     1      -1.964   0.855  12.150  1.00  0.00     0.049 A 
ATOM     57  C   UNL     1       3.552  -0.209  10.645  1.00  0.00     0.074 A 
ATOM     58  C   UNL     1      -2.116  -0.278  11.366  1.00  0.00     0.029 A 
ATOM     59  N   UNL     1      -0.761   0.693  12.839  1.00  0.00    -0.354 N 
ATOM     60  N   UNL     1       2.445   0.084  11.284  1.00  0.00    -0.248 NA
ATOM     61  C   UNL     1       4.324  -1.250  11.310  1.00  0.00     0.031 C 
ATOM     62  C   UNL     1      -0.949  -1.077  11.523  1.00  0.00     0.029 A 
ATOM     63  C   UNL     1      -0.105  -0.452  12.429  1.00  0.00     0.049 A 
ATOM     64  H   UNL     1      -0.424   1.313  13.526  1.00  0.00     0.167 HD
ATOM     65  C   UNL     1       2.280  -0.791  12.328  1.00  0.00     0.074 A 
ATOM     66  C   UNL     1       3.511  -1.570  12.333  1.00  0.00     0.031 C 
ATOM     67  C   UNL     1       1.131  -0.887  13.069  1.00  0.00     0.034 A 
BRANCH  54  68
ATOM     68  C   UNL     1      -4.095   2.372  12.448  1.00  0.00     0.023 A 
ATOM     69  C   UNL     1      -4.983   1.276  12.415  1.00  0.00     0.031 A 
ATOM     70  C   UNL     1      -4.684   3.613  12.761  1.00  0.00     0.131 A 
ATOM     71  C   UNL     1      -6.371   1.448  12.589  1.00  0.00     0.055 A 
ATOM     72  C   UNL     1      -6.070   3.797  12.868  1.00  0.00     0.041 A 
ATOM     73  F   UNL     1      -3.941   4.694  13.037  1.00  0.00    -0.206 F 
ATOM     74  C   UNL     1      -6.924   2.711  12.773  1.00  0.00     0.022 A 
BRANCH  71  75
ATOM     75  S   UNL     1      -7.451  -0.011  12.605  1.00  0.00     0.124 S 
ATOM     76  O   UNL     1      -7.241  -0.566  11.272  1.00  0.00    -0.237 OA
ATOM     77  O   UNL     1      -6.912  -0.783  13.719  1.00  0.00    -0.237 OA
ATOM     78  O   UNL     1      -8.781   0.553  12.835  1.00  0.00    -0.744 OA
ENDBRANCH  71  75
ENDBRANCH  54  68
BRANCH  55  79
ATOM     79  C   UNL     1       5.054   1.280   8.939  1.00  0.00     0.023 A 
ATOM     80  C   UNL     1       5.414   1.328   7.568  1.00  0.00     0.031 A 
ATOM     81  C   UNL     1       5.395   2.382   9.736  1.00  0.00     0.131 A 
ATOM     82  C   UNL     1       5.895   2.518   7.000  1.00  0.00     0.055 A 
ATOM     83  C   UNL     1       5.954   3.541   9.173  1.00  0.00     0.041 A 
ATOM     84  F   UNL     1       5.047   2.424  11.030  1.00  0.00    -0.206 F 
ATOM     85  C   UNL     1       6.162   3.632   7.794  1.00  0.00     0.022 A 
BRANCH  82  86
ATOM     86  S   UNL     1       5.908   2.659   5.183  1.00  0.00     0.124 S 
ATOM     87  O   UNL     1       6.884   1.642   4.808  1.00  0.00    -0.237 OA
ATOM     88  O   UNL     1       4.516   2.372   4.846  1.00  0.00    -0.237 OA
ATOM     89  O   UNL     1       6.321   4.039   4.946  1.00  0.00    -0.744 OA
ENDBRANCH  82  86
ENDBRANCH  55  79
BRANCH  67  90
ATOM     90  C   UNL     1       1.034  -1.541  14.432  1.00  0.00     0.023 A 
ATOM     91  C   UNL     1       2.161  -1.868  15.195  1.00  0.00     0.031 A 
ATOM     92  C   UNL     1      -0.216  -1.736  15.074  1.00  0.00     0.131 A 
ATOM     93  C   UNL     1       2.037  -2.437  16.473  1.00  0.00     0.055 A 
ATOM     94  C   UNL     1      -0.335  -2.219  16.380  1.00  0.00     0.041 A 
ATOM     95  F   UNL     1      -1.380  -1.443  14.477  1.00  0.00    -0.206 F 
ATOM     96  C   UNL     1       0.797  -2.589  17.085  1.00  0.00     0.022 A 
BRANCH  93  97
ATOM     97  S   UNL     1       3.542  -3.022  17.288  1.00  0.00     0.124 S 
ATOM     98  O   UNL     1       3.949  -4.114  16.408  1.00  0.00    -0.237 OA
ATOM     99  O   UNL     1       4.395  -1.838  17.262  1.00  0.00    -0.237 OA
ATOM    100  O   UNL     1       3.080  -3.428  18.613  1.00  0.00    -0.744 OA
ENDBRANCH  93  97
ENDBRANCH  67  90
ENDBRANCH  41  42
ENDBRANCH  33  36
ENDBRANCH  31  32
ENDBRANCH  30  31
ENDBRANCH   1  30
TORSDOF 17
