REMARK SMILES O=C(COCCNC(=O)C1CCCC1)NCCCCNC(=O)c1ccc(-c2c3nc(c(-c4cc(S(=O)(=O)[O-])ccc4F)c4ccc([nH]4)c(-c4cc(S(=O)(=O)[O-])ccc4F)c4nc(c(-c5cc(S(=O)(=O)[O-])ccc5F)c5ccc2[nH]5)C=C4)C=C3)cc1
REMARK SMILES IDX 16 1 15 2 1 3 2 4 3 6 4 7 5 8 6 9 7 10 8 11 9 13 10 14 11 15
REMARK SMILES IDX 14 16 12 17 13 18 17 19 18 20 19 21 20 22 21 23 22 25 23 26
REMARK SMILES IDX 24 27 85 28 25 29 84 30 26 31 27 32 28 33 78 34 29 35 83 36
REMARK SMILES IDX 77 37 79 38 30 39 82 40 76 41 75 42 31 44 63 45 43 46 62 47
REMARK SMILES IDX 44 48 47 49 61 50 80 51 45 52 46 53 60 55 81 56 48 57 32 58
REMARK SMILES IDX 33 59 41 60 34 61 40 62 42 63 39 64 35 65 36 66 37 67 38 68
REMARK SMILES IDX 64 69 65 70 73 71 66 72 72 73 74 74 71 75 67 76 68 77 69 78
REMARK SMILES IDX 70 79 49 80 50 81 58 82 51 83 57 84 59 85 56 86 52 87 53 88
REMARK SMILES IDX 54 89 55 90
REMARK H PARENT 15 5 7 12 20 24 79 43 47 54
REMARK Flexibility Score: inf
ROOT
ATOM      1  C   UNL     1       2.175   1.772  -1.830  1.00  0.00     0.116 C 
ENDROOT
BRANCH   1   2
ATOM      2  N   UNL     1       2.930   0.885  -0.971  1.00  0.00    -0.354 N 
ATOM      3  O   UNL     1       1.332   0.721   0.674  1.00  0.00    -0.272 OA
ATOM      4  C   UNL     1       2.438   0.431   0.233  1.00  0.00     0.245 C 
ATOM      5  H   UNL     1       3.827   0.597  -1.257  1.00  0.00     0.163 HD
BRANCH   4   6
ATOM      6  C   UNL     1       3.422  -0.463   0.998  1.00  0.00     0.260 C 
BRANCH   6   7
ATOM      7  O   UNL     1       3.993  -1.556   0.296  1.00  0.00    -0.370 OA
BRANCH   7   8
ATOM      8  C   UNL     1       3.065  -2.431  -0.352  1.00  0.00     0.182 C 
BRANCH   8   9
ATOM      9  C   UNL     1       2.223  -3.303   0.594  1.00  0.00     0.144 C 
BRANCH   9  10
ATOM     10  N   UNL     1       1.084  -2.605   1.177  1.00  0.00    -0.354 N 
ATOM     11  C   UNL     1      -0.246  -2.629   0.911  1.00  0.00     0.223 C 
ATOM     12  H   UNL     1       1.329  -1.994   1.909  1.00  0.00     0.163 HD
ATOM     13  O   UNL     1      -0.979  -1.950   1.637  1.00  0.00    -0.275 OA
BRANCH  11  14
ATOM     14  C   UNL     1      -0.866  -3.508  -0.161  1.00  0.00     0.078 C 
ATOM     15  C   UNL     1      -0.323  -3.358  -1.574  1.00  0.00     0.013 C 
ATOM     16  C   UNL     1      -0.782  -4.996   0.174  1.00  0.00     0.013 C 
ATOM     17  C   UNL     1      -0.678  -4.671  -2.250  1.00  0.00     0.001 C 
ATOM     18  C   UNL     1      -0.624  -5.727  -1.154  1.00  0.00     0.001 C 
ENDBRANCH  11  14
ENDBRANCH   9  10
ENDBRANCH   8   9
ENDBRANCH   7   8
ENDBRANCH   6   7
ENDBRANCH   4   6
ENDBRANCH   1   2
BRANCH   1  19
ATOM     19  C   UNL     1       2.514   3.241  -1.583  1.00  0.00     0.023 C 
BRANCH  19  20
ATOM     20  C   UNL     1       3.993   3.595  -1.760  1.00  0.00     0.023 C 
BRANCH  20  21
ATOM     21  C   UNL     1       4.597   3.223  -3.110  1.00  0.00     0.116 C 
BRANCH  21  22
ATOM     22  N   UNL     1       3.977   3.931  -4.218  1.00  0.00    -0.352 N 
ATOM     23  C   UNL     1       4.568   4.654  -5.230  1.00  0.00     0.251 C 
ATOM     24  H   UNL     1       2.994   3.887  -4.250  1.00  0.00     0.163 HD
ATOM     25  O   UNL     1       3.869   5.317  -5.987  1.00  0.00    -0.269 OA
BRANCH  23  26
ATOM     26  C   UNL     1       6.042   4.656  -5.378  1.00  0.00     0.039 A 
ATOM     27  C   UNL     1       6.694   5.870  -5.609  1.00  0.00     0.014 A 
ATOM     28  C   UNL     1       6.782   3.474  -5.285  1.00  0.00     0.014 A 
ATOM     29  C   UNL     1       8.090   5.907  -5.675  1.00  0.00     0.010 A 
ATOM     30  C   UNL     1       8.175   3.525  -5.273  1.00  0.00     0.010 A 
ATOM     31  C   UNL     1       8.846   4.742  -5.465  1.00  0.00    -0.014 A 
BRANCH  31  32
ATOM     32  C   UNL     1      10.334   4.783  -5.439  1.00  0.00     0.031 A 
ATOM     33  C   UNL     1      11.133   4.018  -6.460  1.00  0.00     0.074 A 
ATOM     34  C   UNL     1      10.968   5.465  -4.463  1.00  0.00     0.049 A 
ATOM     35  N   UNL     1      12.430   3.869  -6.555  1.00  0.00    -0.248 NA
ATOM     36  C   UNL     1      10.370   3.303  -7.493  1.00  0.00     0.031 C 
ATOM     37  C   UNL     1      10.307   6.219  -3.395  1.00  0.00     0.029 A 
ATOM     38  N   UNL     1      12.306   5.631  -4.202  1.00  0.00    -0.354 N 
ATOM     39  C   UNL     1      12.639   3.041  -7.653  1.00  0.00     0.074 A 
ATOM     40  C   UNL     1      11.330   2.666  -8.146  1.00  0.00     0.031 C 
ATOM     41  C   UNL     1      11.239   6.785  -2.613  1.00  0.00     0.029 A 
ATOM     42  C   UNL     1      12.564   6.394  -3.085  1.00  0.00     0.049 A 
ATOM     43  H   UNL     1      13.015   5.241  -4.763  1.00  0.00     0.167 HD
ATOM     44  C   UNL     1      13.811   2.652  -8.214  1.00  0.00     0.034 A 
ATOM     45  C   UNL     1      13.730   6.725  -2.496  1.00  0.00     0.034 A 
ATOM     46  C   UNL     1      15.108   3.035  -7.712  1.00  0.00     0.049 A 
ATOM     47  C   UNL     1      15.021   6.241  -3.110  1.00  0.00     0.074 A 
ATOM     48  C   UNL     1      16.357   2.730  -8.227  1.00  0.00     0.029 A 
ATOM     49  N   UNL     1      15.329   3.800  -6.573  1.00  0.00    -0.354 N 
ATOM     50  N   UNL     1      15.200   5.494  -4.175  1.00  0.00    -0.248 NA
ATOM     51  C   UNL     1      16.266   6.653  -2.449  1.00  0.00     0.031 C 
ATOM     52  C   UNL     1      17.328   3.240  -7.360  1.00  0.00     0.029 A 
ATOM     53  C   UNL     1      16.691   3.945  -6.352  1.00  0.00     0.049 A 
ATOM     54  H   UNL     1      14.622   4.184  -6.005  1.00  0.00     0.167 HD
ATOM     55  C   UNL     1      16.579   5.378  -4.329  1.00  0.00     0.074 A 
ATOM     56  C   UNL     1      17.182   6.144  -3.258  1.00  0.00     0.031 C 
ATOM     57  C   UNL     1      17.284   4.703  -5.274  1.00  0.00     0.034 A 
BRANCH  44  58
ATOM     58  C   UNL     1      13.738   1.744  -9.421  1.00  0.00     0.023 A 
ATOM     59  C   UNL     1      13.119   2.153 -10.616  1.00  0.00     0.031 A 
ATOM     60  C   UNL     1      14.274   0.445  -9.372  1.00  0.00     0.131 A 
ATOM     61  C   UNL     1      12.982   1.249 -11.680  1.00  0.00     0.055 A 
ATOM     62  C   UNL     1      14.214  -0.419 -10.468  1.00  0.00     0.041 A 
ATOM     63  F   UNL     1      14.858  -0.013  -8.253  1.00  0.00    -0.206 F 
ATOM     64  C   UNL     1      13.551  -0.025 -11.626  1.00  0.00     0.022 A 
BRANCH  61  65
ATOM     65  S   UNL     1      11.916   1.710 -13.074  1.00  0.00     0.124 S 
ATOM     66  O   UNL     1      10.641   1.949 -12.402  1.00  0.00    -0.237 OA
ATOM     67  O   UNL     1      12.588   2.889 -13.608  1.00  0.00    -0.237 OA
ATOM     68  O   UNL     1      11.947   0.529 -13.933  1.00  0.00    -0.744 OA
ENDBRANCH  61  65
ENDBRANCH  44  58
BRANCH  45  69
ATOM     69  C   UNL     1      13.741   7.538  -1.244  1.00  0.00     0.023 A 
ATOM     70  C   UNL     1      14.344   8.805  -1.204  1.00  0.00     0.031 A 
ATOM     71  C   UNL     1      13.191   7.035  -0.050  1.00  0.00     0.131 A 
ATOM     72  C   UNL     1      14.430   9.503   0.011  1.00  0.00     0.055 A 
ATOM     73  C   UNL     1      13.223   7.760   1.142  1.00  0.00     0.041 A 
ATOM     74  F   UNL     1      12.603   5.828  -0.029  1.00  0.00    -0.206 F 
ATOM     75  C   UNL     1      13.859   8.996   1.181  1.00  0.00     0.022 A 
BRANCH  72  76
ATOM     76  S   UNL     1      15.390  11.041   0.064  1.00  0.00     0.124 S 
ATOM     77  O   UNL     1      16.698  10.589  -0.394  1.00  0.00    -0.237 OA
ATOM     78  O   UNL     1      14.646  11.894  -0.858  1.00  0.00    -0.237 OA
ATOM     79  O   UNL     1      15.322  11.436   1.469  1.00  0.00    -0.744 OA
ENDBRANCH  72  76
ENDBRANCH  45  69
BRANCH  57  80
ATOM     80  C   UNL     1      18.790   4.806  -5.217  1.00  0.00     0.023 A 
ATOM     81  C   UNL     1      19.533   4.278  -4.146  1.00  0.00     0.031 A 
ATOM     82  C   UNL     1      19.492   5.454  -6.250  1.00  0.00     0.131 A 
ATOM     83  C   UNL     1      20.924   4.458  -4.104  1.00  0.00     0.055 A 
ATOM     84  C   UNL     1      20.883   5.570  -6.236  1.00  0.00     0.041 A 
ATOM     85  F   UNL     1      18.836   5.983  -7.295  1.00  0.00    -0.206 F 
ATOM     86  C   UNL     1      21.606   5.082  -5.152  1.00  0.00     0.022 A 
BRANCH  83  87
ATOM     87  S   UNL     1      21.823   3.954  -2.611  1.00  0.00     0.124 S 
ATOM     88  O   UNL     1      21.156   4.739  -1.577  1.00  0.00    -0.237 OA
ATOM     89  O   UNL     1      21.584   2.515  -2.573  1.00  0.00    -0.237 OA
ATOM     90  O   UNL     1      23.203   4.345  -2.893  1.00  0.00    -0.744 OA
ENDBRANCH  83  87
ENDBRANCH  57  80
ENDBRANCH  31  32
ENDBRANCH  23  26
ENDBRANCH  21  22
ENDBRANCH  20  21
ENDBRANCH  19  20
ENDBRANCH   1  19
TORSDOF 19
