REMARK SMILES C[C@@H](C(=O)NCCCCNC(=O)c1ccc(-c2c3nc(c(-c4cc(S(=O)(=O)[O-])ccc4F)c4ccc([nH]4)c(-c4cc(S(=O)(=O)[O-])ccc4F)c4nc(c(-c5cc(S(=O)(=O)[O-])ccc5F)c5ccc2[nH]5)C=C4)C=C3)cc1)N1C(=O)c2nccnc2C1=O
REMARK SMILES IDX 8 1 7 2 6 3 5 4 3 5 4 6 2 8 1 9 76 10 77 11 85 12 78 13
REMARK SMILES IDX 79 14 84 15 86 16 80 17 83 18 81 19 82 20 9 21 10 22 11 23
REMARK SMILES IDX 12 25 13 26 14 27 75 28 15 29 74 30 16 31 17 32 18 33 68 34
REMARK SMILES IDX 19 35 73 36 67 37 69 38 20 39 72 40 66 41 65 42 21 44 53 45
REMARK SMILES IDX 33 46 52 47 34 48 37 49 51 50 70 51 35 52 36 53 50 55 71 56
REMARK SMILES IDX 38 57 22 58 23 59 31 60 24 61 30 62 32 63 29 64 25 65 26 66
REMARK SMILES IDX 27 67 28 68 54 69 55 70 63 71 56 72 62 73 64 74 61 75 57 76
REMARK SMILES IDX 58 77 59 78 60 79 39 80 40 81 48 82 41 83 47 84 49 85 46 86
REMARK SMILES IDX 42 87 43 88 44 89 45 90
REMARK H PARENT 5 7 10 24 69 43 37 54
REMARK Flexibility Score: inf
ROOT
ATOM      1  C   UNL     1       4.948  -0.576   2.545  1.00  0.00     0.023 C 
ENDROOT
BRANCH   1   2
ATOM      2  C   UNL     1       4.125  -0.394   1.267  1.00  0.00     0.023 C 
BRANCH   2   3
ATOM      3  C   UNL     1       3.267  -1.599   0.882  1.00  0.00     0.116 C 
BRANCH   3   4
ATOM      4  N   UNL     1       2.177  -1.804   1.818  1.00  0.00    -0.354 N 
ATOM      5  C   UNL     1       0.833  -1.622   1.644  1.00  0.00     0.243 C 
ATOM      6  O   UNL     1       0.086  -1.922   2.580  1.00  0.00    -0.273 OA
ATOM      7  H   UNL     1       2.445  -2.121   2.710  1.00  0.00     0.163 HD
BRANCH   5   8
ATOM      8  C   UNL     1       0.295  -1.082   0.304  1.00  0.00     0.180 C 
ATOM      9  C   UNL     1       0.687   0.369   0.040  1.00  0.00     0.042 C 
BRANCH   8  10
ATOM     10  N   UNL     1      -1.156  -1.281   0.274  1.00  0.00    -0.259 N 
ATOM     11  C   UNL     1      -2.088  -0.457   0.858  1.00  0.00     0.282 C 
ATOM     12  C   UNL     1      -1.743  -2.393  -0.273  1.00  0.00     0.282 C 
ATOM     13  O   UNL     1      -1.920   0.603   1.428  1.00  0.00    -0.267 OA
ATOM     14  C   UNL     1      -3.391  -1.076   0.616  1.00  0.00     0.160 A 
ATOM     15  C   UNL     1      -3.183  -2.244  -0.068  1.00  0.00     0.160 A 
ATOM     16  O   UNL     1      -1.199  -3.318  -0.851  1.00  0.00    -0.267 OA
ATOM     17  N   UNL     1      -4.608  -0.564   0.890  1.00  0.00    -0.247 NA
ATOM     18  N   UNL     1      -4.170  -3.027  -0.550  1.00  0.00    -0.247 NA
ATOM     19  C   UNL     1      -5.620  -1.344   0.431  1.00  0.00     0.132 A 
ATOM     20  C   UNL     1      -5.408  -2.540  -0.269  1.00  0.00     0.132 A 
ENDBRANCH   8  10
ENDBRANCH   5   8
ENDBRANCH   3   4
ENDBRANCH   2   3
ENDBRANCH   1   2
BRANCH   1  21
ATOM     21  C   UNL     1       5.941  -1.734   2.524  1.00  0.00     0.116 C 
BRANCH  21  22
ATOM     22  N   UNL     1       6.937  -1.604   1.473  1.00  0.00    -0.352 N 
ATOM     23  C   UNL     1       8.299  -1.777   1.533  1.00  0.00     0.251 C 
ATOM     24  H   UNL     1       6.584  -1.356   0.588  1.00  0.00     0.163 HD
ATOM     25  O   UNL     1       8.985  -1.466   0.562  1.00  0.00    -0.269 OA
BRANCH  23  26
ATOM     26  C   UNL     1       8.940  -2.296   2.765  1.00  0.00     0.039 A 
ATOM     27  C   UNL     1      10.136  -1.716   3.193  1.00  0.00     0.014 A 
ATOM     28  C   UNL     1       8.379  -3.350   3.494  1.00  0.00     0.014 A 
ATOM     29  C   UNL     1      10.733  -2.148   4.380  1.00  0.00     0.010 A 
ATOM     30  C   UNL     1       8.931  -3.722   4.720  1.00  0.00     0.010 A 
ATOM     31  C   UNL     1      10.116  -3.127   5.177  1.00  0.00    -0.014 A 
BRANCH  31  32
ATOM     32  C   UNL     1      10.708  -3.526   6.484  1.00  0.00     0.031 A 
ATOM     33  C   UNL     1      11.177  -4.939   6.714  1.00  0.00     0.074 A 
ATOM     34  C   UNL     1      10.804  -2.617   7.476  1.00  0.00     0.049 A 
ATOM     35  N   UNL     1      11.704  -5.472   7.787  1.00  0.00    -0.248 NA
ATOM     36  C   UNL     1      11.008  -5.884   5.599  1.00  0.00     0.031 C 
ATOM     37  C   UNL     1      10.343  -1.228   7.394  1.00  0.00     0.029 A 
ATOM     38  N   UNL     1      11.320  -2.717   8.744  1.00  0.00    -0.354 N 
ATOM     39  C   UNL     1      11.940  -6.806   7.474  1.00  0.00     0.074 A 
ATOM     40  C   UNL     1      11.421  -7.020   6.140  1.00  0.00     0.031 C 
ATOM     41  C   UNL     1      10.630  -0.600   8.544  1.00  0.00     0.029 A 
ATOM     42  C   UNL     1      11.247  -1.547   9.467  1.00  0.00     0.049 A 
ATOM     43  H   UNL     1      11.707  -3.547   9.104  1.00  0.00     0.167 HD
ATOM     44  C   UNL     1      12.563  -7.758   8.215  1.00  0.00     0.034 A 
ATOM     45  C   UNL     1      11.622  -1.269  10.732  1.00  0.00     0.034 A 
ATOM     46  C   UNL     1      13.070  -7.535   9.548  1.00  0.00     0.049 A 
ATOM     47  C   UNL     1      12.268  -2.359  11.553  1.00  0.00     0.074 A 
ATOM     48  C   UNL     1      13.733  -8.423  10.377  1.00  0.00     0.029 A 
ATOM     49  N   UNL     1      12.966  -6.342  10.252  1.00  0.00    -0.354 N 
ATOM     50  N   UNL     1      12.527  -3.603  11.221  1.00  0.00    -0.248 NA
ATOM     51  C   UNL     1      12.689  -2.001  12.913  1.00  0.00     0.031 C 
ATOM     52  C   UNL     1      13.963  -7.792  11.604  1.00  0.00     0.029 A 
ATOM     53  C   UNL     1      13.527  -6.481  11.513  1.00  0.00     0.049 A 
ATOM     54  H   UNL     1      12.553  -5.517   9.906  1.00  0.00     0.167 HD
ATOM     55  C   UNL     1      13.172  -4.163  12.321  1.00  0.00     0.074 A 
ATOM     56  C   UNL     1      13.287  -3.113  13.311  1.00  0.00     0.031 C 
ATOM     57  C   UNL     1      13.629  -5.429  12.498  1.00  0.00     0.034 A 
BRANCH  44  58
ATOM     58  C   UNL     1      12.718  -9.128   7.597  1.00  0.00     0.023 A 
ATOM     59  C   UNL     1      13.469  -9.323   6.423  1.00  0.00     0.031 A 
ATOM     60  C   UNL     1      12.103 -10.253   8.175  1.00  0.00     0.131 A 
ATOM     61  C   UNL     1      13.525 -10.591   5.827  1.00  0.00     0.055 A 
ATOM     62  C   UNL     1      12.236 -11.530   7.624  1.00  0.00     0.041 A 
ATOM     63  F   UNL     1      11.355 -10.130   9.283  1.00  0.00    -0.206 F 
ATOM     64  C   UNL     1      12.938 -11.702   6.435  1.00  0.00     0.022 A 
BRANCH  61  65
ATOM     65  S   UNL     1      14.252 -10.736   4.172  1.00  0.00     0.124 S 
ATOM     66  O   UNL     1      13.407  -9.829   3.398  1.00  0.00    -0.237 OA
ATOM     67  O   UNL     1      15.626 -10.300   4.390  1.00  0.00    -0.237 OA
ATOM     68  O   UNL     1      14.090 -12.153   3.850  1.00  0.00    -0.744 OA
ENDBRANCH  61  65
ENDBRANCH  44  58
BRANCH  45  69
ATOM     69  C   UNL     1      11.383   0.084  11.319  1.00  0.00     0.023 A 
ATOM     70  C   UNL     1      12.446   0.880  11.773  1.00  0.00     0.031 A 
ATOM     71  C   UNL     1      10.075   0.570  11.502  1.00  0.00     0.131 A 
ATOM     72  C   UNL     1      12.182   2.083  12.447  1.00  0.00     0.055 A 
ATOM     73  C   UNL     1       9.821   1.801  12.109  1.00  0.00     0.041 A 
ATOM     74  F   UNL     1       9.018  -0.149  11.088  1.00  0.00    -0.206 F 
ATOM     75  C   UNL     1      10.878   2.557  12.603  1.00  0.00     0.022 A 
BRANCH  72  76
ATOM     76  S   UNL     1      13.564   2.959  13.233  1.00  0.00     0.124 S 
ATOM     77  O   UNL     1      14.116   1.924  14.098  1.00  0.00    -0.237 OA
ATOM     78  O   UNL     1      14.378   3.334  12.081  1.00  0.00    -0.237 OA
ATOM     79  O   UNL     1      12.913   4.070  13.923  1.00  0.00    -0.744 OA
ENDBRANCH  72  76
ENDBRANCH  45  69
BRANCH  57  80
ATOM     80  C   UNL     1      14.340  -5.727  13.799  1.00  0.00     0.023 A 
ATOM     81  C   UNL     1      13.683  -5.648  15.040  1.00  0.00     0.031 A 
ATOM     82  C   UNL     1      15.706  -6.063  13.798  1.00  0.00     0.131 A 
ATOM     83  C   UNL     1      14.408  -5.822  16.228  1.00  0.00     0.055 A 
ATOM     84  C   UNL     1      16.404  -6.312  14.980  1.00  0.00     0.041 A 
ATOM     85  F   UNL     1      16.389  -6.150  12.645  1.00  0.00    -0.206 F 
ATOM     86  C   UNL     1      15.760  -6.174  16.206  1.00  0.00     0.022 A 
BRANCH  83  87
ATOM     87  S   UNL     1      13.592  -5.456  17.806  1.00  0.00     0.124 S 
ATOM     88  O   UNL     1      13.163  -4.075  17.611  1.00  0.00    -0.237 OA
ATOM     89  O   UNL     1      12.528  -6.454  17.845  1.00  0.00    -0.237 OA
ATOM     90  O   UNL     1      14.653  -5.643  18.793  1.00  0.00    -0.744 OA
ENDBRANCH  83  87
ENDBRANCH  57  80
ENDBRANCH  31  32
ENDBRANCH  23  26
ENDBRANCH  21  22
ENDBRANCH   1  21
TORSDOF 15
