REMARK SMILES CCC[C@@]1(C(=O)NCCCCNC(=O)c2ccc(-c3c4nc(c(-c5cc(S(=O)(=O)[O-])ccc5F)c5ccc([nH]5)c(-c5cc(S(=O)(=O)[O-])ccc5F)c5nc(c(-c6cc(S(=O)(=O)[O-])ccc6F)c6ccc3[nH]6)C=C5)C=C4)cc2)CCCN(C(=O)C[C@H]2CCCCO2)C1
REMARK SMILES IDX 9 1 8 2 7 3 5 4 6 5 4 7 78 8 91 9 79 10 81 11 80 12 3 13
REMARK SMILES IDX 2 14 1 15 82 16 83 17 84 18 85 19 86 20 90 21 87 22 89 23
REMARK SMILES IDX 88 24 10 25 11 26 12 27 13 28 14 30 15 31 16 32 77 33 17 34
REMARK SMILES IDX 76 35 18 36 19 37 20 38 70 39 21 40 75 41 69 42 71 43 22 44
REMARK SMILES IDX 74 45 68 46 67 47 23 49 55 50 35 51 54 52 36 53 39 54 53 55
REMARK SMILES IDX 72 56 37 57 38 58 52 60 73 61 40 62 24 63 25 64 33 65 26 66
REMARK SMILES IDX 32 67 34 68 31 69 27 70 28 71 29 72 30 73 56 74 57 75 65 76
REMARK SMILES IDX 58 77 64 78 66 79 63 80 59 81 60 82 61 83 62 84 41 85 42 86
REMARK SMILES IDX 50 87 43 88 49 89 51 90 48 91 44 92 45 93 46 94 47 95
REMARK H PARENT 7 6 12 29 71 48 39 59
REMARK Flexibility Score: inf
ROOT
ATOM      1  C   UNL     1       7.625  -1.175  -2.995  1.00  0.00     0.023 C 
ENDROOT
BRANCH   1   2
ATOM      2  C   UNL     1       7.211  -0.893  -1.558  1.00  0.00     0.116 C 
BRANCH   2   3
ATOM      3  N   UNL     1       6.666  -2.017  -0.824  1.00  0.00    -0.356 N 
ATOM      4  C   UNL     1       6.786  -2.365   0.492  1.00  0.00     0.228 C 
ATOM      5  O   UNL     1       5.906  -3.134   0.908  1.00  0.00    -0.274 OA
ATOM      6  H   UNL     1       6.118  -2.632  -1.363  1.00  0.00     0.163 HD
BRANCH   4   7
ATOM      7  C   UNL     1       8.018  -2.047   1.400  1.00  0.00     0.067 C 
ATOM      8  C   UNL     1       7.614  -2.255   2.903  1.00  0.00     0.020 C 
ATOM      9  C   UNL     1       8.587  -0.602   1.367  1.00  0.00     0.136 C 
ATOM     10  C   UNL     1       6.670  -1.168   3.444  1.00  0.00     0.023 C 
ATOM     11  N   UNL     1       7.596   0.381   1.798  1.00  0.00    -0.342 N 
ATOM     12  C   UNL     1       7.191   0.238   3.184  1.00  0.00     0.119 C 
BRANCH   7  13
ATOM     13  C   UNL     1       9.146  -3.038   0.943  1.00  0.00     0.018 C 
BRANCH  13  14
ATOM     14  C   UNL     1       9.362  -4.338   1.737  1.00  0.00    -0.002 C 
ATOM     15  C   UNL     1       8.264  -5.383   1.615  1.00  0.00     0.004 C 
ENDBRANCH  13  14
ENDBRANCH   7  13
BRANCH  11  16
ATOM     16  C   UNL     1       7.157   1.349   0.917  1.00  0.00     0.225 C 
ATOM     17  O   UNL     1       7.822   1.642  -0.084  1.00  0.00    -0.275 OA
BRANCH  16  18
ATOM     18  C   UNL     1       5.864   2.107   1.177  1.00  0.00     0.132 C 
BRANCH  18  19
ATOM     19  C   UNL     1       4.611   1.277   1.482  1.00  0.00     0.127 C 
ATOM     20  C   UNL     1       3.336   2.041   1.097  1.00  0.00     0.033 C 
ATOM     21  O   UNL     1       4.619   0.035   0.776  1.00  0.00    -0.378 OA
ATOM     22  C   UNL     1       2.097   1.215   1.436  1.00  0.00     0.005 C 
ATOM     23  C   UNL     1       3.542  -0.818   1.177  1.00  0.00     0.160 C 
ATOM     24  C   UNL     1       2.199  -0.188   0.846  1.00  0.00     0.029 C 
ENDBRANCH  18  19
ENDBRANCH  16  18
ENDBRANCH  11  16
ENDBRANCH   4   7
ENDBRANCH   2   3
ENDBRANCH   1   2
BRANCH   1  25
ATOM     25  C   UNL     1       6.503  -1.266  -4.022  1.00  0.00     0.023 C 
BRANCH  25  26
ATOM     26  C   UNL     1       5.518  -0.101  -4.063  1.00  0.00     0.116 C 
BRANCH  26  27
ATOM     27  N   UNL     1       6.133   1.208  -4.239  1.00  0.00    -0.352 N 
ATOM     28  C   UNL     1       5.776   2.228  -5.093  1.00  0.00     0.251 C 
ATOM     29  H   UNL     1       6.914   1.388  -3.667  1.00  0.00     0.163 HD
ATOM     30  O   UNL     1       6.460   3.248  -5.156  1.00  0.00    -0.269 OA
BRANCH  28  31
ATOM     31  C   UNL     1       4.591   2.078  -5.968  1.00  0.00     0.039 A 
ATOM     32  C   UNL     1       4.705   2.390  -7.325  1.00  0.00     0.014 A 
ATOM     33  C   UNL     1       3.381   1.598  -5.460  1.00  0.00     0.014 A 
ATOM     34  C   UNL     1       3.635   2.134  -8.188  1.00  0.00     0.010 A 
ATOM     35  C   UNL     1       2.348   1.267  -6.333  1.00  0.00     0.010 A 
ATOM     36  C   UNL     1       2.463   1.527  -7.707  1.00  0.00    -0.014 A 
BRANCH  36  37
ATOM     37  C   UNL     1       1.347   1.162  -8.620  1.00  0.00     0.031 A 
ATOM     38  C   UNL     1      -0.004   1.803  -8.449  1.00  0.00     0.074 A 
ATOM     39  C   UNL     1       1.526   0.203  -9.552  1.00  0.00     0.049 A 
ATOM     40  N   UNL     1      -1.126   1.558  -9.078  1.00  0.00    -0.248 NA
ATOM     41  C   UNL     1      -0.114   2.832  -7.404  1.00  0.00     0.031 C 
ATOM     42  C   UNL     1       2.772  -0.531  -9.783  1.00  0.00     0.029 A 
ATOM     43  N   UNL     1       0.656  -0.329 -10.472  1.00  0.00    -0.354 N 
ATOM     44  C   UNL     1      -2.078   2.386  -8.492  1.00  0.00     0.074 A 
ATOM     45  C   UNL     1      -1.413   3.090  -7.415  1.00  0.00     0.031 C 
ATOM     46  C   UNL     1       2.594  -1.397 -10.793  1.00  0.00     0.029 A 
ATOM     47  C   UNL     1       1.212  -1.313 -11.257  1.00  0.00     0.049 A 
ATOM     48  H   UNL     1      -0.279  -0.034 -10.561  1.00  0.00     0.167 HD
ATOM     49  C   UNL     1      -3.378   2.564  -8.835  1.00  0.00     0.034 A 
ATOM     50  C   UNL     1       0.669  -2.067 -12.234  1.00  0.00     0.034 A 
ATOM     51  C   UNL     1      -4.021   1.869  -9.925  1.00  0.00     0.049 A 
ATOM     52  C   UNL     1      -0.777  -1.849 -12.603  1.00  0.00     0.074 A 
ATOM     53  C   UNL     1      -5.316   2.010 -10.394  1.00  0.00     0.029 A 
ATOM     54  N   UNL     1      -3.417   0.899 -10.716  1.00  0.00    -0.354 N 
ATOM     55  N   UNL     1      -1.651  -1.026 -12.072  1.00  0.00    -0.248 NA
ATOM     56  C   UNL     1      -1.304  -2.652 -13.714  1.00  0.00     0.031 C 
ATOM     57  C   UNL     1      -5.512   1.087 -11.428  1.00  0.00     0.029 A 
ATOM     58  C   UNL     1      -4.319   0.419 -11.654  1.00  0.00     0.049 A 
ATOM     59  H   UNL     1      -2.485   0.597 -10.623  1.00  0.00     0.167 HD
ATOM     60  C   UNL     1      -2.821  -1.189 -12.809  1.00  0.00     0.074 A 
ATOM     61  C   UNL     1      -2.535  -2.178 -13.828  1.00  0.00     0.031 C 
ATOM     62  C   UNL     1      -4.021  -0.572 -12.661  1.00  0.00     0.034 A 
BRANCH  49  63
ATOM     63  C   UNL     1      -4.187   3.533  -8.004  1.00  0.00     0.023 A 
ATOM     64  C   UNL     1      -3.854   4.897  -7.931  1.00  0.00     0.031 A 
ATOM     65  C   UNL     1      -5.279   3.082  -7.242  1.00  0.00     0.131 A 
ATOM     66  C   UNL     1      -4.547   5.742  -7.050  1.00  0.00     0.055 A 
ATOM     67  C   UNL     1      -6.021   3.947  -6.434  1.00  0.00     0.041 A 
ATOM     68  F   UNL     1      -5.634   1.787  -7.255  1.00  0.00    -0.206 F 
ATOM     69  C   UNL     1      -5.645   5.282  -6.321  1.00  0.00     0.022 A 
BRANCH  66  70
ATOM     70  S   UNL     1      -3.893   7.408  -6.756  1.00  0.00     0.124 S 
ATOM     71  O   UNL     1      -2.557   7.113  -6.243  1.00  0.00    -0.237 OA
ATOM     72  O   UNL     1      -3.950   8.009  -8.083  1.00  0.00    -0.237 OA
ATOM     73  O   UNL     1      -4.818   7.971  -5.775  1.00  0.00    -0.744 OA
ENDBRANCH  66  70
ENDBRANCH  49  63
BRANCH  50  74
ATOM     74  C   UNL     1       1.486  -3.096 -12.940  1.00  0.00     0.023 A 
ATOM     75  C   UNL     1       1.787  -2.968 -14.305  1.00  0.00     0.031 A 
ATOM     76  C   UNL     1       1.941  -4.245 -12.269  1.00  0.00     0.131 A 
ATOM     77  C   UNL     1       2.478  -3.993 -14.969  1.00  0.00     0.055 A 
ATOM     78  C   UNL     1       2.672  -5.239 -12.922  1.00  0.00     0.041 A 
ATOM     79  F   UNL     1       1.687  -4.413 -10.962  1.00  0.00    -0.206 F 
ATOM     80  C   UNL     1       2.933  -5.122 -14.284  1.00  0.00     0.022 A 
BRANCH  77  81
ATOM     81  S   UNL     1       2.702  -3.868 -16.765  1.00  0.00     0.124 S 
ATOM     82  O   UNL     1       1.324  -3.772 -17.231  1.00  0.00    -0.237 OA
ATOM     83  O   UNL     1       3.507  -2.657 -16.886  1.00  0.00    -0.237 OA
ATOM     84  O   UNL     1       3.393  -5.109 -17.109  1.00  0.00    -0.744 OA
ENDBRANCH  77  81
ENDBRANCH  50  74
BRANCH  62  85
ATOM     85  C   UNL     1      -5.096  -0.916 -13.664  1.00  0.00     0.023 A 
ATOM     86  C   UNL     1      -5.678  -2.195 -13.719  1.00  0.00     0.031 A 
ATOM     87  C   UNL     1      -5.529   0.049 -14.590  1.00  0.00     0.131 A 
ATOM     88  C   UNL     1      -6.618  -2.491 -14.717  1.00  0.00     0.055 A 
ATOM     89  C   UNL     1      -6.508  -0.234 -15.543  1.00  0.00     0.041 A 
ATOM     90  F   UNL     1      -5.006   1.286 -14.583  1.00  0.00    -0.206 F 
ATOM     91  C   UNL     1      -7.048  -1.514 -15.619  1.00  0.00     0.022 A 
BRANCH  88  92
ATOM     92  S   UNL     1      -7.205  -4.200 -14.883  1.00  0.00     0.124 S 
ATOM     93  O   UNL     1      -5.959  -4.931 -15.088  1.00  0.00    -0.237 OA
ATOM     94  O   UNL     1      -7.873  -4.425 -13.605  1.00  0.00    -0.237 OA
ATOM     95  O   UNL     1      -8.092  -4.147 -16.044  1.00  0.00    -0.744 OA
ENDBRANCH  88  92
ENDBRANCH  62  85
ENDBRANCH  36  37
ENDBRANCH  28  31
ENDBRANCH  26  27
ENDBRANCH  25  26
ENDBRANCH   1  25
TORSDOF 19
