REMARK SMILES CCN(CC)C(=O)C[N@@H+](C)[C@@H](C)c1ccc(C(=O)NCCCCNC(=O)c2ccc(-c3c4nc(c(-c5cc(S(=O)(=O)[O-])ccc5F)c5ccc([nH]5)c(-c5cc(S(=O)(=O)[O-])ccc5F)c5nc(c(-c6cc(S(=O)(=O)[O-])ccc6F)c6ccc3[nH]6)C=C5)C=C4)cc2)o1
REMARK SMILES IDX 20 1 19 2 17 3 18 4 16 6 13 7 14 8 90 9 15 10 11 11 12 12
REMARK SMILES IDX 9 13 10 14 8 16 6 17 3 18 7 19 2 20 1 21 4 22 5 23 21 24
REMARK SMILES IDX 22 25 23 26 24 27 25 28 26 30 27 31 28 32 89 33 29 34 88 35
REMARK SMILES IDX 30 36 31 37 32 38 82 39 33 40 87 41 81 42 83 43 34 44 86 45
REMARK SMILES IDX 80 46 79 47 35 49 67 50 47 51 66 52 48 53 51 54 65 55 84 56
REMARK SMILES IDX 49 57 50 58 64 60 85 61 52 62 36 63 37 64 45 65 38 66 44 67
REMARK SMILES IDX 46 68 43 69 39 70 40 71 41 72 42 73 68 74 69 75 77 76 70 77
REMARK SMILES IDX 76 78 78 79 75 80 71 81 72 82 73 83 74 84 53 85 54 86 62 87
REMARK SMILES IDX 55 88 61 89 63 90 60 91 56 92 57 93 58 94 59 95
REMARK H PARENT 19 5 9 15 24 29 83 48 51 59
REMARK Flexibility Score: inf
ROOT
ATOM      1  C   UNL     1       1.786  -3.110   0.659  1.00  0.00     0.116 C 
ENDROOT
BRANCH   1   2
ATOM      2  N   UNL     1       1.854  -1.735   1.079  1.00  0.00    -0.349 N 
ATOM      3  C   UNL     1       2.554  -0.680   0.548  1.00  0.00     0.287 C 
ATOM      4  O   UNL     1       2.761   0.241   1.339  1.00  0.00    -0.266 OA
ATOM      5  H   UNL     1       1.313  -1.516   1.872  1.00  0.00     0.163 HD
BRANCH   3   6
ATOM      6  C   UNL     1       2.934  -0.641  -0.855  1.00  0.00     0.191 A 
ATOM      7  C   UNL     1       3.320   0.497  -2.724  1.00  0.00     0.161 A 
ATOM      8  C   UNL     1       3.330  -0.838  -3.069  1.00  0.00     0.053 A 
ATOM      9  O   UNL     1       3.133   0.611  -1.386  1.00  0.00    -0.450 OA
ATOM     10  C   UNL     1       3.128  -1.564  -1.868  1.00  0.00     0.057 A 
BRANCH   7  11
ATOM     11  C   UNL     1       3.564   1.742  -3.531  1.00  0.00     0.248 C 
ATOM     12  C   UNL     1       5.079   1.980  -3.642  1.00  0.00     0.084 C 
BRANCH  11  13
ATOM     13  N   UNL     1       2.729   2.924  -3.186  1.00  0.00    -0.321 N 
ATOM     14  C   UNL     1       2.801   3.933  -4.249  1.00  0.00     0.333 C 
ATOM     15  H   UNL     1       1.789   2.537  -3.091  1.00  0.00     0.348 HD
BRANCH  13  16
ATOM     16  C   UNL     1       3.033   3.579  -1.889  1.00  0.00     0.364 C 
BRANCH  16  17
ATOM     17  C   UNL     1       2.203   3.106  -0.684  1.00  0.00     0.277 C 
ATOM     18  N   UNL     1       0.821   2.942  -0.783  1.00  0.00    -0.338 N 
ATOM     19  O   UNL     1       2.782   3.008   0.404  1.00  0.00    -0.268 OA
BRANCH  18  20
ATOM     20  C   UNL     1       0.121   2.257   0.308  1.00  0.00     0.116 C 
ATOM     21  C   UNL     1      -0.525   0.955  -0.153  1.00  0.00     0.027 C 
ENDBRANCH  18  20
BRANCH  18  22
ATOM     22  C   UNL     1      -0.008   3.586  -1.798  1.00  0.00     0.116 C 
ATOM     23  C   UNL     1      -0.166   5.075  -1.525  1.00  0.00     0.027 C 
ENDBRANCH  18  22
ENDBRANCH  16  17
ENDBRANCH  13  16
ENDBRANCH  11  13
ENDBRANCH   7  11
ENDBRANCH   3   6
ENDBRANCH   1   2
BRANCH   1  24
ATOM     24  C   UNL     1       2.974  -3.860   1.257  1.00  0.00     0.023 C 
BRANCH  24  25
ATOM     25  C   UNL     1       2.758  -4.224   2.731  1.00  0.00     0.023 C 
BRANCH  25  26
ATOM     26  C   UNL     1       1.589  -5.173   2.977  1.00  0.00     0.116 C 
BRANCH  26  27
ATOM     27  N   UNL     1       1.678  -6.377   2.163  1.00  0.00    -0.352 N 
ATOM     28  C   UNL     1       1.401  -7.670   2.520  1.00  0.00     0.251 C 
ATOM     29  H   UNL     1       1.976  -6.244   1.234  1.00  0.00     0.163 HD
ATOM     30  O   UNL     1       1.697  -8.595   1.770  1.00  0.00    -0.269 OA
BRANCH  28  31
ATOM     31  C   UNL     1       0.764  -7.923   3.823  1.00  0.00     0.039 A 
ATOM     32  C   UNL     1       1.337  -8.857   4.687  1.00  0.00     0.014 A 
ATOM     33  C   UNL     1      -0.377  -7.205   4.195  1.00  0.00     0.014 A 
ATOM     34  C   UNL     1       0.787  -9.040   5.954  1.00  0.00     0.010 A 
ATOM     35  C   UNL     1      -0.885  -7.345   5.480  1.00  0.00     0.010 A 
ATOM     36  C   UNL     1      -0.312  -8.268   6.367  1.00  0.00    -0.014 A 
BRANCH  36  37
ATOM     37  C   UNL     1      -0.892  -8.430   7.721  1.00  0.00     0.031 A 
ATOM     38  C   UNL     1      -2.287  -8.969   7.872  1.00  0.00     0.074 A 
ATOM     39  C   UNL     1      -0.187  -8.032   8.797  1.00  0.00     0.049 A 
ATOM     40  N   UNL     1      -3.003  -9.119   8.955  1.00  0.00    -0.248 NA
ATOM     41  C   UNL     1      -2.979  -9.357   6.633  1.00  0.00     0.031 C 
ATOM     42  C   UNL     1       1.157  -7.448   8.758  1.00  0.00     0.029 A 
ATOM     43  N   UNL     1      -0.503  -8.047  10.131  1.00  0.00    -0.354 N 
ATOM     44  C   UNL     1      -4.235  -9.603   8.528  1.00  0.00     0.074 A 
ATOM     45  C   UNL     1      -4.186  -9.661   7.083  1.00  0.00     0.031 C 
ATOM     46  C   UNL     1       1.555  -7.179  10.012  1.00  0.00     0.029 A 
ATOM     47  C   UNL     1       0.485  -7.534  10.939  1.00  0.00     0.049 A 
ATOM     48  H   UNL     1      -1.357  -8.392  10.478  1.00  0.00     0.167 HD
ATOM     49  C   UNL     1      -5.300  -9.984   9.277  1.00  0.00     0.034 A 
ATOM     50  C   UNL     1       0.517  -7.364  12.275  1.00  0.00     0.034 A 
ATOM     51  C   UNL     1      -5.317  -9.934  10.718  1.00  0.00     0.049 A 
ATOM     52  C   UNL     1      -0.675  -7.803  13.087  1.00  0.00     0.074 A 
ATOM     53  C   UNL     1      -6.313 -10.349  11.584  1.00  0.00     0.029 A 
ATOM     54  N   UNL     1      -4.288  -9.434  11.508  1.00  0.00    -0.354 N 
ATOM     55  N   UNL     1      -1.813  -8.314  12.674  1.00  0.00    -0.248 NA
ATOM     56  C   UNL     1      -0.572  -7.658  14.544  1.00  0.00     0.031 C 
ATOM     57  C   UNL     1      -5.912 -10.046  12.891  1.00  0.00     0.029 A 
ATOM     58  C   UNL     1      -4.636  -9.507  12.847  1.00  0.00     0.049 A 
ATOM     59  H   UNL     1      -3.436  -9.079  11.165  1.00  0.00     0.167 HD
ATOM     60  C   UNL     1      -2.548  -8.578  13.826  1.00  0.00     0.074 A 
ATOM     61  C   UNL     1      -1.718  -8.185  14.947  1.00  0.00     0.031 C 
ATOM     62  C   UNL     1      -3.795  -9.101  13.949  1.00  0.00     0.034 A 
BRANCH  49  63
ATOM     63  C   UNL     1      -6.529 -10.460   8.542  1.00  0.00     0.023 A 
ATOM     64  C   UNL     1      -6.507 -11.608   7.730  1.00  0.00     0.031 A 
ATOM     65  C   UNL     1      -7.733  -9.738   8.626  1.00  0.00     0.131 A 
ATOM     66  C   UNL     1      -7.637 -11.955   6.974  1.00  0.00     0.055 A 
ATOM     67  C   UNL     1      -8.880 -10.136   7.935  1.00  0.00     0.041 A 
ATOM     68  F   UNL     1      -7.811  -8.622   9.368  1.00  0.00    -0.206 F 
ATOM     69  C   UNL     1      -8.832 -11.242   7.091  1.00  0.00     0.022 A 
BRANCH  66  70
ATOM     70  S   UNL     1      -7.478 -13.265   5.730  1.00  0.00     0.124 S 
ATOM     71  O   UNL     1      -6.440 -12.719   4.859  1.00  0.00    -0.237 OA
ATOM     72  O   UNL     1      -7.095 -14.420   6.534  1.00  0.00    -0.237 OA
ATOM     73  O   UNL     1      -8.810 -13.334   5.133  1.00  0.00    -0.744 OA
ENDBRANCH  66  70
ENDBRANCH  49  63
BRANCH  50  74
ATOM     74  C   UNL     1       1.707  -6.753  12.931  1.00  0.00     0.023 A 
ATOM     75  C   UNL     1       2.507  -7.496  13.813  1.00  0.00     0.031 A 
ATOM     76  C   UNL     1       2.040  -5.404  12.715  1.00  0.00     0.131 A 
ATOM     77  C   UNL     1       3.571  -6.874  14.486  1.00  0.00     0.055 A 
ATOM     78  C   UNL     1       3.130  -4.803  13.348  1.00  0.00     0.041 A 
ATOM     79  F   UNL     1       1.313  -4.652  11.873  1.00  0.00    -0.206 F 
ATOM     80  C   UNL     1       3.894  -5.536  14.250  1.00  0.00     0.022 A 
BRANCH  77  81
ATOM     81  S   UNL     1       4.476  -7.822  15.739  1.00  0.00     0.124 S 
ATOM     82  O   UNL     1       3.405  -8.210  16.651  1.00  0.00    -0.237 OA
ATOM     83  O   UNL     1       5.061  -8.895  14.943  1.00  0.00    -0.237 OA
ATOM     84  O   UNL     1       5.431  -6.853  16.274  1.00  0.00    -0.744 OA
ENDBRANCH  77  81
ENDBRANCH  50  74
BRANCH  62  85
ATOM     85  C   UNL     1      -4.307  -9.316  15.351  1.00  0.00     0.023 A 
ATOM     86  C   UNL     1      -4.600  -8.239  16.204  1.00  0.00     0.031 A 
ATOM     87  C   UNL     1      -4.489 -10.621  15.842  1.00  0.00     0.131 A 
ATOM     88  C   UNL     1      -5.005  -8.485  17.524  1.00  0.00     0.055 A 
ATOM     89  C   UNL     1      -4.949 -10.859  17.138  1.00  0.00     0.041 A 
ATOM     90  F   UNL     1      -4.223 -11.686  15.069  1.00  0.00    -0.206 F 
ATOM     91  C   UNL     1      -5.196  -9.788  17.991  1.00  0.00     0.022 A 
BRANCH  88  92
ATOM     92  S   UNL     1      -5.191  -7.078  18.654  1.00  0.00     0.124 S 
ATOM     93  O   UNL     1      -3.859  -6.483  18.620  1.00  0.00    -0.237 OA
ATOM     94  O   UNL     1      -6.252  -6.305  18.017  1.00  0.00    -0.237 OA
ATOM     95  O   UNL     1      -5.558  -7.704  19.923  1.00  0.00    -0.744 OA
ENDBRANCH  88  92
ENDBRANCH  62  85
ENDBRANCH  36  37
ENDBRANCH  28  31
ENDBRANCH  26  27
ENDBRANCH  25  26
ENDBRANCH  24  25
ENDBRANCH   1  24
TORSDOF 20
