REMARK SMILES Cc1cc(C(F)(F)F)nn1CCC(=O)NCCCCNC(=O)c1ccc(-c2c3nc(c(-c4cc(S(=O)(=O)[O-])ccc4F)c4ccc([nH]4)c(-c4cc(S(=O)(=O)[O-])ccc4F)c4nc(c(-c5cc(S(=O)(=O)[O-])ccc5F)c5ccc2[nH]5)C=C4)C=C3)cc1
REMARK SMILES IDX 17 1 16 2 15 3 13 4 14 5 12 7 11 8 10 9 1 10 2 11 3 12 4 13
REMARK SMILES IDX 9 14 5 15 6 16 7 17 8 18 18 19 19 20 20 21 21 22 22 24 23 25
REMARK SMILES IDX 24 26 85 27 25 28 84 29 26 30 27 31 28 32 78 33 29 34 83 35
REMARK SMILES IDX 77 36 79 37 30 38 82 39 76 40 75 41 31 43 63 44 43 45 62 46
REMARK SMILES IDX 44 47 47 48 61 49 80 50 45 51 46 52 60 54 81 55 48 56 32 57
REMARK SMILES IDX 33 58 41 59 34 60 40 61 42 62 39 63 35 64 36 65 37 66 38 67
REMARK SMILES IDX 64 68 65 69 73 70 66 71 72 72 74 73 71 74 67 75 68 76 69 77
REMARK SMILES IDX 70 78 49 79 50 80 58 81 51 82 57 83 59 84 56 85 52 86 53 87
REMARK SMILES IDX 54 88 55 89
REMARK H PARENT 15 6 20 23 79 42 47 53
REMARK Flexibility Score: inf
ROOT
ATOM      1  C   UNL     1      -0.678  -1.687   4.288  1.00  0.00     0.023 C 
ENDROOT
BRANCH   1   2
ATOM      2  C   UNL     1      -2.032  -1.106   3.883  1.00  0.00     0.116 C 
BRANCH   2   3
ATOM      3  N   UNL     1      -2.189   0.241   4.409  1.00  0.00    -0.356 N 
ATOM      4  C   UNL     1      -1.712   1.421   3.918  1.00  0.00     0.221 C 
ATOM      5  O   UNL     1      -1.743   2.420   4.641  1.00  0.00    -0.275 OA
ATOM      6  H   UNL     1      -2.716   0.312   5.238  1.00  0.00     0.163 HD
BRANCH   4   7
ATOM      7  C   UNL     1      -1.180   1.525   2.501  1.00  0.00     0.123 C 
BRANCH   7   8
ATOM      8  C   UNL     1       0.344   1.624   2.442  1.00  0.00     0.154 C 
BRANCH   8   9
ATOM      9  N   UNL     1       0.987   0.416   1.940  1.00  0.00    -0.269 N 
ATOM     10  C   UNL     1       0.646   0.701  -0.556  1.00  0.00     0.066 C 
ATOM     11  C   UNL     1       1.043  -0.059   0.652  1.00  0.00     0.036 A 
ATOM     12  C   UNL     1       1.527  -1.346   0.761  1.00  0.00     0.058 A 
ATOM     13  C   UNL     1       1.895  -1.506   2.119  1.00  0.00     0.166 A 
ATOM     14  N   UNL     1       1.663  -0.367   2.801  1.00  0.00    -0.168 NA
BRANCH  13  15
ATOM     15  C   UNL     1       2.435  -2.758   2.758  1.00  0.00     0.435 C 
ATOM     16  F   UNL     1       2.525  -2.683   4.115  1.00  0.00    -0.164 F 
ATOM     17  F   UNL     1       1.636  -3.827   2.498  1.00  0.00    -0.164 F 
ATOM     18  F   UNL     1       3.673  -3.078   2.298  1.00  0.00    -0.164 F 
ENDBRANCH  13  15
ENDBRANCH   8   9
ENDBRANCH   7   8
ENDBRANCH   4   7
ENDBRANCH   2   3
ENDBRANCH   1   2
BRANCH   1  19
ATOM     19  C   UNL     1      -0.593  -2.511   5.574  1.00  0.00     0.023 C 
BRANCH  19  20
ATOM     20  C   UNL     1      -1.060  -3.953   5.423  1.00  0.00     0.116 C 
BRANCH  20  21
ATOM     21  N   UNL     1      -0.244  -4.760   4.497  1.00  0.00    -0.352 N 
ATOM     22  C   UNL     1      -0.563  -5.979   3.908  1.00  0.00     0.251 C 
ATOM     23  H   UNL     1       0.638  -4.389   4.266  1.00  0.00     0.163 HD
ATOM     24  O   UNL     1       0.295  -6.722   3.443  1.00  0.00    -0.269 OA
BRANCH  22  25
ATOM     25  C   UNL     1      -1.988  -6.333   3.840  1.00  0.00     0.039 A 
ATOM     26  C   UNL     1      -2.503  -7.524   4.363  1.00  0.00     0.014 A 
ATOM     27  C   UNL     1      -2.814  -5.291   3.456  1.00  0.00     0.014 A 
ATOM     28  C   UNL     1      -3.868  -7.584   4.657  1.00  0.00     0.010 A 
ATOM     29  C   UNL     1      -4.075  -5.271   3.976  1.00  0.00     0.010 A 
ATOM     30  C   UNL     1      -4.640  -6.423   4.517  1.00  0.00    -0.014 A 
BRANCH  30  31
ATOM     31  C   UNL     1      -5.992  -6.290   5.056  1.00  0.00     0.031 A 
ATOM     32  C   UNL     1      -6.151  -6.630   6.497  1.00  0.00     0.074 A 
ATOM     33  C   UNL     1      -6.948  -5.581   4.415  1.00  0.00     0.049 A 
ATOM     34  N   UNL     1      -6.702  -7.679   7.009  1.00  0.00    -0.248 NA
ATOM     35  C   UNL     1      -5.488  -5.776   7.495  1.00  0.00     0.031 C 
ATOM     36  C   UNL     1      -6.847  -4.849   3.143  1.00  0.00     0.029 A 
ATOM     37  N   UNL     1      -8.184  -5.231   4.852  1.00  0.00    -0.354 N 
ATOM     38  C   UNL     1      -6.700  -7.486   8.390  1.00  0.00     0.074 A 
ATOM     39  C   UNL     1      -5.727  -6.453   8.622  1.00  0.00     0.031 C 
ATOM     40  C   UNL     1      -7.849  -3.950   3.051  1.00  0.00     0.029 A 
ATOM     41  C   UNL     1      -8.782  -4.205   4.130  1.00  0.00     0.049 A 
ATOM     42  H   UNL     1      -8.621  -5.668   5.618  1.00  0.00     0.167 HD
ATOM     43  C   UNL     1      -7.687  -8.004   9.181  1.00  0.00     0.034 A 
ATOM     44  C   UNL     1      -9.969  -3.603   4.389  1.00  0.00     0.034 A 
ATOM     45  C   UNL     1      -8.521  -8.909   8.411  1.00  0.00     0.049 A 
ATOM     46  C   UNL     1     -10.745  -4.566   5.211  1.00  0.00     0.074 A 
ATOM     47  C   UNL     1      -8.290 -10.058   7.678  1.00  0.00     0.029 A 
ATOM     48  N   UNL     1      -9.741  -8.435   7.971  1.00  0.00    -0.354 N 
ATOM     49  N   UNL     1     -11.101  -5.748   4.779  1.00  0.00    -0.248 NA
ATOM     50  C   UNL     1     -10.689  -4.433   6.659  1.00  0.00     0.031 C 
ATOM     51  C   UNL     1      -9.093  -9.907   6.507  1.00  0.00     0.029 A 
ATOM     52  C   UNL     1      -9.846  -8.737   6.637  1.00  0.00     0.049 A 
ATOM     53  H   UNL     1     -10.413  -7.965   8.517  1.00  0.00     0.167 HD
ATOM     54  C   UNL     1     -10.880  -6.604   5.849  1.00  0.00     0.074 A 
ATOM     55  C   UNL     1     -10.739  -5.723   7.008  1.00  0.00     0.031 C 
ATOM     56  C   UNL     1     -10.542  -7.916   5.658  1.00  0.00     0.034 A 
BRANCH  43  57
ATOM     57  C   UNL     1      -8.174  -7.448  10.511  1.00  0.00     0.023 A 
ATOM     58  C   UNL     1      -9.279  -8.099  11.101  1.00  0.00     0.031 A 
ATOM     59  C   UNL     1      -7.825  -6.213  11.096  1.00  0.00     0.131 A 
ATOM     60  C   UNL     1     -10.057  -7.473  12.091  1.00  0.00     0.055 A 
ATOM     61  C   UNL     1      -8.563  -5.621  12.129  1.00  0.00     0.041 A 
ATOM     62  F   UNL     1      -6.805  -5.465  10.668  1.00  0.00    -0.206 F 
ATOM     63  C   UNL     1      -9.710  -6.231  12.605  1.00  0.00     0.022 A 
BRANCH  60  64
ATOM     64  S   UNL     1     -11.637  -8.233  12.542  1.00  0.00     0.124 S 
ATOM     65  O   UNL     1     -12.262  -8.403  11.235  1.00  0.00    -0.237 OA
ATOM     66  O   UNL     1     -11.202  -9.453  13.214  1.00  0.00    -0.237 OA
ATOM     67  O   UNL     1     -12.259  -7.233  13.406  1.00  0.00    -0.744 OA
ENDBRANCH  60  64
ENDBRANCH  43  57
BRANCH  44  68
ATOM     68  C   UNL     1     -10.296  -2.163   4.211  1.00  0.00     0.023 A 
ATOM     69  C   UNL     1     -11.616  -1.686   4.098  1.00  0.00     0.031 A 
ATOM     70  C   UNL     1      -9.280  -1.190   4.373  1.00  0.00     0.131 A 
ATOM     71  C   UNL     1     -11.877  -0.296   4.152  1.00  0.00     0.055 A 
ATOM     72  C   UNL     1      -9.544   0.181   4.424  1.00  0.00     0.041 A 
ATOM     73  F   UNL     1      -8.000  -1.548   4.567  1.00  0.00    -0.206 F 
ATOM     74  C   UNL     1     -10.848   0.634   4.323  1.00  0.00     0.022 A 
BRANCH  71  75
ATOM     75  S   UNL     1     -13.590   0.320   4.088  1.00  0.00     0.124 S 
ATOM     76  O   UNL     1     -13.981   0.003   2.720  1.00  0.00    -0.237 OA
ATOM     77  O   UNL     1     -14.237  -0.451   5.144  1.00  0.00    -0.237 OA
ATOM     78  O   UNL     1     -13.451   1.749   4.372  1.00  0.00    -0.744 OA
ENDBRANCH  71  75
ENDBRANCH  44  68
BRANCH  56  79
ATOM     79  C   UNL     1     -10.704  -8.524   4.278  1.00  0.00     0.023 A 
ATOM     80  C   UNL     1     -10.006  -8.112   3.119  1.00  0.00     0.031 A 
ATOM     81  C   UNL     1     -11.481  -9.693   4.190  1.00  0.00     0.131 A 
ATOM     82  C   UNL     1     -10.098  -8.873   1.934  1.00  0.00     0.055 A 
ATOM     83  C   UNL     1     -11.553 -10.453   3.025  1.00  0.00     0.041 A 
ATOM     84  F   UNL     1     -12.143 -10.150   5.266  1.00  0.00    -0.206 F 
ATOM     85  C   UNL     1     -10.861 -10.045   1.891  1.00  0.00     0.022 A 
BRANCH  82  86
ATOM     86  S   UNL     1      -9.215  -8.361   0.423  1.00  0.00     0.124 S 
ATOM     87  O   UNL     1      -9.614  -6.968   0.252  1.00  0.00    -0.237 OA
ATOM     88  O   UNL     1      -7.816  -8.586   0.776  1.00  0.00    -0.237 OA
ATOM     89  O   UNL     1      -9.734  -9.270  -0.601  1.00  0.00    -0.744 OA
ENDBRANCH  82  86
ENDBRANCH  56  79
ENDBRANCH  30  31
ENDBRANCH  22  25
ENDBRANCH  20  21
ENDBRANCH  19  20
ENDBRANCH   1  19
TORSDOF 17
