REMARK SMILES CC(C)[C@@H]1CCCN1C(=O)N1CCO[C@H](CC(=O)NCCCCNC(=O)c2ccc(-c3c4nc(c(-c5cc(S(=O)(=O)[O-])ccc5F)c5ccc([nH]5)c(-c5cc(S(=O)(=O)[O-])ccc5F)c5nc(c(-c6cc(S(=O)(=O)[O-])ccc6F)c6ccc3[nH]6)C=C5)C=C4)cc2)C1
REMARK SMILES IDX 21 1 20 2 19 3 17 4 18 5 16 7 15 8 11 9 12 10 90 11 13 12
REMARK SMILES IDX 14 13 9 14 10 15 8 16 4 17 5 18 6 19 7 20 2 21 1 22 3 23
REMARK SMILES IDX 22 24 23 25 24 26 25 27 26 29 27 30 28 31 89 32 29 33 88 34
REMARK SMILES IDX 30 35 31 36 32 37 82 38 33 39 87 40 81 41 83 42 34 43 86 44
REMARK SMILES IDX 80 45 79 46 35 48 67 49 47 50 66 51 48 52 51 53 65 54 84 55
REMARK SMILES IDX 49 56 50 57 64 59 85 60 52 61 36 62 37 63 45 64 38 65 44 66
REMARK SMILES IDX 46 67 43 68 39 69 40 70 41 71 42 72 68 73 69 74 77 75 70 76
REMARK SMILES IDX 76 77 78 78 75 79 71 80 72 81 73 82 74 83 53 84 54 85 62 86
REMARK SMILES IDX 55 87 61 88 63 89 60 90 56 91 57 92 58 93 59 94
REMARK H PARENT 19 6 24 28 83 47 51 58
REMARK Flexibility Score: inf
ROOT
ATOM      1  C   UNL     1       4.387   1.399  -1.571  1.00  0.00     0.023 C 
ENDROOT
BRANCH   1   2
ATOM      2  C   UNL     1       3.093   1.600  -2.361  1.00  0.00     0.116 C 
BRANCH   2   3
ATOM      3  N   UNL     1       2.996   0.702  -3.499  1.00  0.00    -0.356 N 
ATOM      4  C   UNL     1       2.072  -0.248  -3.814  1.00  0.00     0.222 C 
ATOM      5  O   UNL     1       2.165  -0.833  -4.895  1.00  0.00    -0.275 OA
ATOM      6  H   UNL     1       3.724   0.796  -4.155  1.00  0.00     0.163 HD
BRANCH   4   7
ATOM      7  C   UNL     1       0.926  -0.528  -2.880  1.00  0.00     0.133 C 
BRANCH   7   8
ATOM      8  C   UNL     1       0.921  -1.958  -2.343  1.00  0.00     0.147 C 
ATOM      9  N   UNL     1      -0.052  -1.397  -0.127  1.00  0.00    -0.320 N 
ATOM     10  C   UNL     1       1.182  -1.856   0.512  1.00  0.00     0.150 C 
ATOM     11  C   UNL     1      -0.274  -2.124  -1.382  1.00  0.00     0.154 C 
ATOM     12  C   UNL     1       2.376  -1.724  -0.432  1.00  0.00     0.182 C 
ATOM     13  O   UNL     1       2.148  -2.353  -1.697  1.00  0.00    -0.374 OA
BRANCH   9  14
ATOM     14  C   UNL     1      -1.135  -1.301   0.717  1.00  0.00     0.320 C 
ATOM     15  O   UNL     1      -1.487  -2.287   1.369  1.00  0.00    -0.248 OA
BRANCH  14  16
ATOM     16  N   UNL     1      -1.810  -0.099   0.784  1.00  0.00    -0.321 N 
ATOM     17  C   UNL     1      -1.643   1.208   0.104  1.00  0.00     0.089 C 
ATOM     18  C   UNL     1      -2.834   2.034   0.659  1.00  0.00     0.027 C 
ATOM     19  C   UNL     1      -3.910   1.011   0.913  1.00  0.00     0.024 C 
ATOM     20  C   UNL     1      -3.111  -0.163   1.443  1.00  0.00     0.122 C 
BRANCH  17  21
ATOM     21  C   UNL     1      -0.395   2.121   0.293  1.00  0.00     0.005 C 
ATOM     22  C   UNL     1       0.853   1.492   0.871  1.00  0.00     0.009 C 
ATOM     23  C   UNL     1      -0.100   2.858  -1.025  1.00  0.00     0.009 C 
ENDBRANCH  17  21
ENDBRANCH  14  16
ENDBRANCH   9  14
ENDBRANCH   7   8
ENDBRANCH   4   7
ENDBRANCH   2   3
ENDBRANCH   1   2
BRANCH   1  24
ATOM     24  C   UNL     1       5.083   2.716  -1.240  1.00  0.00     0.023 C 
BRANCH  24  25
ATOM     25  C   UNL     1       4.266   3.673  -0.380  1.00  0.00     0.116 C 
BRANCH  25  26
ATOM     26  N   UNL     1       4.233   3.307   1.028  1.00  0.00    -0.352 N 
ATOM     27  C   UNL     1       4.508   4.100   2.126  1.00  0.00     0.251 C 
ATOM     28  H   UNL     1       3.983   2.375   1.224  1.00  0.00     0.163 HD
ATOM     29  O   UNL     1       4.490   3.631   3.253  1.00  0.00    -0.269 OA
BRANCH  27  30
ATOM     30  C   UNL     1       4.885   5.513   1.897  1.00  0.00     0.039 A 
ATOM     31  C   UNL     1       6.128   5.958   2.352  1.00  0.00     0.014 A 
ATOM     32  C   UNL     1       4.071   6.345   1.125  1.00  0.00     0.014 A 
ATOM     33  C   UNL     1       6.603   7.206   1.941  1.00  0.00     0.010 A 
ATOM     34  C   UNL     1       4.582   7.551   0.652  1.00  0.00     0.010 A 
ATOM     35  C   UNL     1       5.860   7.986   1.040  1.00  0.00    -0.014 A 
BRANCH  35  36
ATOM     36  C   UNL     1       6.407   9.251   0.476  1.00  0.00     0.031 A 
ATOM     37  C   UNL     1       5.701  10.553   0.738  1.00  0.00     0.074 A 
ATOM     38  C   UNL     1       7.484   9.218  -0.335  1.00  0.00     0.049 A 
ATOM     39  N   UNL     1       5.947  11.742   0.251  1.00  0.00    -0.248 NA
ATOM     40  C   UNL     1       4.540  10.499   1.639  1.00  0.00     0.031 C 
ATOM     41  C   UNL     1       8.229   8.011  -0.707  1.00  0.00     0.029 A 
ATOM     42  N   UNL     1       8.136  10.224  -1.006  1.00  0.00    -0.354 N 
ATOM     43  C   UNL     1       4.958  12.573   0.768  1.00  0.00     0.074 A 
ATOM     44  C   UNL     1       4.076  11.735   1.552  1.00  0.00     0.031 C 
ATOM     45  C   UNL     1       9.245   8.352  -1.516  1.00  0.00     0.029 A 
ATOM     46  C   UNL     1       9.202   9.790  -1.761  1.00  0.00     0.049 A 
ATOM     47  H   UNL     1       7.866  11.169  -0.951  1.00  0.00     0.167 HD
ATOM     48  C   UNL     1       4.815  13.914   0.624  1.00  0.00     0.034 A 
ATOM     49  C   UNL     1      10.042  10.470  -2.568  1.00  0.00     0.034 A 
ATOM     50  C   UNL     1       5.718  14.739  -0.141  1.00  0.00     0.049 A 
ATOM     51  C   UNL     1       9.864  11.961  -2.714  1.00  0.00     0.074 A 
ATOM     52  C   UNL     1       5.700  16.113  -0.306  1.00  0.00     0.029 A 
ATOM     53  N   UNL     1       6.801  14.266  -0.871  1.00  0.00    -0.354 N 
ATOM     54  N   UNL     1       8.951  12.739  -2.180  1.00  0.00    -0.248 NA
ATOM     55  C   UNL     1      10.834  12.665  -3.563  1.00  0.00     0.031 C 
ATOM     56  C   UNL     1       6.734  16.464  -1.181  1.00  0.00     0.029 A 
ATOM     57  C   UNL     1       7.443  15.318  -1.506  1.00  0.00     0.049 A 
ATOM     58  H   UNL     1       7.074  13.322  -0.928  1.00  0.00     0.167 HD
ATOM     59  C   UNL     1       9.261  14.030  -2.601  1.00  0.00     0.074 A 
ATOM     60  C   UNL     1      10.447  13.925  -3.425  1.00  0.00     0.031 C 
ATOM     61  C   UNL     1       8.626  15.197  -2.326  1.00  0.00     0.034 A 
BRANCH  48  62
ATOM     62  C   UNL     1       3.623  14.557   1.292  1.00  0.00     0.023 A 
ATOM     63  C   UNL     1       3.458  14.531   2.688  1.00  0.00     0.031 A 
ATOM     64  C   UNL     1       2.617  15.168   0.523  1.00  0.00     0.131 A 
ATOM     65  C   UNL     1       2.276  15.020   3.264  1.00  0.00     0.055 A 
ATOM     66  C   UNL     1       1.483  15.735   1.111  1.00  0.00     0.041 A 
ATOM     67  F   UNL     1       2.708  15.208  -0.815  1.00  0.00    -0.206 F 
ATOM     68  C   UNL     1       1.299  15.646   2.487  1.00  0.00     0.022 A 
BRANCH  65  69
ATOM     69  S   UNL     1       1.966  14.681   5.018  1.00  0.00     0.124 S 
ATOM     70  O   UNL     1       1.987  13.220   5.043  1.00  0.00    -0.237 OA
ATOM     71  O   UNL     1       3.087  15.347   5.671  1.00  0.00    -0.237 OA
ATOM     72  O   UNL     1       0.656  15.283   5.257  1.00  0.00    -0.744 OA
ENDBRANCH  65  69
ENDBRANCH  48  62
BRANCH  49  73
ATOM     73  C   UNL     1      11.125   9.759  -3.308  1.00  0.00     0.023 A 
ATOM     74  C   UNL     1      12.478  10.013  -3.030  1.00  0.00     0.031 A 
ATOM     75  C   UNL     1      10.824   8.848  -4.336  1.00  0.00     0.131 A 
ATOM     76  C   UNL     1      13.479   9.401  -3.802  1.00  0.00     0.055 A 
ATOM     77  C   UNL     1      11.823   8.203  -5.067  1.00  0.00     0.041 A 
ATOM     78  F   UNL     1       9.547   8.563  -4.638  1.00  0.00    -0.206 F 
ATOM     79  C   UNL     1      13.161   8.489  -4.811  1.00  0.00     0.022 A 
BRANCH  76  80
ATOM     80  S   UNL     1      15.206   9.879  -3.522  1.00  0.00     0.124 S 
ATOM     81  O   UNL     1      15.159  11.317  -3.763  1.00  0.00    -0.237 OA
ATOM     82  O   UNL     1      15.413   9.466  -2.139  1.00  0.00    -0.237 OA
ATOM     83  O   UNL     1      15.940   9.103  -4.519  1.00  0.00    -0.744 OA
ENDBRANCH  76  80
ENDBRANCH  49  73
BRANCH  61  84
ATOM     84  C   UNL     1       9.239  16.460  -2.876  1.00  0.00     0.023 A 
ATOM     85  C   UNL     1       9.253  16.740  -4.253  1.00  0.00     0.031 A 
ATOM     86  C   UNL     1       9.816  17.399  -2.002  1.00  0.00     0.131 A 
ATOM     87  C   UNL     1       9.874  17.908  -4.721  1.00  0.00     0.055 A 
ATOM     88  C   UNL     1      10.384  18.585  -2.469  1.00  0.00     0.041 A 
ATOM     89  F   UNL     1       9.831  17.180  -0.678  1.00  0.00    -0.206 F 
ATOM     90  C   UNL     1      10.425  18.840  -3.837  1.00  0.00     0.022 A 
BRANCH  87  91
ATOM     91  S   UNL     1      10.021  18.161  -6.511  1.00  0.00     0.124 S 
ATOM     92  O   UNL     1      10.787  16.988  -6.922  1.00  0.00    -0.237 OA
ATOM     93  O   UNL     1       8.626  18.192  -6.938  1.00  0.00    -0.237 OA
ATOM     94  O   UNL     1      10.730  19.434  -6.622  1.00  0.00    -0.744 OA
ENDBRANCH  87  91
ENDBRANCH  61  84
ENDBRANCH  35  36
ENDBRANCH  27  30
ENDBRANCH  25  26
ENDBRANCH  24  25
ENDBRANCH   1  24
TORSDOF 18
