REMARK SMILES O=C(NCCCCNC(=O)c1ccc(-c2cccc(O)c2)cc1Cl)c1ccc(-c2c3nc(c(-c4cc(S(=O)(=O)[O-])ccc4F)c4ccc([nH]4)c(-c4cc(S(=O)(=O)[O-])ccc4F)c4nc(c(-c5cc(S(=O)(=O)[O-])ccc5F)c5ccc2[nH]5)C=C4)C=C3)cc1
REMARK SMILES IDX 5 1 4 2 3 3 1 4 2 5 25 7 26 8 87 9 27 10 86 11 28 12 29 13
REMARK SMILES IDX 30 14 80 15 31 16 85 17 79 18 81 19 32 20 84 21 78 22 77 23
REMARK SMILES IDX 33 25 65 26 45 27 64 28 46 29 49 30 63 31 82 32 47 33 48 34
REMARK SMILES IDX 62 36 83 37 50 38 34 39 35 40 43 41 36 42 42 43 44 44 41 45
REMARK SMILES IDX 37 46 38 47 39 48 40 49 66 50 67 51 75 52 68 53 74 54 76 55
REMARK SMILES IDX 73 56 69 57 70 58 71 59 72 60 51 61 52 62 60 63 53 64 59 65
REMARK SMILES IDX 61 66 58 67 54 68 55 69 56 70 57 71 6 72 7 73 8 74 9 75
REMARK SMILES IDX 10 77 11 78 12 79 23 80 13 81 22 82 24 83 14 84 15 85 16 86
REMARK SMILES IDX 21 87 17 88 19 89 18 90 20 91
REMARK H PARENT 3 6 81 24 49 35 8 76 20 92
REMARK Flexibility Score: inf
ROOT
ATOM      1  C   UNL     1       4.913   0.913   2.426  1.00  0.00     0.023 C 
ENDROOT
BRANCH   1   2
ATOM      2  C   UNL     1       4.571  -0.016   1.267  1.00  0.00     0.116 C 
BRANCH   2   3
ATOM      3  N   UNL     1       3.138  -0.194   1.087  1.00  0.00    -0.352 N 
ATOM      4  O   UNL     1       1.139  -0.038   0.059  1.00  0.00    -0.269 OA
ATOM      5  C   UNL     1       2.362   0.039  -0.024  1.00  0.00     0.251 C 
ATOM      6  H   UNL     1       2.653  -0.529   1.876  1.00  0.00     0.163 HD
BRANCH   5   7
ATOM      7  C   UNL     1       2.998   0.405  -1.309  1.00  0.00     0.039 A 
ATOM      8  C   UNL     1       4.109  -0.296  -1.785  1.00  0.00     0.014 A 
ATOM      9  C   UNL     1       2.466   1.463  -2.052  1.00  0.00     0.014 A 
ATOM     10  C   UNL     1       4.769   0.146  -2.928  1.00  0.00     0.010 A 
ATOM     11  C   UNL     1       3.085   1.857  -3.241  1.00  0.00     0.010 A 
ATOM     12  C   UNL     1       4.260   1.221  -3.673  1.00  0.00    -0.014 A 
BRANCH  12  13
ATOM     13  C   UNL     1       4.941   1.637  -4.926  1.00  0.00     0.031 A 
ATOM     14  C   UNL     1       5.585   2.990  -5.045  1.00  0.00     0.074 A 
ATOM     15  C   UNL     1       4.970   0.780  -5.965  1.00  0.00     0.049 A 
ATOM     16  N   UNL     1       6.191   3.530  -6.072  1.00  0.00    -0.248 NA
ATOM     17  C   UNL     1       5.527   3.854  -3.858  1.00  0.00     0.031 C 
ATOM     18  C   UNL     1       4.364  -0.554  -5.970  1.00  0.00     0.029 A 
ATOM     19  N   UNL     1       5.522   0.899  -7.215  1.00  0.00    -0.354 N 
ATOM     20  C   UNL     1       6.574   4.804  -5.664  1.00  0.00     0.074 A 
ATOM     21  C   UNL     1       6.096   4.965  -4.305  1.00  0.00     0.031 C 
ATOM     22  C   UNL     1       4.588  -1.134  -7.157  1.00  0.00     0.029 A 
ATOM     23  C   UNL     1       5.299  -0.195  -8.017  1.00  0.00     0.049 A 
ATOM     24  H   UNL     1       6.029   1.690  -7.508  1.00  0.00     0.167 HD
ATOM     25  C   UNL     1       7.264   5.745  -6.358  1.00  0.00     0.034 A 
ATOM     26  C   UNL     1       5.599  -0.409  -9.312  1.00  0.00     0.034 A 
ATOM     27  C   UNL     1       7.731   5.561  -7.713  1.00  0.00     0.049 A 
ATOM     28  C   UNL     1       6.333   0.659 -10.074  1.00  0.00     0.074 A 
ATOM     29  C   UNL     1       8.489   6.422  -8.490  1.00  0.00     0.029 A 
ATOM     30  N   UNL     1       7.469   4.447  -8.502  1.00  0.00    -0.354 N 
ATOM     31  N   UNL     1       6.722   1.843  -9.663  1.00  0.00    -0.248 NA
ATOM     32  C   UNL     1       6.673   0.360 -11.470  1.00  0.00     0.031 C 
ATOM     33  C   UNL     1       8.624   5.861  -9.766  1.00  0.00     0.029 A 
ATOM     34  C   UNL     1       8.015   4.616  -9.767  1.00  0.00     0.049 A 
ATOM     35  H   UNL     1       6.968   3.653  -8.207  1.00  0.00     0.167 HD
ATOM     36  C   UNL     1       7.365   2.428 -10.748  1.00  0.00     0.074 A 
ATOM     37  C   UNL     1       7.324   1.459 -11.826  1.00  0.00     0.031 C 
ATOM     38  C   UNL     1       7.941   3.653 -10.842  1.00  0.00     0.034 A 
BRANCH  25  39
ATOM     39  C   UNL     1       7.510   7.071  -5.674  1.00  0.00     0.023 A 
ATOM     40  C   UNL     1       8.281   7.172  -4.503  1.00  0.00     0.031 A 
ATOM     41  C   UNL     1       6.931   8.248  -6.182  1.00  0.00     0.131 A 
ATOM     42  C   UNL     1       8.384   8.403  -3.835  1.00  0.00     0.055 A 
ATOM     43  C   UNL     1       7.105   9.485  -5.557  1.00  0.00     0.041 A 
ATOM     44  F   UNL     1       6.170   8.215  -7.287  1.00  0.00    -0.206 F 
ATOM     45  C   UNL     1       7.820   9.565  -4.366  1.00  0.00     0.022 A 
BRANCH  42  46
ATOM     46  S   UNL     1       9.128   8.431  -2.180  1.00  0.00     0.124 S 
ATOM     47  O   UNL     1       8.323   7.436  -1.474  1.00  0.00    -0.237 OA
ATOM     48  O   UNL     1      10.511   8.057  -2.450  1.00  0.00    -0.237 OA
ATOM     49  O   UNL     1       8.927   9.809  -1.736  1.00  0.00    -0.744 OA
ENDBRANCH  42  46
ENDBRANCH  25  39
BRANCH  26  50
ATOM     50  C   UNL     1       5.154  -1.667  -9.970  1.00  0.00     0.023 A 
ATOM     51  C   UNL     1       6.072  -2.643 -10.382  1.00  0.00     0.031 A 
ATOM     52  C   UNL     1       3.784  -1.916 -10.175  1.00  0.00     0.131 A 
ATOM     53  C   UNL     1       5.610  -3.816 -10.998  1.00  0.00     0.055 A 
ATOM     54  C   UNL     1       3.327  -3.102 -10.747  1.00  0.00     0.041 A 
ATOM     55  F   UNL     1       2.866  -1.016  -9.786  1.00  0.00    -0.206 F 
ATOM     56  C   UNL     1       4.244  -4.059 -11.170  1.00  0.00     0.022 A 
BRANCH  53  57
ATOM     57  S   UNL     1       6.826  -5.013 -11.613  1.00  0.00     0.124 S 
ATOM     58  O   UNL     1       7.567  -4.213 -12.582  1.00  0.00    -0.237 OA
ATOM     59  O   UNL     1       7.543  -5.370 -10.394  1.00  0.00    -0.237 OA
ATOM     60  O   UNL     1       6.000  -6.076 -12.182  1.00  0.00    -0.744 OA
ENDBRANCH  53  57
ENDBRANCH  26  50
BRANCH  38  61
ATOM     61  C   UNL     1       8.598   3.995 -12.155  1.00  0.00     0.023 A 
ATOM     62  C   UNL     1       7.845   4.219 -13.321  1.00  0.00     0.031 A 
ATOM     63  C   UNL     1       9.999   4.088 -12.241  1.00  0.00     0.131 A 
ATOM     64  C   UNL     1       8.499   4.480 -14.534  1.00  0.00     0.055 A 
ATOM     65  C   UNL     1      10.641   4.398 -13.440  1.00  0.00     0.041 A 
ATOM     66  F   UNL     1      10.764   3.879 -11.158  1.00  0.00    -0.206 F 
ATOM     67  C   UNL     1       9.892   4.586 -14.598  1.00  0.00     0.022 A 
BRANCH  64  68
ATOM     68  S   UNL     1       7.511   4.610 -16.050  1.00  0.00     0.124 S 
ATOM     69  O   UNL     1       6.899   3.288 -16.126  1.00  0.00    -0.237 OA
ATOM     70  O   UNL     1       6.609   5.715 -15.742  1.00  0.00    -0.237 OA
ATOM     71  O   UNL     1       8.505   4.894 -17.084  1.00  0.00    -0.744 OA
ENDBRANCH  64  68
ENDBRANCH  38  61
ENDBRANCH  12  13
ENDBRANCH   5   7
ENDBRANCH   2   3
ENDBRANCH   1   2
BRANCH   1  72
ATOM     72  C   UNL     1       4.436   0.453   3.803  1.00  0.00     0.023 C 
BRANCH  72  73
ATOM     73  C   UNL     1       4.817  -0.973   4.188  1.00  0.00     0.116 C 
BRANCH  73  74
ATOM     74  N   UNL     1       6.255  -1.193   4.212  1.00  0.00    -0.352 N 
ATOM     75  C   UNL     1       7.001  -1.840   5.166  1.00  0.00     0.252 C 
ATOM     76  H   UNL     1       6.757  -0.832   3.446  1.00  0.00     0.163 HD
ATOM     77  O   UNL     1       8.218  -1.950   5.063  1.00  0.00    -0.269 OA
BRANCH  75  78
ATOM     78  C   UNL     1       6.333  -2.342   6.375  1.00  0.00     0.058 A 
ATOM     79  C   UNL     1       6.583  -1.659   7.569  1.00  0.00     0.016 A 
ATOM     80  C   UNL     1       5.461  -3.430   6.357  1.00  0.00     0.054 A 
ATOM     81  C   UNL     1       5.905  -2.026   8.734  1.00  0.00     0.009 A 
ATOM     82  C   UNL     1       4.775  -3.780   7.524  1.00  0.00     0.030 A 
ATOM     83  Cl  UNL     1       5.174  -4.373   4.939  1.00  0.00    -0.083 Cl
ATOM     84  C   UNL     1       4.970  -3.076   8.727  1.00  0.00    -0.017 A 
BRANCH  84  85
ATOM     85  C   UNL     1       4.197  -3.418   9.934  1.00  0.00    -0.015 A 
ATOM     86  C   UNL     1       4.039  -4.753  10.345  1.00  0.00     0.009 A 
ATOM     87  C   UNL     1       3.569  -2.419  10.697  1.00  0.00     0.054 A 
ATOM     88  C   UNL     1       3.274  -5.079  11.469  1.00  0.00     0.004 A 
ATOM     89  C   UNL     1       2.810  -2.751  11.817  1.00  0.00     0.116 A 
ATOM     90  C   UNL     1       2.655  -4.075  12.209  1.00  0.00     0.046 A 
BRANCH  89  91
ATOM     91  O   UNL     1       2.221  -1.732  12.507  1.00  0.00    -0.508 OA
ATOM     92  H   UNL     1       1.703  -1.918  13.265  1.00  0.00     0.293 HD
ENDBRANCH  89  91
ENDBRANCH  84  85
ENDBRANCH  75  78
ENDBRANCH  73  74
ENDBRANCH  72  73
ENDBRANCH   1  72
TORSDOF 16
