REMARK SMILES CC(C)(C)c1cc2c(cc1Cl)C=C(C(=O)NCCCCNC(=O)c1ccc(-c3c4nc(c(-c5cc(S(=O)(=O)[O-])ccc5F)c5ccc([nH]5)c(-c5cc(S(=O)(=O)[O-])ccc5F)c5nc(c(-c6cc(S(=O)(=O)[O-])ccc6F)c6ccc3[nH]6)C=C5)C=C4)cc1)[C@@H](C(F)(F)F)O2
REMARK SMILES IDX 19 1 18 2 17 3 16 4 14 5 15 6 13 8 5 9 6 10 10 11 7 12 9 13
REMARK SMILES IDX 11 14 8 15 92 16 12 17 87 18 2 19 1 20 3 21 4 22 88 23 89 24
REMARK SMILES IDX 90 25 91 26 20 27 21 28 22 29 23 31 24 32 25 33 86 34 26 35
REMARK SMILES IDX 85 36 27 37 28 38 29 39 79 40 30 41 84 42 78 43 80 44 31 45
REMARK SMILES IDX 83 46 77 47 76 48 32 50 64 51 44 52 63 53 45 54 48 55 62 56
REMARK SMILES IDX 81 57 46 58 47 59 61 61 82 62 49 63 33 64 34 65 42 66 35 67
REMARK SMILES IDX 41 68 43 69 40 70 36 71 37 72 38 73 39 74 65 75 66 76 74 77
REMARK SMILES IDX 67 78 73 79 75 80 72 81 68 82 69 83 70 84 71 85 50 86 51 87
REMARK SMILES IDX 59 88 52 89 58 90 60 91 57 92 53 93 54 94 55 95 56 96
REMARK H PARENT 16 7 21 30 80 49 48 60
REMARK Flexibility Score: inf
ROOT
ATOM      1  C   UNL     1      -1.161  11.493   3.024  1.00  0.00     0.023 C 
ENDROOT
BRANCH   1   2
ATOM      2  C   UNL     1      -0.867  10.226   2.217  1.00  0.00     0.023 C 
BRANCH   2   3
ATOM      3  C   UNL     1       0.615   9.984   1.934  1.00  0.00     0.116 C 
BRANCH   3   4
ATOM      4  N   UNL     1       1.273   9.265   3.012  1.00  0.00    -0.352 N 
ATOM      5  C   UNL     1       1.640   7.987   3.268  1.00  0.00     0.251 C 
ATOM      6  O   UNL     1       2.210   7.805   4.349  1.00  0.00    -0.270 OA
ATOM      7  H   UNL     1       1.516   9.867   3.753  1.00  0.00     0.163 HD
BRANCH   5   8
ATOM      8  C   UNL     1       1.400   6.823   2.364  1.00  0.00     0.067 C 
ATOM      9  C   UNL     1       0.907   2.111   0.469  1.00  0.00    -0.020 A 
ATOM     10  C   UNL     1       0.470   3.415   0.115  1.00  0.00     0.053 A 
ATOM     11  C   UNL     1       1.678   2.025   1.649  1.00  0.00     0.045 A 
ATOM     12  C   UNL     1       0.762   4.544   0.880  1.00  0.00     0.128 A 
ATOM     13  C   UNL     1       1.956   3.172   2.425  1.00  0.00     0.032 A 
ATOM     14  Cl  UNL     1       2.358   0.573   2.294  1.00  0.00    -0.084 Cl
ATOM     15  C   UNL     1       1.494   4.431   2.049  1.00  0.00     0.019 A 
ATOM     16  O   UNL     1       0.247   5.729   0.442  1.00  0.00    -0.475 OA
ATOM     17  C   UNL     1       1.709   5.614   2.872  1.00  0.00     0.025 C 
ATOM     18  C   UNL     1       0.885   6.932   0.956  1.00  0.00     0.314 C 
BRANCH   9  19
ATOM     19  C   UNL     1       0.465   0.965  -0.475  1.00  0.00    -0.012 C 
ATOM     20  C   UNL     1       0.887  -0.474  -0.118  1.00  0.00     0.016 C 
ATOM     21  C   UNL     1       1.023   1.230  -1.897  1.00  0.00     0.016 C 
ATOM     22  C   UNL     1      -1.085   0.940  -0.541  1.00  0.00     0.016 C 
ENDBRANCH   9  19
BRANCH  18  23
ATOM     23  C   UNL     1       1.971   7.392  -0.035  1.00  0.00     0.429 C 
ATOM     24  F   UNL     1       1.409   7.766  -1.212  1.00  0.00    -0.167 F 
ATOM     25  F   UNL     1       2.670   8.459   0.416  1.00  0.00    -0.167 F 
ATOM     26  F   UNL     1       2.870   6.419  -0.309  1.00  0.00    -0.167 F 
ENDBRANCH  18  23
ENDBRANCH   5   8
ENDBRANCH   3   4
ENDBRANCH   2   3
ENDBRANCH   1   2
BRANCH   1  27
ATOM     27  C   UNL     1      -0.614  12.791   2.432  1.00  0.00     0.116 C 
BRANCH  27  28
ATOM     28  N   UNL     1      -0.998  13.035   1.048  1.00  0.00    -0.352 N 
ATOM     29  C   UNL     1      -0.985  14.241   0.377  1.00  0.00     0.251 C 
ATOM     30  H   UNL     1      -1.301  12.252   0.534  1.00  0.00     0.163 HD
ATOM     31  O   UNL     1      -1.415  14.324  -0.769  1.00  0.00    -0.269 OA
BRANCH  29  32
ATOM     32  C   UNL     1      -0.504  15.438   1.098  1.00  0.00     0.039 A 
ATOM     33  C   UNL     1       0.727  15.406   1.752  1.00  0.00     0.014 A 
ATOM     34  C   UNL     1      -1.348  16.544   1.227  1.00  0.00     0.014 A 
ATOM     35  C   UNL     1       1.019  16.382   2.695  1.00  0.00     0.010 A 
ATOM     36  C   UNL     1      -1.006  17.572   2.111  1.00  0.00     0.010 A 
ATOM     37  C   UNL     1       0.145  17.463   2.906  1.00  0.00    -0.014 A 
BRANCH  37  38
ATOM     38  C   UNL     1       0.457  18.435   3.989  1.00  0.00     0.031 A 
ATOM     39  C   UNL     1      -0.427  18.554   5.203  1.00  0.00     0.074 A 
ATOM     40  C   UNL     1       1.605  19.137   3.921  1.00  0.00     0.049 A 
ATOM     41  N   UNL     1      -0.231  19.247   6.296  1.00  0.00    -0.248 NA
ATOM     42  C   UNL     1      -1.694  17.805   5.194  1.00  0.00     0.031 C 
ATOM     43  C   UNL     1       2.531  19.103   2.789  1.00  0.00     0.029 A 
ATOM     44  N   UNL     1       2.213  19.969   4.826  1.00  0.00    -0.354 N 
ATOM     45  C   UNL     1      -1.351  19.033   7.094  1.00  0.00     0.074 A 
ATOM     46  C   UNL     1      -2.239  18.172   6.345  1.00  0.00     0.031 C 
ATOM     47  C   UNL     1       3.625  19.811   3.098  1.00  0.00     0.029 A 
ATOM     48  C   UNL     1       3.456  20.400   4.425  1.00  0.00     0.049 A 
ATOM     49  H   UNL     1       1.800  20.232   5.680  1.00  0.00     0.167 HD
ATOM     50  C   UNL     1      -1.605  19.499   8.340  1.00  0.00     0.034 A 
ATOM     51  C   UNL     1       4.368  21.170   5.054  1.00  0.00     0.034 A 
ATOM     52  C   UNL     1      -0.702  20.341   9.083  1.00  0.00     0.049 A 
ATOM     53  C   UNL     1       4.072  21.654   6.449  1.00  0.00     0.074 A 
ATOM     54  C   UNL     1      -0.871  20.866  10.353  1.00  0.00     0.029 A 
ATOM     55  N   UNL     1       0.540  20.768   8.638  1.00  0.00    -0.354 N 
ATOM     56  N   UNL     1       3.023  21.412   7.199  1.00  0.00    -0.248 NA
ATOM     57  C   UNL     1       5.082  22.507   7.089  1.00  0.00     0.031 C 
ATOM     58  C   UNL     1       0.248  21.643  10.657  1.00  0.00     0.029 A 
ATOM     59  C   UNL     1       1.145  21.556   9.604  1.00  0.00     0.049 A 
ATOM     60  H   UNL     1       0.935  20.544   7.764  1.00  0.00     0.167 HD
ATOM     61  C   UNL     1       3.254  22.067   8.405  1.00  0.00     0.074 A 
ATOM     62  C   UNL     1       4.557  22.689   8.294  1.00  0.00     0.031 C 
ATOM     63  C   UNL     1       2.454  22.154   9.497  1.00  0.00     0.034 A 
BRANCH  50  64
ATOM     64  C   UNL     1      -2.903  19.109   9.005  1.00  0.00     0.023 A 
ATOM     65  C   UNL     1      -3.861  20.092   9.318  1.00  0.00     0.031 A 
ATOM     66  C   UNL     1      -3.140  17.790   9.432  1.00  0.00     0.131 A 
ATOM     67  C   UNL     1      -4.996  19.747  10.063  1.00  0.00     0.055 A 
ATOM     68  C   UNL     1      -4.290  17.445  10.144  1.00  0.00     0.041 A 
ATOM     69  F   UNL     1      -2.259  16.815   9.154  1.00  0.00    -0.206 F 
ATOM     70  C   UNL     1      -5.218  18.428  10.472  1.00  0.00     0.022 A 
BRANCH  67  71
ATOM     71  S   UNL     1      -6.198  21.003  10.581  1.00  0.00     0.124 S 
ATOM     72  O   UNL     1      -7.422  20.527   9.941  1.00  0.00    -0.237 OA
ATOM     73  O   UNL     1      -6.165  20.877  12.036  1.00  0.00    -0.237 OA
ATOM     74  O   UNL     1      -5.659  22.248  10.044  1.00  0.00    -0.744 OA
ENDBRANCH  67  71
ENDBRANCH  50  64
BRANCH  51  75
ATOM     75  C   UNL     1       5.668  21.448   4.377  1.00  0.00     0.023 A 
ATOM     76  C   UNL     1       5.710  22.127   3.145  1.00  0.00     0.031 A 
ATOM     77  C   UNL     1       6.869  20.926   4.885  1.00  0.00     0.131 A 
ATOM     78  C   UNL     1       6.910  22.194   2.427  1.00  0.00     0.055 A 
ATOM     79  C   UNL     1       8.079  21.063   4.202  1.00  0.00     0.041 A 
ATOM     80  F   UNL     1       6.878  20.257   6.048  1.00  0.00    -0.206 F 
ATOM     81  C   UNL     1       8.099  21.681   2.955  1.00  0.00     0.022 A 
BRANCH  78  82
ATOM     82  S   UNL     1       6.934  22.804   0.718  1.00  0.00     0.124 S 
ATOM     83  O   UNL     1       7.791  23.979   0.827  1.00  0.00    -0.237 OA
ATOM     84  O   UNL     1       7.508  21.667   0.002  1.00  0.00    -0.237 OA
ATOM     85  O   UNL     1       5.528  23.070   0.429  1.00  0.00    -0.744 OA
ENDBRANCH  78  82
ENDBRANCH  51  75
BRANCH  63  86
ATOM     86  C   UNL     1       2.944  22.941  10.687  1.00  0.00     0.023 A 
ATOM     87  C   UNL     1       3.163  22.293  11.918  1.00  0.00     0.031 A 
ATOM     88  C   UNL     1       3.055  24.341  10.643  1.00  0.00     0.131 A 
ATOM     89  C   UNL     1       3.455  23.047  13.061  1.00  0.00     0.055 A 
ATOM     90  C   UNL     1       3.386  25.086  11.776  1.00  0.00     0.041 A 
ATOM     91  F   UNL     1       2.842  25.006   9.496  1.00  0.00    -0.206 F 
ATOM     92  C   UNL     1       3.575  24.440  12.995  1.00  0.00     0.022 A 
BRANCH  89  93
ATOM     93  S   UNL     1       3.606  22.262  14.689  1.00  0.00     0.124 S 
ATOM     94  O   UNL     1       5.008  22.509  15.013  1.00  0.00    -0.237 OA
ATOM     95  O   UNL     1       2.639  23.014  15.486  1.00  0.00    -0.237 OA
ATOM     96  O   UNL     1       3.260  20.866  14.441  1.00  0.00    -0.744 OA
ENDBRANCH  89  93
ENDBRANCH  63  86
ENDBRANCH  37  38
ENDBRANCH  29  32
ENDBRANCH  27  28
ENDBRANCH   1  27
TORSDOF 16
