REMARK SMILES O=C(C[C@@H]1C(=O)O[C@@H]2[C@@H]3OC(=O)c4cc(O)c(O)c(O)c4-c4ccccc4C(=O)OC[C@H]2O[C@@H](OC(=O)c2cc(O)c(O)c(O)c2)C3OC(=O)c2cc(O)c(O)c3c2[C@@H]1[C@H](O)C(=O)O3)NCCCCNC(=O)c1ccc(-c2c3nc(c(-c4cc(S(=O)(=O)[O-])ccc4F)c4ccc([nH]4)c(-c4cc(S(=O)(=O)[O-])ccc4F)c4nc(c(-c5cc(S(=O)(=O)[O-])ccc5F)c5ccc2[nH]5)C=C4)C=C3)cc1
REMARK SMILES IDX 4 1 3 3 2 4 1 5 65 6 66 8 67 9 68 10 69 11 70 12 71 13 72 15
REMARK SMILES IDX 73 16 74 17 135 18 75 19 134 20 76 21 77 22 78 23 128 24
REMARK SMILES IDX 79 25 133 26 127 27 129 28 80 29 132 30 126 31 125 32 81 34
REMARK SMILES IDX 113 35 93 36 112 37 94 38 97 39 111 40 130 41 95 42 96 43
REMARK SMILES IDX 110 45 131 46 98 47 82 48 83 49 91 50 84 51 90 52 92 53
REMARK SMILES IDX 89 54 85 55 86 56 87 57 88 58 114 59 115 60 123 61 116 62
REMARK SMILES IDX 122 63 124 64 121 65 117 66 118 67 119 68 120 69 99 70
REMARK SMILES IDX 100 71 108 72 101 73 107 74 109 75 106 76 102 77 103 78
REMARK SMILES IDX 104 79 105 80 59 81 58 82 60 83 51 84 57 85 62 86 52 87
REMARK SMILES IDX 55 88 64 89 63 90 53 91 61 92 49 94 50 95 48 96 47 97 9 98
REMARK SMILES IDX 34 99 8 100 33 101 32 102 10 104 11 105 12 106 13 107 14 108
REMARK SMILES IDX 21 109 15 110 19 111 17 112 22 113 23 114 27 115 24 116
REMARK SMILES IDX 26 117 25 118 28 119 29 120 30 121 31 122 16 124 20 126
REMARK SMILES IDX 18 128 35 130 36 131 37 132 38 133 39 134 46 135 40 136
REMARK SMILES IDX 44 137 42 138 41 139 45 141 43 143 7 145 5 146 6 147 56 149
REMARK SMILES IDX 54 151
REMARK H PARENT 65 7 70 14 129 33 97 44 61 93 16 125 20 127 18 129 41 140
REMARK H PARENT 45 142 43 144 56 150 54 152
REMARK Flexibility Score: 170.00
ROOT
ATOM      1  C   UNL     1       4.235  -2.205   1.859  1.00  0.00     0.119 CG0
ATOM      2  G   UNL     1       5.186  -2.717   3.690  1.00  0.00     0.000 G0
ENDROOT
BRANCH   1   3
ATOM      3  C   UNL     1       4.396  -0.773   0.506  1.00  0.00     0.116 C 
BRANCH   3   4
ATOM      4  C   UNL     1       3.356   0.369  -0.230  1.00  0.00     0.220 C 
ATOM      5  O   UNL     1       2.624   1.140   0.400  1.00  0.00    -0.275 OA
ATOM      6  N   UNL     1       3.314   0.317  -1.603  1.00  0.00    -0.356 N 
ATOM      7  H   UNL     1       4.059  -0.109  -2.085  1.00  0.00     0.163 HD
BRANCH   6   8
ATOM      8  C   UNL     1       2.205   0.872  -2.370  1.00  0.00     0.116 C 
BRANCH   8   9
ATOM      9  C   UNL     1       2.268   2.390  -2.519  1.00  0.00     0.023 C 
BRANCH   9  10
ATOM     10  C   UNL     1       3.645   2.872  -2.927  1.00  0.00     0.023 C 
BRANCH  10  11
ATOM     11  C   UNL     1       4.273   2.177  -4.112  1.00  0.00     0.116 C 
BRANCH  11  12
ATOM     12  N   UNL     1       3.821   2.738  -5.365  1.00  0.00    -0.352 N 
ATOM     13  C   UNL     1       4.565   3.395  -6.316  1.00  0.00     0.251 C 
ATOM     14  H   UNL     1       2.861   2.637  -5.561  1.00  0.00     0.163 HD
ATOM     15  O   UNL     1       3.995   4.024  -7.203  1.00  0.00    -0.269 OA
BRANCH  13  16
ATOM     16  C   UNL     1       6.047   3.384  -6.228  1.00  0.00     0.039 A 
ATOM     17  C   UNL     1       6.746   2.247  -5.814  1.00  0.00     0.014 A 
ATOM     18  C   UNL     1       6.748   4.553  -6.523  1.00  0.00     0.014 A 
ATOM     19  C   UNL     1       8.091   2.347  -5.477  1.00  0.00     0.010 A 
ATOM     20  C   UNL     1       8.131   4.600  -6.331  1.00  0.00     0.010 A 
ATOM     21  C   UNL     1       8.810   3.523  -5.740  1.00  0.00    -0.014 A 
BRANCH  21  22
ATOM     22  C   UNL     1      10.266   3.595  -5.425  1.00  0.00     0.031 A 
ATOM     23  C   UNL     1      10.826   4.662  -4.517  1.00  0.00     0.074 A 
ATOM     24  C   UNL     1      11.098   2.683  -5.966  1.00  0.00     0.049 A 
ATOM     25  N   UNL     1      12.053   4.815  -4.080  1.00  0.00    -0.248 NA
ATOM     26  C   UNL     1       9.899   5.696  -4.035  1.00  0.00     0.031 C 
ATOM     27  C   UNL     1      10.692   1.625  -6.893  1.00  0.00     0.029 A 
ATOM     28  N   UNL     1      12.452   2.499  -5.827  1.00  0.00    -0.354 N 
ATOM     29  C   UNL     1      12.032   5.939  -3.259  1.00  0.00     0.074 A 
ATOM     30  C   UNL     1      10.697   6.480  -3.323  1.00  0.00     0.031 C 
ATOM     31  C   UNL     1      11.761   0.888  -7.215  1.00  0.00     0.029 A 
ATOM     32  C   UNL     1      12.946   1.465  -6.587  1.00  0.00     0.049 A 
ATOM     33  H   UNL     1      13.014   3.054  -5.240  1.00  0.00     0.167 HD
ATOM     34  C   UNL     1      13.024   6.455  -2.494  1.00  0.00     0.034 A 
ATOM     35  C   UNL     1      14.209   1.040  -6.790  1.00  0.00     0.034 A 
ATOM     36  C   UNL     1      14.377   5.964  -2.519  1.00  0.00     0.049 A 
ATOM     37  C   UNL     1      15.328   1.702  -6.037  1.00  0.00     0.074 A 
ATOM     38  C   UNL     1      15.465   6.432  -1.808  1.00  0.00     0.029 A 
ATOM     39  N   UNL     1      14.839   4.935  -3.328  1.00  0.00    -0.354 N 
ATOM     40  N   UNL     1      15.264   2.677  -5.161  1.00  0.00    -0.248 NA
ATOM     41  C   UNL     1      16.686   1.202  -6.281  1.00  0.00     0.031 C 
ATOM     42  C   UNL     1      16.599   5.757  -2.258  1.00  0.00     0.029 A 
ATOM     43  C   UNL     1      16.207   4.785  -3.166  1.00  0.00     0.049 A 
ATOM     44  H   UNL     1      14.278   4.392  -3.928  1.00  0.00     0.167 HD
ATOM     45  C   UNL     1      16.570   2.893  -4.732  1.00  0.00     0.074 A 
ATOM     46  C   UNL     1      17.397   1.927  -5.425  1.00  0.00     0.031 C 
ATOM     47  C   UNL     1      17.033   3.811  -3.846  1.00  0.00     0.034 A 
BRANCH  34  48
ATOM     48  C   UNL     1      12.703   7.607  -1.563  1.00  0.00     0.023 A 
ATOM     49  C   UNL     1      13.345   8.849  -1.704  1.00  0.00     0.031 A 
ATOM     50  C   UNL     1      11.862   7.433  -0.448  1.00  0.00     0.131 A 
ATOM     51  C   UNL     1      13.149   9.848  -0.740  1.00  0.00     0.055 A 
ATOM     52  C   UNL     1      11.604   8.457   0.464  1.00  0.00     0.041 A 
ATOM     53  F   UNL     1      11.294   6.247  -0.202  1.00  0.00    -0.206 F 
ATOM     54  C   UNL     1      12.262   9.670   0.327  1.00  0.00     0.022 A 
BRANCH  51  55
ATOM     55  S   UNL     1      14.121  11.378  -0.759  1.00  0.00     0.124 S 
ATOM     56  O   UNL     1      13.075  12.394  -0.853  1.00  0.00    -0.237 OA
ATOM     57  O   UNL     1      14.812  11.310   0.525  1.00  0.00    -0.237 OA
ATOM     58  O   UNL     1      14.964  11.239  -1.941  1.00  0.00    -0.744 OA
ENDBRANCH  51  55
ENDBRANCH  34  48
BRANCH  35  59
ATOM     59  C   UNL     1      14.430  -0.099  -7.726  1.00  0.00     0.023 A 
ATOM     60  C   UNL     1      14.039   0.006  -9.074  1.00  0.00     0.031 A 
ATOM     61  C   UNL     1      14.861  -1.350  -7.256  1.00  0.00     0.131 A 
ATOM     62  C   UNL     1      13.972  -1.143  -9.870  1.00  0.00     0.055 A 
ATOM     63  C   UNL     1      14.880  -2.476  -8.082  1.00  0.00     0.041 A 
ATOM     64  F   UNL     1      15.235  -1.499  -5.976  1.00  0.00    -0.206 F 
ATOM     65  C   UNL     1      14.407  -2.381  -9.388  1.00  0.00     0.022 A 
BRANCH  62  66
ATOM     66  S   UNL     1      13.149  -1.099 -11.486  1.00  0.00     0.124 S 
ATOM     67  O   UNL     1      14.184  -1.622 -12.371  1.00  0.00    -0.237 OA
ATOM     68  O   UNL     1      12.007  -1.982 -11.257  1.00  0.00    -0.237 OA
ATOM     69  O   UNL     1      12.818   0.310 -11.666  1.00  0.00    -0.744 OA
ENDBRANCH  62  66
ENDBRANCH  35  59
BRANCH  47  70
ATOM     70  C   UNL     1      18.510   3.839  -3.528  1.00  0.00     0.023 A 
ATOM     71  C   UNL     1      18.933   3.678  -2.194  1.00  0.00     0.031 A 
ATOM     72  C   UNL     1      19.469   4.207  -4.486  1.00  0.00     0.131 A 
ATOM     73  C   UNL     1      20.258   3.960  -1.842  1.00  0.00     0.055 A 
ATOM     74  C   UNL     1      20.807   4.411  -4.143  1.00  0.00     0.041 A 
ATOM     75  F   UNL     1      19.117   4.388  -5.769  1.00  0.00    -0.206 F 
ATOM     76  C   UNL     1      21.201   4.311  -2.812  1.00  0.00     0.022 A 
BRANCH  73  77
ATOM     77  S   UNL     1      20.765   4.012  -0.101  1.00  0.00     0.124 S 
ATOM     78  O   UNL     1      21.830   3.013  -0.066  1.00  0.00    -0.237 OA
ATOM     79  O   UNL     1      21.202   5.398   0.046  1.00  0.00    -0.237 OA
ATOM     80  O   UNL     1      19.553   3.654   0.629  1.00  0.00    -0.744 OA
ENDBRANCH  73  77
ENDBRANCH  47  70
ENDBRANCH  21  22
ENDBRANCH  13  16
ENDBRANCH  11  12
ENDBRANCH  10  11
ENDBRANCH   9  10
ENDBRANCH   8   9
ENDBRANCH   6   8
ENDBRANCH   3   4
ENDBRANCH   1   3
BRANCH   1  81
ATOM     81  C   UNL     1       3.934  -3.200   0.971  1.00  0.00     0.079 C 
ATOM     82  C   UNL     1       3.587  -3.760   2.917  1.00  0.00     0.021 A 
ATOM     83  C   UNL     1       5.065  -4.415  -0.177  1.00  0.00     0.232 C 
ATOM     84  C   UNL     1       3.035  -2.732   4.115  1.00  0.00     0.071 A 
ATOM     85  C   UNL     1       4.043  -5.203   3.353  1.00  0.00     0.180 A 
ATOM     86  C   UNL     1       5.343  -6.112   0.633  1.00  0.00     0.341 C 
ATOM     87  C   UNL     1       2.739  -3.501   5.278  1.00  0.00     0.066 A 
ATOM     88  C   UNL     1       3.373  -5.799   4.390  1.00  0.00     0.201 A 
ATOM     89  O   UNL     1       4.935  -6.129   2.260  1.00  0.00    -0.420 OA
ATOM     90  O   UNL     1       5.732  -7.138   0.096  1.00  0.00    -0.249 OA
ATOM     91  C   UNL     1       2.730  -4.935   5.308  1.00  0.00     0.162 A 
BRANCH  83  92
ATOM     92  O   UNL     1       4.729  -4.208  -1.529  1.00  0.00    -0.381 OA
ATOM     93  H   UNL     1       3.783  -4.379  -1.657  1.00  0.00     0.211 HD
ENDBRANCH  83  92
BRANCH  84  94
ATOM     94  C   UNL     1       3.418  -0.948   4.601  1.00  0.00     0.339 C 
ATOM     95  O   UNL     1       3.169  -0.675   5.787  1.00  0.00    -0.246 OA
BRANCH  94  96
ATOM     96  O   UNL     1       4.274   0.289   3.917  1.00  0.00    -0.448 OA
BRANCH  96  97
ATOM     97  C   UNL     1       5.699   0.340   2.758  1.00  0.00     0.290 C 
ATOM     98  C   UNL     1       5.088  -0.902   2.804  1.00  0.00     0.267 C 
ATOM     99  C   UNL     1       6.663  -0.769   1.518  1.00  0.00     0.357 C 
ATOM    100  C   UNL     1       6.119  -2.667   2.593  1.00  0.00     0.254 C 
ATOM    101  O   UNL     1       6.173  -2.414   0.793  1.00  0.00    -0.329 OA
ATOM    102  C   UNL     1       5.499  -3.937   1.710  1.00  0.00     0.205 CG1
ATOM    103  G   UNL     1       3.543  -4.923   1.271  1.00  0.00     0.000 G1
BRANCH  98 104
ATOM    104  O   UNL     1       3.181  -0.596   2.372  1.00  0.00    -0.450 OA
BRANCH 104 105
ATOM    105  C   UNL     1       1.984  -1.116   1.183  1.00  0.00     0.339 C 
ATOM    106  O   UNL     1       2.367  -1.513   0.061  1.00  0.00    -0.246 OA
BRANCH 105 107
ATOM    107  C   UNL     1       0.457  -1.612   0.844  1.00  0.00     0.075 A 
ATOM    108  C   UNL     1       0.066  -2.546  -0.181  1.00  0.00     0.066 A 
ATOM    109  C   UNL     1      -0.573  -1.380   1.695  1.00  0.00     0.043 A 
ATOM    110  C   UNL     1      -1.255  -3.077  -0.285  1.00  0.00     0.162 A 
ATOM    111  C   UNL     1      -1.911  -1.840   1.604  1.00  0.00     0.170 A 
ATOM    112  C   UNL     1      -2.252  -2.696   0.593  1.00  0.00     0.200 A 
BRANCH 109 113
ATOM    113  C   UNL     1      -0.014  -1.073   2.910  1.00  0.00     0.001 A 
ATOM    114  C   UNL     1       0.135   0.310   3.186  1.00  0.00     0.010 A 
ATOM    115  C   UNL     1       0.443  -2.196   3.616  1.00  0.00     0.068 A 
ATOM    116  C   UNL     1       0.587   0.658   4.408  1.00  0.00     0.001 A 
ATOM    117  C   UNL     1       0.466  -1.784   4.955  1.00  0.00     0.016 A 
ATOM    118  C   UNL     1       0.589  -0.377   5.334  1.00  0.00     0.001 A 
BRANCH 115 119
ATOM    119  C   UNL     1       0.883  -3.791   2.863  1.00  0.00     0.338 C 
ATOM    120  O   UNL     1       0.421  -4.800   3.395  1.00  0.00    -0.246 OA
BRANCH 119 121
ATOM    121  O   UNL     1       1.908  -4.032   1.703  1.00  0.00    -0.459 OA
BRANCH 121 122
ATOM    122  C   UNL     1       3.543  -4.923   1.271  1.00  0.00     0.269 CG1
ATOM    123  G   UNL     1       5.499  -3.937   1.710  1.00  0.00     0.000 G1
ENDBRANCH 121 122
ENDBRANCH 119 121
ENDBRANCH 115 119
ENDBRANCH 109 113
BRANCH 110 124
ATOM    124  O   UNL     1      -1.552  -4.044  -1.208  1.00  0.00    -0.504 OA
ATOM    125  H   UNL     1      -0.899  -4.325  -1.818  1.00  0.00     0.293 HD
ENDBRANCH 110 124
BRANCH 111 126
ATOM    126  O   UNL     1      -2.852  -1.620   2.582  1.00  0.00    -0.504 OA
ATOM    127  H   UNL     1      -3.724  -1.945   2.474  1.00  0.00     0.293 HD
ENDBRANCH 111 126
BRANCH 112 128
ATOM    128  O   UNL     1      -3.498  -3.256   0.541  1.00  0.00    -0.502 OA
ATOM    129  H   UNL     1      -3.719  -3.841  -0.157  1.00  0.00     0.293 HD
ENDBRANCH 112 128
ENDBRANCH 105 107
ENDBRANCH 104 105
ENDBRANCH  98 104
BRANCH  99 130
ATOM    130  O   UNL     1       7.420   0.117   0.617  1.00  0.00    -0.428 OA
BRANCH 130 131
ATOM    131  C   UNL     1       6.894   0.732  -0.447  1.00  0.00     0.340 C 
ATOM    132  O   UNL     1       6.238   0.242  -1.348  1.00  0.00    -0.246 OA
BRANCH 131 133
ATOM    133  C   UNL     1       7.173   2.172  -0.383  1.00  0.00     0.067 A 
ATOM    134  C   UNL     1       6.084   3.047  -0.475  1.00  0.00     0.066 A 
ATOM    135  C   UNL     1       8.484   2.630  -0.496  1.00  0.00     0.066 A 
ATOM    136  C   UNL     1       6.297   4.339  -0.922  1.00  0.00     0.162 A 
ATOM    137  C   UNL     1       8.669   3.953  -0.860  1.00  0.00     0.162 A 
ATOM    138  C   UNL     1       7.586   4.788  -1.121  1.00  0.00     0.200 A 
BRANCH 136 139
ATOM    139  O   UNL     1       5.238   5.130  -1.256  1.00  0.00    -0.504 OA
ATOM    140  H   UNL     1       4.363   4.823  -1.119  1.00  0.00     0.293 HD
ENDBRANCH 136 139
BRANCH 137 141
ATOM    141  O   UNL     1       9.903   4.468  -1.072  1.00  0.00    -0.504 OA
ATOM    142  H   UNL     1       9.999   5.367  -1.317  1.00  0.00     0.293 HD
ENDBRANCH 137 141
BRANCH 138 143
ATOM    143  O   UNL     1       7.776   6.055  -1.595  1.00  0.00    -0.502 OA
ATOM    144  H   UNL     1       7.038   6.607  -1.766  1.00  0.00     0.293 HD
ENDBRANCH 138 143
ENDBRANCH 131 133
ENDBRANCH 130 131
ENDBRANCH  99 130
BRANCH 100 145
ATOM    145  O   UNL     1       6.278  -3.422   3.643  1.00  0.00    -0.455 OA
BRANCH 145 146
ATOM    146  C   UNL     1       5.186  -2.717   3.690  1.00  0.00     0.310 CG0
ATOM    147  O   UNL     1       5.079  -2.435   4.890  1.00  0.00    -0.252 OA
ATOM    148  G   UNL     1       4.235  -2.205   1.859  1.00  0.00     0.000 G0
ENDBRANCH 145 146
ENDBRANCH 100 145
ENDBRANCH  96  97
ENDBRANCH  94  96
ENDBRANCH  84  94
BRANCH  88 149
ATOM    149  O   UNL     1       3.088  -7.130   4.421  1.00  0.00    -0.502 OA
ATOM    150  H   UNL     1       2.627  -7.494   5.151  1.00  0.00     0.293 HD
ENDBRANCH  88 149
BRANCH  91 151
ATOM    151  O   UNL     1       1.893  -5.474   6.263  1.00  0.00    -0.504 OA
ATOM    152  H   UNL     1       1.461  -4.914   6.878  1.00  0.00     0.293 HD
ENDBRANCH  91 151
ENDBRANCH   1  81
TORSDOF 27
