REMARK SMILES O=C(NCCCCNC(=O)[C@H]1Cc2[nH]cnc2CN1C(=O)C[C@]12C[C@H]3C[C@H](C[C@H](C3)C1)C2)c1ccc(-c2c3nc(c(-c4cc(S(=O)(=O)[O-])ccc4F)c4ccc([nH]4)c(-c4cc(S(=O)(=O)[O-])ccc4F)c4nc(c(-c5cc(S(=O)(=O)[O-])ccc5F)c5ccc2[nH]5)C=C4)C=C3)cc1
REMARK SMILES IDX 5 1 4 2 3 3 1 4 2 5 33 7 34 8 95 9 35 10 94 11 36 12 37 13
REMARK SMILES IDX 38 14 88 15 39 16 93 17 87 18 89 19 40 20 92 21 86 22 85 23
REMARK SMILES IDX 41 25 73 26 53 27 72 28 54 29 57 30 71 31 90 32 55 33 56 34
REMARK SMILES IDX 70 36 91 37 58 38 42 39 43 40 51 41 44 42 50 43 52 44 49 45
REMARK SMILES IDX 45 46 46 47 47 48 48 49 74 50 75 51 83 52 76 53 82 54 84 55
REMARK SMILES IDX 81 56 77 57 78 58 79 59 80 60 59 61 60 62 68 63 61 64 67 65
REMARK SMILES IDX 69 66 66 67 62 68 63 69 64 70 65 71 6 72 7 73 8 74 9 75
REMARK SMILES IDX 10 77 11 78 12 79 19 80 13 81 18 82 14 83 17 84 15 85 16 87
REMARK SMILES IDX 20 88 21 89 22 90 23 91 24 92 31 93 32 94 25 95 29 96 27 97
REMARK SMILES IDX 26 98 30 99 28 100
REMARK H PARENT 3 6 89 24 57 35 8 76 14 86
REMARK Flexibility Score: inf
ROOT
ATOM      1  C   UNL     1       4.736  -2.289  -0.651  1.00  0.00     0.023 C 
ENDROOT
BRANCH   1   2
ATOM      2  C   UNL     1       4.634  -0.779  -0.865  1.00  0.00     0.116 C 
BRANCH   2   3
ATOM      3  N   UNL     1       3.294  -0.289  -1.104  1.00  0.00    -0.352 N 
ATOM      4  O   UNL     1       1.270   0.545  -0.884  1.00  0.00    -0.269 OA
ATOM      5  C   UNL     1       2.228   0.023  -0.307  1.00  0.00     0.251 C 
ATOM      6  H   UNL     1       3.106  -0.149  -2.060  1.00  0.00     0.163 HD
BRANCH   5   7
ATOM      7  C   UNL     1       2.128  -0.267   1.150  1.00  0.00     0.039 A 
ATOM      8  C   UNL     1       3.172  -0.692   1.973  1.00  0.00     0.014 A 
ATOM      9  C   UNL     1       0.848  -0.115   1.716  1.00  0.00     0.014 A 
ATOM     10  C   UNL     1       2.927  -1.047   3.298  1.00  0.00     0.010 A 
ATOM     11  C   UNL     1       0.601  -0.450   3.043  1.00  0.00     0.010 A 
ATOM     12  C   UNL     1       1.637  -0.950   3.825  1.00  0.00    -0.014 A 
BRANCH  12  13
ATOM     13  C   UNL     1       1.449  -1.219   5.249  1.00  0.00     0.031 A 
ATOM     14  C   UNL     1       2.124  -0.249   6.155  1.00  0.00     0.074 A 
ATOM     15  C   UNL     1       0.611  -2.156   5.737  1.00  0.00     0.049 A 
ATOM     16  N   UNL     1       3.058  -0.473   7.019  1.00  0.00    -0.248 NA
ATOM     17  C   UNL     1       1.803   1.177   5.987  1.00  0.00     0.031 C 
ATOM     18  C   UNL     1      -0.331  -2.989   4.989  1.00  0.00     0.029 A 
ATOM     19  N   UNL     1       0.347  -2.482   7.037  1.00  0.00    -0.354 N 
ATOM     20  C   UNL     1       3.291   0.741   7.663  1.00  0.00     0.074 A 
ATOM     21  C   UNL     1       2.629   1.740   6.869  1.00  0.00     0.031 C 
ATOM     22  C   UNL     1      -1.210  -3.549   5.851  1.00  0.00     0.029 A 
ATOM     23  C   UNL     1      -0.821  -3.219   7.213  1.00  0.00     0.049 A 
ATOM     24  H   UNL     1       0.931  -2.218   7.784  1.00  0.00     0.167 HD
ATOM     25  C   UNL     1       3.825   0.793   8.917  1.00  0.00     0.034 A 
ATOM     26  C   UNL     1      -1.464  -3.480   8.384  1.00  0.00     0.034 A 
ATOM     27  C   UNL     1       4.490  -0.448   9.249  1.00  0.00     0.049 A 
ATOM     28  C   UNL     1      -0.472  -3.322   9.475  1.00  0.00     0.074 A 
ATOM     29  C   UNL     1       5.522  -1.176   8.686  1.00  0.00     0.029 A 
ATOM     30  N   UNL     1       3.871  -1.317  10.121  1.00  0.00    -0.354 N 
ATOM     31  N   UNL     1       0.559  -4.108   9.625  1.00  0.00    -0.248 NA
ATOM     32  C   UNL     1      -0.358  -2.024  10.122  1.00  0.00     0.031 C 
ATOM     33  C   UNL     1       5.139  -2.541   8.845  1.00  0.00     0.029 A 
ATOM     34  C   UNL     1       3.938  -2.566   9.557  1.00  0.00     0.049 A 
ATOM     35  H   UNL     1       3.459  -1.086  10.984  1.00  0.00     0.167 HD
ATOM     36  C   UNL     1       1.599  -3.268   9.992  1.00  0.00     0.074 A 
ATOM     37  C   UNL     1       0.952  -2.017  10.383  1.00  0.00     0.031 C 
ATOM     38  C   UNL     1       2.896  -3.565   9.680  1.00  0.00     0.034 A 
BRANCH  25  39
ATOM     39  C   UNL     1       3.421   1.794   9.987  1.00  0.00     0.023 A 
ATOM     40  C   UNL     1       3.968   1.601  11.271  1.00  0.00     0.031 A 
ATOM     41  C   UNL     1       2.329   2.689   9.923  1.00  0.00     0.131 A 
ATOM     42  C   UNL     1       3.339   2.120  12.414  1.00  0.00     0.055 A 
ATOM     43  C   UNL     1       1.752   3.267  11.060  1.00  0.00     0.041 A 
ATOM     44  F   UNL     1       1.704   2.999   8.784  1.00  0.00    -0.206 F 
ATOM     45  C   UNL     1       2.226   2.946  12.319  1.00  0.00     0.022 A 
BRANCH  42  46
ATOM     46  S   UNL     1       3.872   1.500  14.030  1.00  0.00     0.124 S 
ATOM     47  O   UNL     1       3.799   0.057  13.820  1.00  0.00    -0.237 OA
ATOM     48  O   UNL     1       5.211   2.069  14.141  1.00  0.00    -0.237 OA
ATOM     49  O   UNL     1       2.879   2.051  14.948  1.00  0.00    -0.744 OA
ENDBRANCH  42  46
ENDBRANCH  25  39
BRANCH  26  50
ATOM     50  C   UNL     1      -2.938  -3.526   8.609  1.00  0.00     0.023 A 
ATOM     51  C   UNL     1      -3.533  -4.149   9.728  1.00  0.00     0.031 A 
ATOM     52  C   UNL     1      -3.786  -2.728   7.807  1.00  0.00     0.131 A 
ATOM     53  C   UNL     1      -4.912  -3.967   9.996  1.00  0.00     0.055 A 
ATOM     54  C   UNL     1      -5.146  -2.557   8.072  1.00  0.00     0.041 A 
ATOM     55  F   UNL     1      -3.301  -2.011   6.780  1.00  0.00    -0.206 F 
ATOM     56  C   UNL     1      -5.714  -3.171   9.175  1.00  0.00     0.022 A 
BRANCH  53  57
ATOM     57  S   UNL     1      -5.680  -4.698  11.481  1.00  0.00     0.124 S 
ATOM     58  O   UNL     1      -5.643  -6.122  11.184  1.00  0.00    -0.237 OA
ATOM     59  O   UNL     1      -4.799  -4.232  12.551  1.00  0.00    -0.237 OA
ATOM     60  O   UNL     1      -7.019  -4.108  11.500  1.00  0.00    -0.744 OA
ENDBRANCH  53  57
ENDBRANCH  26  50
BRANCH  38  61
ATOM     61  C   UNL     1       3.230  -4.964   9.209  1.00  0.00     0.023 A 
ATOM     62  C   UNL     1       2.651  -5.597   8.086  1.00  0.00     0.031 A 
ATOM     63  C   UNL     1       4.280  -5.630   9.865  1.00  0.00     0.131 A 
ATOM     64  C   UNL     1       3.123  -6.857   7.668  1.00  0.00     0.055 A 
ATOM     65  C   UNL     1       4.757  -6.867   9.437  1.00  0.00     0.041 A 
ATOM     66  F   UNL     1       4.892  -5.066  10.920  1.00  0.00    -0.206 F 
ATOM     67  C   UNL     1       4.176  -7.489   8.338  1.00  0.00     0.022 A 
BRANCH  64  68
ATOM     68  S   UNL     1       2.368  -7.705   6.243  1.00  0.00     0.124 S 
ATOM     69  O   UNL     1       0.937  -7.614   6.508  1.00  0.00    -0.237 OA
ATOM     70  O   UNL     1       2.861  -6.922   5.112  1.00  0.00    -0.237 OA
ATOM     71  O   UNL     1       2.916  -9.060   6.324  1.00  0.00    -0.744 OA
ENDBRANCH  64  68
ENDBRANCH  38  61
ENDBRANCH  12  13
ENDBRANCH   5   7
ENDBRANCH   2   3
ENDBRANCH   1   2
BRANCH   1  72
ATOM     72  C   UNL     1       4.038  -3.154  -1.709  1.00  0.00     0.023 C 
BRANCH  72  73
ATOM     73  C   UNL     1       4.383  -2.822  -3.162  1.00  0.00     0.116 C 
BRANCH  73  74
ATOM     74  N   UNL     1       5.811  -2.921  -3.408  1.00  0.00    -0.354 N 
ATOM     75  C   UNL     1       6.424  -4.142  -3.516  1.00  0.00     0.243 C 
ATOM     76  H   UNL     1       6.346  -2.099  -3.500  1.00  0.00     0.163 HD
ATOM     77  O   UNL     1       7.103  -4.511  -2.560  1.00  0.00    -0.273 OA
BRANCH  75  78
ATOM     78  C   UNL     1       6.162  -5.011  -4.764  1.00  0.00     0.180 C 
ATOM     79  C   UNL     1       5.471  -4.280  -5.982  1.00  0.00     0.091 C 
ATOM     80  N   UNL     1       7.257  -5.981  -5.205  1.00  0.00    -0.324 N 
ATOM     81  C   UNL     1       5.504  -5.156  -7.179  1.00  0.00     0.042 A 
ATOM     82  C   UNL     1       6.724  -7.072  -6.064  1.00  0.00     0.178 C 
ATOM     83  N   UNL     1       5.066  -4.886  -8.442  1.00  0.00    -0.348 N 
ATOM     84  C   UNL     1       6.055  -6.416  -7.233  1.00  0.00     0.081 A 
ATOM     85  C   UNL     1       5.321  -6.004  -9.193  1.00  0.00     0.197 A 
ATOM     86  H   UNL     1       4.647  -4.051  -8.753  1.00  0.00     0.167 HD
ATOM     87  N   UNL     1       5.912  -6.946  -8.488  1.00  0.00    -0.240 NA
BRANCH  80  88
ATOM     88  C   UNL     1       8.648  -5.855  -5.223  1.00  0.00     0.224 C 
ATOM     89  O   UNL     1       9.345  -6.667  -5.850  1.00  0.00    -0.275 OA
BRANCH  88  90
ATOM     90  C   UNL     1       9.421  -4.774  -4.464  1.00  0.00     0.107 C 
BRANCH  90  91
ATOM     91  C   UNL     1       9.674  -3.431  -5.188  1.00  0.00    -0.020 C 
ATOM     92  C   UNL     1       9.833  -2.290  -4.143  1.00  0.00     0.011 C 
ATOM     93  C   UNL     1       8.507  -3.061  -6.108  1.00  0.00     0.011 C 
ATOM     94  C   UNL     1      10.969  -3.465  -6.036  1.00  0.00     0.011 C 
ATOM     95  C   UNL     1      10.029  -0.931  -4.843  1.00  0.00    -0.010 C 
ATOM     96  C   UNL     1       8.708  -1.730  -6.824  1.00  0.00    -0.010 C 
ATOM     97  C   UNL     1      11.186  -2.111  -6.747  1.00  0.00    -0.010 C 
ATOM     98  C   UNL     1      11.301  -0.987  -5.702  1.00  0.00     0.007 C 
ATOM     99  C   UNL     1       8.827  -0.636  -5.756  1.00  0.00     0.007 C 
ATOM    100  C   UNL     1       9.987  -1.817  -7.662  1.00  0.00     0.007 C 
ENDBRANCH  90  91
ENDBRANCH  88  90
ENDBRANCH  80  88
ENDBRANCH  75  78
ENDBRANCH  73  74
ENDBRANCH  72  73
ENDBRANCH   1  72
TORSDOF 17
