REMARK SMILES CN(CCS(C)(=O)=O)C(=O)Nc1cccc(C(=O)NCCCCNC(=O)c2ccc(-c3c4nc(c(-c5cc(S(=O)(=O)[O-])ccc5F)c5ccc([nH]5)c(-c5cc(S(=O)(=O)[O-])ccc5F)c5nc(c(-c6cc(S(=O)(=O)[O-])ccc6F)c6ccc3[nH]6)C=C5)C=C4)cc2)c1
REMARK SMILES IDX 20 1 19 2 17 3 18 4 16 6 12 7 13 8 90 9 14 10 15 11 11 12
REMARK SMILES IDX 9 13 10 14 2 16 1 17 3 18 4 19 5 20 6 21 7 22 8 23 21 24
REMARK SMILES IDX 22 25 23 26 24 27 25 28 26 30 27 31 28 32 89 33 29 34 88 35
REMARK SMILES IDX 30 36 31 37 32 38 82 39 33 40 87 41 81 42 83 43 34 44 86 45
REMARK SMILES IDX 80 46 79 47 35 49 67 50 47 51 66 52 48 53 51 54 65 55 84 56
REMARK SMILES IDX 49 57 50 58 64 60 85 61 52 62 36 63 37 64 45 65 38 66 44 67
REMARK SMILES IDX 46 68 43 69 39 70 40 71 41 72 42 73 68 74 69 75 77 76 70 77
REMARK SMILES IDX 76 78 78 79 75 80 71 81 72 82 73 83 74 84 53 85 54 86 62 87
REMARK SMILES IDX 55 88 61 89 63 90 60 91 56 92 57 93 58 94 59 95
REMARK H PARENT 19 5 11 15 24 29 83 48 51 59
REMARK Flexibility Score: inf
ROOT
ATOM      1  C   UNL     1      -3.656  -1.636  -0.782  1.00  0.00     0.116 C 
ENDROOT
BRANCH   1   2
ATOM      2  N   UNL     1      -4.363  -2.853  -0.451  1.00  0.00    -0.352 N 
ATOM      3  C   UNL     1      -3.953  -4.175  -0.468  1.00  0.00     0.251 C 
ATOM      4  O   UNL     1      -4.780  -5.022  -0.122  1.00  0.00    -0.269 OA
ATOM      5  H   UNL     1      -5.295  -2.718  -0.165  1.00  0.00     0.163 HD
BRANCH   3   6
ATOM      6  C   UNL     1      -2.594  -4.665  -0.913  1.00  0.00     0.041 A 
ATOM      7  C   UNL     1      -0.161  -4.416  -1.309  1.00  0.00     0.043 A 
ATOM      8  C   UNL     1      -0.166  -5.741  -1.790  1.00  0.00     0.026 A 
ATOM      9  C   UNL     1      -1.393  -3.926  -0.835  1.00  0.00     0.040 A 
ATOM     10  C   UNL     1      -1.323  -6.519  -1.821  1.00  0.00     0.003 A 
ATOM     11  C   UNL     1      -2.530  -5.979  -1.392  1.00  0.00     0.014 A 
BRANCH   7  12
ATOM     12  N   UNL     1       1.107  -3.790  -1.445  1.00  0.00    -0.308 N 
ATOM     13  C   UNL     1       1.872  -2.685  -1.352  1.00  0.00     0.321 C 
ATOM     14  O   UNL     1       3.038  -2.887  -1.724  1.00  0.00    -0.248 OA
ATOM     15  H   UNL     1       1.714  -4.500  -1.755  1.00  0.00     0.171 HD
BRANCH  13  16
ATOM     16  N   UNL     1       1.493  -1.447  -0.959  1.00  0.00    -0.327 N 
ATOM     17  C   UNL     1       2.497  -0.383  -0.863  1.00  0.00     0.148 C 
BRANCH  16  18
ATOM     18  C   UNL     1       0.194  -1.027  -0.558  1.00  0.00     0.137 C 
BRANCH  18  19
ATOM     19  C   UNL     1      -0.633  -0.284  -1.581  1.00  0.00     0.158 C 
BRANCH  19  20
ATOM     20  S   UNL     1      -0.661  -0.627  -3.329  1.00  0.00     0.149 S 
ATOM     21  C   UNL     1      -0.689  -2.353  -3.744  1.00  0.00     0.158 C 
ATOM     22  O   UNL     1      -1.949  -0.128  -3.785  1.00  0.00    -0.229 OA
ATOM     23  O   UNL     1       0.555  -0.084  -3.902  1.00  0.00    -0.229 OA
ENDBRANCH  19  20
ENDBRANCH  18  19
ENDBRANCH  16  18
ENDBRANCH  13  16
ENDBRANCH   7  12
ENDBRANCH   3   6
ENDBRANCH   1   2
BRANCH   1  24
ATOM     24  C   UNL     1      -4.462  -0.483  -1.399  1.00  0.00     0.023 C 
BRANCH  24  25
ATOM     25  C   UNL     1      -5.075   0.584  -0.486  1.00  0.00     0.023 C 
BRANCH  25  26
ATOM     26  C   UNL     1      -4.176   1.306   0.523  1.00  0.00     0.116 C 
BRANCH  26  27
ATOM     27  N   UNL     1      -3.175   2.206  -0.036  1.00  0.00    -0.352 N 
ATOM     28  C   UNL     1      -2.869   3.527   0.273  1.00  0.00     0.251 C 
ATOM     29  H   UNL     1      -2.625   1.814  -0.751  1.00  0.00     0.163 HD
ATOM     30  O   UNL     1      -1.935   4.065  -0.290  1.00  0.00    -0.269 OA
BRANCH  28  31
ATOM     31  C   UNL     1      -3.713   4.304   1.223  1.00  0.00     0.039 A 
ATOM     32  C   UNL     1      -4.128   5.590   0.852  1.00  0.00     0.014 A 
ATOM     33  C   UNL     1      -4.138   3.776   2.441  1.00  0.00     0.014 A 
ATOM     34  C   UNL     1      -5.070   6.276   1.630  1.00  0.00     0.010 A 
ATOM     35  C   UNL     1      -5.144   4.418   3.165  1.00  0.00     0.010 A 
ATOM     36  C   UNL     1      -5.646   5.663   2.755  1.00  0.00    -0.014 A 
BRANCH  36  37
ATOM     37  C   UNL     1      -6.795   6.284   3.481  1.00  0.00     0.031 A 
ATOM     38  C   UNL     1      -6.688   6.622   4.945  1.00  0.00     0.074 A 
ATOM     39  C   UNL     1      -7.971   6.467   2.841  1.00  0.00     0.049 A 
ATOM     40  N   UNL     1      -7.603   7.086   5.759  1.00  0.00    -0.248 NA
ATOM     41  C   UNL     1      -5.389   6.373   5.585  1.00  0.00     0.031 C 
ATOM     42  C   UNL     1      -8.232   6.130   1.439  1.00  0.00     0.029 A 
ATOM     43  N   UNL     1      -9.171   6.972   3.282  1.00  0.00    -0.354 N 
ATOM     44  C   UNL     1      -6.996   7.172   7.008  1.00  0.00     0.074 A 
ATOM     45  C   UNL     1      -5.656   6.645   6.854  1.00  0.00     0.031 C 
ATOM     46  C   UNL     1      -9.493   6.468   1.129  1.00  0.00     0.029 A 
ATOM     47  C   UNL     1     -10.154   6.998   2.317  1.00  0.00     0.049 A 
ATOM     48  H   UNL     1      -9.315   7.286   4.204  1.00  0.00     0.167 HD
ATOM     49  C   UNL     1      -7.496   7.668   8.168  1.00  0.00     0.034 A 
ATOM     50  C   UNL     1     -11.443   7.392   2.379  1.00  0.00     0.034 A 
ATOM     51  C   UNL     1      -8.831   8.202   8.308  1.00  0.00     0.049 A 
ATOM     52  C   UNL     1     -11.983   7.920   3.685  1.00  0.00     0.074 A 
ATOM     53  C   UNL     1      -9.415   8.783   9.421  1.00  0.00     0.029 A 
ATOM     54  N   UNL     1      -9.794   8.213   7.307  1.00  0.00    -0.354 N 
ATOM     55  N   UNL     1     -11.373   8.050   4.840  1.00  0.00    -0.248 NA
ATOM     56  C   UNL     1     -13.383   8.365   3.690  1.00  0.00     0.031 C 
ATOM     57  C   UNL     1     -10.749   9.075   9.117  1.00  0.00     0.029 A 
ATOM     58  C   UNL     1     -10.977   8.758   7.788  1.00  0.00     0.049 A 
ATOM     59  H   UNL     1      -9.659   7.883   6.390  1.00  0.00     0.167 HD
ATOM     60  C   UNL     1     -12.307   8.622   5.700  1.00  0.00     0.074 A 
ATOM     61  C   UNL     1     -13.512   8.830   4.923  1.00  0.00     0.031 C 
ATOM     62  C   UNL     1     -12.180   8.948   7.012  1.00  0.00     0.034 A 
BRANCH  49  63
ATOM     63  C   UNL     1      -6.596   7.635   9.384  1.00  0.00     0.023 A 
ATOM     64  C   UNL     1      -5.377   8.335   9.419  1.00  0.00     0.031 A 
ATOM     65  C   UNL     1      -6.947   6.875  10.514  1.00  0.00     0.131 A 
ATOM     66  C   UNL     1      -4.518   8.194  10.518  1.00  0.00     0.055 A 
ATOM     67  C   UNL     1      -6.128   6.811  11.643  1.00  0.00     0.041 A 
ATOM     68  F   UNL     1      -8.088   6.168  10.536  1.00  0.00    -0.206 F 
ATOM     69  C   UNL     1      -4.896   7.459  11.643  1.00  0.00     0.022 A 
BRANCH  66  70
ATOM     70  S   UNL     1      -2.833   8.855  10.389  1.00  0.00     0.124 S 
ATOM     71  O   UNL     1      -2.328   8.143   9.217  1.00  0.00    -0.237 OA
ATOM     72  O   UNL     1      -3.067  10.284  10.217  1.00  0.00    -0.237 OA
ATOM     73  O   UNL     1      -2.216   8.470  11.656  1.00  0.00    -0.744 OA
ENDBRANCH  66  70
ENDBRANCH  49  63
BRANCH  50  74
ATOM     74  C   UNL     1     -12.325   7.301   1.177  1.00  0.00     0.023 A 
ATOM     75  C   UNL     1     -12.874   8.454   0.593  1.00  0.00     0.031 A 
ATOM     76  C   UNL     1     -12.675   6.056   0.625  1.00  0.00     0.131 A 
ATOM     77  C   UNL     1     -13.782   8.338  -0.472  1.00  0.00     0.055 A 
ATOM     78  C   UNL     1     -13.533   5.948  -0.471  1.00  0.00     0.041 A 
ATOM     79  F   UNL     1     -12.179   4.920   1.142  1.00  0.00    -0.206 F 
ATOM     80  C   UNL     1     -14.104   7.093  -1.018  1.00  0.00     0.022 A 
BRANCH  77  81
ATOM     81  S   UNL     1     -14.613   9.834  -1.074  1.00  0.00     0.124 S 
ATOM     82  O   UNL     1     -15.272  10.315   0.135  1.00  0.00    -0.237 OA
ATOM     83  O   UNL     1     -13.490  10.632  -1.554  1.00  0.00    -0.237 OA
ATOM     84  O   UNL     1     -15.508   9.331  -2.115  1.00  0.00    -0.744 OA
ENDBRANCH  77  81
ENDBRANCH  50  74
BRANCH  62  85
ATOM     85  C   UNL     1     -13.370   9.604   7.675  1.00  0.00     0.023 A 
ATOM     86  C   UNL     1     -14.590   8.927   7.846  1.00  0.00     0.031 A 
ATOM     87  C   UNL     1     -13.287  10.937   8.118  1.00  0.00     0.131 A 
ATOM     88  C   UNL     1     -15.697   9.604   8.383  1.00  0.00     0.055 A 
ATOM     89  C   UNL     1     -14.371  11.582   8.715  1.00  0.00     0.041 A 
ATOM     90  F   UNL     1     -12.149  11.635   7.978  1.00  0.00    -0.206 F 
ATOM     91  C   UNL     1     -15.590  10.921   8.835  1.00  0.00     0.022 A 
BRANCH  88  92
ATOM     92  S   UNL     1     -17.310   8.774   8.377  1.00  0.00     0.124 S 
ATOM     93  O   UNL     1     -17.491   8.473   6.961  1.00  0.00    -0.237 OA
ATOM     94  O   UNL     1     -17.074   7.627   9.247  1.00  0.00    -0.237 OA
ATOM     95  O   UNL     1     -18.217   9.785   8.918  1.00  0.00    -0.744 OA
ENDBRANCH  88  92
ENDBRANCH  62  85
ENDBRANCH  36  37
ENDBRANCH  28  31
ENDBRANCH  26  27
ENDBRANCH  25  26
ENDBRANCH  24  25
ENDBRANCH   1  24
TORSDOF 19
