REMARK SMILES O=C(NCCCCNC(=O)c1ccc(-n2cc(CSc3nc4ccccc4c(=O)n3-c3ccc(Br)cc3)nn2)cc1)c1ccc(-c2c3nc(c(-c4cc(S(=O)(=O)[O-])ccc4F)c4ccc([nH]4)c(-c4cc(S(=O)(=O)[O-])ccc4F)c4nc(c(-c5cc(S(=O)(=O)[O-])ccc5F)c5ccc2[nH]5)C=C4)C=C3)cc1
REMARK SMILES IDX 6 1 5 2 4 3 3 4 1 5 2 6 42 8 43 9 104 10 44 11 103 12 45 13
REMARK SMILES IDX 46 14 47 15 97 16 48 17 102 18 96 19 98 20 49 21 101 22
REMARK SMILES IDX 95 23 94 24 50 26 82 27 62 28 81 29 63 30 66 31 80 32 99 33
REMARK SMILES IDX 64 34 65 35 79 37 100 38 67 39 51 40 52 41 60 42 53 43 59 44
REMARK SMILES IDX 61 45 58 46 54 47 55 48 56 49 57 50 83 51 84 52 92 53 85 54
REMARK SMILES IDX 91 55 93 56 90 57 86 58 87 59 88 60 89 61 68 62 69 63 77 64
REMARK SMILES IDX 70 65 76 66 78 67 75 68 71 69 72 70 73 71 74 72 7 73 8 74
REMARK SMILES IDX 9 75 10 77 11 78 12 79 41 80 13 81 40 82 14 83 15 84 16 85
REMARK SMILES IDX 39 86 17 87 38 88 18 89 19 90 20 91 21 92 30 93 22 94 28 95
REMARK SMILES IDX 23 96 27 97 29 98 24 99 26 100 25 101 31 102 32 103 37 104
REMARK SMILES IDX 33 105 36 106 34 107 35 108
REMARK H PARENT 3 7 98 25 66 36 8 76
REMARK Flexibility Score: inf
ROOT
ATOM      1  C   UNL     1       4.478  -3.251  -1.200  1.00  0.00     0.023 C 
ENDROOT
BRANCH   1   2
ATOM      2  C   UNL     1       4.998  -2.174  -0.248  1.00  0.00     0.023 C 
BRANCH   2   3
ATOM      3  C   UNL     1       4.709  -0.726  -0.649  1.00  0.00     0.116 C 
BRANCH   3   4
ATOM      4  N   UNL     1       3.327  -0.426  -0.968  1.00  0.00    -0.352 N 
ATOM      5  O   UNL     1       1.257   0.328  -0.885  1.00  0.00    -0.269 OA
ATOM      6  C   UNL     1       2.225  -0.078  -0.234  1.00  0.00     0.251 C 
ATOM      7  H   UNL     1       3.138  -0.486  -1.932  1.00  0.00     0.163 HD
BRANCH   6   8
ATOM      8  C   UNL     1       2.098  -0.205   1.245  1.00  0.00     0.039 A 
ATOM      9  C   UNL     1       3.134  -0.520   2.123  1.00  0.00     0.014 A 
ATOM     10  C   UNL     1       0.805  -0.027   1.776  1.00  0.00     0.014 A 
ATOM     11  C   UNL     1       2.877  -0.747   3.473  1.00  0.00     0.010 A 
ATOM     12  C   UNL     1       0.547  -0.226   3.130  1.00  0.00     0.010 A 
ATOM     13  C   UNL     1       1.581  -0.619   3.974  1.00  0.00    -0.014 A 
BRANCH  13  14
ATOM     14  C   UNL     1       1.391  -0.770   5.417  1.00  0.00     0.031 A 
ATOM     15  C   UNL     1       2.036   0.274   6.262  1.00  0.00     0.074 A 
ATOM     16  C   UNL     1       0.573  -1.678   5.984  1.00  0.00     0.049 A 
ATOM     17  N   UNL     1       2.920   0.126   7.195  1.00  0.00    -0.248 NA
ATOM     18  C   UNL     1       1.714   1.677   5.966  1.00  0.00     0.031 C 
ATOM     19  C   UNL     1      -0.367  -2.573   5.308  1.00  0.00     0.029 A 
ATOM     20  N   UNL     1       0.326  -1.902   7.309  1.00  0.00    -0.354 N 
ATOM     21  C   UNL     1       3.120   1.391   7.748  1.00  0.00     0.074 A 
ATOM     22  C   UNL     1       2.473   2.316   6.856  1.00  0.00     0.031 C 
ATOM     23  C   UNL     1      -1.230  -3.073   6.219  1.00  0.00     0.029 A 
ATOM     24  C   UNL     1      -0.831  -2.634   7.547  1.00  0.00     0.049 A 
ATOM     25  H   UNL     1       0.914  -1.576   8.028  1.00  0.00     0.167 HD
ATOM     26  C   UNL     1       3.641   1.556   8.997  1.00  0.00     0.034 A 
ATOM     27  C   UNL     1      -1.467  -2.804   8.735  1.00  0.00     0.034 A 
ATOM     28  C   UNL     1       4.343   0.369   9.432  1.00  0.00     0.049 A 
ATOM     29  C   UNL     1      -0.484  -2.554   9.815  1.00  0.00     0.074 A 
ATOM     30  C   UNL     1       5.399  -0.371   8.934  1.00  0.00     0.029 A 
ATOM     31  N   UNL     1       3.770  -0.428  10.398  1.00  0.00    -0.354 N 
ATOM     32  N   UNL     1       0.549  -3.316  10.046  1.00  0.00    -0.248 NA
ATOM     33  C   UNL     1      -0.407  -1.220  10.392  1.00  0.00     0.031 C 
ATOM     34  C   UNL     1       5.086  -1.725   9.252  1.00  0.00     0.029 A 
ATOM     35  C   UNL     1       3.888  -1.724   9.967  1.00  0.00     0.049 A 
ATOM     36  H   UNL     1       3.355  -0.125  11.238  1.00  0.00     0.167 HD
ATOM     37  C   UNL     1       1.562  -2.447  10.416  1.00  0.00     0.074 A 
ATOM     38  C   UNL     1       0.886  -1.191  10.726  1.00  0.00     0.031 C 
ATOM     39  C   UNL     1       2.874  -2.739  10.169  1.00  0.00     0.034 A 
BRANCH  26  40
ATOM     40  C   UNL     1       3.228   2.646   9.974  1.00  0.00     0.023 A 
ATOM     41  C   UNL     1       3.779   2.578  11.270  1.00  0.00     0.031 A 
ATOM     42  C   UNL     1       2.134   3.526   9.829  1.00  0.00     0.131 A 
ATOM     43  C   UNL     1       3.155   3.207  12.361  1.00  0.00     0.055 A 
ATOM     44  C   UNL     1       1.565   4.218  10.905  1.00  0.00     0.041 A 
ATOM     45  F   UNL     1       1.497   3.712   8.669  1.00  0.00    -0.206 F 
ATOM     46  C   UNL     1       2.044   4.024  12.189  1.00  0.00     0.022 A 
BRANCH  43  47
ATOM     47  S   UNL     1       3.683   2.734  14.028  1.00  0.00     0.124 S 
ATOM     48  O   UNL     1       3.642   1.278  13.941  1.00  0.00    -0.237 OA
ATOM     49  O   UNL     1       5.009   3.339  14.103  1.00  0.00    -0.237 OA
ATOM     50  O   UNL     1       2.669   3.338  14.888  1.00  0.00    -0.744 OA
ENDBRANCH  43  47
ENDBRANCH  26  40
BRANCH  27  51
ATOM     51  C   UNL     1      -2.936  -2.884   8.953  1.00  0.00     0.023 A 
ATOM     52  C   UNL     1      -3.508  -3.437  10.116  1.00  0.00     0.031 A 
ATOM     53  C   UNL     1      -3.813  -2.196   8.082  1.00  0.00     0.131 A 
ATOM     54  C   UNL     1      -4.895  -3.305  10.358  1.00  0.00     0.055 A 
ATOM     55  C   UNL     1      -5.183  -2.083   8.316  1.00  0.00     0.041 A 
ATOM     56  F   UNL     1      -3.351  -1.535   7.008  1.00  0.00    -0.206 F 
ATOM     57  C   UNL     1      -5.731  -2.633   9.462  1.00  0.00     0.022 A 
BRANCH  54  58
ATOM     58  S   UNL     1      -5.624  -3.922  11.909  1.00  0.00     0.124 S 
ATOM     59  O   UNL     1      -5.550  -5.368  11.733  1.00  0.00    -0.237 OA
ATOM     60  O   UNL     1      -4.746  -3.345  12.920  1.00  0.00    -0.237 OA
ATOM     61  O   UNL     1      -6.979  -3.370  11.892  1.00  0.00    -0.744 OA
ENDBRANCH  54  58
ENDBRANCH  27  51
BRANCH  39  62
ATOM     62  C   UNL     1       3.255  -4.161   9.823  1.00  0.00     0.023 A 
ATOM     63  C   UNL     1       2.723  -4.891   8.739  1.00  0.00     0.031 A 
ATOM     64  C   UNL     1       4.304  -4.747  10.556  1.00  0.00     0.131 A 
ATOM     65  C   UNL     1       3.236  -6.165   8.431  1.00  0.00     0.055 A 
ATOM     66  C   UNL     1       4.821  -6.001  10.237  1.00  0.00     0.041 A 
ATOM     67  F   UNL     1       4.875  -4.087  11.577  1.00  0.00    -0.206 F 
ATOM     68  C   UNL     1       4.284  -6.719   9.175  1.00  0.00     0.022 A 
BRANCH  65  69
ATOM     69  S   UNL     1       2.545  -7.128   7.049  1.00  0.00     0.124 S 
ATOM     70  O   UNL     1       1.105  -7.049   7.262  1.00  0.00    -0.237 OA
ATOM     71  O   UNL     1       3.061  -6.417   5.881  1.00  0.00    -0.237 OA
ATOM     72  O   UNL     1       3.117  -8.462   7.245  1.00  0.00    -0.744 OA
ENDBRANCH  65  69
ENDBRANCH  39  62
ENDBRANCH  13  14
ENDBRANCH   6   8
ENDBRANCH   3   4
ENDBRANCH   2   3
ENDBRANCH   1   2
BRANCH   1  73
ATOM     73  C   UNL     1       4.826  -3.058  -2.670  1.00  0.00     0.116 C 
BRANCH  73  74
ATOM     74  N   UNL     1       6.256  -3.107  -2.934  1.00  0.00    -0.352 N 
ATOM     75  C   UNL     1       6.956  -3.970  -3.749  1.00  0.00     0.251 C 
ATOM     76  H   UNL     1       6.798  -2.432  -2.466  1.00  0.00     0.163 HD
ATOM     77  O   UNL     1       8.167  -3.909  -3.848  1.00  0.00    -0.269 OA
BRANCH  75  78
ATOM     78  C   UNL     1       6.206  -4.998  -4.499  1.00  0.00     0.039 A 
ATOM     79  C   UNL     1       6.459  -6.348  -4.226  1.00  0.00     0.016 A 
ATOM     80  C   UNL     1       5.241  -4.621  -5.437  1.00  0.00     0.016 A 
ATOM     81  C   UNL     1       5.676  -7.339  -4.822  1.00  0.00     0.029 A 
ATOM     82  C   UNL     1       4.484  -5.606  -6.061  1.00  0.00     0.029 A 
ATOM     83  C   UNL     1       4.691  -6.959  -5.734  1.00  0.00     0.066 A 
BRANCH  83  84
ATOM     84  N   UNL     1       3.966  -7.936  -6.435  1.00  0.00    -0.220 N 
ATOM     85  C   UNL     1       3.761  -7.921  -7.784  1.00  0.00     0.141 A 
ATOM     86  N   UNL     1       3.247  -8.928  -5.878  1.00  0.00    -0.062 NA
ATOM     87  C   UNL     1       2.810  -8.871  -8.041  1.00  0.00     0.093 A 
ATOM     88  N   UNL     1       2.486  -9.461  -6.838  1.00  0.00    -0.134 NA
BRANCH  87  89
ATOM     89  C   UNL     1       1.985  -9.065  -9.257  1.00  0.00     0.138 C 
BRANCH  89  90
ATOM     90  S   UNL     1       2.586  -9.770 -10.793  1.00  0.00    -0.081 SA
BRANCH  90  91
ATOM     91  C   UNL     1       4.324  -9.805 -10.900  1.00  0.00     0.176 A 
ATOM     92  N   UNL     1       4.752 -10.949 -11.351  1.00  0.00    -0.223 NA
ATOM     93  N   UNL     1       5.194  -8.763 -10.599  1.00  0.00    -0.255 N 
ATOM     94  C   UNL     1       6.129 -11.165 -11.439  1.00  0.00     0.079 A 
ATOM     95  C   UNL     1       6.420  -9.195 -10.071  1.00  0.00     0.266 A 
ATOM     96  C   UNL     1       6.649 -12.211 -12.202  1.00  0.00     0.029 A 
ATOM     97  C   UNL     1       7.001 -10.390 -10.693  1.00  0.00     0.066 A 
ATOM     98  O   UNL     1       7.029  -8.686  -9.131  1.00  0.00    -0.268 OA
ATOM     99  C   UNL     1       8.019 -12.497 -12.166  1.00  0.00     0.002 A 
ATOM    100  C   UNL     1       8.363 -10.692 -10.602  1.00  0.00     0.016 A 
ATOM    101  C   UNL     1       8.871 -11.758 -11.342  1.00  0.00     0.001 A 
BRANCH  93 102
ATOM    102  C   UNL     1       4.945  -7.331 -10.677  1.00  0.00     0.051 A 
ATOM    103  C   UNL     1       5.973  -6.414 -10.355  1.00  0.00     0.028 A 
ATOM    104  C   UNL     1       3.711  -6.756 -11.010  1.00  0.00     0.028 A 
ATOM    105  C   UNL     1       5.725  -5.055 -10.131  1.00  0.00     0.018 A 
ATOM    106  C   UNL     1       3.439  -5.401 -10.752  1.00  0.00     0.018 A 
ATOM    107  C   UNL     1       4.439  -4.566 -10.273  1.00  0.00     0.018 A 
ATOM    108  Br  UNL     1       4.049  -2.783  -9.801  1.00  0.00    -0.051 Br
ENDBRANCH  93 102
ENDBRANCH  90  91
ENDBRANCH  89  90
ENDBRANCH  87  89
ENDBRANCH  83  84
ENDBRANCH  75  78
ENDBRANCH  73  74
ENDBRANCH   1  73
TORSDOF 19
