REMARK SMILES CCOc1ccc(-c2cc(Cl)cc3c2O[C@H](C(F)(F)F)C(C(=O)NCCCCNC(=O)c2ccc(-c4c5nc(c(-c6cc(S(=O)(=O)[O-])ccc6F)c6ccc([nH]6)c(-c6cc(S(=O)(=O)[O-])ccc6F)c6nc(c(-c7cc(S(=O)(=O)[O-])ccc7F)c7ccc4[nH]7)C=C6)C=C5)cc2)=C3)cc1
REMARK SMILES IDX 26 1 25 2 24 3 22 4 23 5 21 7 8 8 9 9 14 10 10 11 13 12
REMARK SMILES IDX 15 13 11 14 12 15 95 16 16 17 7 18 4 19 5 20 97 21 6 22
REMARK SMILES IDX 96 23 3 24 2 25 1 26 17 27 18 28 19 29 20 30 27 31 28 32
REMARK SMILES IDX 29 33 30 34 31 36 32 37 33 38 94 39 34 40 93 41 35 42 36 43
REMARK SMILES IDX 37 44 87 45 38 46 92 47 86 48 88 49 39 50 91 51 85 52 84 53
REMARK SMILES IDX 40 55 72 56 52 57 71 58 53 59 56 60 70 61 89 62 54 63 55 64
REMARK SMILES IDX 69 66 90 67 57 68 41 69 42 70 50 71 43 72 49 73 51 74 48 75
REMARK SMILES IDX 44 76 45 77 46 78 47 79 73 80 74 81 82 82 75 83 81 84 83 85
REMARK SMILES IDX 80 86 76 87 77 88 78 89 79 90 58 91 59 92 67 93 60 94 66 95
REMARK SMILES IDX 68 96 65 97 61 98 62 99 63 100 64 101
REMARK H PARENT 24 6 29 35 88 54 56 65
REMARK Flexibility Score: inf
ROOT
ATOM      1  C   UNL     1      13.741   3.195   6.730  1.00  0.00     0.023 C 
ENDROOT
BRANCH   1   2
ATOM      2  C   UNL     1      13.143   2.929   5.341  1.00  0.00     0.116 C 
BRANCH   2   3
ATOM      3  N   UNL     1      12.527   1.620   5.319  1.00  0.00    -0.352 N 
ATOM      4  C   UNL     1      11.288   1.266   4.909  1.00  0.00     0.251 C 
ATOM      5  O   UNL     1      10.722   0.343   5.483  1.00  0.00    -0.270 OA
ATOM      6  H   UNL     1      13.090   0.882   5.649  1.00  0.00     0.163 HD
BRANCH   4   7
ATOM      7  C   UNL     1      10.716   1.938   3.701  1.00  0.00     0.067 C 
ATOM      8  C   UNL     1       7.072   0.108   3.646  1.00  0.00     0.026 A 
ATOM      9  C   UNL     1       7.314  -1.268   3.887  1.00  0.00     0.033 A 
ATOM     10  C   UNL     1       8.200   0.893   3.338  1.00  0.00     0.135 A 
ATOM     11  C   UNL     1       8.546  -1.867   3.635  1.00  0.00     0.042 A 
ATOM     12  C   UNL     1       9.408   0.249   2.970  1.00  0.00     0.019 A 
ATOM     13  O   UNL     1       8.218   2.279   3.433  1.00  0.00    -0.475 OA
ATOM     14  Cl  UNL     1       8.763  -3.539   3.963  1.00  0.00    -0.084 Cl
ATOM     15  C   UNL     1       9.578  -1.127   3.093  1.00  0.00     0.032 A 
ATOM     16  C   UNL     1      10.577   1.099   2.655  1.00  0.00     0.025 C 
ATOM     17  C   UNL     1       9.506   2.825   3.974  1.00  0.00     0.314 C 
BRANCH   8  18
ATOM     18  C   UNL     1       5.633   0.467   3.500  1.00  0.00    -0.014 A 
ATOM     19  C   UNL     1       2.903   0.181   2.752  1.00  0.00     0.119 A 
ATOM     20  C   UNL     1       3.318  -0.165   4.035  1.00  0.00     0.047 A 
ATOM     21  C   UNL     1       3.813   0.776   1.884  1.00  0.00     0.047 A 
ATOM     22  C   UNL     1       4.665  -0.013   4.409  1.00  0.00     0.013 A 
ATOM     23  C   UNL     1       5.162   0.922   2.255  1.00  0.00     0.013 A 
BRANCH  19  24
ATOM     24  O   UNL     1       1.579   0.020   2.447  1.00  0.00    -0.494 OA
BRANCH  24  25
ATOM     25  C   UNL     1       1.303  -0.843   1.334  1.00  0.00     0.226 C 
ATOM     26  C   UNL     1       1.109  -0.056   0.047  1.00  0.00     0.049 C 
ENDBRANCH  24  25
ENDBRANCH  19  24
ENDBRANCH   8  18
BRANCH  17  27
ATOM     27  C   UNL     1       9.809   4.236   3.419  1.00  0.00     0.429 C 
ATOM     28  F   UNL     1       9.065   4.540   2.331  1.00  0.00    -0.167 F 
ATOM     29  F   UNL     1       9.578   5.192   4.352  1.00  0.00    -0.167 F 
ATOM     30  F   UNL     1      11.109   4.382   3.047  1.00  0.00    -0.167 F 
ENDBRANCH  17  27
ENDBRANCH   4   7
ENDBRANCH   2   3
ENDBRANCH   1   2
BRANCH   1  31
ATOM     31  C   UNL     1      14.817   2.196   7.183  1.00  0.00     0.023 C 
BRANCH  31  32
ATOM     32  C   UNL     1      15.986   2.029   6.219  1.00  0.00     0.116 C 
BRANCH  32  33
ATOM     33  N   UNL     1      16.747   3.259   6.075  1.00  0.00    -0.352 N 
ATOM     34  C   UNL     1      18.080   3.487   6.313  1.00  0.00     0.251 C 
ATOM     35  H   UNL     1      16.234   4.039   5.763  1.00  0.00     0.163 HD
ATOM     36  O   UNL     1      18.499   4.645   6.343  1.00  0.00    -0.269 OA
BRANCH  34  37
ATOM     37  C   UNL     1      18.998   2.354   6.560  1.00  0.00     0.039 A 
ATOM     38  C   UNL     1      19.922   2.447   7.603  1.00  0.00     0.014 A 
ATOM     39  C   UNL     1      18.948   1.200   5.770  1.00  0.00     0.014 A 
ATOM     40  C   UNL     1      20.745   1.357   7.898  1.00  0.00     0.010 A 
ATOM     41  C   UNL     1      19.716   0.089   6.115  1.00  0.00     0.010 A 
ATOM     42  C   UNL     1      20.621   0.153   7.185  1.00  0.00    -0.014 A 
BRANCH  42  43
ATOM     43  C   UNL     1      21.417  -1.047   7.561  1.00  0.00     0.031 A 
ATOM     44  C   UNL     1      22.408  -1.639   6.595  1.00  0.00     0.074 A 
ATOM     45  C   UNL     1      21.208  -1.634   8.757  1.00  0.00     0.049 A 
ATOM     46  N   UNL     1      23.155  -2.705   6.726  1.00  0.00    -0.248 NA
ATOM     47  C   UNL     1      22.558  -0.957   5.301  1.00  0.00     0.031 C 
ATOM     48  C   UNL     1      20.244  -1.179   9.763  1.00  0.00     0.029 A 
ATOM     49  N   UNL     1      21.786  -2.738   9.332  1.00  0.00    -0.354 N 
ATOM     50  C   UNL     1      23.859  -2.827   5.532  1.00  0.00     0.074 A 
ATOM     51  C   UNL     1      23.397  -1.762   4.667  1.00  0.00     0.031 C 
ATOM     52  C   UNL     1      20.322  -1.976  10.840  1.00  0.00     0.029 A 
ATOM     53  C   UNL     1      21.299  -3.029  10.587  1.00  0.00     0.049 A 
ATOM     54  H   UNL     1      22.484  -3.272   8.889  1.00  0.00     0.167 HD
ATOM     55  C   UNL     1      24.817  -3.728   5.198  1.00  0.00     0.034 A 
ATOM     56  C   UNL     1      21.595  -4.037  11.433  1.00  0.00     0.034 A 
ATOM     57  C   UNL     1      25.267  -4.783   6.075  1.00  0.00     0.049 A 
ATOM     58  C   UNL     1      22.636  -5.048  11.023  1.00  0.00     0.074 A 
ATOM     59  C   UNL     1      26.267  -5.715   5.857  1.00  0.00     0.029 A 
ATOM     60  N   UNL     1      24.741  -5.056   7.331  1.00  0.00    -0.354 N 
ATOM     61  N   UNL     1      23.333  -5.113   9.912  1.00  0.00    -0.248 NA
ATOM     62  C   UNL     1      22.937  -6.115  11.986  1.00  0.00     0.031 C 
ATOM     63  C   UNL     1      26.291  -6.597   6.942  1.00  0.00     0.029 A 
ATOM     64  C   UNL     1      25.368  -6.165   7.881  1.00  0.00     0.049 A 
ATOM     65  H   UNL     1      24.026  -4.538   7.768  1.00  0.00     0.167 HD
ATOM     66  C   UNL     1      24.177  -6.212  10.058  1.00  0.00     0.074 A 
ATOM     67  C   UNL     1      23.915  -6.763  11.372  1.00  0.00     0.031 C 
ATOM     68  C   UNL     1      25.087  -6.718   9.187  1.00  0.00     0.034 A 
BRANCH  55  69
ATOM     69  C   UNL     1      25.419  -3.624   3.815  1.00  0.00     0.023 A 
ATOM     70  C   UNL     1      26.130  -2.483   3.401  1.00  0.00     0.031 A 
ATOM     71  C   UNL     1      25.266  -4.672   2.890  1.00  0.00     0.131 A 
ATOM     72  C   UNL     1      26.592  -2.385   2.080  1.00  0.00     0.055 A 
ATOM     73  C   UNL     1      25.804  -4.604   1.603  1.00  0.00     0.041 A 
ATOM     74  F   UNL     1      24.579  -5.778   3.216  1.00  0.00    -0.206 F 
ATOM     75  C   UNL     1      26.459  -3.449   1.186  1.00  0.00     0.022 A 
BRANCH  72  76
ATOM     76  S   UNL     1      27.236  -0.789   1.505  1.00  0.00     0.124 S 
ATOM     77  O   UNL     1      26.095   0.092   1.744  1.00  0.00    -0.237 OA
ATOM     78  O   UNL     1      28.393  -0.586   2.368  1.00  0.00    -0.237 OA
ATOM     79  O   UNL     1      27.541  -1.031   0.096  1.00  0.00    -0.744 OA
ENDBRANCH  72  76
ENDBRANCH  55  69
BRANCH  56  80
ATOM     80  C   UNL     1      20.893  -4.156  12.744  1.00  0.00     0.023 A 
ATOM     81  C   UNL     1      21.598  -4.062  13.955  1.00  0.00     0.031 A 
ATOM     82  C   UNL     1      19.512  -4.414  12.806  1.00  0.00     0.131 A 
ATOM     83  C   UNL     1      20.933  -4.277  15.172  1.00  0.00     0.055 A 
ATOM     84  C   UNL     1      18.843  -4.567  14.022  1.00  0.00     0.041 A 
ATOM     85  F   UNL     1      18.788  -4.512  11.680  1.00  0.00    -0.206 F 
ATOM     86  C   UNL     1      19.557  -4.513  15.214  1.00  0.00     0.022 A 
BRANCH  83  87
ATOM     87  S   UNL     1      21.911  -4.340  16.698  1.00  0.00     0.124 S 
ATOM     88  O   UNL     1      22.851  -5.415  16.404  1.00  0.00    -0.237 OA
ATOM     89  O   UNL     1      22.472  -2.994  16.753  1.00  0.00    -0.237 OA
ATOM     90  O   UNL     1      20.918  -4.642  17.727  1.00  0.00    -0.744 OA
ENDBRANCH  83  87
ENDBRANCH  56  80
BRANCH  68  91
ATOM     91  C   UNL     1      25.894  -7.908   9.652  1.00  0.00     0.023 A 
ATOM     92  C   UNL     1      25.295  -9.151   9.921  1.00  0.00     0.031 A 
ATOM     93  C   UNL     1      27.282  -7.789   9.849  1.00  0.00     0.131 A 
ATOM     94  C   UNL     1      26.067 -10.204  10.434  1.00  0.00     0.055 A 
ATOM     95  C   UNL     1      28.057  -8.861  10.292  1.00  0.00     0.041 A 
ATOM     96  F   UNL     1      27.909  -6.625   9.613  1.00  0.00    -0.206 F 
ATOM     97  C   UNL     1      27.448 -10.073  10.603  1.00  0.00     0.022 A 
BRANCH  94  98
ATOM     98  S   UNL     1      25.225 -11.713  10.985  1.00  0.00     0.124 S 
ATOM     99  O   UNL     1      24.295 -11.194  11.983  1.00  0.00    -0.237 OA
ATOM    100  O   UNL     1      24.624 -12.204   9.749  1.00  0.00    -0.237 OA
ATOM    101  O   UNL     1      26.309 -12.537  11.517  1.00  0.00    -0.744 OA
ENDBRANCH  94  98
ENDBRANCH  68  91
ENDBRANCH  42  43
ENDBRANCH  34  37
ENDBRANCH  32  33
ENDBRANCH  31  32
ENDBRANCH   1  31
TORSDOF 18
