REMARK SMILES COc1ccc2c(c1)c(Cc1nc(-c3ccc(C(=O)NCCCCNC(=O)c4ccc(-c5c6nc(c(-c7cc(S(=O)(=O)[O-])ccc7F)c7ccc([nH]7)c(-c7cc(S(=O)(=O)[O-])ccc7F)c7nc(c(-c8cc(S(=O)(=O)[O-])ccc8F)c8ccc5[nH]8)C=C7)C=C6)cc4)cc3)cs1)c(C)n2C(=O)c1ccc(Cl)cc1
REMARK SMILES IDX 21 1 20 2 18 3 19 4 17 6 14 7 15 8 92 9 16 10 91 11 13 12
REMARK SMILES IDX 11 13 12 14 94 15 93 16 10 17 9 18 3 19 4 20 8 21 5 22 7 23
REMARK SMILES IDX 6 24 97 25 95 26 96 27 2 28 1 29 98 30 99 31 100 32 101 33
REMARK SMILES IDX 106 34 102 35 105 36 103 37 104 38 22 39 23 40 24 41 25 42
REMARK SMILES IDX 26 43 27 45 28 46 29 47 90 48 30 49 89 50 31 51 32 52 33 53
REMARK SMILES IDX 83 54 34 55 88 56 82 57 84 58 35 59 87 60 81 61 80 62 36 64
REMARK SMILES IDX 68 65 48 66 67 67 49 68 52 69 66 70 85 71 50 72 51 73 65 75
REMARK SMILES IDX 86 76 53 77 37 78 38 79 46 80 39 81 45 82 47 83 44 84 40 85
REMARK SMILES IDX 41 86 42 87 43 88 69 89 70 90 78 91 71 92 77 93 79 94 76 95
REMARK SMILES IDX 72 96 73 97 74 98 75 99 54 100 55 101 63 102 56 103 62 104
REMARK SMILES IDX 64 105 61 106 57 107 58 108 59 109 60 110
REMARK H PARENT 20 5 25 44 84 63 52 74
REMARK Flexibility Score: inf
ROOT
ATOM      1  C   UNL     1      -4.068   1.739   5.574  1.00  0.00     0.116 C 
ENDROOT
BRANCH   1   2
ATOM      2  N   UNL     1      -3.320   1.446   6.784  1.00  0.00    -0.352 N 
ATOM      3  C   UNL     1      -2.512   0.381   7.115  1.00  0.00     0.251 C 
ATOM      4  O   UNL     1      -1.947   0.392   8.210  1.00  0.00    -0.269 OA
ATOM      5  H   UNL     1      -3.404   2.127   7.490  1.00  0.00     0.163 HD
BRANCH   3   6
ATOM      6  C   UNL     1      -2.360  -0.817   6.242  1.00  0.00     0.039 A 
ATOM      7  C   UNL     1      -2.383  -3.207   4.743  1.00  0.00     0.001 A 
ATOM      8  C   UNL     1      -2.213  -3.247   6.130  1.00  0.00     0.011 A 
ATOM      9  C   UNL     1      -2.409  -1.957   4.107  1.00  0.00     0.011 A 
ATOM     10  C   UNL     1      -2.209  -2.061   6.873  1.00  0.00     0.014 A 
ATOM     11  C   UNL     1      -2.362  -0.772   4.848  1.00  0.00     0.014 A 
BRANCH   7  12
ATOM     12  C   UNL     1      -2.524  -4.416   3.944  1.00  0.00     0.081 A 
ATOM     13  C   UNL     1      -2.351  -5.606   2.078  1.00  0.00     0.098 A 
ATOM     14  N   UNL     1      -2.183  -4.414   2.609  1.00  0.00    -0.241 NA
ATOM     15  S   UNL     1      -3.033  -6.777   3.134  1.00  0.00    -0.126 S 
ATOM     16  C   UNL     1      -3.054  -5.609   4.395  1.00  0.00     0.095 A 
BRANCH  13  17
ATOM     17  C   UNL     1      -2.019  -5.936   0.652  1.00  0.00     0.105 C 
BRANCH  17  18
ATOM     18  C   UNL     1      -0.538  -5.855   0.363  1.00  0.00    -0.012 A 
ATOM     19  C   UNL     1       0.872  -2.300   0.426  1.00  0.00     0.119 A 
ATOM     20  C   UNL     1       2.142  -2.634  -0.005  1.00  0.00     0.048 A 
ATOM     21  C   UNL     1      -0.084  -3.303   0.575  1.00  0.00     0.057 A 
ATOM     22  C   UNL     1       2.472  -3.965  -0.290  1.00  0.00     0.031 A 
ATOM     23  C   UNL     1       0.232  -4.659   0.326  1.00  0.00     0.008 A 
ATOM     24  C   UNL     1       1.530  -4.995  -0.067  1.00  0.00     0.057 A 
ATOM     25  N   UNL     1       1.607  -6.400  -0.164  1.00  0.00    -0.280 N 
ATOM     26  C   UNL     1       0.314  -6.909   0.053  1.00  0.00     0.028 A 
ATOM     27  C   UNL     1      -0.086  -8.350  -0.018  1.00  0.00     0.065 C 
BRANCH  19  28
ATOM     28  O   UNL     1       0.469  -1.040   0.768  1.00  0.00    -0.497 OA
ATOM     29  C   UNL     1       1.006  -0.000  -0.041  1.00  0.00     0.278 C 
ENDBRANCH  19  28
BRANCH  25  30
ATOM     30  C   UNL     1       2.785  -7.154  -0.448  1.00  0.00     0.262 C 
ATOM     31  O   UNL     1       2.694  -8.364  -0.665  1.00  0.00    -0.268 OA
BRANCH  30  32
ATOM     32  C   UNL     1       4.148  -6.606  -0.557  1.00  0.00     0.040 A 
ATOM     33  C   UNL     1       4.781  -6.012   0.542  1.00  0.00     0.015 A 
ATOM     34  C   UNL     1       4.783  -6.662  -1.804  1.00  0.00     0.015 A 
ATOM     35  C   UNL     1       6.017  -5.386   0.361  1.00  0.00     0.021 A 
ATOM     36  C   UNL     1       6.021  -6.044  -1.975  1.00  0.00     0.021 A 
ATOM     37  C   UNL     1       6.623  -5.391  -0.898  1.00  0.00     0.041 A 
ATOM     38  Cl  UNL     1       8.113  -4.564  -1.133  1.00  0.00    -0.084 Cl
ENDBRANCH  30  32
ENDBRANCH  25  30
ENDBRANCH  17  18
ENDBRANCH  13  17
ENDBRANCH   7  12
ENDBRANCH   3   6
ENDBRANCH   1   2
BRANCH   1  39
ATOM     39  C   UNL     1      -5.464   2.307   5.806  1.00  0.00     0.023 C 
BRANCH  39  40
ATOM     40  C   UNL     1      -5.569   3.651   6.528  1.00  0.00     0.023 C 
BRANCH  40  41
ATOM     41  C   UNL     1      -4.640   4.763   6.041  1.00  0.00     0.116 C 
BRANCH  41  42
ATOM     42  N   UNL     1      -4.619   4.966   4.608  1.00  0.00    -0.352 N 
ATOM     43  C   UNL     1      -5.292   5.770   3.731  1.00  0.00     0.251 C 
ATOM     44  H   UNL     1      -3.963   4.386   4.157  1.00  0.00     0.163 HD
ATOM     45  O   UNL     1      -4.819   5.819   2.592  1.00  0.00    -0.269 OA
BRANCH  43  46
ATOM     46  C   UNL     1      -6.554   6.502   4.021  1.00  0.00     0.039 A 
ATOM     47  C   UNL     1      -7.213   6.525   5.250  1.00  0.00     0.014 A 
ATOM     48  C   UNL     1      -7.162   7.135   2.919  1.00  0.00     0.014 A 
ATOM     49  C   UNL     1      -8.500   7.045   5.345  1.00  0.00     0.010 A 
ATOM     50  C   UNL     1      -8.439   7.674   3.012  1.00  0.00     0.010 A 
ATOM     51  C   UNL     1      -9.131   7.567   4.213  1.00  0.00    -0.014 A 
BRANCH  51  52
ATOM     52  C   UNL     1     -10.509   8.026   4.350  1.00  0.00     0.031 A 
ATOM     53  C   UNL     1     -10.703   9.197   5.252  1.00  0.00     0.074 A 
ATOM     54  C   UNL     1     -11.527   7.502   3.640  1.00  0.00     0.049 A 
ATOM     55  N   UNL     1     -11.371   9.258   6.358  1.00  0.00    -0.248 NA
ATOM     56  C   UNL     1      -9.952  10.421   4.940  1.00  0.00     0.031 C 
ATOM     57  C   UNL     1     -11.455   6.591   2.494  1.00  0.00     0.029 A 
ATOM     58  N   UNL     1     -12.858   7.777   3.724  1.00  0.00    -0.354 N 
ATOM     59  C   UNL     1     -11.274  10.580   6.800  1.00  0.00     0.074 A 
ATOM     60  C   UNL     1     -10.273  11.203   5.971  1.00  0.00     0.031 C 
ATOM     61  C   UNL     1     -12.639   6.609   1.840  1.00  0.00     0.029 A 
ATOM     62  C   UNL     1     -13.585   7.408   2.602  1.00  0.00     0.049 A 
ATOM     63  H   UNL     1     -13.268   8.202   4.512  1.00  0.00     0.167 HD
ATOM     64  C   UNL     1     -12.149  11.114   7.701  1.00  0.00     0.034 A 
ATOM     65  C   UNL     1     -14.832   7.831   2.270  1.00  0.00     0.034 A 
ATOM     66  C   UNL     1     -12.911  10.090   8.360  1.00  0.00     0.049 A 
ATOM     67  C   UNL     1     -15.475   8.383   3.489  1.00  0.00     0.074 A 
ATOM     68  C   UNL     1     -12.598   9.033   9.189  1.00  0.00     0.029 A 
ATOM     69  N   UNL     1     -14.189   9.854   7.913  1.00  0.00    -0.354 N 
ATOM     70  N   UNL     1     -15.847   7.663   4.510  1.00  0.00    -0.248 NA
ATOM     71  C   UNL     1     -15.282   9.801   3.759  1.00  0.00     0.031 C 
ATOM     72  C   UNL     1     -13.484   7.992   8.799  1.00  0.00     0.029 A 
ATOM     73  C   UNL     1     -14.330   8.495   7.808  1.00  0.00     0.049 A 
ATOM     74  H   UNL     1     -14.873  10.531   7.708  1.00  0.00     0.167 HD
ATOM     75  C   UNL     1     -15.485   8.419   5.615  1.00  0.00     0.074 A 
ATOM     76  C   UNL     1     -15.229   9.762   5.093  1.00  0.00     0.031 C 
ATOM     77  C   UNL     1     -15.137   7.838   6.801  1.00  0.00     0.034 A 
BRANCH  64  78
ATOM     78  C   UNL     1     -12.538  12.573   7.769  1.00  0.00     0.023 A 
ATOM     79  C   UNL     1     -12.209  13.498   6.762  1.00  0.00     0.031 A 
ATOM     80  C   UNL     1     -13.456  13.027   8.741  1.00  0.00     0.131 A 
ATOM     81  C   UNL     1     -12.763  14.785   6.734  1.00  0.00     0.055 A 
ATOM     82  C   UNL     1     -14.062  14.289   8.677  1.00  0.00     0.041 A 
ATOM     83  F   UNL     1     -13.844  12.234   9.752  1.00  0.00    -0.206 F 
ATOM     84  C   UNL     1     -13.718  15.176   7.666  1.00  0.00     0.022 A 
BRANCH  81  85
ATOM     85  S   UNL     1     -12.255  15.971   5.460  1.00  0.00     0.124 S 
ATOM     86  O   UNL     1     -13.512  16.216   4.761  1.00  0.00    -0.237 OA
ATOM     87  O   UNL     1     -11.753  17.078   6.270  1.00  0.00    -0.237 OA
ATOM     88  O   UNL     1     -11.236  15.246   4.707  1.00  0.00    -0.744 OA
ENDBRANCH  81  85
ENDBRANCH  64  78
BRANCH  65  89
ATOM     89  C   UNL     1     -15.250   8.257   0.911  1.00  0.00     0.023 A 
ATOM     90  C   UNL     1     -14.289   8.767   0.017  1.00  0.00     0.031 A 
ATOM     91  C   UNL     1     -16.601   8.457   0.585  1.00  0.00     0.131 A 
ATOM     92  C   UNL     1     -14.677   9.482  -1.122  1.00  0.00     0.055 A 
ATOM     93  C   UNL     1     -16.989   9.159  -0.564  1.00  0.00     0.041 A 
ATOM     94  F   UNL     1     -17.571   8.035   1.412  1.00  0.00    -0.206 F 
ATOM     95  C   UNL     1     -16.024   9.687  -1.418  1.00  0.00     0.022 A 
BRANCH  92  96
ATOM     96  S   UNL     1     -13.421  10.234  -2.193  1.00  0.00     0.124 S 
ATOM     97  O   UNL     1     -13.875   9.841  -3.525  1.00  0.00    -0.237 OA
ATOM     98  O   UNL     1     -13.564  11.649  -1.871  1.00  0.00    -0.237 OA
ATOM     99  O   UNL     1     -12.177   9.605  -1.757  1.00  0.00    -0.744 OA
ENDBRANCH  92  96
ENDBRANCH  65  89
BRANCH  77 100
ATOM    100  C   UNL     1     -15.352   6.355   7.002  1.00  0.00     0.023 A 
ATOM    101  C   UNL     1     -15.918   5.959   8.227  1.00  0.00     0.031 A 
ATOM    102  C   UNL     1     -14.793   5.350   6.190  1.00  0.00     0.131 A 
ATOM    103  C   UNL     1     -15.859   4.623   8.636  1.00  0.00     0.055 A 
ATOM    104  C   UNL     1     -14.807   4.003   6.567  1.00  0.00     0.041 A 
ATOM    105  F   UNL     1     -14.132   5.642   5.062  1.00  0.00    -0.206 F 
ATOM    106  C   UNL     1     -15.322   3.636   7.806  1.00  0.00     0.022 A 
BRANCH 103 107
ATOM    107  S   UNL     1     -16.305   4.173  10.334  1.00  0.00     0.124 S 
ATOM    108  O   UNL     1     -17.492   3.349  10.131  1.00  0.00    -0.237 OA
ATOM    109  O   UNL     1     -15.114   3.457  10.789  1.00  0.00    -0.237 OA
ATOM    110  O   UNL     1     -16.538   5.456  10.990  1.00  0.00    -0.744 OA
ENDBRANCH 103 107
ENDBRANCH  77 100
ENDBRANCH  51  52
ENDBRANCH  43  46
ENDBRANCH  41  42
ENDBRANCH  40  41
ENDBRANCH  39  40
ENDBRANCH   1  39
TORSDOF 20
