REMARK SMILES C[C@@H](C(=O)NCCCCNC(=O)c1ccc(-c2c3nc(c(-c4cc(S(=O)(=O)[O-])ccc4F)c4ccc([nH]4)c(-c4cc(S(=O)(=O)[O-])ccc4F)c4nc(c(-c5cc(S(=O)(=O)[O-])ccc5F)c5ccc2[nH]5)C=C4)C=C3)cc1)c1ccc(-c2ccccc2)c(F)c1
REMARK SMILES IDX 8 1 7 2 6 3 5 4 3 5 4 6 2 8 1 9 76 10 77 11 88 12 78 13
REMARK SMILES IDX 86 14 79 15 87 16 80 17 81 18 85 19 82 20 84 21 83 22 9 23
REMARK SMILES IDX 10 24 11 25 12 27 13 28 14 29 75 30 15 31 74 32 16 33 17 34
REMARK SMILES IDX 18 35 68 36 19 37 73 38 67 39 69 40 20 41 72 42 66 43 65 44
REMARK SMILES IDX 21 46 53 47 33 48 52 49 34 50 37 51 51 52 70 53 35 54 36 55
REMARK SMILES IDX 50 57 71 58 38 59 22 60 23 61 31 62 24 63 30 64 32 65 29 66
REMARK SMILES IDX 25 67 26 68 27 69 28 70 54 71 55 72 63 73 56 74 62 75 64 76
REMARK SMILES IDX 61 77 57 78 58 79 59 80 60 81 39 82 40 83 48 84 41 85 47 86
REMARK SMILES IDX 49 87 46 88 42 89 43 90 44 91 45 92
REMARK H PARENT 5 7 10 26 69 45 37 56
REMARK Flexibility Score: inf
ROOT
ATOM      1  C   UNL     1       5.141   2.235  -0.845  1.00  0.00     0.023 C 
ENDROOT
BRANCH   1   2
ATOM      2  C   UNL     1       4.364   1.074  -0.218  1.00  0.00     0.023 C 
BRANCH   2   3
ATOM      3  C   UNL     1       3.509   1.448   0.997  1.00  0.00     0.116 C 
BRANCH   3   4
ATOM      4  N   UNL     1       2.483   2.409   0.637  1.00  0.00    -0.356 N 
ATOM      5  C   UNL     1       1.163   2.211   0.341  1.00  0.00     0.227 C 
ATOM      6  O   UNL     1       0.592   3.127  -0.253  1.00  0.00    -0.274 OA
ATOM      7  H   UNL     1       2.783   3.345   0.601  1.00  0.00     0.163 HD
BRANCH   5   8
ATOM      8  C   UNL     1       0.482   0.884   0.727  1.00  0.00     0.105 C 
ATOM      9  C   UNL     1       0.806  -0.137  -0.375  1.00  0.00     0.023 C 
BRANCH   8  10
ATOM     10  C   UNL     1      -1.032   0.945   0.984  1.00  0.00    -0.033 A 
ATOM     11  C   UNL     1      -1.741   2.143   1.142  1.00  0.00     0.005 A 
ATOM     12  C   UNL     1      -1.769  -0.248   1.097  1.00  0.00     0.044 A 
ATOM     13  C   UNL     1      -3.138   2.154   1.272  1.00  0.00     0.012 A 
ATOM     14  C   UNL     1      -3.158  -0.232   1.234  1.00  0.00     0.131 A 
ATOM     15  C   UNL     1      -3.877   0.965   1.289  1.00  0.00     0.017 A 
ATOM     16  F   UNL     1      -3.797  -1.412   1.281  1.00  0.00    -0.206 F 
BRANCH  15  17
ATOM     17  C   UNL     1      -5.345   0.990   1.337  1.00  0.00    -0.015 A 
ATOM     18  C   UNL     1      -6.078   1.693   0.364  1.00  0.00     0.009 A 
ATOM     19  C   UNL     1      -6.057   0.315   2.340  1.00  0.00     0.009 A 
ATOM     20  C   UNL     1      -7.474   1.722   0.395  1.00  0.00     0.001 A 
ATOM     21  C   UNL     1      -7.453   0.346   2.374  1.00  0.00     0.001 A 
ATOM     22  C   UNL     1      -8.161   1.050   1.402  1.00  0.00     0.000 A 
ENDBRANCH  15  17
ENDBRANCH   8  10
ENDBRANCH   5   8
ENDBRANCH   3   4
ENDBRANCH   2   3
ENDBRANCH   1   2
BRANCH   1  23
ATOM     23  C   UNL     1       6.119   2.932   0.089  1.00  0.00     0.116 C 
BRANCH  23  24
ATOM     24  N   UNL     1       7.140   2.031   0.601  1.00  0.00    -0.352 N 
ATOM     25  C   UNL     1       8.490   2.252   0.731  1.00  0.00     0.251 C 
ATOM     26  H   UNL     1       6.821   1.146   0.892  1.00  0.00     0.163 HD
ATOM     27  O   UNL     1       9.233   1.326   1.041  1.00  0.00    -0.269 OA
BRANCH  25  28
ATOM     28  C   UNL     1       9.034   3.599   0.462  1.00  0.00     0.039 A 
ATOM     29  C   UNL     1      10.159   3.726  -0.358  1.00  0.00     0.014 A 
ATOM     30  C   UNL     1       8.419   4.734   0.996  1.00  0.00     0.014 A 
ATOM     31  C   UNL     1      10.629   4.998  -0.694  1.00  0.00     0.010 A 
ATOM     32  C   UNL     1       8.846   5.999   0.605  1.00  0.00     0.010 A 
ATOM     33  C   UNL     1       9.957   6.144  -0.241  1.00  0.00    -0.014 A 
BRANCH  33  34
ATOM     34  C   UNL     1      10.408   7.510  -0.609  1.00  0.00     0.031 A 
ATOM     35  C   UNL     1      10.888   8.446   0.467  1.00  0.00     0.074 A 
ATOM     36  C   UNL     1      10.302   7.936  -1.882  1.00  0.00     0.049 A 
ATOM     37  N   UNL     1      11.183   9.717   0.392  1.00  0.00    -0.248 NA
ATOM     38  C   UNL     1      11.014   7.876   1.816  1.00  0.00     0.031 C 
ATOM     39  C   UNL     1       9.819   7.132  -3.006  1.00  0.00     0.029 A 
ATOM     40  N   UNL     1      10.574   9.159  -2.442  1.00  0.00    -0.354 N 
ATOM     41  C   UNL     1      11.505  10.107   1.688  1.00  0.00     0.074 A 
ATOM     42  C   UNL     1      11.309   8.948   2.533  1.00  0.00     0.031 C 
ATOM     43  C   UNL     1       9.839   7.879  -4.122  1.00  0.00     0.029 A 
ATOM     44  C   UNL     1      10.291   9.226  -3.786  1.00  0.00     0.049 A 
ATOM     45  H   UNL     1      10.938   9.917  -1.930  1.00  0.00     0.167 HD
ATOM     46  C   UNL     1      11.941  11.315   2.127  1.00  0.00     0.034 A 
ATOM     47  C   UNL     1      10.367  10.262  -4.646  1.00  0.00     0.034 A 
ATOM     48  C   UNL     1      12.147  12.452   1.264  1.00  0.00     0.049 A 
ATOM     49  C   UNL     1      10.845  11.598  -4.137  1.00  0.00     0.074 A 
ATOM     50  C   UNL     1      12.634  13.706   1.589  1.00  0.00     0.029 A 
ATOM     51  N   UNL     1      11.873  12.475  -0.099  1.00  0.00    -0.354 N 
ATOM     52  N   UNL     1      11.178  11.945  -2.915  1.00  0.00    -0.248 NA
ATOM     53  C   UNL     1      10.966  12.678  -5.124  1.00  0.00     0.031 C 
ATOM     54  C   UNL     1      12.599  14.503   0.439  1.00  0.00     0.029 A 
ATOM     55  C   UNL     1      12.159  13.727  -0.622  1.00  0.00     0.049 A 
ATOM     56  H   UNL     1      11.526  11.713  -0.617  1.00  0.00     0.167 HD
ATOM     57  C   UNL     1      11.580  13.276  -2.995  1.00  0.00     0.074 A 
ATOM     58  C   UNL     1      11.453  13.664  -4.385  1.00  0.00     0.031 C 
ATOM     59  C   UNL     1      12.021  14.100  -2.011  1.00  0.00     0.034 A 
BRANCH  46  60
ATOM     60  C   UNL     1      12.190  11.460   3.610  1.00  0.00     0.023 A 
ATOM     61  C   UNL     1      13.154  10.682   4.276  1.00  0.00     0.031 A 
ATOM     62  C   UNL     1      11.418  12.348   4.380  1.00  0.00     0.131 A 
ATOM     63  C   UNL     1      13.255  10.737   5.674  1.00  0.00     0.055 A 
ATOM     64  C   UNL     1      11.587  12.465   5.761  1.00  0.00     0.041 A 
ATOM     65  F   UNL     1      10.468  13.103   3.805  1.00  0.00    -0.206 F 
ATOM     66  C   UNL     1      12.497  11.642   6.420  1.00  0.00     0.022 A 
BRANCH  63  67
ATOM     67  S   UNL     1      14.269   9.490   6.516  1.00  0.00     0.124 S 
ATOM     68  O   UNL     1      13.638   8.249   6.071  1.00  0.00    -0.237 OA
ATOM     69  O   UNL     1      15.601   9.755   5.985  1.00  0.00    -0.237 OA
ATOM     70  O   UNL     1      14.087   9.799   7.932  1.00  0.00    -0.744 OA
ENDBRANCH  63  67
ENDBRANCH  46  60
BRANCH  47  71
ATOM     71  C   UNL     1       9.973  10.086  -6.072  1.00  0.00     0.023 A 
ATOM     72  C   UNL     1      10.925  10.173  -7.099  1.00  0.00     0.031 A 
ATOM     73  C   UNL     1       8.633   9.854  -6.430  1.00  0.00     0.131 A 
ATOM     74  C   UNL     1      10.519  10.069  -8.439  1.00  0.00     0.055 A 
ATOM     75  C   UNL     1       8.242   9.706  -7.761  1.00  0.00     0.041 A 
ATOM     76  F   UNL     1       7.686   9.754  -5.484  1.00  0.00    -0.206 F 
ATOM     77  C   UNL     1       9.186   9.825  -8.776  1.00  0.00     0.022 A 
BRANCH  74  78
ATOM     78  S   UNL     1      11.754  10.326  -9.742  1.00  0.00     0.124 S 
ATOM     79  O   UNL     1      12.208  11.682  -9.460  1.00  0.00    -0.237 OA
ATOM     80  O   UNL     1      12.710   9.258  -9.468  1.00  0.00    -0.237 OA
ATOM     81  O   UNL     1      10.985  10.168 -10.975  1.00  0.00    -0.744 OA
ENDBRANCH  74  78
ENDBRANCH  47  71
BRANCH  59  82
ATOM     82  C   UNL     1      12.454  15.486  -2.419  1.00  0.00     0.023 A 
ATOM     83  C   UNL     1      11.535  16.448  -2.870  1.00  0.00     0.031 A 
ATOM     84  C   UNL     1      13.813  15.844  -2.355  1.00  0.00     0.131 A 
ATOM     85  C   UNL     1      11.993  17.708  -3.286  1.00  0.00     0.055 A 
ATOM     86  C   UNL     1      14.255  17.116  -2.718  1.00  0.00     0.041 A 
ATOM     87  F   UNL     1      14.732  14.961  -1.932  1.00  0.00    -0.206 F 
ATOM     88  C   UNL     1      13.345  18.053  -3.197  1.00  0.00     0.022 A 
BRANCH  85  89
ATOM     89  S   UNL     1      10.808  18.870  -4.019  1.00  0.00     0.124 S 
ATOM     90  O   UNL     1      10.309  18.113  -5.162  1.00  0.00    -0.237 OA
ATOM     91  O   UNL     1       9.860  19.078  -2.929  1.00  0.00    -0.237 OA
ATOM     92  O   UNL     1      11.629  20.032  -4.354  1.00  0.00    -0.744 OA
ENDBRANCH  85  89
ENDBRANCH  59  82
ENDBRANCH  33  34
ENDBRANCH  25  28
ENDBRANCH  23  24
ENDBRANCH   1  23
TORSDOF 16
