REMARK SMILES CCC[C@]1(C(=O)NCCCCNC(=O)c2ccc(-c3c4nc(c(-c5cc(S(=O)(=O)[O-])ccc5F)c5ccc([nH]5)c(-c5cc(S(=O)(=O)[O-])ccc5F)c5nc(c(-c6cc(S(=O)(=O)[O-])ccc6F)c6ccc3[nH]6)C=C5)C=C4)cc2)CCCN(C(=O)c2ccc(NS(=O)(=O)CC)cc2)C1
REMARK SMILES IDX 8 1 7 2 5 3 6 4 4 6 78 7 96 8 79 9 81 10 80 11 3 12 2 13
REMARK SMILES IDX 1 14 82 15 83 16 84 17 85 18 95 19 86 20 94 21 87 22 88 23
REMARK SMILES IDX 89 25 90 26 91 27 92 28 93 29 9 30 10 31 11 32 12 33 13 34
REMARK SMILES IDX 14 36 15 37 16 38 77 39 17 40 76 41 18 42 19 43 20 44 70 45
REMARK SMILES IDX 21 46 75 47 69 48 71 49 22 50 74 51 68 52 67 53 23 55 55 56
REMARK SMILES IDX 35 57 54 58 36 59 39 60 53 61 72 62 37 63 38 64 52 66 73 67
REMARK SMILES IDX 40 68 24 69 25 70 33 71 26 72 32 73 34 74 31 75 27 76 28 77
REMARK SMILES IDX 29 78 30 79 56 80 57 81 65 82 58 83 64 84 66 85 63 86 59 87
REMARK SMILES IDX 60 88 61 89 62 90 41 91 42 92 50 93 43 94 49 95 51 96 48 97
REMARK SMILES IDX 44 98 45 99 46 100 47 101
REMARK H PARENT 7 5 88 24 12 35 71 54 39 65
REMARK Flexibility Score: inf
ROOT
ATOM      1  C   UNL     1      -0.434   1.590  -4.856  1.00  0.00     0.116 C 
ENDROOT
BRANCH   1   2
ATOM      2  N   UNL     1       0.408   2.617  -4.272  1.00  0.00    -0.356 N 
ATOM      3  C   UNL     1       0.825   2.854  -3.000  1.00  0.00     0.228 C 
ATOM      4  O   UNL     1       1.582   3.821  -2.871  1.00  0.00    -0.274 OA
ATOM      5  H   UNL     1       0.744   3.271  -4.926  1.00  0.00     0.163 HD
BRANCH   3   6
ATOM      6  C   UNL     1       0.433   1.952  -1.789  1.00  0.00     0.067 C 
ATOM      7  C   UNL     1      -1.107   1.877  -1.650  1.00  0.00     0.020 C 
ATOM      8  C   UNL     1       1.125   0.589  -2.056  1.00  0.00     0.136 C 
ATOM      9  C   UNL     1      -1.651   0.588  -1.037  1.00  0.00     0.023 C 
ATOM     10  N   UNL     1       0.478  -0.577  -1.463  1.00  0.00    -0.338 N 
ATOM     11  C   UNL     1      -0.971  -0.661  -1.568  1.00  0.00     0.120 C 
BRANCH   6  12
ATOM     12  C   UNL     1       1.052   2.668  -0.526  1.00  0.00     0.018 C 
BRANCH  12  13
ATOM     13  C   UNL     1       0.595   2.336   0.897  1.00  0.00    -0.002 C 
ATOM     14  C   UNL     1       1.031   0.986   1.411  1.00  0.00     0.004 C 
ENDBRANCH  12  13
ENDBRANCH   6  12
BRANCH  10  15
ATOM     15  C   UNL     1       1.291  -1.661  -1.141  1.00  0.00     0.253 C 
ATOM     16  O   UNL     1       2.474  -1.757  -1.458  1.00  0.00    -0.269 OA
BRANCH  15  17
ATOM     17  C   UNL     1       0.774  -2.672  -0.204  1.00  0.00     0.040 A 
ATOM     18  C   UNL     1       1.060  -2.464   1.142  1.00  0.00     0.016 A 
ATOM     19  C   UNL     1       0.172  -3.857  -0.617  1.00  0.00     0.016 A 
ATOM     20  C   UNL     1       0.723  -3.420   2.091  1.00  0.00     0.027 A 
ATOM     21  C   UNL     1      -0.110  -4.845   0.341  1.00  0.00     0.027 A 
ATOM     22  C   UNL     1       0.176  -4.638   1.701  1.00  0.00     0.049 A 
BRANCH  22  23
ATOM     23  N   UNL     1       0.203  -5.777   2.563  1.00  0.00    -0.284 N 
ATOM     24  H   UNL     1       0.410  -6.652   2.162  1.00  0.00     0.180 HD
BRANCH  23  25
ATOM     25  S   UNL     1      -0.094  -5.727   4.204  1.00  0.00     0.232 S 
ATOM     26  O   UNL     1      -1.256  -4.897   4.434  1.00  0.00    -0.207 OA
ATOM     27  O   UNL     1      -0.098  -7.119   4.615  1.00  0.00    -0.207 OA
BRANCH  25  28
ATOM     28  C   UNL     1       1.327  -4.952   4.986  1.00  0.00     0.156 C 
ATOM     29  C   UNL     1       2.667  -5.226   4.337  1.00  0.00     0.023 C 
ENDBRANCH  25  28
ENDBRANCH  23  25
ENDBRANCH  22  23
ENDBRANCH  15  17
ENDBRANCH  10  15
ENDBRANCH   3   6
ENDBRANCH   1   2
BRANCH   1  30
ATOM     30  C   UNL     1      -1.744   2.168  -5.389  1.00  0.00     0.023 C 
BRANCH  30  31
ATOM     31  C   UNL     1      -1.581   3.135  -6.561  1.00  0.00     0.023 C 
BRANCH  31  32
ATOM     32  C   UNL     1      -0.816   2.576  -7.753  1.00  0.00     0.116 C 
BRANCH  32  33
ATOM     33  N   UNL     1      -1.423   1.372  -8.303  1.00  0.00    -0.352 N 
ATOM     34  C   UNL     1      -1.629   1.057  -9.626  1.00  0.00     0.251 C 
ATOM     35  H   UNL     1      -1.724   0.702  -7.647  1.00  0.00     0.163 HD
ATOM     36  O   UNL     1      -2.269   0.059  -9.937  1.00  0.00    -0.269 OA
BRANCH  34  37
ATOM     37  C   UNL     1      -1.094   1.971 -10.655  1.00  0.00     0.039 A 
ATOM     38  C   UNL     1      -1.962   2.513 -11.605  1.00  0.00     0.014 A 
ATOM     39  C   UNL     1       0.247   2.359 -10.606  1.00  0.00     0.014 A 
ATOM     40  C   UNL     1      -1.500   3.513 -12.463  1.00  0.00     0.010 A 
ATOM     41  C   UNL     1       0.683   3.402 -11.413  1.00  0.00     0.010 A 
ATOM     42  C   UNL     1      -0.186   3.995 -12.344  1.00  0.00    -0.014 A 
BRANCH  42  43
ATOM     43  C   UNL     1       0.332   5.102 -13.188  1.00  0.00     0.031 A 
ATOM     44  C   UNL     1       1.481   4.832 -14.118  1.00  0.00     0.074 A 
ATOM     45  C   UNL     1      -0.150   6.353 -13.045  1.00  0.00     0.049 A 
ATOM     46  N   UNL     1       2.235   5.675 -14.774  1.00  0.00    -0.248 NA
ATOM     47  C   UNL     1       1.851   3.420 -14.299  1.00  0.00     0.031 C 
ATOM     48  C   UNL     1      -1.258   6.741 -12.170  1.00  0.00     0.029 A 
ATOM     49  N   UNL     1       0.249   7.535 -13.617  1.00  0.00    -0.354 N 
ATOM     50  C   UNL     1       3.188   4.897 -15.425  1.00  0.00     0.074 A 
ATOM     51  C   UNL     1       2.945   3.524 -15.037  1.00  0.00     0.031 C 
ATOM     52  C   UNL     1      -1.455   8.066 -12.272  1.00  0.00     0.029 A 
ATOM     53  C   UNL     1      -0.453   8.632 -13.170  1.00  0.00     0.049 A 
ATOM     54  H   UNL     1       0.970   7.594 -14.284  1.00  0.00     0.167 HD
ATOM     55  C   UNL     1       4.162   5.293 -16.281  1.00  0.00     0.034 A 
ATOM     56  C   UNL     1      -0.288   9.944 -13.435  1.00  0.00     0.034 A 
ATOM     57  C   UNL     1       4.376   6.664 -16.669  1.00  0.00     0.049 A 
ATOM     58  C   UNL     1       0.828  10.366 -14.361  1.00  0.00     0.074 A 
ATOM     59  C   UNL     1       5.322   7.179 -17.538  1.00  0.00     0.029 A 
ATOM     60  N   UNL     1       3.627   7.742 -16.214  1.00  0.00    -0.354 N 
ATOM     61  N   UNL     1       1.725   9.621 -14.966  1.00  0.00    -0.248 NA
ATOM     62  C   UNL     1       0.951  11.802 -14.645  1.00  0.00     0.031 C 
ATOM     63  C   UNL     1       5.175   8.570 -17.572  1.00  0.00     0.029 A 
ATOM     64  C   UNL     1       4.095   8.917 -16.778  1.00  0.00     0.049 A 
ATOM     65  H   UNL     1       2.873   7.679 -15.583  1.00  0.00     0.167 HD
ATOM     66  C   UNL     1       2.485  10.495 -15.738  1.00  0.00     0.074 A 
ATOM     67  C   UNL     1       1.947  11.821 -15.519  1.00  0.00     0.031 C 
ATOM     68  C   UNL     1       3.528  10.226 -16.563  1.00  0.00     0.034 A 
BRANCH  55  69
ATOM     69  C   UNL     1       5.075   4.223 -16.827  1.00  0.00     0.023 A 
ATOM     70  C   UNL     1       4.584   3.181 -17.633  1.00  0.00     0.031 A 
ATOM     71  C   UNL     1       6.444   4.219 -16.506  1.00  0.00     0.131 A 
ATOM     72  C   UNL     1       5.434   2.135 -18.019  1.00  0.00     0.055 A 
ATOM     73  C   UNL     1       7.304   3.220 -16.968  1.00  0.00     0.041 A 
ATOM     74  F   UNL     1       6.966   5.176 -15.723  1.00  0.00    -0.206 F 
ATOM     75  C   UNL     1       6.797   2.161 -17.715  1.00  0.00     0.022 A 
BRANCH  72  76
ATOM     76  S   UNL     1       4.701   0.669 -18.794  1.00  0.00     0.124 S 
ATOM     77  O   UNL     1       3.793   0.207 -17.746  1.00  0.00    -0.237 OA
ATOM     78  O   UNL     1       4.070   1.223 -19.986  1.00  0.00    -0.237 OA
ATOM     79  O   UNL     1       5.850  -0.200 -19.040  1.00  0.00    -0.744 OA
ENDBRANCH  72  76
ENDBRANCH  55  69
BRANCH  56  80
ATOM     80  C   UNL     1      -1.178  10.966 -12.811  1.00  0.00     0.023 A 
ATOM     81  C   UNL     1      -2.021  11.761 -13.603  1.00  0.00     0.031 A 
ATOM     82  C   UNL     1      -1.157  11.205 -11.426  1.00  0.00     0.131 A 
ATOM     83  C   UNL     1      -2.766  12.794 -13.014  1.00  0.00     0.055 A 
ATOM     84  C   UNL     1      -1.943  12.197 -10.837  1.00  0.00     0.041 A 
ATOM     85  F   UNL     1      -0.373  10.470 -10.621  1.00  0.00    -0.206 F 
ATOM     86  C   UNL     1      -2.742  13.010 -11.635  1.00  0.00     0.022 A 
BRANCH  83  87
ATOM     87  S   UNL     1      -3.693  13.918 -14.095  1.00  0.00     0.124 S 
ATOM     88  O   UNL     1      -2.640  14.425 -14.967  1.00  0.00    -0.237 OA
ATOM     89  O   UNL     1      -4.659  13.016 -14.712  1.00  0.00    -0.237 OA
ATOM     90  O   UNL     1      -4.258  14.894 -13.166  1.00  0.00    -0.744 OA
ENDBRANCH  83  87
ENDBRANCH  56  80
BRANCH  68  91
ATOM     91  C   UNL     1       4.093  11.373 -17.360  1.00  0.00     0.023 A 
ATOM     92  C   UNL     1       4.843  12.400 -16.763  1.00  0.00     0.031 A 
ATOM     93  C   UNL     1       3.892  11.417 -18.751  1.00  0.00     0.131 A 
ATOM     94  C   UNL     1       5.337  13.450 -17.554  1.00  0.00     0.055 A 
ATOM     95  C   UNL     1       4.426  12.436 -19.538  1.00  0.00     0.041 A 
ATOM     96  F   UNL     1       3.183  10.457 -19.368  1.00  0.00    -0.206 F 
ATOM     97  C   UNL     1       5.146  13.465 -18.939  1.00  0.00     0.022 A 
BRANCH  94  98
ATOM     98  S   UNL     1       6.195  14.826 -16.743  1.00  0.00     0.124 S 
ATOM     99  O   UNL     1       5.152  15.366 -15.876  1.00  0.00    -0.237 OA
ATOM    100  O   UNL     1       7.299  14.153 -16.067  1.00  0.00    -0.237 OA
ATOM    101  O   UNL     1       6.586  15.691 -17.855  1.00  0.00    -0.744 OA
ENDBRANCH  94  98
ENDBRANCH  68  91
ENDBRANCH  42  43
ENDBRANCH  34  37
ENDBRANCH  32  33
ENDBRANCH  31  32
ENDBRANCH  30  31
ENDBRANCH   1  30
TORSDOF 21
