REMARK SMILES Cc1ccccc1C(=O)Nc1ccc(N2CCC(n3c(C)nc4cccnc43)CC2)c(C(=O)NCCCCNC(=O)c2ccc(-c3c4nc(c(-c5cc(S(=O)(=O)[O-])ccc5F)c5ccc([nH]5)c(-c5cc(S(=O)(=O)[O-])ccc5F)c5nc(c(-c6cc(S(=O)(=O)[O-])ccc6F)c6ccc3[nH]6)C=C5)C=C4)cc2)c1
REMARK SMILES IDX 37 1 36 2 35 3 34 4 32 5 33 6 31 8 11 9 12 10 105 11 13 12
REMARK SMILES IDX 14 13 10 14 8 15 9 16 7 18 1 19 2 20 3 21 4 22 6 23 5 24
REMARK SMILES IDX 15 25 16 26 30 27 17 28 29 29 18 30 19 31 20 32 28 33 21 34
REMARK SMILES IDX 22 35 23 36 27 37 24 38 26 39 25 40 38 41 39 42 40 43 41 45
REMARK SMILES IDX 42 46 43 47 104 48 44 49 103 50 45 51 46 52 47 53 97 54
REMARK SMILES IDX 48 55 102 56 96 57 98 58 49 59 101 60 95 61 94 62 50 64
REMARK SMILES IDX 82 65 62 66 81 67 63 68 66 69 80 70 99 71 64 72 65 73 79 75
REMARK SMILES IDX 100 76 67 77 51 78 52 79 60 80 53 81 59 82 61 83 58 84 54 85
REMARK SMILES IDX 55 86 56 87 57 88 83 89 84 90 92 91 85 92 91 93 93 94 90 95
REMARK SMILES IDX 86 96 87 97 88 98 89 99 68 100 69 101 77 102 70 103 76 104
REMARK SMILES IDX 78 105 75 106 71 107 72 108 73 109 74 110
REMARK H PARENT 34 7 10 17 39 44 98 63 66 74
REMARK Flexibility Score: inf
ROOT
ATOM      1  C   UNL     1      10.150  -2.994   0.766  1.00  0.00     0.023 C 
ENDROOT
BRANCH   1   2
ATOM      2  C   UNL     1       9.119  -2.196   0.005  1.00  0.00     0.023 C 
BRANCH   2   3
ATOM      3  C   UNL     1       7.808  -1.869   0.696  1.00  0.00     0.116 C 
BRANCH   3   4
ATOM      4  N   UNL     1       7.580  -0.809   1.633  1.00  0.00    -0.352 N 
ATOM      5  C   UNL     1       6.427  -0.017   1.687  1.00  0.00     0.253 C 
ATOM      6  O   UNL     1       6.315   0.712   2.679  1.00  0.00    -0.269 OA
ATOM      7  H   UNL     1       8.290  -0.623   2.289  1.00  0.00     0.163 HD
BRANCH   5   8
ATOM      8  C   UNL     1       5.354   0.074   0.598  1.00  0.00     0.065 A 
ATOM      9  C   UNL     1       3.521   1.494  -0.246  1.00  0.00     0.042 A 
ATOM     10  C   UNL     1       3.339   0.667  -1.332  1.00  0.00     0.028 A 
ATOM     11  C   UNL     1       4.621   1.296   0.608  1.00  0.00     0.042 A 
ATOM     12  C   UNL     1       4.067  -0.516  -1.387  1.00  0.00     0.029 A 
ATOM     13  C   UNL     1       4.957  -0.912  -0.348  1.00  0.00     0.050 A 
BRANCH   9  14
ATOM     14  N   UNL     1       2.555   2.442   0.106  1.00  0.00    -0.322 N 
ATOM     15  C   UNL     1       1.168   2.368   0.117  1.00  0.00     0.255 C 
ATOM     16  O   UNL     1       0.579   3.453   0.221  1.00  0.00    -0.269 OA
ATOM     17  H   UNL     1       2.920   3.309   0.395  1.00  0.00     0.170 HD
BRANCH  15  18
ATOM     18  C   UNL     1       0.317   1.104   0.088  1.00  0.00     0.043 A 
ATOM     19  C   UNL     1       1.886  -0.658   1.168  1.00  0.00     0.045 C 
ATOM     20  C   UNL     1       0.652  -0.214   0.456  1.00  0.00    -0.038 A 
ATOM     21  C   UNL     1      -0.270  -1.271   0.252  1.00  0.00     0.004 A 
ATOM     22  C   UNL     1      -1.587  -1.024  -0.096  1.00  0.00     0.000 A 
ATOM     23  C   UNL     1      -1.046   1.324  -0.224  1.00  0.00     0.014 A 
ATOM     24  C   UNL     1      -1.990   0.286  -0.278  1.00  0.00     0.001 A 
ENDBRANCH  15  18
ENDBRANCH   9  14
BRANCH  13  25
ATOM     25  N   UNL     1       5.227  -2.293  -0.267  1.00  0.00    -0.371 N 
ATOM     26  C   UNL     1       5.746  -2.941  -1.470  1.00  0.00     0.118 C 
ATOM     27  C   UNL     1       4.864  -3.013   0.948  1.00  0.00     0.118 C 
ATOM     28  C   UNL     1       5.907  -4.442  -1.444  1.00  0.00     0.047 C 
ATOM     29  C   UNL     1       4.760  -4.520   0.771  1.00  0.00     0.047 C 
ATOM     30  C   UNL     1       5.731  -5.254  -0.161  1.00  0.00     0.094 C 
BRANCH  30  31
ATOM     31  N   UNL     1       5.297  -6.689  -0.446  1.00  0.00    -0.310 N 
ATOM     32  C   UNL     1       3.578  -7.248  -0.229  1.00  0.00     0.108 A 
ATOM     33  C   UNL     1       6.239  -7.828  -1.502  1.00  0.00     0.160 A 
ATOM     34  C   UNL     1       2.548  -6.640   0.661  1.00  0.00     0.088 C 
ATOM     35  N   UNL     1       3.421  -8.640  -1.249  1.00  0.00    -0.232 NA
ATOM     36  C   UNL     1       5.142  -9.121  -2.007  1.00  0.00     0.108 A 
ATOM     37  N   UNL     1       7.565  -7.841  -1.786  1.00  0.00    -0.237 NA
ATOM     38  C   UNL     1       5.692 -10.233  -2.623  1.00  0.00     0.034 A 
ATOM     39  C   UNL     1       7.886  -9.020  -2.430  1.00  0.00     0.113 A 
ATOM     40  C   UNL     1       7.083 -10.148  -2.808  1.00  0.00     0.022 A 
ENDBRANCH  30  31
ENDBRANCH  13  25
ENDBRANCH   5   8
ENDBRANCH   3   4
ENDBRANCH   2   3
ENDBRANCH   1   2
BRANCH   1  41
ATOM     41  C   UNL     1       9.681  -4.348   1.248  1.00  0.00     0.116 C 
BRANCH  41  42
ATOM     42  N   UNL     1       9.779  -5.490   0.364  1.00  0.00    -0.352 N 
ATOM     43  C   UNL     1       9.981  -6.812   0.749  1.00  0.00     0.251 C 
ATOM     44  H   UNL     1       9.694  -5.315  -0.601  1.00  0.00     0.163 HD
ATOM     45  O   UNL     1      10.431  -7.627  -0.054  1.00  0.00    -0.269 OA
BRANCH  43  46
ATOM     46  C   UNL     1       9.500  -7.293   2.082  1.00  0.00     0.039 A 
ATOM     47  C   UNL     1       9.376  -8.673   2.314  1.00  0.00     0.014 A 
ATOM     48  C   UNL     1       8.905  -6.422   2.982  1.00  0.00     0.014 A 
ATOM     49  C   UNL     1       8.473  -9.129   3.273  1.00  0.00     0.010 A 
ATOM     50  C   UNL     1       7.879  -6.839   3.752  1.00  0.00     0.010 A 
ATOM     51  C   UNL     1       7.620  -8.194   3.839  1.00  0.00    -0.014 A 
BRANCH  51  52
ATOM     52  C   UNL     1       6.592  -8.411   4.826  1.00  0.00     0.031 A 
ATOM     53  C   UNL     1       7.175  -8.520   6.179  1.00  0.00     0.074 A 
ATOM     54  C   UNL     1       5.370  -8.021   4.376  1.00  0.00     0.049 A 
ATOM     55  N   UNL     1       6.598  -8.992   7.215  1.00  0.00    -0.248 NA
ATOM     56  C   UNL     1       8.583  -8.161   6.479  1.00  0.00     0.031 C 
ATOM     57  C   UNL     1       4.160  -7.500   4.995  1.00  0.00     0.029 A 
ATOM     58  N   UNL     1       4.939  -8.235   3.067  1.00  0.00    -0.354 N 
ATOM     59  C   UNL     1       7.278  -8.431   8.281  1.00  0.00     0.074 A 
ATOM     60  C   UNL     1       8.610  -8.200   7.813  1.00  0.00     0.031 C 
ATOM     61  C   UNL     1       3.093  -7.851   4.243  1.00  0.00     0.029 A 
ATOM     62  C   UNL     1       3.599  -8.639   3.135  1.00  0.00     0.049 A 
ATOM     63  H   UNL     1       5.476  -8.123   2.249  1.00  0.00     0.167 HD
ATOM     64  C   UNL     1       6.540  -7.918   9.303  1.00  0.00     0.034 A 
ATOM     65  C   UNL     1       3.301  -9.942   2.849  1.00  0.00     0.034 A 
ATOM     66  C   UNL     1       5.122  -8.064   8.963  1.00  0.00     0.049 A 
ATOM     67  C   UNL     1       2.947 -10.629   4.123  1.00  0.00     0.074 A 
ATOM     68  C   UNL     1       4.171  -7.184   8.479  1.00  0.00     0.029 A 
ATOM     69  N   UNL     1       4.638  -9.337   8.726  1.00  0.00    -0.354 N 
ATOM     70  N   UNL     1       3.494 -10.328   5.273  1.00  0.00    -0.248 NA
ATOM     71  C   UNL     1       1.780 -11.488   4.220  1.00  0.00     0.031 C 
ATOM     72  C   UNL     1       3.129  -7.970   7.896  1.00  0.00     0.029 A 
ATOM     73  C   UNL     1       3.481  -9.308   7.987  1.00  0.00     0.049 A 
ATOM     74  H   UNL     1       5.069 -10.162   9.048  1.00  0.00     0.167 HD
ATOM     75  C   UNL     1       2.681 -10.804   6.262  1.00  0.00     0.074 A 
ATOM     76  C   UNL     1       1.622 -11.511   5.550  1.00  0.00     0.031 C 
ATOM     77  C   UNL     1       2.868 -10.564   7.595  1.00  0.00     0.034 A 
BRANCH  64  78
ATOM     78  C   UNL     1       6.984  -7.068  10.464  1.00  0.00     0.023 A 
ATOM     79  C   UNL     1       5.961  -6.541  11.279  1.00  0.00     0.031 A 
ATOM     80  C   UNL     1       8.294  -6.755  10.869  1.00  0.00     0.131 A 
ATOM     81  C   UNL     1       6.231  -5.749  12.402  1.00  0.00     0.055 A 
ATOM     82  C   UNL     1       8.569  -5.963  11.998  1.00  0.00     0.041 A 
ATOM     83  F   UNL     1       9.374  -7.206  10.221  1.00  0.00    -0.206 F 
ATOM     84  C   UNL     1       7.535  -5.457  12.775  1.00  0.00     0.022 A 
BRANCH  81  85
ATOM     85  S   UNL     1       4.824  -5.128  13.355  1.00  0.00     0.124 S 
ATOM     86  O   UNL     1       4.152  -4.276  12.378  1.00  0.00    -0.237 OA
ATOM     87  O   UNL     1       4.133  -6.358  13.723  1.00  0.00    -0.237 OA
ATOM     88  O   UNL     1       5.457  -4.418  14.464  1.00  0.00    -0.744 OA
ENDBRANCH  81  85
ENDBRANCH  64  78
BRANCH  65  89
ATOM     89  C   UNL     1       4.092 -10.456   1.680  1.00  0.00     0.023 A 
ATOM     90  C   UNL     1       3.845  -9.667   0.525  1.00  0.00     0.031 A 
ATOM     91  C   UNL     1       5.393 -10.874   1.870  1.00  0.00     0.131 A 
ATOM     92  C   UNL     1       4.873  -8.674  -0.188  1.00  0.00     0.055 A 
ATOM     93  C   UNL     1       6.420 -10.194   1.226  1.00  0.00     0.041 A 
ATOM     94  F   UNL     1       5.712 -11.747   2.837  1.00  0.00    -0.206 F 
ATOM     95  C   UNL     1       6.197  -9.021   0.443  1.00  0.00     0.022 A 
BRANCH  92  96
ATOM     96  S   UNL     1       4.213  -7.250  -2.319  1.00  0.00     0.124 S 
ATOM     97  O   UNL     1       3.513  -8.112  -3.333  1.00  0.00    -0.237 OA
ATOM     98  O   UNL     1       3.340  -6.075  -1.988  1.00  0.00    -0.237 OA
ATOM     99  O   UNL     1       5.379  -6.677  -3.054  1.00  0.00    -0.744 OA
ENDBRANCH  92  96
ENDBRANCH  65  89
BRANCH  77 100
ATOM    100  C   UNL     1       2.443 -11.554   8.647  1.00  0.00     0.023 A 
ATOM    101  C   UNL     1       1.836 -12.757   8.294  1.00  0.00     0.031 A 
ATOM    102  C   UNL     1       2.718 -11.405  10.025  1.00  0.00     0.131 A 
ATOM    103  C   UNL     1       1.352 -13.649   9.246  1.00  0.00     0.055 A 
ATOM    104  C   UNL     1       2.359 -12.365  10.974  1.00  0.00     0.041 A 
ATOM    105  F   UNL     1       3.383 -10.355  10.523  1.00  0.00    -0.206 F 
ATOM    106  C   UNL     1       1.628 -13.479  10.593  1.00  0.00     0.022 A 
BRANCH 103 107
ATOM    107  S   UNL     1       0.282 -14.959   8.625  1.00  0.00     0.124 S 
ATOM    108  O   UNL     1      -0.821 -14.192   8.049  1.00  0.00    -0.237 OA
ATOM    109  O   UNL     1       1.144 -15.636   7.660  1.00  0.00    -0.237 OA
ATOM    110  O   UNL     1      -0.046 -15.726   9.822  1.00  0.00    -0.744 OA
ENDBRANCH 103 107
ENDBRANCH  77 100
ENDBRANCH  51  52
ENDBRANCH  43  46
ENDBRANCH  41  42
ENDBRANCH   1  41
TORSDOF 18
