REMARK SMILES COC[C@H](C)Oc1cnc2ccccc2c1C(=O)NCCCCNC(=O)c1ccc(-c2c3nc(c(-c4cc(S(=O)(=O)[O-])ccc4F)c4ccc([nH]4)c(-c4cc(S(=O)(=O)[O-])ccc4F)c4nc(c(-c5cc(S(=O)(=O)[O-])ccc5F)c5ccc2[nH]5)C=C4)C=C3)cc1
REMARK SMILES IDX 21 1 20 2 19 3 17 4 18 5 16 7 7 8 8 9 9 10 15 11 10 12 14 13
REMARK SMILES IDX 11 14 13 15 12 16 6 17 4 18 5 19 3 20 2 21 1 22 22 23 23 24
REMARK SMILES IDX 24 25 25 26 26 28 27 29 28 30 89 31 29 32 88 33 30 34 31 35
REMARK SMILES IDX 32 36 82 37 33 38 87 39 81 40 83 41 34 42 86 43 80 44 79 45
REMARK SMILES IDX 35 47 67 48 47 49 66 50 48 51 51 52 65 53 84 54 49 55 50 56
REMARK SMILES IDX 64 58 85 59 52 60 36 61 37 62 45 63 38 64 44 65 46 66 43 67
REMARK SMILES IDX 39 68 40 69 41 70 42 71 68 72 69 73 77 74 70 75 76 76 78 77
REMARK SMILES IDX 75 78 71 79 72 80 73 81 74 82 53 83 54 84 62 85 55 86 61 87
REMARK SMILES IDX 63 88 60 89 56 90 57 91 58 92 59 93
REMARK H PARENT 19 6 24 27 83 46 51 57
REMARK Flexibility Score: inf
ROOT
ATOM      1  C   UNL     1       3.935   8.017   4.108  1.00  0.00     0.023 C 
ENDROOT
BRANCH   1   2
ATOM      2  C   UNL     1       3.555   6.536   4.290  1.00  0.00     0.116 C 
BRANCH   2   3
ATOM      3  N   UNL     1       2.437   6.229   3.415  1.00  0.00    -0.352 N 
ATOM      4  C   UNL     1       2.269   5.797   2.120  1.00  0.00     0.255 C 
ATOM      5  O   UNL     1       1.134   6.027   1.689  1.00  0.00    -0.269 OA
ATOM      6  H   UNL     1       1.573   6.366   3.867  1.00  0.00     0.163 HD
BRANCH   4   7
ATOM      7  C   UNL     1       3.252   5.014   1.270  1.00  0.00     0.092 A 
ATOM      8  C   UNL     1       2.682   4.026   0.429  1.00  0.00     0.151 A 
ATOM      9  C   UNL     1       3.530   3.217  -0.305  1.00  0.00     0.159 A 
ATOM     10  N   UNL     1       4.873   3.268  -0.245  1.00  0.00    -0.252 NA
ATOM     11  C   UNL     1       4.672   5.177   1.226  1.00  0.00     0.017 A 
ATOM     12  C   UNL     1       5.425   4.225   0.498  1.00  0.00     0.071 A 
ATOM     13  C   UNL     1       5.415   6.246   1.769  1.00  0.00     0.011 A 
ATOM     14  C   UNL     1       6.813   4.276   0.495  1.00  0.00     0.029 A 
ATOM     15  C   UNL     1       6.811   6.276   1.795  1.00  0.00     0.001 A 
ATOM     16  C   UNL     1       7.517   5.268   1.171  1.00  0.00     0.002 A 
BRANCH   8  17
ATOM     17  O   UNL     1       1.332   3.985   0.246  1.00  0.00    -0.486 OA
BRANCH  17  18
ATOM     18  C   UNL     1       0.591   2.757   0.216  1.00  0.00     0.196 C 
ATOM     19  C   UNL     1       0.413   2.258  -1.217  1.00  0.00     0.055 C 
BRANCH  18  20
ATOM     20  C   UNL     1       1.014   1.706   1.261  1.00  0.00     0.204 C 
BRANCH  20  21
ATOM     21  O   UNL     1       1.857   0.693   0.704  1.00  0.00    -0.381 OA
ATOM     22  C   UNL     1       1.174  -0.542   0.524  1.00  0.00     0.195 C 
ENDBRANCH  20  21
ENDBRANCH  18  20
ENDBRANCH  17  18
ENDBRANCH   8  17
ENDBRANCH   4   7
ENDBRANCH   2   3
ENDBRANCH   1   2
BRANCH   1  23
ATOM     23  C   UNL     1       3.378   8.990   5.140  1.00  0.00     0.023 C 
BRANCH  23  24
ATOM     24  C   UNL     1       3.962   8.836   6.534  1.00  0.00     0.116 C 
BRANCH  24  25
ATOM     25  N   UNL     1       5.419   8.891   6.578  1.00  0.00    -0.352 N 
ATOM     26  C   UNL     1       6.228   9.373   7.580  1.00  0.00     0.251 C 
ATOM     27  H   UNL     1       5.884   8.536   5.786  1.00  0.00     0.163 HD
ATOM     28  O   UNL     1       7.445   9.410   7.424  1.00  0.00    -0.269 OA
BRANCH  26  29
ATOM     29  C   UNL     1       5.603   9.897   8.810  1.00  0.00     0.039 A 
ATOM     30  C   UNL     1       5.980  11.157   9.275  1.00  0.00     0.014 A 
ATOM     31  C   UNL     1       4.580   9.183   9.439  1.00  0.00     0.014 A 
ATOM     32  C   UNL     1       5.266  11.739  10.323  1.00  0.00     0.010 A 
ATOM     33  C   UNL     1       3.808   9.805  10.410  1.00  0.00     0.010 A 
ATOM     34  C   UNL     1       4.145  11.088  10.864  1.00  0.00    -0.014 A 
BRANCH  34  35
ATOM     35  C   UNL     1       3.312  11.736  11.907  1.00  0.00     0.031 A 
ATOM     36  C   UNL     1       3.191  11.112  13.269  1.00  0.00     0.074 A 
ATOM     37  C   UNL     1       2.616  12.849  11.603  1.00  0.00     0.049 A 
ATOM     38  N   UNL     1       2.504  11.513  14.307  1.00  0.00    -0.248 NA
ATOM     39  C   UNL     1       3.904   9.843  13.473  1.00  0.00     0.031 C 
ATOM     40  C   UNL     1       2.596  13.504  10.292  1.00  0.00     0.029 A 
ATOM     41  N   UNL     1       1.796  13.630  12.375  1.00  0.00    -0.354 N 
ATOM     42  C   UNL     1       2.691  10.539  15.282  1.00  0.00     0.074 A 
ATOM     43  C   UNL     1       3.479   9.488  14.674  1.00  0.00     0.031 C 
ATOM     44  C   UNL     1       1.849  14.617  10.368  1.00  0.00     0.029 A 
ATOM     45  C   UNL     1       1.309  14.735  11.718  1.00  0.00     0.049 A 
ATOM     46  H   UNL     1       1.576  13.419  13.311  1.00  0.00     0.167 HD
ATOM     47  C   UNL     1       2.278  10.538  16.574  1.00  0.00     0.034 A 
ATOM     48  C   UNL     1       0.528  15.738  12.162  1.00  0.00     0.034 A 
ATOM     49  C   UNL     1       1.501  11.603  17.160  1.00  0.00     0.049 A 
ATOM     50  C   UNL     1       0.076  15.720  13.598  1.00  0.00     0.074 A 
ATOM     51  C   UNL     1       1.079  11.749  18.469  1.00  0.00     0.029 A 
ATOM     52  N   UNL     1       1.018  12.707  16.464  1.00  0.00    -0.354 N 
ATOM     53  N   UNL     1       0.322  14.832  14.534  1.00  0.00    -0.248 NA
ATOM     54  C   UNL     1      -0.748  16.851  14.038  1.00  0.00     0.031 C 
ATOM     55  C   UNL     1       0.289  12.904  18.550  1.00  0.00     0.029 A 
ATOM     56  C   UNL     1       0.276  13.520  17.309  1.00  0.00     0.049 A 
ATOM     57  H   UNL     1       1.180  12.885  15.510  1.00  0.00     0.167 HD
ATOM     58  C   UNL     1      -0.297  15.312  15.683  1.00  0.00     0.074 A 
ATOM     59  C   UNL     1      -0.909  16.577  15.323  1.00  0.00     0.031 C 
ATOM     60  C   UNL     1      -0.353  14.763  16.925  1.00  0.00     0.034 A 
BRANCH  47  61
ATOM     61  C   UNL     1       2.647   9.331  17.409  1.00  0.00     0.023 A 
ATOM     62  C   UNL     1       3.990   8.960  17.611  1.00  0.00     0.031 A 
ATOM     63  C   UNL     1       1.652   8.492  17.937  1.00  0.00     0.131 A 
ATOM     64  C   UNL     1       4.297   7.728  18.209  1.00  0.00     0.055 A 
ATOM     65  C   UNL     1       1.967   7.316  18.623  1.00  0.00     0.041 A 
ATOM     66  F   UNL     1       0.352   8.779  17.764  1.00  0.00    -0.206 F 
ATOM     67  C   UNL     1       3.295   6.915  18.740  1.00  0.00     0.022 A 
BRANCH  64  68
ATOM     68  S   UNL     1       6.001   7.115  18.092  1.00  0.00     0.124 S 
ATOM     69  O   UNL     1       6.221   7.127  16.648  1.00  0.00    -0.237 OA
ATOM     70  O   UNL     1       6.746   8.105  18.861  1.00  0.00    -0.237 OA
ATOM     71  O   UNL     1       5.928   5.783  18.691  1.00  0.00    -0.744 OA
ENDBRANCH  64  68
ENDBRANCH  47  61
BRANCH  48  72
ATOM     72  C   UNL     1       0.158  16.860  11.257  1.00  0.00     0.023 A 
ATOM     73  C   UNL     1       0.660  18.152  11.479  1.00  0.00     0.031 A 
ATOM     74  C   UNL     1      -0.712  16.665  10.171  1.00  0.00     0.131 A 
ATOM     75  C   UNL     1       0.261  19.210  10.648  1.00  0.00     0.055 A 
ATOM     76  C   UNL     1      -1.074  17.712   9.321  1.00  0.00     0.041 A 
ATOM     77  F   UNL     1      -1.209  15.446   9.909  1.00  0.00    -0.206 F 
ATOM     78  C   UNL     1      -0.594  18.997   9.564  1.00  0.00     0.022 A 
BRANCH  75  79
ATOM     79  S   UNL     1       0.840  20.884  11.035  1.00  0.00     0.124 S 
ATOM     80  O   UNL     1       0.277  21.095  12.363  1.00  0.00    -0.237 OA
ATOM     81  O   UNL     1       2.290  20.727  10.970  1.00  0.00    -0.237 OA
ATOM     82  O   UNL     1       0.258  21.700   9.971  1.00  0.00    -0.744 OA
ENDBRANCH  75  79
ENDBRANCH  48  72
BRANCH  60  83
ATOM     83  C   UNL     1      -1.085  15.556  17.980  1.00  0.00     0.023 A 
ATOM     84  C   UNL     1      -2.469  15.791  17.897  1.00  0.00     0.031 A 
ATOM     85  C   UNL     1      -0.382  16.124  19.057  1.00  0.00     0.131 A 
ATOM     86  C   UNL     1      -3.093  16.633  18.830  1.00  0.00     0.055 A 
ATOM     87  C   UNL     1      -1.020  16.905  20.021  1.00  0.00     0.041 A 
ATOM     88  F   UNL     1       0.941  15.935  19.185  1.00  0.00    -0.206 F 
ATOM     89  C   UNL     1      -2.380  17.178  19.901  1.00  0.00     0.022 A 
BRANCH  86  90
ATOM     90  S   UNL     1      -4.822  17.105  18.554  1.00  0.00     0.124 S 
ATOM     91  O   UNL     1      -4.769  17.686  17.217  1.00  0.00    -0.237 OA
ATOM     92  O   UNL     1      -5.516  15.826  18.666  1.00  0.00    -0.237 OA
ATOM     93  O   UNL     1      -5.095  18.054  19.632  1.00  0.00    -0.744 OA
ENDBRANCH  86  90
ENDBRANCH  60  83
ENDBRANCH  34  35
ENDBRANCH  26  29
ENDBRANCH  24  25
ENDBRANCH  23  24
ENDBRANCH   1  23
TORSDOF 18
