REMARK SMILES C[C@@H](CCO)Sc1cc(C(=O)NCCCCNC(=O)c2ccc(-c3c4nc(c(-c5cc(S(=O)(=O)[O-])ccc5F)c5ccc([nH]5)c(-c5cc(S(=O)(=O)[O-])ccc5F)c5nc(c(-c6cc(S(=O)(=O)[O-])ccc6F)c6ccc3[nH]6)C=C5)C=C4)cc2)c2ccccc2n1
REMARK SMILES IDX 13 1 12 2 10 3 11 4 9 6 7 7 8 8 89 9 88 10 83 11 87 12 84 13
REMARK SMILES IDX 86 14 85 15 6 16 2 17 1 18 3 19 4 20 5 21 14 23 15 24 16 25
REMARK SMILES IDX 17 26 18 27 19 29 20 30 21 31 82 32 22 33 81 34 23 35 24 36
REMARK SMILES IDX 25 37 75 38 26 39 80 40 74 41 76 42 27 43 79 44 73 45 72 46
REMARK SMILES IDX 28 48 60 49 40 50 59 51 41 52 44 53 58 54 77 55 42 56 43 57
REMARK SMILES IDX 57 59 78 60 45 61 29 62 30 63 38 64 31 65 37 66 39 67 36 68
REMARK SMILES IDX 32 69 33 70 34 71 35 72 61 73 62 74 70 75 63 76 69 77 71 78
REMARK SMILES IDX 68 79 64 80 65 81 66 82 67 83 46 84 47 85 55 86 48 87 54 88
REMARK SMILES IDX 56 89 53 90 49 91 50 92 51 93 52 94
REMARK H PARENT 12 5 5 22 17 28 76 47 44 58
REMARK Flexibility Score: inf
ROOT
ATOM      1  C   UNL     1      -3.999  -0.055   5.597  1.00  0.00     0.116 C 
ENDROOT
BRANCH   1   2
ATOM      2  N   UNL     1      -3.255   0.776   4.671  1.00  0.00    -0.352 N 
ATOM      3  C   UNL     1      -2.490   0.533   3.563  1.00  0.00     0.252 C 
ATOM      4  O   UNL     1      -1.818   1.489   3.161  1.00  0.00    -0.269 OA
ATOM      5  H   UNL     1      -3.313   1.735   4.890  1.00  0.00     0.163 HD
BRANCH   3   6
ATOM      6  C   UNL     1      -2.476  -0.714   2.734  1.00  0.00     0.051 A 
ATOM      7  C   UNL     1      -2.160  -1.482   0.482  1.00  0.00     0.098 A 
ATOM      8  C   UNL     1      -2.284  -0.440   1.372  1.00  0.00     0.050 A 
ATOM      9  N   UNL     1      -2.413  -2.757   0.822  1.00  0.00    -0.241 NA
ATOM     10  C   UNL     1      -2.642  -3.039   2.111  1.00  0.00     0.072 A 
ATOM     11  C   UNL     1      -2.549  -2.074   3.135  1.00  0.00     0.013 A 
ATOM     12  C   UNL     1      -2.884  -4.370   2.430  1.00  0.00     0.029 A 
ATOM     13  C   UNL     1      -2.453  -2.577   4.449  1.00  0.00     0.011 A 
ATOM     14  C   UNL     1      -2.943  -4.813   3.748  1.00  0.00     0.002 A 
ATOM     15  C   UNL     1      -2.683  -3.916   4.765  1.00  0.00     0.001 A 
BRANCH   7  16
ATOM     16  S   UNL     1      -1.576  -1.210  -1.168  1.00  0.00    -0.103 SA
BRANCH  16  17
ATOM     17  C   UNL     1       0.259  -1.090  -0.932  1.00  0.00     0.052 C 
ATOM     18  C   UNL     1       0.698   0.057  -0.023  1.00  0.00     0.020 C 
BRANCH  17  19
ATOM     19  C   UNL     1       0.970  -2.425  -0.636  1.00  0.00     0.043 C 
BRANCH  19  20
ATOM     20  C   UNL     1       0.914  -2.949   0.796  1.00  0.00     0.157 C 
BRANCH  20  21
ATOM     21  O   UNL     1       0.148  -4.145   0.839  1.00  0.00    -0.396 OA
ATOM     22  H   UNL     1      -0.753  -3.963   0.528  1.00  0.00     0.210 HD
ENDBRANCH  20  21
ENDBRANCH  19  20
ENDBRANCH  17  19
ENDBRANCH  16  17
ENDBRANCH   7  16
ENDBRANCH   3   6
ENDBRANCH   1   2
BRANCH   1  23
ATOM     23  C   UNL     1      -3.095  -0.386   6.795  1.00  0.00     0.023 C 
BRANCH  23  24
ATOM     24  C   UNL     1      -3.276   0.495   8.024  1.00  0.00     0.023 C 
BRANCH  24  25
ATOM     25  C   UNL     1      -4.591   0.278   8.756  1.00  0.00     0.116 C 
BRANCH  25  26
ATOM     26  N   UNL     1      -4.816  -1.103   9.158  1.00  0.00    -0.352 N 
ATOM     27  C   UNL     1      -5.511  -1.578  10.246  1.00  0.00     0.251 C 
ATOM     28  H   UNL     1      -4.418  -1.788   8.574  1.00  0.00     0.163 HD
ATOM     29  O   UNL     1      -5.537  -2.784  10.476  1.00  0.00    -0.269 OA
BRANCH  27  30
ATOM     30  C   UNL     1      -6.162  -0.617  11.158  1.00  0.00     0.039 A 
ATOM     31  C   UNL     1      -5.955  -0.752  12.531  1.00  0.00     0.014 A 
ATOM     32  C   UNL     1      -6.904   0.455  10.655  1.00  0.00     0.014 A 
ATOM     33  C   UNL     1      -6.426   0.236  13.394  1.00  0.00     0.010 A 
ATOM     34  C   UNL     1      -7.286   1.485  11.504  1.00  0.00     0.010 A 
ATOM     35  C   UNL     1      -7.053   1.386  12.883  1.00  0.00    -0.014 A 
BRANCH  35  36
ATOM     36  C   UNL     1      -7.460   2.491  13.785  1.00  0.00     0.031 A 
ATOM     37  C   UNL     1      -8.911   2.859  13.925  1.00  0.00     0.074 A 
ATOM     38  C   UNL     1      -6.510   3.190  14.437  1.00  0.00     0.049 A 
ATOM     39  N   UNL     1      -9.461   3.780  14.673  1.00  0.00    -0.248 NA
ATOM     40  C   UNL     1      -9.865   2.119  13.085  1.00  0.00     0.031 C 
ATOM     41  C   UNL     1      -5.065   2.979  14.308  1.00  0.00     0.029 A 
ATOM     42  N   UNL     1      -6.613   4.215  15.342  1.00  0.00    -0.354 N 
ATOM     43  C   UNL     1     -10.822   3.736  14.389  1.00  0.00     0.074 A 
ATOM     44  C   UNL     1     -10.998   2.752  13.342  1.00  0.00     0.031 C 
ATOM     45  C   UNL     1      -4.421   3.815  15.138  1.00  0.00     0.029 A 
ATOM     46  C   UNL     1      -5.401   4.638  15.837  1.00  0.00     0.049 A 
ATOM     47  H   UNL     1      -7.473   4.610  15.612  1.00  0.00     0.167 HD
ATOM     48  C   UNL     1     -11.833   4.427  14.970  1.00  0.00     0.034 A 
ATOM     49  C   UNL     1      -5.117   5.575  16.762  1.00  0.00     0.034 A 
ATOM     50  C   UNL     1     -11.635   5.393  16.023  1.00  0.00     0.049 A 
ATOM     51  C   UNL     1      -6.259   6.299  17.426  1.00  0.00     0.074 A 
ATOM     52  C   UNL     1     -12.583   6.116  16.724  1.00  0.00     0.029 A 
ATOM     53  N   UNL     1     -10.396   5.774  16.526  1.00  0.00    -0.354 N 
ATOM     54  N   UNL     1      -7.549   6.192  17.201  1.00  0.00    -0.248 NA
ATOM     55  C   UNL     1      -5.906   7.249  18.487  1.00  0.00     0.031 C 
ATOM     56  C   UNL     1     -11.917   6.971  17.611  1.00  0.00     0.029 A 
ATOM     57  C   UNL     1     -10.555   6.734  17.514  1.00  0.00     0.049 A 
ATOM     58  H   UNL     1      -9.530   5.414  16.225  1.00  0.00     0.167 HD
ATOM     59  C   UNL     1      -8.163   7.046  18.113  1.00  0.00     0.074 A 
ATOM     60  C   UNL     1      -7.102   7.633  18.907  1.00  0.00     0.031 C 
ATOM     61  C   UNL     1      -9.482   7.324  18.280  1.00  0.00     0.034 A 
BRANCH  48  62
ATOM     62  C   UNL     1     -13.231   4.164  14.460  1.00  0.00     0.023 A 
ATOM     63  C   UNL     1     -13.822   2.891  14.555  1.00  0.00     0.031 A 
ATOM     64  C   UNL     1     -13.966   5.183  13.829  1.00  0.00     0.131 A 
ATOM     65  C   UNL     1     -15.067   2.647  13.954  1.00  0.00     0.055 A 
ATOM     66  C   UNL     1     -15.243   4.955  13.309  1.00  0.00     0.041 A 
ATOM     67  F   UNL     1     -13.448   6.413  13.688  1.00  0.00    -0.206 F 
ATOM     68  C   UNL     1     -15.793   3.678  13.355  1.00  0.00     0.022 A 
BRANCH  65  69
ATOM     69  S   UNL     1     -15.649   0.934  13.835  1.00  0.00     0.124 S 
ATOM     70  O   UNL     1     -14.579   0.314  13.056  1.00  0.00    -0.237 OA
ATOM     71  O   UNL     1     -15.737   0.531  15.233  1.00  0.00    -0.237 OA
ATOM     72  O   UNL     1     -16.928   1.054  13.137  1.00  0.00    -0.744 OA
ENDBRANCH  65  69
ENDBRANCH  48  62
BRANCH  49  73
ATOM     73  C   UNL     1      -3.704   5.864  17.138  1.00  0.00     0.023 A 
ATOM     74  C   UNL     1      -3.226   5.575  18.426  1.00  0.00     0.031 A 
ATOM     75  C   UNL     1      -2.820   6.466  16.226  1.00  0.00     0.131 A 
ATOM     76  C   UNL     1      -1.917   5.933  18.784  1.00  0.00     0.055 A 
ATOM     77  C   UNL     1      -1.504   6.777  16.571  1.00  0.00     0.041 A 
ATOM     78  F   UNL     1      -3.223   6.750  14.977  1.00  0.00    -0.206 F 
ATOM     79  C   UNL     1      -1.050   6.523  17.862  1.00  0.00     0.022 A 
BRANCH  76  80
ATOM     80  S   UNL     1      -1.388   5.687  20.502  1.00  0.00     0.124 S 
ATOM     81  O   UNL     1      -2.379   6.468  21.234  1.00  0.00    -0.237 OA
ATOM     82  O   UNL     1      -1.483   4.237  20.641  1.00  0.00    -0.237 OA
ATOM     83  O   UNL     1      -0.030   6.225  20.520  1.00  0.00    -0.744 OA
ENDBRANCH  76  80
ENDBRANCH  49  73
BRANCH  61  84
ATOM     84  C   UNL     1      -9.832   8.287  19.387  1.00  0.00     0.023 A 
ATOM     85  C   UNL     1      -9.424   9.632  19.348  1.00  0.00     0.031 A 
ATOM     86  C   UNL     1     -10.537   7.843  20.519  1.00  0.00     0.131 A 
ATOM     87  C   UNL     1      -9.651  10.464  20.453  1.00  0.00     0.055 A 
ATOM     88  C   UNL     1     -10.820   8.694  21.588  1.00  0.00     0.041 A 
ATOM     89  F   UNL     1     -10.950   6.569  20.611  1.00  0.00    -0.206 F 
ATOM     90  C   UNL     1     -10.359  10.007  21.568  1.00  0.00     0.022 A 
BRANCH  87  91
ATOM     91  S   UNL     1      -8.889  12.110  20.471  1.00  0.00     0.124 S 
ATOM     92  O   UNL     1      -7.482  11.796  20.243  1.00  0.00    -0.237 OA
ATOM     93  O   UNL     1      -9.578  12.782  19.374  1.00  0.00    -0.237 OA
ATOM     94  O   UNL     1      -9.202  12.618  21.805  1.00  0.00    -0.744 OA
ENDBRANCH  87  91
ENDBRANCH  61  84
ENDBRANCH  35  36
ENDBRANCH  27  30
ENDBRANCH  25  26
ENDBRANCH  24  25
ENDBRANCH  23  24
ENDBRANCH   1  23
TORSDOF 19
