REMARK SMILES CC(=O)O[C@@H]1CC[C@@]23C(=O)O[C@]4(CC[C@]2(O)C1)[C@H]3CC[C@]1(C)[C@H](C(=O)NCCCCNC(=O)c2ccc(-c3c5nc(c(-c6cc(S(=O)(=O)[O-])ccc6F)c6ccc([nH]6)c(-c6cc(S(=O)(=O)[O-])ccc6F)c6nc(c(-c7cc(S(=O)(=O)[O-])ccc7F)c7ccc3[nH]7)C=C6)C=C5)cc2)CC[C@@H]14
REMARK SMILES IDX 29 1 28 2 27 3 26 4 24 5 25 6 23 8 5 9 6 10 17 11 7 12 15 13
REMARK SMILES IDX 8 14 14 15 9 16 18 17 13 18 10 19 11 20 12 21 19 22 99 23
REMARK SMILES IDX 20 24 21 25 98 26 22 27 97 28 4 29 2 30 1 31 3 32 16 33
REMARK SMILES IDX 30 35 31 36 32 37 33 39 34 40 35 41 96 42 36 43 95 44 37 45
REMARK SMILES IDX 38 46 39 47 89 48 40 49 94 50 88 51 90 52 41 53 93 54 87 55
REMARK SMILES IDX 86 56 42 58 74 59 54 60 73 61 55 62 58 63 72 64 91 65 56 66
REMARK SMILES IDX 57 67 71 69 92 70 59 71 43 72 44 73 52 74 45 75 51 76 53 77
REMARK SMILES IDX 50 78 46 79 47 80 48 81 49 82 75 83 76 84 84 85 77 86 83 87
REMARK SMILES IDX 85 88 82 89 78 90 79 91 80 92 81 93 60 94 61 95 69 96 62 97
REMARK SMILES IDX 68 98 70 99 67 100 63 101 64 102 65 103 66 104
REMARK H PARENT 26 7 16 34 31 38 90 57 58 68
REMARK Flexibility Score: inf
ROOT
ATOM      1  C   UNL     1      -5.855   9.020   4.464  1.00  0.00     0.023 C 
ENDROOT
BRANCH   1   2
ATOM      2  C   UNL     1      -4.723   8.010   4.440  1.00  0.00     0.023 C 
BRANCH   2   3
ATOM      3  C   UNL     1      -3.302   8.598   4.363  1.00  0.00     0.116 C 
BRANCH   3   4
ATOM      4  N   UNL     1      -2.835   8.931   5.697  1.00  0.00    -0.356 N 
ATOM      5  C   UNL     1      -2.153   8.266   6.657  1.00  0.00     0.223 C 
ATOM      6  O   UNL     1      -2.147   8.826   7.765  1.00  0.00    -0.275 OA
ATOM      7  H   UNL     1      -3.067   9.850   5.963  1.00  0.00     0.163 HD
BRANCH   5   8
ATOM      8  C   UNL     1      -1.333   6.970   6.507  1.00  0.00     0.085 C 
ATOM      9  C   UNL     1      -0.280   2.953  -0.474  1.00  0.00     0.179 C 
ATOM     10  C   UNL     1       0.052   4.324   0.076  1.00  0.00     0.047 C 
ATOM     11  C   UNL     1      -1.630   2.491   0.073  1.00  0.00     0.081 C 
ATOM     12  C   UNL     1      -0.107   4.342   1.588  1.00  0.00     0.026 C 
ATOM     13  C   UNL     1      -1.859   2.616   1.598  1.00  0.00     0.085 C 
ATOM     14  C   UNL     1      -1.730   3.985   2.135  1.00  0.00     0.103 C 
ATOM     15  C   UNL     1      -0.816   1.884   2.599  1.00  0.00     0.041 C 
ATOM     16  C   UNL     1      -1.932   5.390   2.377  1.00  0.00     0.316 C 
ATOM     17  C   UNL     1      -2.273   3.717   3.762  1.00  0.00     0.054 C 
ATOM     18  C   UNL     1      -0.202   2.848   3.885  1.00  0.00     0.052 C 
ATOM     19  O   UNL     1      -2.437   6.287   1.727  1.00  0.00    -0.251 OA
ATOM     20  O   UNL     1      -1.093   5.497   3.498  1.00  0.00    -0.458 OA
ATOM     21  C   UNL     1      -1.007   4.218   4.262  1.00  0.00     0.120 C 
ATOM     22  C   UNL     1      -3.497   4.355   4.431  1.00  0.00     0.009 C 
ATOM     23  C   UNL     1      -0.764   4.685   5.690  1.00  0.00     0.040 C 
ATOM     24  C   UNL     1      -3.207   5.471   5.444  1.00  0.00     0.008 C 
ATOM     25  C   UNL     1      -1.933   5.519   6.304  1.00  0.00    -0.014 C 
ATOM     26  C   UNL     1       0.451   5.658   5.671  1.00  0.00     0.009 C 
ATOM     27  C   UNL     1      -2.257   4.969   7.711  1.00  0.00     0.012 C 
ATOM     28  C   UNL     1      -0.135   7.071   5.579  1.00  0.00     0.014 C 
BRANCH   9  29
ATOM     29  O   UNL     1       0.732   2.010  -0.068  1.00  0.00    -0.462 OA
BRANCH  29  30
ATOM     30  C   UNL     1       0.861   0.909  -0.859  1.00  0.00     0.302 C 
ATOM     31  C   UNL     1       1.571  -0.184  -0.120  1.00  0.00     0.139 C 
ATOM     32  O   UNL     1       0.411   0.789  -1.989  1.00  0.00    -0.253 OA
ENDBRANCH  29  30
ENDBRANCH   9  29
BRANCH  13  33
ATOM     33  O   UNL     1      -3.176   2.108   1.838  1.00  0.00    -0.389 OA
ATOM     34  H   UNL     1      -3.376   2.162   2.786  1.00  0.00     0.211 HD
ENDBRANCH  13  33
ENDBRANCH   5   8
ENDBRANCH   3   4
ENDBRANCH   2   3
ENDBRANCH   1   2
BRANCH   1  35
ATOM     35  C   UNL     1      -5.994   9.814   3.183  1.00  0.00     0.116 C 
BRANCH  35  36
ATOM     36  N   UNL     1      -6.223   8.983   2.007  1.00  0.00    -0.352 N 
ATOM     37  C   UNL     1      -7.120   9.196   0.985  1.00  0.00     0.251 C 
ATOM     38  H   UNL     1      -5.669   8.172   1.935  1.00  0.00     0.163 HD
ATOM     39  O   UNL     1      -7.302   8.350   0.118  1.00  0.00    -0.269 OA
BRANCH  37  40
ATOM     40  C   UNL     1      -7.892  10.455   0.992  1.00  0.00     0.039 A 
ATOM     41  C   UNL     1      -9.281  10.403   0.887  1.00  0.00     0.014 A 
ATOM     42  C   UNL     1      -7.238  11.667   1.230  1.00  0.00     0.014 A 
ATOM     43  C   UNL     1     -10.023  11.565   1.105  1.00  0.00     0.010 A 
ATOM     44  C   UNL     1      -7.982  12.790   1.560  1.00  0.00     0.010 A 
ATOM     45  C   UNL     1      -9.383  12.754   1.494  1.00  0.00    -0.014 A 
BRANCH  45  46
ATOM     46  C   UNL     1     -10.157  13.979   1.820  1.00  0.00     0.031 A 
ATOM     47  C   UNL     1      -9.934  15.233   1.016  1.00  0.00     0.074 A 
ATOM     48  C   UNL     1     -11.000  13.980   2.873  1.00  0.00     0.049 A 
ATOM     49  N   UNL     1     -10.449  16.423   1.181  1.00  0.00    -0.248 NA
ATOM     50  C   UNL     1      -8.974  15.147  -0.099  1.00  0.00     0.031 C 
ATOM     51  C   UNL     1     -11.247  12.841   3.763  1.00  0.00     0.029 A 
ATOM     52  N   UNL     1     -11.801  14.971   3.382  1.00  0.00    -0.354 N 
ATOM     53  C   UNL     1      -9.861  17.227   0.211  1.00  0.00     0.074 A 
ATOM     54  C   UNL     1      -8.904  16.407  -0.497  1.00  0.00     0.031 C 
ATOM     55  C   UNL     1     -12.159  13.189   4.684  1.00  0.00     0.029 A 
ATOM     56  C   UNL     1     -12.528  14.587   4.487  1.00  0.00     0.049 A 
ATOM     57  H   UNL     1     -11.852  15.874   2.993  1.00  0.00     0.167 HD
ATOM     58  C   UNL     1     -10.118  18.525  -0.080  1.00  0.00     0.034 A 
ATOM     59  C   UNL     1     -13.384  15.287   5.259  1.00  0.00     0.034 A 
ATOM     60  C   UNL     1     -11.104  19.315   0.612  1.00  0.00     0.049 A 
ATOM     61  C   UNL     1     -13.659  16.729   4.904  1.00  0.00     0.074 A 
ATOM     62  C   UNL     1     -11.506  20.611   0.347  1.00  0.00     0.029 A 
ATOM     63  N   UNL     1     -11.839  18.886   1.710  1.00  0.00    -0.354 N 
ATOM     64  N   UNL     1     -13.152  17.451   3.930  1.00  0.00    -0.248 NA
ATOM     65  C   UNL     1     -14.630  17.446   5.740  1.00  0.00     0.031 C 
ATOM     66  C   UNL     1     -12.429  20.991   1.326  1.00  0.00     0.029 A 
ATOM     67  C   UNL     1     -12.667  19.905   2.153  1.00  0.00     0.049 A 
ATOM     68  H   UNL     1     -11.780  17.990   2.113  1.00  0.00     0.167 HD
ATOM     69  C   UNL     1     -13.770  18.695   4.019  1.00  0.00     0.074 A 
ATOM     70  C   UNL     1     -14.702  18.616   5.125  1.00  0.00     0.031 C 
ATOM     71  C   UNL     1     -13.588  19.805   3.259  1.00  0.00     0.034 A 
BRANCH  58  72
ATOM     72  C   UNL     1      -9.313  19.173  -1.179  1.00  0.00     0.023 A 
ATOM     73  C   UNL     1      -9.399  18.744  -2.515  1.00  0.00     0.031 A 
ATOM     74  C   UNL     1      -8.451  20.244  -0.885  1.00  0.00     0.131 A 
ATOM     75  C   UNL     1      -8.597  19.347  -3.497  1.00  0.00     0.055 A 
ATOM     76  C   UNL     1      -7.712  20.888  -1.878  1.00  0.00     0.041 A 
ATOM     77  F   UNL     1      -8.309  20.680   0.377  1.00  0.00    -0.206 F 
ATOM     78  C   UNL     1      -7.775  20.434  -3.192  1.00  0.00     0.022 A 
BRANCH  75  79
ATOM     79  S   UNL     1      -8.562  18.619  -5.157  1.00  0.00     0.124 S 
ATOM     80  O   UNL     1      -8.048  17.279  -4.881  1.00  0.00    -0.237 OA
ATOM     81  O   UNL     1      -9.959  18.695  -5.566  1.00  0.00    -0.237 OA
ATOM     82  O   UNL     1      -7.648  19.490  -5.894  1.00  0.00    -0.744 OA
ENDBRANCH  75  79
ENDBRANCH  58  72
BRANCH  59  83
ATOM     83  C   UNL     1     -14.034  14.661   6.450  1.00  0.00     0.023 A 
ATOM     84  C   UNL     1     -15.431  14.542   6.536  1.00  0.00     0.031 A 
ATOM     85  C   UNL     1     -13.271  14.240   7.554  1.00  0.00     0.131 A 
ATOM     86  C   UNL     1     -16.024  14.084   7.723  1.00  0.00     0.055 A 
ATOM     87  C   UNL     1     -13.864  13.723   8.708  1.00  0.00     0.041 A 
ATOM     88  F   UNL     1     -11.932  14.327   7.528  1.00  0.00    -0.206 F 
ATOM     89  C   UNL     1     -15.250  13.661   8.805  1.00  0.00     0.022 A 
BRANCH  86  90
ATOM     90  S   UNL     1     -17.831  14.169   7.880  1.00  0.00     0.124 S 
ATOM     91  O   UNL     1     -18.087  15.576   7.594  1.00  0.00    -0.237 OA
ATOM     92  O   UNL     1     -18.267  13.218   6.863  1.00  0.00    -0.237 OA
ATOM     93  O   UNL     1     -18.072  13.758   9.261  1.00  0.00    -0.744 OA
ENDBRANCH  86  90
ENDBRANCH  59  83
BRANCH  71  94
ATOM     94  C   UNL     1     -14.452  21.001   3.572  1.00  0.00     0.023 A 
ATOM     95  C   UNL     1     -14.336  21.702   4.785  1.00  0.00     0.031 A 
ATOM     96  C   UNL     1     -15.413  21.440   2.643  1.00  0.00     0.131 A 
ATOM     97  C   UNL     1     -15.207  22.765   5.062  1.00  0.00     0.055 A 
ATOM     98  C   UNL     1     -16.231  22.541   2.897  1.00  0.00     0.041 A 
ATOM     99  F   UNL     1     -15.568  20.807   1.469  1.00  0.00    -0.206 F 
ATOM    100  C   UNL     1     -16.141  23.201   4.119  1.00  0.00     0.022 A 
BRANCH  97 101
ATOM    101  S   UNL     1     -15.171  23.509   6.716  1.00  0.00     0.124 S 
ATOM    102  O   UNL     1     -15.453  22.360   7.571  1.00  0.00    -0.237 OA
ATOM    103  O   UNL     1     -13.815  24.041   6.790  1.00  0.00    -0.237 OA
ATOM    104  O   UNL     1     -16.230  24.515   6.662  1.00  0.00    -0.744 OA
ENDBRANCH  97 101
ENDBRANCH  71  94
ENDBRANCH  45  46
ENDBRANCH  37  40
ENDBRANCH  35  36
ENDBRANCH   1  35
TORSDOF 17
