REMARK SMILES Cc1ccc(NS(=O)(=O)c2cc(C(=O)Nc3ccccc3C(=O)NCCCCNC(=O)c3ccc(-c4c5nc(c(-c6cc(S(=O)(=O)[O-])ccc6F)c6ccc([nH]6)c(-c6cc(S(=O)(=O)[O-])ccc6F)c6nc(c(-c7cc(S(=O)(=O)[O-])ccc7F)c7ccc4[nH]7)C=C6)C=C5)cc3)ccc2Br)cc1
REMARK SMILES IDX 25 1 24 2 22 3 23 4 21 6 16 7 17 8 18 9 20 10 19 11 15 12
REMARK SMILES IDX 13 13 14 14 12 16 10 17 11 18 97 19 96 20 98 21 95 22 7 23
REMARK SMILES IDX 8 24 9 25 6 26 5 28 1 29 2 30 3 31 100 32 4 33 99 34 26 35
REMARK SMILES IDX 27 36 28 37 29 38 30 39 31 41 32 42 33 43 94 44 34 45 93 46
REMARK SMILES IDX 35 47 36 48 37 49 87 50 38 51 92 52 86 53 88 54 39 55 91 56
REMARK SMILES IDX 85 57 84 58 40 60 72 61 52 62 71 63 53 64 56 65 70 66 89 67
REMARK SMILES IDX 54 68 55 69 69 71 90 72 57 73 41 74 42 75 50 76 43 77 49 78
REMARK SMILES IDX 51 79 48 80 44 81 45 82 46 83 47 84 73 85 74 86 82 87 75 88
REMARK SMILES IDX 81 89 83 90 80 91 76 92 77 93 78 94 79 95 58 96 59 97 67 98
REMARK SMILES IDX 60 99 66 100 68 101 65 102 61 103 62 104 63 105 64 106
REMARK H PARENT 24 5 15 15 6 27 29 40 88 59 56 70
REMARK Flexibility Score: inf
ROOT
ATOM      1  C   UNL     1      -3.679  -1.099   3.020  1.00  0.00     0.116 C 
ENDROOT
BRANCH   1   2
ATOM      2  N   UNL     1      -2.365  -1.662   3.269  1.00  0.00    -0.352 N 
ATOM      3  C   UNL     1      -1.141  -1.211   2.813  1.00  0.00     0.253 C 
ATOM      4  O   UNL     1      -0.108  -1.680   3.279  1.00  0.00    -0.269 OA
ATOM      5  H   UNL     1      -2.343  -2.468   3.834  1.00  0.00     0.163 HD
BRANCH   3   6
ATOM      6  C   UNL     1      -1.079  -0.293   1.643  1.00  0.00     0.063 A 
ATOM      7  C   UNL     1       0.087  -0.638   0.287  1.00  0.00     0.054 A 
ATOM      8  C   UNL     1       0.057   0.663  -1.283  1.00  0.00     0.027 A 
ATOM      9  C   UNL     1      -1.176   1.981  -1.304  1.00  0.00     0.002 A 
ATOM     10  C   UNL     1      -2.179   1.083   1.488  1.00  0.00     0.016 A 
ATOM     11  C   UNL     1      -2.248   2.142   0.066  1.00  0.00     0.001 A 
BRANCH   7  12
ATOM     12  N   UNL     1       0.822  -1.931   0.559  1.00  0.00    -0.321 N 
ATOM     13  C   UNL     1       0.452  -3.292   0.649  1.00  0.00     0.255 C 
ATOM     14  O   UNL     1       1.347  -4.129   0.806  1.00  0.00    -0.269 OA
ATOM     15  H   UNL     1       1.785  -1.792   0.710  1.00  0.00     0.170 HD
BRANCH  13  16
ATOM     16  C   UNL     1      -0.924  -3.836   0.388  1.00  0.00     0.041 A 
ATOM     17  C   UNL     1      -3.139  -3.184  -0.401  1.00  0.00     0.102 A 
ATOM     18  C   UNL     1      -1.959  -2.959   0.263  1.00  0.00     0.037 A 
ATOM     19  C   UNL     1      -3.514  -4.498  -0.570  1.00  0.00     0.038 A 
ATOM     20  C   UNL     1      -2.572  -5.502  -0.246  1.00  0.00     0.018 A 
ATOM     21  Br  UNL     1      -5.255  -5.011  -1.083  1.00  0.00    -0.049 Br
ATOM     22  C   UNL     1      -1.251  -5.166   0.147  1.00  0.00     0.015 A 
BRANCH  17  23
ATOM     23  S   UNL     1      -3.881  -1.710  -1.102  1.00  0.00     0.263 S 
ATOM     24  O   UNL     1      -5.227  -1.619  -0.579  1.00  0.00    -0.201 OA
ATOM     25  O   UNL     1      -3.648  -1.779  -2.529  1.00  0.00    -0.201 OA
BRANCH  23  26
ATOM     26  N   UNL     1      -3.041  -0.341  -0.465  1.00  0.00    -0.280 N 
ATOM     27  H   UNL     1      -3.596   0.324   0.003  1.00  0.00     0.180 HD
BRANCH  26  28
ATOM     28  C   UNL     1      -1.541  -0.030  -0.534  1.00  0.00     0.049 A 
ATOM     29  C   UNL     1       3.569  -0.374  -0.794  1.00  0.00     0.044 C 
ATOM     30  C   UNL     1       2.086  -0.149  -0.845  1.00  0.00    -0.051 A 
ATOM     31  C   UNL     1       1.037  -1.244  -1.774  1.00  0.00     0.005 A 
ATOM     32  C   UNL     1       1.486   1.067   0.246  1.00  0.00     0.005 A 
ATOM     33  C   UNL     1      -0.733  -1.212  -1.664  1.00  0.00     0.027 A 
ATOM     34  C   UNL     1      -0.279   1.223   0.459  1.00  0.00     0.027 A 
ENDBRANCH  26  28
ENDBRANCH  23  26
ENDBRANCH  17  23
ENDBRANCH  13  16
ENDBRANCH   7  12
ENDBRANCH   3   6
ENDBRANCH   1   2
BRANCH   1  35
ATOM     35  C   UNL     1      -4.730  -2.013   2.421  1.00  0.00     0.023 C 
BRANCH  35  36
ATOM     36  C   UNL     1      -5.322  -3.085   3.281  1.00  0.00     0.023 C 
BRANCH  36  37
ATOM     37  C   UNL     1      -5.750  -2.559   4.614  1.00  0.00     0.116 C 
BRANCH  37  38
ATOM     38  N   UNL     1      -6.824  -1.589   4.617  1.00  0.00    -0.352 N 
ATOM     39  C   UNL     1      -7.639  -1.241   5.683  1.00  0.00     0.251 C 
ATOM     40  H   UNL     1      -6.995  -1.123   3.766  1.00  0.00     0.163 HD
ATOM     41  O   UNL     1      -8.677  -0.615   5.484  1.00  0.00    -0.269 OA
BRANCH  39  42
ATOM     42  C   UNL     1      -7.170  -1.456   7.093  1.00  0.00     0.039 A 
ATOM     43  C   UNL     1      -7.534  -0.444   7.991  1.00  0.00     0.014 A 
ATOM     44  C   UNL     1      -5.964  -2.097   7.294  1.00  0.00     0.014 A 
ATOM     45  C   UNL     1      -6.545   0.149   8.761  1.00  0.00     0.010 A 
ATOM     46  C   UNL     1      -4.931  -1.317   7.698  1.00  0.00     0.010 A 
ATOM     47  C   UNL     1      -5.237  -0.201   8.464  1.00  0.00    -0.014 A 
BRANCH  47  48
ATOM     48  C   UNL     1      -4.054   0.268   9.136  1.00  0.00     0.031 A 
ATOM     49  C   UNL     1      -3.762  -0.558  10.340  1.00  0.00     0.074 A 
ATOM     50  C   UNL     1      -3.301   1.130   8.407  1.00  0.00     0.049 A 
ATOM     51  N   UNL     1      -3.207  -0.145  11.414  1.00  0.00    -0.248 NA
ATOM     52  C   UNL     1      -4.224  -1.960  10.516  1.00  0.00     0.031 C 
ATOM     53  C   UNL     1      -1.904   1.520   8.509  1.00  0.00     0.029 A 
ATOM     54  N   UNL     1      -3.795   2.009   7.428  1.00  0.00    -0.354 N 
ATOM     55  C   UNL     1      -2.753  -1.284  12.061  1.00  0.00     0.074 A 
ATOM     56  C   UNL     1      -3.618  -2.341  11.644  1.00  0.00     0.031 C 
ATOM     57  C   UNL     1      -1.743   2.743   7.959  1.00  0.00     0.029 A 
ATOM     58  C   UNL     1      -3.053   3.206   7.528  1.00  0.00     0.049 A 
ATOM     59  H   UNL     1      -4.522   1.824   6.791  1.00  0.00     0.167 HD
ATOM     60  C   UNL     1      -1.510  -1.250  12.611  1.00  0.00     0.034 A 
ATOM     61  C   UNL     1      -3.683   4.338   7.972  1.00  0.00     0.034 A 
ATOM     62  C   UNL     1      -0.913   0.036  12.273  1.00  0.00     0.049 A 
ATOM     63  C   UNL     1      -3.237   4.616   9.397  1.00  0.00     0.074 A 
ATOM     64  C   UNL     1      -0.013   0.419  11.297  1.00  0.00     0.029 A 
ATOM     65  N   UNL     1      -1.538   1.180  12.722  1.00  0.00    -0.354 N 
ATOM     66  N   UNL     1      -2.882   3.681  10.242  1.00  0.00    -0.248 NA
ATOM     67  C   UNL     1      -2.992   5.962   9.910  1.00  0.00     0.031 C 
ATOM     68  C   UNL     1      -0.139   1.827  11.141  1.00  0.00     0.029 A 
ATOM     69  C   UNL     1      -1.135   2.270  11.995  1.00  0.00     0.049 A 
ATOM     70  H   UNL     1      -2.185   1.210  13.463  1.00  0.00     0.167 HD
ATOM     71  C   UNL     1      -2.290   4.263  11.334  1.00  0.00     0.074 A 
ATOM     72  C   UNL     1      -2.409   5.691  11.090  1.00  0.00     0.031 C 
ATOM     73  C   UNL     1      -1.676   3.564  12.337  1.00  0.00     0.034 A 
BRANCH  60  74
ATOM     74  C   UNL     1      -0.665  -2.353  13.185  1.00  0.00     0.023 A 
ATOM     75  C   UNL     1       0.679  -2.022  13.466  1.00  0.00     0.031 A 
ATOM     76  C   UNL     1      -1.042  -3.666  13.508  1.00  0.00     0.131 A 
ATOM     77  C   UNL     1       1.589  -2.945  13.989  1.00  0.00     0.055 A 
ATOM     78  C   UNL     1      -0.132  -4.596  14.045  1.00  0.00     0.041 A 
ATOM     79  F   UNL     1      -2.295  -4.107  13.347  1.00  0.00    -0.206 F 
ATOM     80  C   UNL     1       1.192  -4.240  14.286  1.00  0.00     0.022 A 
BRANCH  77  81
ATOM     81  S   UNL     1       3.290  -2.389  14.264  1.00  0.00     0.124 S 
ATOM     82  O   UNL     1       3.725  -2.061  12.909  1.00  0.00    -0.237 OA
ATOM     83  O   UNL     1       3.106  -1.263  15.173  1.00  0.00    -0.237 OA
ATOM     84  O   UNL     1       3.935  -3.560  14.853  1.00  0.00    -0.744 OA
ENDBRANCH  77  81
ENDBRANCH  60  74
BRANCH  61  85
ATOM     85  C   UNL     1      -5.077   4.406   7.402  1.00  0.00     0.023 A 
ATOM     86  C   UNL     1      -5.164   4.506   5.987  1.00  0.00     0.031 A 
ATOM     87  C   UNL     1      -6.147   3.799   8.075  1.00  0.00     0.131 A 
ATOM     88  C   UNL     1      -6.137   3.769   5.288  1.00  0.00     0.055 A 
ATOM     89  C   UNL     1      -7.154   3.128   7.366  1.00  0.00     0.041 A 
ATOM     90  F   UNL     1      -6.140   3.685   9.411  1.00  0.00    -0.206 F 
ATOM     91  C   UNL     1      -7.113   3.047   5.973  1.00  0.00     0.022 A 
BRANCH  88  92
ATOM     92  S   UNL     1      -5.981   3.598   3.483  1.00  0.00     0.124 S 
ATOM     93  O   UNL     1      -5.929   4.986   3.035  1.00  0.00    -0.237 OA
ATOM     94  O   UNL     1      -4.736   2.842   3.342  1.00  0.00    -0.237 OA
ATOM     95  O   UNL     1      -7.180   2.863   3.088  1.00  0.00    -0.744 OA
ENDBRANCH  88  92
ENDBRANCH  61  85
BRANCH  73  96
ATOM     96  C   UNL     1      -1.455   4.074  13.741  1.00  0.00     0.023 A 
ATOM     97  C   UNL     1      -2.029   5.265  14.177  1.00  0.00     0.031 A 
ATOM     98  C   UNL     1      -0.752   3.337  14.733  1.00  0.00     0.131 A 
ATOM     99  C   UNL     1      -1.768   5.765  15.456  1.00  0.00     0.055 A 
ATOM    100  C   UNL     1      -0.617   3.768  16.052  1.00  0.00     0.041 A 
ATOM    101  F   UNL     1      -0.171   2.155  14.485  1.00  0.00    -0.206 F 
ATOM    102  C   UNL     1      -1.092   5.015  16.412  1.00  0.00     0.022 A 
BRANCH  99 103
ATOM    103  S   UNL     1      -2.222   7.482  15.761  1.00  0.00     0.124 S 
ATOM    104  O   UNL     1      -1.412   8.181  14.764  1.00  0.00    -0.237 OA
ATOM    105  O   UNL     1      -3.660   7.476  15.511  1.00  0.00    -0.237 OA
ATOM    106  O   UNL     1      -1.826   7.699  17.149  1.00  0.00    -0.744 OA
ENDBRANCH  99 103
ENDBRANCH  73  96
ENDBRANCH  47  48
ENDBRANCH  39  42
ENDBRANCH  37  38
ENDBRANCH  36  37
ENDBRANCH  35  36
ENDBRANCH   1  35
TORSDOF 19
