REMARK SMILES Cn1c(SCC(=O)Nc2cccc(C(=O)NCCCCNC(=O)c3ccc(-c4c5nc(c(-c6cc(S(=O)(=O)[O-])ccc6F)c6ccc([nH]6)c(-c6cc(S(=O)(=O)[O-])ccc6F)c6nc(c(-c7cc(S(=O)(=O)[O-])ccc7F)c7ccc4[nH]7)C=C6)C=C5)cc3)c2)nnc1[C@@H]1CCCN1C(=O)c1ccccc1Cl
REMARK SMILES IDX 14 1 15 2 16 3 13 5 9 6 10 7 87 8 11 9 12 10 8 11 6 12 7 13
REMARK SMILES IDX 5 15 4 16 3 17 1 18 2 19 90 20 88 21 89 22 91 23 92 24 95 25
REMARK SMILES IDX 93 26 94 27 96 28 97 29 98 30 99 31 103 32 100 33 102 34
REMARK SMILES IDX 104 35 101 36 17 37 18 38 19 39 20 40 21 41 22 42 23 44
REMARK SMILES IDX 24 45 25 46 86 47 26 48 85 49 27 50 28 51 29 52 79 53 30 54
REMARK SMILES IDX 84 55 78 56 80 57 31 58 83 59 77 60 76 61 32 63 64 64 44 65
REMARK SMILES IDX 63 66 45 67 48 68 62 69 81 70 46 71 47 72 61 74 82 75 49 76
REMARK SMILES IDX 33 77 34 78 42 79 35 80 41 81 43 82 40 83 36 84 37 85 38 86
REMARK SMILES IDX 39 87 65 88 66 89 74 90 67 91 73 92 75 93 72 94 68 95 69 96
REMARK SMILES IDX 70 97 71 98 50 99 51 100 59 101 52 102 58 103 60 104 57 105
REMARK SMILES IDX 53 106 54 107 55 108 56 109
REMARK H PARENT 16 4 8 14 21 43 80 62 48 73
REMARK Flexibility Score: inf
ROOT
ATOM      1  C   UNL     1      -1.908   5.249   2.004  1.00  0.00     0.251 C 
ATOM      2  O   UNL     1      -2.591   6.245   2.272  1.00  0.00    -0.269 OA
ATOM      3  N   UNL     1      -2.516   4.349   1.171  1.00  0.00    -0.352 N 
ATOM      4  H   UNL     1      -3.437   4.610   0.943  1.00  0.00     0.163 HD
ENDROOT
BRANCH   1   5
ATOM      5  C   UNL     1      -0.521   5.175   2.594  1.00  0.00     0.041 A 
ATOM      6  C   UNL     1       1.667   4.229   3.142  1.00  0.00     0.041 A 
ATOM      7  C   UNL     1       1.995   5.357   3.891  1.00  0.00     0.026 A 
ATOM      8  C   UNL     1       0.395   4.114   2.551  1.00  0.00     0.040 A 
ATOM      9  C   UNL     1       1.100   6.412   3.969  1.00  0.00     0.003 A 
ATOM     10  C   UNL     1      -0.130   6.325   3.315  1.00  0.00     0.014 A 
BRANCH   6  11
ATOM     11  N   UNL     1       2.600   3.186   3.147  1.00  0.00    -0.325 N 
ATOM     12  C   UNL     1       3.276   2.604   2.116  1.00  0.00     0.234 C 
ATOM     13  O   UNL     1       4.122   1.751   2.414  1.00  0.00    -0.274 OA
ATOM     14  H   UNL     1       2.799   2.812   4.035  1.00  0.00     0.169 HD
BRANCH  12  15
ATOM     15  C   UNL     1       3.181   3.091   0.693  1.00  0.00     0.178 C 
BRANCH  15  16
ATOM     16  S   UNL     1       1.718   2.699  -0.220  1.00  0.00    -0.076 SA
BRANCH  16  17
ATOM     17  C   UNL     1       1.125   1.135   0.190  1.00  0.00     0.191 A 
ATOM     18  C   UNL     1       3.102  -0.376   0.630  1.00  0.00     0.154 C 
ATOM     19  N   UNL     1       1.761  -0.078   0.215  1.00  0.00    -0.307 N 
ATOM     20  C   UNL     1       0.770  -1.000  -0.059  1.00  0.00     0.156 A 
ATOM     21  N   UNL     1      -0.167   0.921   0.208  1.00  0.00    -0.123 NA
ATOM     22  N   UNL     1      -0.390  -0.409   0.125  1.00  0.00    -0.132 NA
BRANCH  20  23
ATOM     23  C   UNL     1       0.888  -2.422  -0.456  1.00  0.00     0.154 C 
ATOM     24  C   UNL     1       1.391  -3.308   0.689  1.00  0.00     0.035 C 
ATOM     25  N   UNL     1       1.765  -2.739  -1.589  1.00  0.00    -0.328 N 
ATOM     26  C   UNL     1       1.888  -4.552  -0.023  1.00  0.00     0.024 C 
ATOM     27  C   UNL     1       2.338  -4.062  -1.394  1.00  0.00     0.120 C 
BRANCH  25  28
ATOM     28  C   UNL     1       1.764  -2.254  -2.903  1.00  0.00     0.255 C 
ATOM     29  O   UNL     1       2.235  -2.908  -3.836  1.00  0.00    -0.269 OA
BRANCH  28  30
ATOM     30  C   UNL     1       1.296  -0.899  -3.256  1.00  0.00     0.058 A 
ATOM     31  C   UNL     1       0.151  -0.760  -4.047  1.00  0.00     0.015 A 
ATOM     32  C   UNL     1       2.110   0.221  -3.075  1.00  0.00     0.053 A 
ATOM     33  C   UNL     1      -0.267   0.505  -4.482  1.00  0.00     0.001 A 
ATOM     34  C   UNL     1       1.665   1.492  -3.466  1.00  0.00     0.021 A 
ATOM     35  Cl  UNL     1       3.740   0.098  -2.514  1.00  0.00    -0.083 Cl
ATOM     36  C   UNL     1       0.456   1.640  -4.137  1.00  0.00     0.002 A 
ENDBRANCH  28  30
ENDBRANCH  25  28
ENDBRANCH  20  23
ENDBRANCH  16  17
ENDBRANCH  15  16
ENDBRANCH  12  15
ENDBRANCH   6  11
ENDBRANCH   1   5
BRANCH   3  37
ATOM     37  C   UNL     1      -2.124   3.104   0.549  1.00  0.00     0.116 C 
BRANCH  37  38
ATOM     38  C   UNL     1      -2.991   1.926   1.003  1.00  0.00     0.023 C 
BRANCH  38  39
ATOM     39  C   UNL     1      -4.019   1.425  -0.016  1.00  0.00     0.023 C 
BRANCH  39  40
ATOM     40  C   UNL     1      -3.524   1.094  -1.424  1.00  0.00     0.116 C 
BRANCH  40  41
ATOM     41  N   UNL     1      -2.631  -0.046  -1.496  1.00  0.00    -0.352 N 
ATOM     42  C   UNL     1      -2.589  -1.082  -2.398  1.00  0.00     0.251 C 
ATOM     43  H   UNL     1      -1.948  -0.085  -0.788  1.00  0.00     0.163 HD
ATOM     44  O   UNL     1      -1.864  -2.058  -2.185  1.00  0.00    -0.269 OA
BRANCH  42  45
ATOM     45  C   UNL     1      -3.421  -1.078  -3.627  1.00  0.00     0.039 A 
ATOM     46  C   UNL     1      -3.847  -2.309  -4.139  1.00  0.00     0.014 A 
ATOM     47  C   UNL     1      -3.802   0.102  -4.271  1.00  0.00     0.014 A 
ATOM     48  C   UNL     1      -4.793  -2.345  -5.160  1.00  0.00     0.010 A 
ATOM     49  C   UNL     1      -4.807   0.075  -5.229  1.00  0.00     0.010 A 
ATOM     50  C   UNL     1      -5.354  -1.148  -5.628  1.00  0.00    -0.014 A 
BRANCH  50  51
ATOM     51  C   UNL     1      -6.630  -1.158  -6.377  1.00  0.00     0.031 A 
ATOM     52  C   UNL     1      -6.703  -0.640  -7.779  1.00  0.00     0.074 A 
ATOM     53  C   UNL     1      -7.739  -1.540  -5.708  1.00  0.00     0.049 A 
ATOM     54  N   UNL     1      -7.747  -0.529  -8.556  1.00  0.00    -0.248 NA
ATOM     55  C   UNL     1      -5.449  -0.157  -8.376  1.00  0.00     0.031 C 
ATOM     56  C   UNL     1      -7.767  -1.974  -4.305  1.00  0.00     0.029 A 
ATOM     57  N   UNL     1      -9.050  -1.618  -6.097  1.00  0.00    -0.354 N 
ATOM     58  C   UNL     1      -7.279   0.035  -9.737  1.00  0.00     0.074 A 
ATOM     59  C   UNL     1      -5.868   0.294  -9.550  1.00  0.00     0.031 C 
ATOM     60  C   UNL     1      -9.021  -2.305  -3.967  1.00  0.00     0.029 A 
ATOM     61  C   UNL     1      -9.896  -2.056  -5.103  1.00  0.00     0.049 A 
ATOM     62  H   UNL     1      -9.358  -1.383  -7.002  1.00  0.00     0.167 HD
ATOM     63  C   UNL     1      -7.973   0.291 -10.873  1.00  0.00     0.034 A 
ATOM     64  C   UNL     1     -11.233  -2.225  -5.106  1.00  0.00     0.034 A 
ATOM     65  C   UNL     1      -9.385   0.028 -11.013  1.00  0.00     0.049 A 
ATOM     66  C   UNL     1     -11.974  -1.926  -6.383  1.00  0.00     0.074 A 
ATOM     67  C   UNL     1     -10.185   0.190 -12.130  1.00  0.00     0.029 A 
ATOM     68  N   UNL     1     -10.213  -0.438  -9.997  1.00  0.00    -0.354 N 
ATOM     69  N   UNL     1     -11.501  -1.480  -7.525  1.00  0.00    -0.248 NA
ATOM     70  C   UNL     1     -13.421  -2.168  -6.381  1.00  0.00     0.031 C 
ATOM     71  C   UNL     1     -11.504  -0.101 -11.769  1.00  0.00     0.029 A 
ATOM     72  C   UNL     1     -11.518  -0.534 -10.452  1.00  0.00     0.049 A 
ATOM     73  H   UNL     1      -9.914  -0.667  -9.087  1.00  0.00     0.167 HD
ATOM     74  C   UNL     1     -12.590  -1.420  -8.387  1.00  0.00     0.074 A 
ATOM     75  C   UNL     1     -13.735  -1.898  -7.639  1.00  0.00     0.031 C 
ATOM     76  C   UNL     1     -12.643  -1.010  -9.680  1.00  0.00     0.034 A 
BRANCH  63  77
ATOM     77  C   UNL     1      -7.225   0.904 -12.031  1.00  0.00     0.023 A 
ATOM     78  C   UNL     1      -6.173   0.227 -12.672  1.00  0.00     0.031 A 
ATOM     79  C   UNL     1      -7.569   2.182 -12.505  1.00  0.00     0.131 A 
ATOM     80  C   UNL     1      -5.467   0.851 -13.713  1.00  0.00     0.055 A 
ATOM     81  C   UNL     1      -6.913   2.767 -13.591  1.00  0.00     0.041 A 
ATOM     82  F   UNL     1      -8.548   2.888 -11.918  1.00  0.00    -0.206 F 
ATOM     83  C   UNL     1      -5.848   2.106 -14.194  1.00  0.00     0.022 A 
BRANCH  80  84
ATOM     84  S   UNL     1      -3.969   0.051 -14.349  1.00  0.00     0.124 S 
ATOM     85  O   UNL     1      -3.134  -0.005 -13.152  1.00  0.00    -0.237 OA
ATOM     86  O   UNL     1      -4.475  -1.227 -14.835  1.00  0.00    -0.237 OA
ATOM     87  O   UNL     1      -3.502   0.971 -15.384  1.00  0.00    -0.744 OA
ENDBRANCH  80  84
ENDBRANCH  63  77
BRANCH  64  88
ATOM     88  C   UNL     1     -11.951  -2.688  -3.882  1.00  0.00     0.023 A 
ATOM     89  C   UNL     1     -12.679  -3.888  -3.880  1.00  0.00     0.031 A 
ATOM     90  C   UNL     1     -11.968  -1.910  -2.710  1.00  0.00     0.131 A 
ATOM     91  C   UNL     1     -13.448  -4.241  -2.760  1.00  0.00     0.055 A 
ATOM     92  C   UNL     1     -12.679  -2.300  -1.573  1.00  0.00     0.041 A 
ATOM     93  F   UNL     1     -11.285  -0.755  -2.649  1.00  0.00    -0.206 F 
ATOM     94  C   UNL     1     -13.441  -3.463  -1.601  1.00  0.00     0.022 A 
BRANCH  91  95
ATOM     95  S   UNL     1     -14.561  -5.668  -2.888  1.00  0.00     0.124 S 
ATOM     96  O   UNL     1     -15.343  -5.328  -4.072  1.00  0.00    -0.237 OA
ATOM     97  O   UNL     1     -13.620  -6.773  -3.036  1.00  0.00    -0.237 OA
ATOM     98  O   UNL     1     -15.295  -5.640  -1.625  1.00  0.00    -0.744 OA
ENDBRANCH  91  95
ENDBRANCH  64  88
BRANCH  76  99
ATOM     99  C   UNL     1     -13.981  -1.112 -10.369  1.00  0.00     0.023 A 
ATOM    100  C   UNL     1     -15.081  -0.335  -9.968  1.00  0.00     0.031 A 
ATOM    101  C   UNL     1     -14.157  -2.012 -11.435  1.00  0.00     0.131 A 
ATOM    102  C   UNL     1     -16.325  -0.519 -10.587  1.00  0.00     0.055 A 
ATOM    103  C   UNL     1     -15.379  -2.137 -12.095  1.00  0.00     0.041 A 
ATOM    104  F   UNL     1     -13.140  -2.782 -11.855  1.00  0.00    -0.206 F 
ATOM    105  C   UNL     1     -16.476  -1.399 -11.662  1.00  0.00     0.022 A 
BRANCH 102 106
ATOM    106  S   UNL     1     -17.771   0.331  -9.897  1.00  0.00     0.124 S 
ATOM    107  O   UNL     1     -17.789  -0.168  -8.526  1.00  0.00    -0.237 OA
ATOM    108  O   UNL     1     -17.414   1.736 -10.059  1.00  0.00    -0.237 OA
ATOM    109  O   UNL     1     -18.873  -0.130 -10.740  1.00  0.00    -0.744 OA
ENDBRANCH 102 106
ENDBRANCH  76  99
ENDBRANCH  50  51
ENDBRANCH  42  45
ENDBRANCH  40  41
ENDBRANCH  39  40
ENDBRANCH  38  39
ENDBRANCH  37  38
ENDBRANCH   3  37
TORSDOF 21
