REMARK SMILES CCCC1(CCC)C[NH+]([C@H]2C=C[C@@H](C(=O)NCCCCNC(=O)c3ccc(-c4c5nc(c(-c6cc(S(=O)(=O)[O-])ccc6F)c6ccc([nH]6)c(-c6cc(S(=O)(=O)[O-])ccc6F)c6nc(c(-c7cc(S(=O)(=O)[O-])ccc7F)c7ccc4[nH]7)C=C6)C=C5)cc3)C2)C1
REMARK SMILES IDX 18 1 17 2 16 3 14 4 15 5 13 7 10 8 11 9 87 10 12 11 9 12
REMARK SMILES IDX 4 13 8 14 88 15 3 17 2 18 1 19 5 20 6 21 7 22 19 23 20 24
REMARK SMILES IDX 21 25 22 26 23 28 24 29 25 30 86 31 26 32 85 33 27 34 28 35
REMARK SMILES IDX 29 36 79 37 30 38 84 39 78 40 80 41 31 42 83 43 77 44 76 45
REMARK SMILES IDX 32 47 64 48 44 49 63 50 45 51 48 52 62 53 81 54 46 55 47 56
REMARK SMILES IDX 61 58 82 59 49 60 33 61 34 62 42 63 35 64 41 65 43 66 40 67
REMARK SMILES IDX 36 68 37 69 38 70 39 71 65 72 66 73 74 74 67 75 73 76 75 77
REMARK SMILES IDX 72 78 68 79 69 80 70 81 71 82 50 83 51 84 59 85 52 86 58 87
REMARK SMILES IDX 60 88 57 89 53 90 54 91 55 92 56 93
REMARK H PARENT 16 6 9 16 21 27 80 46 48 57
REMARK Flexibility Score: inf
ROOT
ATOM      1  C   UNL     1      -2.109   1.429  -3.616  1.00  0.00     0.023 C 
ENDROOT
BRANCH   1   2
ATOM      2  C   UNL     1      -3.057   0.568  -4.450  1.00  0.00     0.116 C 
BRANCH   2   3
ATOM      3  N   UNL     1      -2.589   0.363  -5.811  1.00  0.00    -0.356 N 
ATOM      4  C   UNL     1      -2.154  -0.732  -6.490  1.00  0.00     0.227 C 
ATOM      5  O   UNL     1      -1.948  -0.571  -7.701  1.00  0.00    -0.274 OA
ATOM      6  H   UNL     1      -2.587   1.186  -6.352  1.00  0.00     0.163 HD
BRANCH   4   7
ATOM      7  C   UNL     1      -1.796  -2.097  -5.860  1.00  0.00     0.107 C 
ATOM      8  C   UNL     1      -0.388  -2.869  -3.939  1.00  0.00     0.208 C 
ATOM      9  C   UNL     1      -1.871  -3.092  -3.737  1.00  0.00     0.033 C 
ATOM     10  C   UNL     1      -0.380  -2.075  -5.267  1.00  0.00     0.087 C 
ATOM     11  C   UNL     1      -2.623  -2.657  -4.756  1.00  0.00    -0.012 C 
BRANCH   8  12
ATOM     12  N   UNL     1       0.208  -2.305  -2.714  1.00  0.00    -0.328 N 
ATOM     13  C   UNL     1       1.375  -0.454  -2.811  1.00  0.00     0.068 C 
ATOM     14  C   UNL     1       1.642  -2.014  -2.723  1.00  0.00     0.275 C 
ATOM     15  C   UNL     1      -0.119  -0.903  -2.540  1.00  0.00     0.275 C 
ATOM     16  H   UNL     1      -0.111  -3.021  -2.061  1.00  0.00     0.348 HD
BRANCH  13  17
ATOM     17  C   UNL     1       2.038   0.407  -1.690  1.00  0.00     0.018 C 
BRANCH  17  18
ATOM     18  C   UNL     1       1.197   0.774  -0.466  1.00  0.00    -0.002 C 
ATOM     19  C   UNL     1       1.245  -0.283   0.626  1.00  0.00     0.004 C 
ENDBRANCH  17  18
ENDBRANCH  13  17
BRANCH  13  20
ATOM     20  C   UNL     1       2.002  -0.017  -4.184  1.00  0.00     0.018 C 
BRANCH  20  21
ATOM     21  C   UNL     1       1.407   1.177  -4.939  1.00  0.00    -0.002 C 
ATOM     22  C   UNL     1       1.641   2.551  -4.340  1.00  0.00     0.004 C 
ENDBRANCH  20  21
ENDBRANCH  13  20
ENDBRANCH   8  12
ENDBRANCH   4   7
ENDBRANCH   2   3
ENDBRANCH   1   2
BRANCH   1  23
ATOM     23  C   UNL     1      -2.149   2.922  -3.864  1.00  0.00     0.023 C 
BRANCH  23  24
ATOM     24  C   UNL     1      -3.312   3.584  -3.157  1.00  0.00     0.116 C 
BRANCH  24  25
ATOM     25  N   UNL     1      -3.137   3.594  -1.705  1.00  0.00    -0.352 N 
ATOM     26  C   UNL     1      -2.778   4.604  -0.846  1.00  0.00     0.251 C 
ATOM     27  H   UNL     1      -3.306   2.728  -1.268  1.00  0.00     0.163 HD
ATOM     28  O   UNL     1      -2.465   4.322   0.314  1.00  0.00    -0.269 OA
BRANCH  26  29
ATOM     29  C   UNL     1      -2.740   6.009  -1.304  1.00  0.00     0.039 A 
ATOM     30  C   UNL     1      -1.788   6.891  -0.782  1.00  0.00     0.014 A 
ATOM     31  C   UNL     1      -3.654   6.469  -2.249  1.00  0.00     0.014 A 
ATOM     32  C   UNL     1      -1.713   8.200  -1.270  1.00  0.00     0.010 A 
ATOM     33  C   UNL     1      -3.472   7.706  -2.846  1.00  0.00     0.010 A 
ATOM     34  C   UNL     1      -2.526   8.605  -2.341  1.00  0.00    -0.014 A 
BRANCH  34  35
ATOM     35  C   UNL     1      -2.478   9.974  -2.920  1.00  0.00     0.031 A 
ATOM     36  C   UNL     1      -3.747  10.790  -2.983  1.00  0.00     0.074 A 
ATOM     37  C   UNL     1      -1.343  10.436  -3.479  1.00  0.00     0.049 A 
ATOM     38  N   UNL     1      -3.991  11.902  -3.625  1.00  0.00    -0.248 NA
ATOM     39  C   UNL     1      -4.918  10.238  -2.281  1.00  0.00     0.031 C 
ATOM     40  C   UNL     1      -0.066   9.720  -3.530  1.00  0.00     0.029 A 
ATOM     41  N   UNL     1      -1.084  11.617  -4.128  1.00  0.00    -0.354 N 
ATOM     42  C   UNL     1      -5.350  12.149  -3.448  1.00  0.00     0.074 A 
ATOM     43  C   UNL     1      -5.888  11.030  -2.709  1.00  0.00     0.031 C 
ATOM     44  C   UNL     1       0.848  10.491  -4.143  1.00  0.00     0.029 A 
ATOM     45  C   UNL     1       0.211  11.728  -4.580  1.00  0.00     0.049 A 
ATOM     46  H   UNL     1      -1.761  12.319  -4.258  1.00  0.00     0.167 HD
ATOM     47  C   UNL     1      -6.076  13.226  -3.837  1.00  0.00     0.034 A 
ATOM     48  C   UNL     1       0.810  12.710  -5.281  1.00  0.00     0.034 A 
ATOM     49  C   UNL     1      -5.502  14.362  -4.514  1.00  0.00     0.049 A 
ATOM     50  C   UNL     1      -0.005  13.917  -5.671  1.00  0.00     0.074 A 
ATOM     51  C   UNL     1      -6.113  15.548  -4.882  1.00  0.00     0.029 A 
ATOM     52  N   UNL     1      -4.175  14.457  -4.913  1.00  0.00    -0.354 N 
ATOM     53  N   UNL     1      -1.280  14.155  -5.465  1.00  0.00    -0.248 NA
ATOM     54  C   UNL     1       0.702  14.989  -6.382  1.00  0.00     0.031 C 
ATOM     55  C   UNL     1      -5.169  16.336  -5.551  1.00  0.00     0.029 A 
ATOM     56  C   UNL     1      -3.952  15.672  -5.541  1.00  0.00     0.049 A 
ATOM     57  H   UNL     1      -3.492  13.763  -4.771  1.00  0.00     0.167 HD
ATOM     58  C   UNL     1      -1.521  15.417  -5.999  1.00  0.00     0.074 A 
ATOM     59  C   UNL     1      -0.255  15.895  -6.517  1.00  0.00     0.031 C 
ATOM     60  C   UNL     1      -2.681  16.120  -6.057  1.00  0.00     0.034 A 
BRANCH  47  61
ATOM     61  C   UNL     1      -7.560  13.212  -3.545  1.00  0.00     0.023 A 
ATOM     62  C   UNL     1      -8.056  13.132  -2.231  1.00  0.00     0.031 A 
ATOM     63  C   UNL     1      -8.494  13.232  -4.595  1.00  0.00     0.131 A 
ATOM     64  C   UNL     1      -9.432  12.976  -2.007  1.00  0.00     0.055 A 
ATOM     65  C   UNL     1      -9.870  13.172  -4.360  1.00  0.00     0.041 A 
ATOM     66  F   UNL     1      -8.086  13.288  -5.873  1.00  0.00    -0.206 F 
ATOM     67  C   UNL     1     -10.346  13.024  -3.061  1.00  0.00     0.022 A 
BRANCH  64  68
ATOM     68  S   UNL     1      -9.991  12.546  -0.335  1.00  0.00     0.124 S 
ATOM     69  O   UNL     1      -9.294  11.282  -0.109  1.00  0.00    -0.237 OA
ATOM     70  O   UNL     1      -9.528  13.681   0.455  1.00  0.00    -0.237 OA
ATOM     71  O   UNL     1     -11.441  12.434  -0.477  1.00  0.00    -0.744 OA
ENDBRANCH  64  68
ENDBRANCH  47  61
BRANCH  48  72
ATOM     72  C   UNL     1       2.248  12.603  -5.658  1.00  0.00     0.023 A 
ATOM     73  C   UNL     1       3.199  13.489  -5.126  1.00  0.00     0.031 A 
ATOM     74  C   UNL     1       2.692  11.634  -6.575  1.00  0.00     0.131 A 
ATOM     75  C   UNL     1       4.535  13.419  -5.548  1.00  0.00     0.055 A 
ATOM     76  C   UNL     1       4.032  11.535  -6.953  1.00  0.00     0.041 A 
ATOM     77  F   UNL     1       1.826  10.756  -7.106  1.00  0.00    -0.206 F 
ATOM     78  C   UNL     1       4.961  12.440  -6.449  1.00  0.00     0.022 A 
BRANCH  75  79
ATOM     79  S   UNL     1       5.698  14.681  -4.959  1.00  0.00     0.124 S 
ATOM     80  O   UNL     1       5.056  15.910  -5.411  1.00  0.00    -0.237 OA
ATOM     81  O   UNL     1       5.695  14.446  -3.519  1.00  0.00    -0.237 OA
ATOM     82  O   UNL     1       6.944  14.339  -5.641  1.00  0.00    -0.744 OA
ENDBRANCH  75  79
ENDBRANCH  48  72
BRANCH  60  83
ATOM     83  C   UNL     1      -2.611  17.495  -6.670  1.00  0.00     0.023 A 
ATOM     84  C   UNL     1      -2.353  17.679  -8.039  1.00  0.00     0.031 A 
ATOM     85  C   UNL     1      -2.796  18.636  -5.870  1.00  0.00     0.131 A 
ATOM     86  C   UNL     1      -2.229  18.976  -8.557  1.00  0.00     0.055 A 
ATOM     87  C   UNL     1      -2.731  19.924  -6.402  1.00  0.00     0.041 A 
ATOM     88  F   UNL     1      -3.045  18.516  -4.556  1.00  0.00    -0.206 F 
ATOM     89  C   UNL     1      -2.433  20.099  -7.751  1.00  0.00     0.022 A 
BRANCH  86  90
ATOM     90  S   UNL     1      -1.708  19.177 -10.282  1.00  0.00     0.124 S 
ATOM     91  O   UNL     1      -0.415  18.498 -10.289  1.00  0.00    -0.237 OA
ATOM     92  O   UNL     1      -2.781  18.510 -11.012  1.00  0.00    -0.237 OA
ATOM     93  O   UNL     1      -1.648  20.627 -10.456  1.00  0.00    -0.744 OA
ENDBRANCH  86  90
ENDBRANCH  60  83
ENDBRANCH  34  35
ENDBRANCH  26  29
ENDBRANCH  24  25
ENDBRANCH  23  24
ENDBRANCH   1  23
TORSDOF 19
