REMARK SMILES Nc1cc(C(=O)NCCCCNC(=O)c2ccc(-c3c4nc(c(-c5cc(S(=O)(=O)[O-])ccc5F)c5ccc([nH]5)c(-c5cc(S(=O)(=O)[O-])ccc5F)c5nc(c(-c6cc(S(=O)(=O)[O-])ccc6F)c6ccc3[nH]6)C=C5)C=C4)cc2)c(-c2ccc(F)cc2O)cn1
REMARK SMILES IDX 10 1 9 2 8 3 7 4 5 5 6 6 4 8 2 9 3 10 88 11 87 12 78 13 1 14
REMARK SMILES IDX 79 17 80 18 85 19 81 20 84 21 82 22 83 23 86 24 11 26 12 27
REMARK SMILES IDX 13 28 14 30 15 31 16 32 77 33 17 34 76 35 18 36 19 37 20 38
REMARK SMILES IDX 70 39 21 40 75 41 69 42 71 43 22 44 74 45 68 46 67 47 23 49
REMARK SMILES IDX 55 50 35 51 54 52 36 53 39 54 53 55 72 56 37 57 38 58 52 60
REMARK SMILES IDX 73 61 40 62 24 63 25 64 33 65 26 66 32 67 34 68 31 69 27 70
REMARK SMILES IDX 28 71 29 72 30 73 56 74 57 75 65 76 58 77 64 78 66 79 63 80
REMARK SMILES IDX 59 81 60 82 61 83 62 84 41 85 42 86 50 87 43 88 49 89 51 90
REMARK SMILES IDX 48 91 44 92 45 93 46 94 47 95
REMARK H PARENT 7 7 1 15 1 16 86 25 12 29 71 48 39 59
REMARK Flexibility Score: inf
ROOT
ATOM      1  C   UNL     1       0.046  -5.809   1.450  1.00  0.00     0.023 C 
ENDROOT
BRANCH   1   2
ATOM      2  C   UNL     1       0.612  -4.462   0.979  1.00  0.00     0.023 C 
BRANCH   2   3
ATOM      3  C   UNL     1       0.088  -4.005  -0.387  1.00  0.00     0.116 C 
BRANCH   3   4
ATOM      4  N   UNL     1      -1.279  -3.543  -0.255  1.00  0.00    -0.352 N 
ATOM      5  C   UNL     1      -1.854  -2.351   0.100  1.00  0.00     0.252 C 
ATOM      6  O   UNL     1      -3.045  -2.430   0.405  1.00  0.00    -0.269 OA
ATOM      7  H   UNL     1      -1.941  -4.240  -0.467  1.00  0.00     0.163 HD
BRANCH   5   8
ATOM      8  C   UNL     1      -1.155  -1.021   0.135  1.00  0.00     0.052 A 
ATOM      9  C   UNL     1       0.880   0.287   0.242  1.00  0.00     0.124 A 
ATOM     10  C   UNL     1       0.231  -0.934   0.323  1.00  0.00     0.061 A 
ATOM     11  N   UNL     1       0.224   1.435   0.070  1.00  0.00    -0.239 NA
ATOM     12  C   UNL     1      -1.123   1.361  -0.019  1.00  0.00     0.123 A 
ATOM     13  C   UNL     1      -1.884   0.185   0.002  1.00  0.00     0.017 A 
BRANCH   9  14
ATOM     14  N   UNL     1       2.248   0.373   0.399  1.00  0.00    -0.384 N 
ATOM     15  H   UNL     1       2.781  -0.444   0.529  1.00  0.00     0.158 HD
ATOM     16  H   UNL     1       2.692   1.252   0.380  1.00  0.00     0.158 HD
ENDBRANCH   9  14
BRANCH  13  17
ATOM     17  C   UNL     1      -3.354   0.336  -0.079  1.00  0.00     0.026 A 
ATOM     18  C   UNL     1      -3.951   0.892  -1.226  1.00  0.00     0.015 A 
ATOM     19  C   UNL     1      -4.207   0.037   1.003  1.00  0.00     0.126 A 
ATOM     20  C   UNL     1      -5.330   1.123  -1.281  1.00  0.00     0.040 A 
ATOM     21  C   UNL     1      -5.578   0.265   0.962  1.00  0.00     0.086 A 
ATOM     22  C   UNL     1      -6.129   0.807  -0.187  1.00  0.00     0.126 A 
ATOM     23  F   UNL     1      -7.449   1.026  -0.248  1.00  0.00    -0.207 F 
BRANCH  19  24
ATOM     24  O   UNL     1      -3.722  -0.570   2.131  1.00  0.00    -0.507 OA
ATOM     25  H   UNL     1      -2.805  -0.746   2.211  1.00  0.00     0.293 HD
ENDBRANCH  19  24
ENDBRANCH  13  17
ENDBRANCH   5   8
ENDBRANCH   3   4
ENDBRANCH   2   3
ENDBRANCH   1   2
BRANCH   1  26
ATOM     26  C   UNL     1       0.353  -6.995   0.540  1.00  0.00     0.116 C 
BRANCH  26  27
ATOM     27  N   UNL     1       1.773  -7.153   0.276  1.00  0.00    -0.352 N 
ATOM     28  C   UNL     1       2.477  -8.306   0.019  1.00  0.00     0.251 C 
ATOM     29  H   UNL     1       2.303  -6.323   0.281  1.00  0.00     0.163 HD
ATOM     30  O   UNL     1       3.696  -8.268  -0.069  1.00  0.00    -0.269 OA
BRANCH  28  31
ATOM     31  C   UNL     1       1.749  -9.587  -0.101  1.00  0.00     0.039 A 
ATOM     32  C   UNL     1       2.201 -10.684   0.636  1.00  0.00     0.014 A 
ATOM     33  C   UNL     1       0.617  -9.696  -0.912  1.00  0.00     0.014 A 
ATOM     34  C   UNL     1       1.476 -11.877   0.610  1.00  0.00     0.010 A 
ATOM     35  C   UNL     1      -0.137 -10.867  -0.890  1.00  0.00     0.010 A 
ATOM     36  C   UNL     1       0.283 -11.966  -0.125  1.00  0.00    -0.014 A 
BRANCH  36  37
ATOM     37  C   UNL     1      -0.541 -13.201  -0.103  1.00  0.00     0.031 A 
ATOM     38  C   UNL     1      -0.721 -14.008  -1.359  1.00  0.00     0.074 A 
ATOM     39  C   UNL     1      -1.178 -13.555   1.031  1.00  0.00     0.049 A 
ATOM     40  N   UNL     1      -1.464 -15.064  -1.565  1.00  0.00    -0.248 NA
ATOM     41  C   UNL     1       0.013 -13.546  -2.547  1.00  0.00     0.031 C 
ATOM     42  C   UNL     1      -1.111 -12.826   2.300  1.00  0.00     0.029 A 
ATOM     43  N   UNL     1      -2.016 -14.608   1.299  1.00  0.00    -0.354 N 
ATOM     44  C   UNL     1      -1.299 -15.387  -2.908  1.00  0.00     0.074 A 
ATOM     45  C   UNL     1      -0.430 -14.379  -3.477  1.00  0.00     0.031 C 
ATOM     46  C   UNL     1      -1.860 -13.464   3.214  1.00  0.00     0.029 A 
ATOM     47  C   UNL     1      -2.494 -14.620   2.589  1.00  0.00     0.049 A 
ATOM     48  H   UNL     1      -2.253 -15.291   0.630  1.00  0.00     0.167 HD
ATOM     49  C   UNL     1      -1.807 -16.441  -3.595  1.00  0.00     0.034 A 
ATOM     50  C   UNL     1      -3.356 -15.461   3.195  1.00  0.00     0.034 A 
ATOM     51  C   UNL     1      -2.661 -17.444  -3.007  1.00  0.00     0.049 A 
ATOM     52  C   UNL     1      -3.920 -16.615   2.405  1.00  0.00     0.074 A 
ATOM     53  C   UNL     1      -3.191 -18.579  -3.596  1.00  0.00     0.029 A 
ATOM     54  N   UNL     1      -3.116 -17.431  -1.694  1.00  0.00    -0.354 N 
ATOM     55  N   UNL     1      -3.715 -16.935   1.148  1.00  0.00    -0.248 NA
ATOM     56  C   UNL     1      -4.822 -17.528   3.119  1.00  0.00     0.031 C 
ATOM     57  C   UNL     1      -4.012 -19.218  -2.660  1.00  0.00     0.029 A 
ATOM     58  C   UNL     1      -3.939 -18.522  -1.464  1.00  0.00     0.049 A 
ATOM     59  H   UNL     1      -2.887 -16.746  -1.025  1.00  0.00     0.167 HD
ATOM     60  C   UNL     1      -4.439 -18.104   0.932  1.00  0.00     0.074 A 
ATOM     61  C   UNL     1      -5.071 -18.439   2.191  1.00  0.00     0.031 C 
ATOM     62  C   UNL     1      -4.568 -18.837  -0.203  1.00  0.00     0.034 A 
BRANCH  49  63
ATOM     63  C   UNL     1      -1.466 -16.541  -5.062  1.00  0.00     0.023 A 
ATOM     64  C   UNL     1      -0.141 -16.721  -5.500  1.00  0.00     0.031 A 
ATOM     65  C   UNL     1      -2.471 -16.432  -6.038  1.00  0.00     0.131 A 
ATOM     66  C   UNL     1       0.151 -16.711  -6.872  1.00  0.00     0.055 A 
ATOM     67  C   UNL     1      -2.184 -16.504  -7.403  1.00  0.00     0.041 A 
ATOM     68  F   UNL     1      -3.751 -16.239  -5.682  1.00  0.00    -0.206 F 
ATOM     69  C   UNL     1      -0.864 -16.629  -7.827  1.00  0.00     0.022 A 
BRANCH  66  70
ATOM     70  S   UNL     1       1.889 -16.667  -7.386  1.00  0.00     0.124 S 
ATOM     71  O   UNL     1       2.347 -15.424  -6.769  1.00  0.00    -0.237 OA
ATOM     72  O   UNL     1       2.420 -17.898  -6.813  1.00  0.00    -0.237 OA
ATOM     73  O   UNL     1       1.815 -16.639  -8.845  1.00  0.00    -0.744 OA
ENDBRANCH  66  70
ENDBRANCH  49  63
BRANCH  50  74
ATOM     74  C   UNL     1      -3.751 -15.248   4.616  1.00  0.00     0.023 A 
ATOM     75  C   UNL     1      -3.418 -16.185   5.606  1.00  0.00     0.031 A 
ATOM     76  C   UNL     1      -4.512 -14.129   4.997  1.00  0.00     0.131 A 
ATOM     77  C   UNL     1      -3.889 -16.015   6.918  1.00  0.00     0.055 A 
ATOM     78  C   UNL     1      -4.933 -13.936   6.314  1.00  0.00     0.041 A 
ATOM     79  F   UNL     1      -4.852 -13.198   4.091  1.00  0.00    -0.206 F 
ATOM     80  C   UNL     1      -4.634 -14.892   7.281  1.00  0.00     0.022 A 
BRANCH  77  81
ATOM     81  S   UNL     1      -3.589 -17.336   8.124  1.00  0.00     0.124 S 
ATOM     82  O   UNL     1      -4.197 -18.486   7.464  1.00  0.00    -0.237 OA
ATOM     83  O   UNL     1      -2.132 -17.341   8.211  1.00  0.00    -0.237 OA
ATOM     84  O   UNL     1      -4.281 -16.866   9.322  1.00  0.00    -0.744 OA
ENDBRANCH  77  81
ENDBRANCH  50  74
BRANCH  62  85
ATOM     85  C   UNL     1      -5.390 -20.099  -0.111  1.00  0.00     0.023 A 
ATOM     86  C   UNL     1      -6.779 -20.063   0.103  1.00  0.00     0.031 A 
ATOM     87  C   UNL     1      -4.768 -21.355  -0.224  1.00  0.00     0.131 A 
ATOM     88  C   UNL     1      -7.493 -21.262   0.251  1.00  0.00     0.055 A 
ATOM     89  C   UNL     1      -5.493 -22.544  -0.133  1.00  0.00     0.041 A 
ATOM     90  F   UNL     1      -3.444 -21.447  -0.427  1.00  0.00    -0.206 F 
ATOM     91  C   UNL     1      -6.862 -22.501   0.119  1.00  0.00     0.022 A 
BRANCH  88  92
ATOM     92  S   UNL     1      -9.246 -21.180   0.707  1.00  0.00     0.124 S 
ATOM     93  O   UNL     1      -9.197 -20.455   1.973  1.00  0.00    -0.237 OA
ATOM     94  O   UNL     1      -9.828 -20.456  -0.419  1.00  0.00    -0.237 OA
ATOM     95  O   UNL     1      -9.640 -22.584   0.811  1.00  0.00    -0.744 OA
ENDBRANCH  88  92
ENDBRANCH  62  85
ENDBRANCH  36  37
ENDBRANCH  28  31
ENDBRANCH  26  27
ENDBRANCH   1  26
TORSDOF 17
