REMARK SMILES O=C1NC(=O)/C(=C/c2ccc(OCc3cn(-c4ccc(C(=O)NCCCCNC(=O)c5ccc(-c6c7nc(c(-c8cc(S(=O)(=O)[O-])ccc8F)c8ccc([nH]8)c(-c8cc(S(=O)(=O)[O-])ccc8F)c8nc(c(-c9cc(S(=O)(=O)[O-])ccc9F)c9ccc6[nH]9)C=C8)C=C7)cc5)cc4)nn3)cc2)S1
REMARK SMILES IDX 24 1 23 2 21 3 22 4 20 6 17 7 18 8 95 9 19 10 94 11 16 12
REMARK SMILES IDX 14 13 15 14 97 15 96 16 13 17 12 18 11 19 8 20 9 21 99 22
REMARK SMILES IDX 10 23 98 24 7 25 1 26 2 27 3 28 100 29 4 30 6 32 5 33 25 34
REMARK SMILES IDX 26 35 27 36 28 37 29 38 30 40 31 41 32 42 93 43 33 44 92 45
REMARK SMILES IDX 34 46 35 47 36 48 86 49 37 50 91 51 85 52 87 53 38 54 90 55
REMARK SMILES IDX 84 56 83 57 39 59 71 60 51 61 70 62 52 63 55 64 69 65 88 66
REMARK SMILES IDX 53 67 54 68 68 70 89 71 56 72 40 73 41 74 49 75 42 76 48 77
REMARK SMILES IDX 50 78 47 79 43 80 44 81 45 82 46 83 72 84 73 85 81 86 74 87
REMARK SMILES IDX 80 88 82 89 79 90 75 91 76 92 77 93 78 94 57 95 58 96 66 97
REMARK SMILES IDX 59 98 65 99 67 100 64 101 60 102 61 103 62 104 63 105
REMARK H PARENT 23 5 3 31 28 39 87 58 55 69
REMARK Flexibility Score: inf
ROOT
ATOM      1  C   UNL     1      -7.765  10.438  -1.226  1.00  0.00     0.116 C 
ENDROOT
BRANCH   1   2
ATOM      2  N   UNL     1      -8.364   9.557  -0.243  1.00  0.00    -0.352 N 
ATOM      3  C   UNL     1      -7.860   8.574   0.568  1.00  0.00     0.251 C 
ATOM      4  O   UNL     1      -8.663   7.971   1.282  1.00  0.00    -0.269 OA
ATOM      5  H   UNL     1      -9.333   9.693  -0.136  1.00  0.00     0.163 HD
BRANCH   3   6
ATOM      6  C   UNL     1      -6.410   8.231   0.669  1.00  0.00     0.039 A 
ATOM      7  C   UNL     1      -3.697   7.628   1.110  1.00  0.00     0.066 A 
ATOM      8  C   UNL     1      -4.661   7.217   2.037  1.00  0.00     0.029 A 
ATOM      9  C   UNL     1      -4.087   8.278  -0.060  1.00  0.00     0.029 A 
ATOM     10  C   UNL     1      -6.002   7.548   1.828  1.00  0.00     0.016 A 
ATOM     11  C   UNL     1      -5.443   8.525  -0.296  1.00  0.00     0.016 A 
BRANCH   7  12
ATOM     12  N   UNL     1      -2.335   7.368   1.357  1.00  0.00    -0.220 N 
ATOM     13  C   UNL     1      -0.153   7.368   1.407  1.00  0.00     0.120 A 
ATOM     14  C   UNL     1      -1.234   8.060   0.904  1.00  0.00     0.144 A 
ATOM     15  N   UNL     1      -0.621   6.320   2.156  1.00  0.00    -0.131 NA
ATOM     16  N   UNL     1      -1.942   6.345   2.145  1.00  0.00    -0.062 NA
BRANCH  13  17
ATOM     17  C   UNL     1       1.310   7.659   1.340  1.00  0.00     0.289 C 
BRANCH  17  18
ATOM     18  O   UNL     1       2.030   6.983   0.293  1.00  0.00    -0.487 OA
BRANCH  18  19
ATOM     19  C   UNL     1       2.161   5.623   0.358  1.00  0.00     0.119 A 
ATOM     20  C   UNL     1       2.217   2.822   0.132  1.00  0.00    -0.024 A 
ATOM     21  C   UNL     1       2.669   3.620  -0.922  1.00  0.00     0.012 A 
ATOM     22  C   UNL     1       1.833   3.430   1.328  1.00  0.00     0.012 A 
ATOM     23  C   UNL     1       2.633   5.015  -0.807  1.00  0.00     0.047 A 
ATOM     24  C   UNL     1       1.836   4.821   1.449  1.00  0.00     0.047 A 
BRANCH  20  25
ATOM     25  C   UNL     1       2.153   1.365  -0.003  1.00  0.00     0.029 C 
ATOM     26  O   UNL     1      -2.439  -0.720   0.013  1.00  0.00    -0.261 OA
ATOM     27  C   UNL     1      -1.245  -0.436  -0.004  1.00  0.00     0.290 C 
ATOM     28  N   UNL     1      -0.228  -1.327  -0.052  1.00  0.00    -0.282 N 
ATOM     29  S   UNL     1      -0.611   1.193   0.023  1.00  0.00    -0.022 SA
ATOM     30  C   UNL     1       1.048  -0.845  -0.080  1.00  0.00     0.265 C 
ATOM     31  H   UNL     1      -0.404  -2.295  -0.066  1.00  0.00     0.174 HD
ATOM     32  C   UNL     1       1.024   0.640  -0.024  1.00  0.00     0.083 C 
ATOM     33  O   UNL     1       2.050  -1.537  -0.132  1.00  0.00    -0.268 OA
ENDBRANCH  20  25
ENDBRANCH  18  19
ENDBRANCH  17  18
ENDBRANCH  13  17
ENDBRANCH   7  12
ENDBRANCH   3   6
ENDBRANCH   1   2
BRANCH   1  34
ATOM     34  C   UNL     1      -7.856   9.833  -2.632  1.00  0.00     0.023 C 
BRANCH  34  35
ATOM     35  C   UNL     1      -9.254   9.897  -3.266  1.00  0.00     0.023 C 
BRANCH  35  36
ATOM     36  C   UNL     1      -9.732  11.305  -3.607  1.00  0.00     0.116 C 
BRANCH  36  37
ATOM     37  N   UNL     1      -8.870  11.970  -4.582  1.00  0.00    -0.352 N 
ATOM     38  C   UNL     1      -8.811  13.316  -4.889  1.00  0.00     0.251 C 
ATOM     39  H   UNL     1      -8.254  11.386  -5.082  1.00  0.00     0.163 HD
ATOM     40  O   UNL     1      -8.371  13.688  -5.971  1.00  0.00    -0.269 OA
BRANCH  38  41
ATOM     41  C   UNL     1      -9.280  14.289  -3.888  1.00  0.00     0.039 A 
ATOM     42  C   UNL     1     -10.085  15.373  -4.245  1.00  0.00     0.014 A 
ATOM     43  C   UNL     1      -8.929  14.068  -2.559  1.00  0.00     0.014 A 
ATOM     44  C   UNL     1     -10.611  16.178  -3.235  1.00  0.00     0.010 A 
ATOM     45  C   UNL     1      -9.553  14.777  -1.561  1.00  0.00     0.010 A 
ATOM     46  C   UNL     1     -10.363  15.860  -1.889  1.00  0.00    -0.014 A 
BRANCH  46  47
ATOM     47  C   UNL     1     -11.055  16.570  -0.815  1.00  0.00     0.031 A 
ATOM     48  C   UNL     1     -12.539  16.612  -0.943  1.00  0.00     0.074 A 
ATOM     49  C   UNL     1     -10.451  16.970   0.327  1.00  0.00     0.049 A 
ATOM     50  N   UNL     1     -13.281  17.648  -1.150  1.00  0.00    -0.248 NA
ATOM     51  C   UNL     1     -13.280  15.341  -0.978  1.00  0.00     0.031 C 
ATOM     52  C   UNL     1      -9.064  16.748   0.750  1.00  0.00     0.029 A 
ATOM     53  N   UNL     1     -11.001  17.565   1.420  1.00  0.00    -0.354 N 
ATOM     54  C   UNL     1     -14.598  17.201  -1.109  1.00  0.00     0.074 A 
ATOM     55  C   UNL     1     -14.527  15.766  -1.198  1.00  0.00     0.031 C 
ATOM     56  C   UNL     1      -8.955  16.972   2.079  1.00  0.00     0.029 A 
ATOM     57  C   UNL     1     -10.210  17.514   2.566  1.00  0.00     0.049 A 
ATOM     58  H   UNL     1     -11.885  17.997   1.403  1.00  0.00     0.167 HD
ATOM     59  C   UNL     1     -15.621  18.039  -0.780  1.00  0.00     0.034 A 
ATOM     60  C   UNL     1     -10.566  17.863   3.832  1.00  0.00     0.034 A 
ATOM     61  C   UNL     1     -15.210  19.423  -0.872  1.00  0.00     0.049 A 
ATOM     62  C   UNL     1     -11.703  18.812   3.700  1.00  0.00     0.074 A 
ATOM     63  C   UNL     1     -14.664  20.194  -1.883  1.00  0.00     0.029 A 
ATOM     64  N   UNL     1     -14.924  20.102   0.293  1.00  0.00    -0.354 N 
ATOM     65  N   UNL     1     -11.588  19.984   3.134  1.00  0.00    -0.248 NA
ATOM     66  C   UNL     1     -13.053  18.268   3.719  1.00  0.00     0.031 C 
ATOM     67  C   UNL     1     -13.633  20.945  -1.245  1.00  0.00     0.029 A 
ATOM     68  C   UNL     1     -13.685  20.676   0.125  1.00  0.00     0.049 A 
ATOM     69  H   UNL     1     -15.496  20.163   1.091  1.00  0.00     0.167 HD
ATOM     70  C   UNL     1     -12.719  20.114   2.343  1.00  0.00     0.074 A 
ATOM     71  C   UNL     1     -13.630  19.072   2.820  1.00  0.00     0.031 C 
ATOM     72  C   UNL     1     -12.713  20.851   1.191  1.00  0.00     0.034 A 
BRANCH  59  73
ATOM     73  C   UNL     1     -16.887  17.623  -0.065  1.00  0.00     0.023 A 
ATOM     74  C   UNL     1     -17.887  18.597   0.128  1.00  0.00     0.031 A 
ATOM     75  C   UNL     1     -17.050  16.424   0.665  1.00  0.00     0.131 A 
ATOM     76  C   UNL     1     -18.927  18.393   1.054  1.00  0.00     0.055 A 
ATOM     77  C   UNL     1     -18.125  16.197   1.529  1.00  0.00     0.041 A 
ATOM     78  F   UNL     1     -16.135  15.448   0.664  1.00  0.00    -0.206 F 
ATOM     79  C   UNL     1     -19.057  17.195   1.750  1.00  0.00     0.022 A 
BRANCH  76  80
ATOM     80  S   UNL     1     -20.007  19.789   1.464  1.00  0.00     0.124 S 
ATOM     81  O   UNL     1     -19.037  20.809   1.851  1.00  0.00    -0.237 OA
ATOM     82  O   UNL     1     -20.706  20.009   0.203  1.00  0.00    -0.237 OA
ATOM     83  O   UNL     1     -20.833  19.271   2.552  1.00  0.00    -0.744 OA
ENDBRANCH  76  80
ENDBRANCH  59  73
BRANCH  60  84
ATOM     84  C   UNL     1     -10.182  17.175   5.099  1.00  0.00     0.023 A 
ATOM     85  C   UNL     1     -10.320  17.766   6.375  1.00  0.00     0.031 A 
ATOM     86  C   UNL     1      -9.876  15.794   5.078  1.00  0.00     0.131 A 
ATOM     87  C   UNL     1     -10.151  16.987   7.547  1.00  0.00     0.055 A 
ATOM     88  C   UNL     1      -9.707  15.032   6.237  1.00  0.00     0.041 A 
ATOM     89  F   UNL     1      -9.813  15.112   3.923  1.00  0.00    -0.206 F 
ATOM     90  C   UNL     1      -9.853  15.624   7.479  1.00  0.00     0.022 A 
BRANCH  87  91
ATOM     91  S   UNL     1     -10.408  17.718   9.199  1.00  0.00     0.124 S 
ATOM     92  O   UNL     1      -9.260  18.607   9.328  1.00  0.00    -0.237 OA
ATOM     93  O   UNL     1     -11.712  18.356   9.062  1.00  0.00    -0.237 OA
ATOM     94  O   UNL     1     -10.389  16.558  10.093  1.00  0.00    -0.744 OA
ENDBRANCH  87  91
ENDBRANCH  60  84
BRANCH  72  95
ATOM     95  C   UNL     1     -11.518  21.742   0.889  1.00  0.00     0.023 A 
ATOM     96  C   UNL     1     -10.171  21.310   0.833  1.00  0.00     0.031 A 
ATOM     97  C   UNL     1     -11.784  23.069   0.502  1.00  0.00     0.131 A 
ATOM     98  C   UNL     1      -9.157  22.197   0.411  1.00  0.00     0.055 A 
ATOM     99  C   UNL     1     -10.784  23.935   0.061  1.00  0.00     0.041 A 
ATOM    100  F   UNL     1     -13.043  23.540   0.508  1.00  0.00    -0.206 F 
ATOM    101  C   UNL     1      -9.464  23.504   0.019  1.00  0.00     0.022 A 
BRANCH  98 102
ATOM    102  S   UNL     1      -7.409  21.677   0.381  1.00  0.00     0.124 S 
ATOM    103  O   UNL     1      -7.219  21.038   1.677  1.00  0.00    -0.237 OA
ATOM    104  O   UNL     1      -7.360  20.793  -0.781  1.00  0.00    -0.237 OA
ATOM    105  O   UNL     1      -6.682  22.937   0.213  1.00  0.00    -0.744 OA
ENDBRANCH  98 102
ENDBRANCH  72  95
ENDBRANCH  46  47
ENDBRANCH  38  41
ENDBRANCH  36  37
ENDBRANCH  35  36
ENDBRANCH  34  35
ENDBRANCH   1  34
TORSDOF 19
