REMARK SMILES C=CC[N@H+]1C[C@@H](C(=O)NCCCCNC(=O)c2ccc(-c3c4nc(c(-c5cc(S(=O)(=O)[O-])ccc5F)c5ccc([nH]5)c(-c5cc(S(=O)(=O)[O-])ccc5F)c5nc(c(-c6cc(S(=O)(=O)[O-])ccc6F)c6ccc3[nH]6)C=C5)C=C4)cc2)C2(CC[NH+](C)CC2)C1
REMARK SMILES IDX 12 1 11 2 10 3 9 4 7 5 8 6 6 8 4 9 5 10 87 11 80 13 81 14
REMARK SMILES IDX 86 15 82 16 85 17 83 18 84 19 3 21 2 22 1 23 13 24 14 25
REMARK SMILES IDX 15 26 16 28 17 29 18 30 79 31 19 32 78 33 20 34 21 35 22 36
REMARK SMILES IDX 72 37 23 38 77 39 71 40 73 41 24 42 76 43 70 44 69 45 25 47
REMARK SMILES IDX 57 48 37 49 56 50 38 51 41 52 55 53 74 54 39 55 40 56 54 58
REMARK SMILES IDX 75 59 42 60 26 61 27 62 35 63 28 64 34 65 36 66 33 67 29 68
REMARK SMILES IDX 30 69 31 70 32 71 58 72 59 73 67 74 60 75 66 76 68 77 65 78
REMARK SMILES IDX 61 79 62 80 63 81 64 82 43 83 44 84 52 85 45 86 51 87 53 88
REMARK SMILES IDX 50 89 46 90 47 91 48 92 49 93
REMARK H PARENT 9 7 4 12 83 20 14 27 73 46 41 57
REMARK Flexibility Score: inf
ROOT
ATOM      1  C   UNL     1      -5.981   0.651  -4.457  1.00  0.00     0.023 C 
ENDROOT
BRANCH   1   2
ATOM      2  C   UNL     1      -4.850   0.716  -3.434  1.00  0.00     0.023 C 
BRANCH   2   3
ATOM      3  C   UNL     1      -3.505   0.200  -3.946  1.00  0.00     0.116 C 
BRANCH   3   4
ATOM      4  N   UNL     1      -2.884   1.082  -4.917  1.00  0.00    -0.356 N 
ATOM      5  C   UNL     1      -1.800   1.898  -4.875  1.00  0.00     0.229 C 
ATOM      6  O   UNL     1      -1.492   2.440  -5.944  1.00  0.00    -0.275 OA
ATOM      7  H   UNL     1      -3.345   1.090  -5.787  1.00  0.00     0.163 HD
BRANCH   5   8
ATOM      8  C   UNL     1      -0.969   2.205  -3.626  1.00  0.00     0.145 C 
ATOM      9  N   UNL     1      -0.718   1.050  -1.563  1.00  0.00    -0.331 N 
ATOM     10  C   UNL     1      -0.378   0.949  -2.985  1.00  0.00     0.276 C 
ATOM     11  C   UNL     1      -1.897   1.900  -1.429  1.00  0.00     0.270 C 
ATOM     12  H   UNL     1       0.053   1.501  -1.069  1.00  0.00     0.348 HD
ATOM     13  C   UNL     1      -1.623   3.005  -2.464  1.00  0.00     0.047 C 
ATOM     14  C   UNL     1      -2.877   3.805  -2.853  1.00  0.00     0.075 C 
ATOM     15  C   UNL     1      -0.600   3.999  -1.824  1.00  0.00     0.075 C 
ATOM     16  C   UNL     1      -2.559   5.066  -3.661  1.00  0.00     0.262 C 
ATOM     17  C   UNL     1      -0.397   5.285  -2.630  1.00  0.00     0.262 C 
ATOM     18  N   UNL     1      -1.640   5.976  -2.977  1.00  0.00    -0.337 N 
ATOM     19  C   UNL     1      -2.267   6.634  -1.834  1.00  0.00     0.332 C 
ATOM     20  H   UNL     1      -1.397   6.728  -3.621  1.00  0.00     0.347 HD
BRANCH   9  21
ATOM     21  C   UNL     1      -0.780  -0.222  -0.863  1.00  0.00     0.290 C 
BRANCH  21  22
ATOM     22  C   UNL     1       0.617  -0.684  -0.564  1.00  0.00     0.025 C 
ATOM     23  C   UNL     1       1.270  -0.381   0.566  1.00  0.00     0.010 C 
ENDBRANCH  21  22
ENDBRANCH   9  21
ENDBRANCH   5   8
ENDBRANCH   3   4
ENDBRANCH   2   3
ENDBRANCH   1   2
BRANCH   1  24
ATOM     24  C   UNL     1      -6.306  -0.757  -4.931  1.00  0.00     0.116 C 
BRANCH  24  25
ATOM     25  N   UNL     1      -6.581  -1.673  -3.830  1.00  0.00    -0.352 N 
ATOM     26  C   UNL     1      -7.541  -2.650  -3.753  1.00  0.00     0.251 C 
ATOM     27  H   UNL     1      -6.002  -1.578  -3.039  1.00  0.00     0.163 HD
ATOM     28  O   UNL     1      -7.738  -3.245  -2.700  1.00  0.00    -0.269 OA
BRANCH  26  29
ATOM     29  C   UNL     1      -8.346  -2.936  -4.954  1.00  0.00     0.039 A 
ATOM     30  C   UNL     1      -9.738  -2.933  -4.856  1.00  0.00     0.014 A 
ATOM     31  C   UNL     1      -7.713  -3.122  -6.186  1.00  0.00     0.014 A 
ATOM     32  C   UNL     1     -10.502  -3.049  -6.016  1.00  0.00     0.010 A 
ATOM     33  C   UNL     1      -8.473  -3.151  -7.345  1.00  0.00     0.010 A 
ATOM     34  C   UNL     1      -9.874  -3.119  -7.271  1.00  0.00    -0.014 A 
BRANCH  34  35
ATOM     35  C   UNL     1     -10.660  -3.183  -8.527  1.00  0.00     0.031 A 
ATOM     36  C   UNL     1     -10.554  -4.400  -9.402  1.00  0.00     0.074 A 
ATOM     37  C   UNL     1     -11.394  -2.120  -8.911  1.00  0.00     0.049 A 
ATOM     38  N   UNL     1     -11.062  -4.615 -10.588  1.00  0.00    -0.248 NA
ATOM     39  C   UNL     1      -9.729  -5.505  -8.890  1.00  0.00     0.031 C 
ATOM     40  C   UNL     1     -11.528  -0.867  -8.164  1.00  0.00     0.029 A 
ATOM     41  N   UNL     1     -12.158  -1.919 -10.032  1.00  0.00    -0.354 N 
ATOM     42  C   UNL     1     -10.601  -5.870 -10.971  1.00  0.00     0.074 A 
ATOM     43  C   UNL     1      -9.718  -6.333  -9.922  1.00  0.00     0.031 C 
ATOM     44  C   UNL     1     -12.345  -0.040  -8.836  1.00  0.00     0.029 A 
ATOM     45  C   UNL     1     -12.758  -0.683 -10.079  1.00  0.00     0.049 A 
ATOM     46  H   UNL     1     -12.266  -2.597 -10.738  1.00  0.00     0.167 HD
ATOM     47  C   UNL     1     -10.910  -6.582 -12.083  1.00  0.00     0.034 A 
ATOM     48  C   UNL     1     -13.546  -0.131 -11.022  1.00  0.00     0.034 A 
ATOM     49  C   UNL     1     -11.812  -6.111 -13.103  1.00  0.00     0.049 A 
ATOM     50  C   UNL     1     -13.877  -0.941 -12.250  1.00  0.00     0.074 A 
ATOM     51  C   UNL     1     -12.244  -6.763 -14.244  1.00  0.00     0.029 A 
ATOM     52  N   UNL     1     -12.423  -4.862 -13.105  1.00  0.00    -0.354 N 
ATOM     53  N   UNL     1     -13.473  -2.147 -12.578  1.00  0.00    -0.248 NA
ATOM     54  C   UNL     1     -14.779  -0.320 -13.228  1.00  0.00     0.031 C 
ATOM     55  C   UNL     1     -13.071  -5.891 -14.961  1.00  0.00     0.029 A 
ATOM     56  C   UNL     1     -13.210  -4.718 -14.236  1.00  0.00     0.049 A 
ATOM     57  H   UNL     1     -12.312  -4.179 -12.405  1.00  0.00     0.167 HD
ATOM     58  C   UNL     1     -14.098  -2.440 -13.786  1.00  0.00     0.074 A 
ATOM     59  C   UNL     1     -14.914  -1.290 -14.120  1.00  0.00     0.031 C 
ATOM     60  C   UNL     1     -14.010  -3.558 -14.551  1.00  0.00     0.034 A 
BRANCH  47  61
ATOM     61  C   UNL     1     -10.248  -7.929 -12.245  1.00  0.00     0.023 A 
ATOM     62  C   UNL     1     -10.460  -8.970 -11.322  1.00  0.00     0.031 A 
ATOM     63  C   UNL     1      -9.356  -8.164 -13.306  1.00  0.00     0.131 A 
ATOM     64  C   UNL     1      -9.724 -10.159 -11.425  1.00  0.00     0.055 A 
ATOM     65  C   UNL     1      -8.692  -9.384 -13.452  1.00  0.00     0.041 A 
ATOM     66  F   UNL     1      -9.097  -7.204 -14.207  1.00  0.00    -0.206 F 
ATOM     67  C   UNL     1      -8.861 -10.384 -12.498  1.00  0.00     0.022 A 
BRANCH  64  68
ATOM     68  S   UNL     1      -9.796 -11.340 -10.050  1.00  0.00     0.124 S 
ATOM     69  O   UNL     1      -9.297 -10.530  -8.941  1.00  0.00    -0.237 OA
ATOM     70  O   UNL     1     -11.212 -11.685 -10.002  1.00  0.00    -0.237 OA
ATOM     71  O   UNL     1      -8.904 -12.416 -10.476  1.00  0.00    -0.744 OA
ENDBRANCH  64  68
ENDBRANCH  47  61
BRANCH  48  72
ATOM     72  C   UNL     1     -14.078   1.250 -10.853  1.00  0.00     0.023 A 
ATOM     73  C   UNL     1     -15.455   1.478 -10.704  1.00  0.00     0.031 A 
ATOM     74  C   UNL     1     -13.223   2.367 -10.875  1.00  0.00     0.131 A 
ATOM     75  C   UNL     1     -15.944   2.792 -10.632  1.00  0.00     0.055 A 
ATOM     76  C   UNL     1     -13.710   3.670 -10.754  1.00  0.00     0.041 A 
ATOM     77  F   UNL     1     -11.897   2.204 -11.004  1.00  0.00    -0.206 F 
ATOM     78  C   UNL     1     -15.080   3.889 -10.646  1.00  0.00     0.022 A 
BRANCH  75  79
ATOM     79  S   UNL     1     -17.739   3.049 -10.602  1.00  0.00     0.124 S 
ATOM     80  O   UNL     1     -18.156   2.385 -11.832  1.00  0.00    -0.237 OA
ATOM     81  O   UNL     1     -18.117   2.388  -9.357  1.00  0.00    -0.237 OA
ATOM     82  O   UNL     1     -17.875   4.503 -10.600  1.00  0.00    -0.744 OA
ENDBRANCH  75  79
ENDBRANCH  48  72
BRANCH  60  83
ATOM     83  C   UNL     1     -14.860  -3.600 -15.795  1.00  0.00     0.023 A 
ATOM     84  C   UNL     1     -14.602  -2.764 -16.894  1.00  0.00     0.031 A 
ATOM     85  C   UNL     1     -15.950  -4.485 -15.874  1.00  0.00     0.131 A 
ATOM     86  C   UNL     1     -15.456  -2.792 -18.007  1.00  0.00     0.055 A 
ATOM     87  C   UNL     1     -16.762  -4.549 -17.006  1.00  0.00     0.041 A 
ATOM     88  F   UNL     1     -16.240  -5.305 -14.851  1.00  0.00    -0.206 F 
ATOM     89  C   UNL     1     -16.524  -3.691 -18.076  1.00  0.00     0.022 A 
BRANCH  86  90
ATOM     90  S   UNL     1     -15.200  -1.580 -19.331  1.00  0.00     0.124 S 
ATOM     91  O   UNL     1     -15.345  -0.316 -18.617  1.00  0.00    -0.237 OA
ATOM     92  O   UNL     1     -13.853  -1.901 -19.793  1.00  0.00    -0.237 OA
ATOM     93  O   UNL     1     -16.268  -1.881 -20.283  1.00  0.00    -0.744 OA
ENDBRANCH  86  90
ENDBRANCH  60  83
ENDBRANCH  34  35
ENDBRANCH  26  29
ENDBRANCH  24  25
ENDBRANCH   1  24
TORSDOF 16
