REMARK SMILES CC(C)Oc1ccc([C@@H]2CC(=O)Nc3c(C(=O)NCCCCNC(=O)c4ccc(-c5c6nc(c(-c7cc(S(=O)(=O)[O-])ccc7F)c7ccc([nH]7)c(-c7cc(S(=O)(=O)[O-])ccc7F)c7nc(c(-c8cc(S(=O)(=O)[O-])ccc8F)c8ccc5[nH]8)C=C7)C=C6)cc4)nsc32)cc1
REMARK SMILES IDX 20 1 19 2 18 3 16 4 17 5 15 7 9 8 10 9 91 10 11 11 14 12
REMARK SMILES IDX 90 13 12 14 13 15 89 16 8 18 5 19 6 20 93 21 7 22 92 23 4 24
REMARK SMILES IDX 2 25 1 26 3 27 21 28 22 29 23 30 24 31 25 33 26 34 27 35
REMARK SMILES IDX 88 36 28 37 87 38 29 39 30 40 31 41 81 42 32 43 86 44 80 45
REMARK SMILES IDX 82 46 33 47 85 48 79 49 78 50 34 52 66 53 46 54 65 55 47 56
REMARK SMILES IDX 50 57 64 58 83 59 48 60 49 61 63 63 84 64 51 65 35 66 36 67
REMARK SMILES IDX 44 68 37 69 43 70 45 71 42 72 38 73 39 74 40 75 41 76 67 77
REMARK SMILES IDX 68 78 76 79 69 80 75 81 77 82 74 83 70 84 71 85 72 86 73 87
REMARK SMILES IDX 52 88 53 89 61 90 54 91 60 92 62 93 59 94 55 95 56 96 57 97
REMARK SMILES IDX 58 98
REMARK H PARENT 18 6 13 17 23 32 82 51 50 62
REMARK Flexibility Score: inf
ROOT
ATOM      1  C   UNL     1      -5.518  -8.848   4.093  1.00  0.00     0.023 C 
ENDROOT
BRANCH   1   2
ATOM      2  C   UNL     1      -4.327  -7.949   3.780  1.00  0.00     0.116 C 
BRANCH   2   3
ATOM      3  N   UNL     1      -3.054  -8.608   3.561  1.00  0.00    -0.351 N 
ATOM      4  C   UNL     1      -2.029  -8.305   2.663  1.00  0.00     0.273 C 
ATOM      5  O   UNL     1      -1.045  -9.023   2.678  1.00  0.00    -0.267 OA
ATOM      6  H   UNL     1      -2.886  -9.391   4.134  1.00  0.00     0.163 HD
BRANCH   4   7
ATOM      7  C   UNL     1      -2.194  -7.193   1.692  1.00  0.00     0.165 A 
ATOM      8  C   UNL     1      -3.763  -3.976   0.539  1.00  0.00     0.073 C 
ATOM      9  C   UNL     1      -4.488  -3.569   1.839  1.00  0.00     0.114 C 
ATOM     10  C   UNL     1      -3.006  -5.248   0.714  1.00  0.00     0.058 A 
ATOM     11  C   UNL     1      -4.090  -4.282   3.121  1.00  0.00     0.225 C 
ATOM     12  C   UNL     1      -2.771  -5.887   1.904  1.00  0.00     0.089 A 
ATOM     13  S   UNL     1      -2.304  -6.150  -0.537  1.00  0.00    -0.038 S 
ATOM     14  O   UNL     1      -4.630  -4.005   4.192  1.00  0.00    -0.275 OA
ATOM     15  N   UNL     1      -3.186  -5.302   3.079  1.00  0.00    -0.323 N 
ATOM     16  N   UNL     1      -1.828  -7.416   0.417  1.00  0.00    -0.185 NA
ATOM     17  H   UNL     1      -2.813  -5.635   3.927  1.00  0.00     0.170 HD
BRANCH   8  18
ATOM     18  C   UNL     1      -2.908  -2.833   0.023  1.00  0.00    -0.039 A 
ATOM     19  C   UNL     1      -1.377  -0.669  -0.897  1.00  0.00     0.119 A 
ATOM     20  C   UNL     1      -2.449  -1.137  -1.655  1.00  0.00     0.047 A 
ATOM     21  C   UNL     1      -1.101  -1.245   0.338  1.00  0.00     0.047 A 
ATOM     22  C   UNL     1      -3.209  -2.217  -1.202  1.00  0.00     0.008 A 
ATOM     23  C   UNL     1      -1.842  -2.337   0.785  1.00  0.00     0.008 A 
BRANCH  19  24
ATOM     24  O   UNL     1      -0.705   0.417  -1.377  1.00  0.00    -0.491 OA
BRANCH  24  25
ATOM     25  C   UNL     1       0.713   0.279  -1.592  1.00  0.00     0.167 C 
ATOM     26  C   UNL     1       1.540   0.386  -0.313  1.00  0.00     0.052 C 
ATOM     27  C   UNL     1       1.093  -0.934  -2.440  1.00  0.00     0.052 C 
ENDBRANCH  24  25
ENDBRANCH  19  24
ENDBRANCH   8  18
ENDBRANCH   4   7
ENDBRANCH   2   3
ENDBRANCH   1   2
BRANCH   1  28
ATOM     28  C   UNL     1      -5.508  -9.601   5.424  1.00  0.00     0.023 C 
BRANCH  28  29
ATOM     29  C   UNL     1      -5.190  -8.775   6.666  1.00  0.00     0.116 C 
BRANCH  29  30
ATOM     30  N   UNL     1      -6.153  -7.717   6.948  1.00  0.00    -0.352 N 
ATOM     31  C   UNL     1      -6.148  -6.870   8.046  1.00  0.00     0.251 C 
ATOM     32  H   UNL     1      -6.879  -7.591   6.294  1.00  0.00     0.163 HD
ATOM     33  O   UNL     1      -7.166  -6.277   8.382  1.00  0.00    -0.269 OA
BRANCH  31  34
ATOM     34  C   UNL     1      -4.896  -6.731   8.820  1.00  0.00     0.039 A 
ATOM     35  C   UNL     1      -4.893  -6.877  10.209  1.00  0.00     0.014 A 
ATOM     36  C   UNL     1      -3.705  -6.531   8.124  1.00  0.00     0.014 A 
ATOM     37  C   UNL     1      -3.670  -6.940  10.881  1.00  0.00     0.010 A 
ATOM     38  C   UNL     1      -2.497  -6.687   8.777  1.00  0.00     0.010 A 
ATOM     39  C   UNL     1      -2.466  -6.885  10.159  1.00  0.00    -0.014 A 
BRANCH  39  40
ATOM     40  C   UNL     1      -1.194  -7.200  10.827  1.00  0.00     0.031 A 
ATOM     41  C   UNL     1      -1.144  -8.507  11.551  1.00  0.00     0.074 A 
ATOM     42  C   UNL     1      -0.035  -6.538  10.616  1.00  0.00     0.049 A 
ATOM     43  N   UNL     1      -0.931  -8.723  12.808  1.00  0.00    -0.248 NA
ATOM     44  C   UNL     1      -1.456  -9.727  10.791  1.00  0.00     0.031 C 
ATOM     45  C   UNL     1       0.213  -5.436   9.683  1.00  0.00     0.029 A 
ATOM     46  N   UNL     1       1.211  -6.809  11.105  1.00  0.00    -0.354 N 
ATOM     47  C   UNL     1      -0.870 -10.108  12.969  1.00  0.00     0.074 A 
ATOM     48  C   UNL     1      -1.367 -10.662  11.738  1.00  0.00     0.031 C 
ATOM     49  C   UNL     1       1.543  -5.301   9.492  1.00  0.00     0.029 A 
ATOM     50  C   UNL     1       2.241  -6.184  10.409  1.00  0.00     0.049 A 
ATOM     51  H   UNL     1       1.367  -7.395  11.880  1.00  0.00     0.167 HD
ATOM     52  C   UNL     1      -0.232 -10.681  14.032  1.00  0.00     0.034 A 
ATOM     53  C   UNL     1       3.576  -6.388  10.545  1.00  0.00     0.034 A 
ATOM     54  C   UNL     1      -0.011  -9.712  15.085  1.00  0.00     0.049 A 
ATOM     55  C   UNL     1       3.796  -6.971  11.889  1.00  0.00     0.074 A 
ATOM     56  C   UNL     1      -0.829  -8.874  15.821  1.00  0.00     0.029 A 
ATOM     57  N   UNL     1       1.264  -9.229  15.278  1.00  0.00    -0.354 N 
ATOM     58  N   UNL     1       3.563  -6.330  13.000  1.00  0.00    -0.248 NA
ATOM     59  C   UNL     1       3.875  -8.418  12.014  1.00  0.00     0.031 C 
ATOM     60  C   UNL     1      -0.085  -7.665  15.958  1.00  0.00     0.029 A 
ATOM     61  C   UNL     1       1.165  -7.864  15.369  1.00  0.00     0.049 A 
ATOM     62  H   UNL     1       2.090  -9.762  15.341  1.00  0.00     0.167 HD
ATOM     63  C   UNL     1       3.041  -7.282  13.859  1.00  0.00     0.074 A 
ATOM     64  C   UNL     1       3.371  -8.565  13.242  1.00  0.00     0.031 C 
ATOM     65  C   UNL     1       2.150  -6.942  14.837  1.00  0.00     0.034 A 
BRANCH  52  66
ATOM     66  C   UNL     1       0.498 -12.016  14.017  1.00  0.00     0.023 A 
ATOM     67  C   UNL     1       1.176 -12.393  15.197  1.00  0.00     0.031 A 
ATOM     68  C   UNL     1       0.810 -12.784  12.874  1.00  0.00     0.131 A 
ATOM     69  C   UNL     1       2.192 -13.364  15.179  1.00  0.00     0.055 A 
ATOM     70  C   UNL     1       1.769 -13.805  12.879  1.00  0.00     0.041 A 
ATOM     71  F   UNL     1       0.277 -12.547  11.671  1.00  0.00    -0.206 F 
ATOM     72  C   UNL     1       2.496 -14.074  14.024  1.00  0.00     0.022 A 
BRANCH  69  73
ATOM     73  S   UNL     1       3.248 -13.527  16.643  1.00  0.00     0.124 S 
ATOM     74  O   UNL     1       3.668 -12.145  16.852  1.00  0.00    -0.237 OA
ATOM     75  O   UNL     1       2.317 -14.073  17.625  1.00  0.00    -0.237 OA
ATOM     76  O   UNL     1       4.299 -14.441  16.203  1.00  0.00    -0.744 OA
ENDBRANCH  69  73
ENDBRANCH  52  66
BRANCH  53  77
ATOM     77  C   UNL     1       4.629  -6.309   9.500  1.00  0.00     0.023 A 
ATOM     78  C   UNL     1       5.995  -6.179   9.820  1.00  0.00     0.031 A 
ATOM     79  C   UNL     1       4.317  -6.607   8.154  1.00  0.00     0.131 A 
ATOM     80  C   UNL     1       6.980  -6.347   8.819  1.00  0.00     0.055 A 
ATOM     81  C   UNL     1       5.292  -6.761   7.167  1.00  0.00     0.041 A 
ATOM     82  F   UNL     1       3.053  -6.844   7.769  1.00  0.00    -0.206 F 
ATOM     83  C   UNL     1       6.632  -6.642   7.499  1.00  0.00     0.022 A 
BRANCH  80  84
ATOM     84  S   UNL     1       8.747  -6.307   9.255  1.00  0.00     0.124 S 
ATOM     85  O   UNL     1       8.992  -4.878   9.417  1.00  0.00    -0.237 OA
ATOM     86  O   UNL     1       8.795  -7.116  10.467  1.00  0.00    -0.237 OA
ATOM     87  O   UNL     1       9.396  -6.914   8.091  1.00  0.00    -0.744 OA
ENDBRANCH  80  84
ENDBRANCH  53  77
BRANCH  65  88
ATOM     88  C   UNL     1       2.002  -5.484  15.221  1.00  0.00     0.023 A 
ATOM     89  C   UNL     1       1.690  -4.437  14.325  1.00  0.00     0.031 A 
ATOM     90  C   UNL     1       2.069  -5.169  16.591  1.00  0.00     0.131 A 
ATOM     91  C   UNL     1       1.470  -3.133  14.812  1.00  0.00     0.055 A 
ATOM     92  C   UNL     1       1.830  -3.883  17.072  1.00  0.00     0.041 A 
ATOM     93  F   UNL     1       2.335  -6.124  17.498  1.00  0.00    -0.206 F 
ATOM     94  C   UNL     1       1.536  -2.857  16.182  1.00  0.00     0.022 A 
BRANCH  91  95
ATOM     95  S   UNL     1       1.113  -1.760  13.670  1.00  0.00     0.124 S 
ATOM     96  O   UNL     1       2.089  -1.936  12.602  1.00  0.00    -0.237 OA
ATOM     97  O   UNL     1      -0.281  -2.007  13.309  1.00  0.00    -0.237 OA
ATOM     98  O   UNL     1       1.323  -0.569  14.496  1.00  0.00    -0.744 OA
ENDBRANCH  91  95
ENDBRANCH  65  88
ENDBRANCH  39  40
ENDBRANCH  31  34
ENDBRANCH  29  30
ENDBRANCH  28  29
ENDBRANCH   1  28
TORSDOF 17
