REMARK SMILES O=C(NCCCCNC(=O)c1cccn1CC(=O)N1CCS(=O)CC1)c1ccc(-c2c3nc(c(-c4cc(S(=O)(=O)[O-])ccc4F)c4ccc([nH]4)c(-c4cc(S(=O)(=O)[O-])ccc4F)c4nc(c(-c5cc(S(=O)(=O)[O-])ccc5F)c5ccc2[nH]5)C=C4)C=C3)cc1
REMARK SMILES IDX 5 1 4 2 3 3 1 4 2 5 26 7 27 8 88 9 28 10 87 11 29 12 30 13
REMARK SMILES IDX 31 14 81 15 32 16 86 17 80 18 82 19 33 20 85 21 79 22 78 23
REMARK SMILES IDX 34 25 66 26 46 27 65 28 47 29 50 30 64 31 83 32 48 33 49 34
REMARK SMILES IDX 63 36 84 37 51 38 35 39 36 40 44 41 37 42 43 43 45 44 42 45
REMARK SMILES IDX 38 46 39 47 40 48 41 49 67 50 68 51 76 52 69 53 75 54 77 55
REMARK SMILES IDX 74 56 70 57 71 58 72 59 73 60 52 61 53 62 61 63 54 64 60 65
REMARK SMILES IDX 62 66 59 67 55 68 56 69 57 70 58 71 6 72 7 73 8 74 9 75
REMARK SMILES IDX 10 77 11 78 12 79 15 80 13 81 14 82 16 83 17 84 18 85 19 86
REMARK SMILES IDX 20 87 25 88 21 89 24 90 22 91 23 92
REMARK H PARENT 3 6 82 24 50 35 8 76
REMARK Flexibility Score: inf
ROOT
ATOM      1  C   UNL     1       5.118  -1.208   1.278  1.00  0.00     0.023 C 
ENDROOT
BRANCH   1   2
ATOM      2  C   UNL     1       4.659  -0.958  -0.153  1.00  0.00     0.116 C 
BRANCH   2   3
ATOM      3  N   UNL     1       3.232  -0.769  -0.341  1.00  0.00    -0.352 N 
ATOM      4  O   UNL     1       1.218   0.173  -0.438  1.00  0.00    -0.269 OA
ATOM      5  C   UNL     1       2.353   0.216   0.037  1.00  0.00     0.251 C 
ATOM      6  H   UNL     1       2.806  -1.499  -0.844  1.00  0.00     0.163 HD
BRANCH   5   7
ATOM      7  C   UNL     1       2.679   1.258   1.045  1.00  0.00     0.039 A 
ATOM      8  C   UNL     1       3.952   1.802   1.216  1.00  0.00     0.014 A 
ATOM      9  C   UNL     1       1.626   1.717   1.857  1.00  0.00     0.014 A 
ATOM     10  C   UNL     1       4.201   2.693   2.254  1.00  0.00     0.010 A 
ATOM     11  C   UNL     1       1.857   2.649   2.872  1.00  0.00     0.010 A 
ATOM     12  C   UNL     1       3.152   3.136   3.073  1.00  0.00    -0.014 A 
BRANCH  12  13
ATOM     13  C   UNL     1       3.413   4.378   3.846  1.00  0.00     0.031 A 
ATOM     14  C   UNL     1       3.414   5.588   2.852  1.00  0.00     0.074 A 
ATOM     15  C   UNL     1       3.703   4.260   5.186  1.00  0.00     0.049 A 
ATOM     16  N   UNL     1       4.148   6.658   2.821  1.00  0.00    -0.248 NA
ATOM     17  C   UNL     1       2.555   5.523   1.626  1.00  0.00     0.031 C 
ATOM     18  C   UNL     1       3.586   3.014   5.986  1.00  0.00     0.029 A 
ATOM     19  N   UNL     1       4.151   5.138   6.159  1.00  0.00    -0.354 N 
ATOM     20  C   UNL     1       3.647   7.492   1.784  1.00  0.00     0.074 A 
ATOM     21  C   UNL     1       2.808   6.664   0.982  1.00  0.00     0.031 C 
ATOM     22  C   UNL     1       4.031   3.192   7.258  1.00  0.00     0.029 A 
ATOM     23  C   UNL     1       4.473   4.564   7.438  1.00  0.00     0.049 A 
ATOM     24  H   UNL     1       4.244   6.103   5.985  1.00  0.00     0.167 HD
ATOM     25  C   UNL     1       3.804   8.852   1.772  1.00  0.00     0.034 A 
ATOM     26  C   UNL     1       5.083   5.153   8.528  1.00  0.00     0.034 A 
ATOM     27  C   UNL     1       4.596   9.232   2.892  1.00  0.00     0.049 A 
ATOM     28  C   UNL     1       5.144   6.569   8.139  1.00  0.00     0.074 A 
ATOM     29  C   UNL     1       5.910   9.028   3.212  1.00  0.00     0.029 A 
ATOM     30  N   UNL     1       3.905   9.610   4.021  1.00  0.00    -0.354 N 
ATOM     31  N   UNL     1       4.131   7.378   8.140  1.00  0.00    -0.248 NA
ATOM     32  C   UNL     1       6.420   7.109   7.650  1.00  0.00     0.031 C 
ATOM     33  C   UNL     1       5.839   8.739   4.588  1.00  0.00     0.029 A 
ATOM     34  C   UNL     1       4.567   9.064   5.084  1.00  0.00     0.049 A 
ATOM     35  H   UNL     1       3.092  10.165   4.056  1.00  0.00     0.167 HD
ATOM     36  C   UNL     1       4.581   8.405   7.354  1.00  0.00     0.074 A 
ATOM     37  C   UNL     1       6.028   8.355   7.398  1.00  0.00     0.031 C 
ATOM     38  C   UNL     1       3.829   8.815   6.301  1.00  0.00     0.034 A 
BRANCH  25  39
ATOM     39  C   UNL     1       3.090   9.982   1.059  1.00  0.00     0.023 A 
ATOM     40  C   UNL     1       3.584  11.285   1.336  1.00  0.00     0.031 A 
ATOM     41  C   UNL     1       1.819   9.919   0.478  1.00  0.00     0.131 A 
ATOM     42  C   UNL     1       2.761  12.414   1.258  1.00  0.00     0.055 A 
ATOM     43  C   UNL     1       1.029  11.069   0.305  1.00  0.00     0.041 A 
ATOM     44  F   UNL     1       1.255   8.755   0.134  1.00  0.00    -0.206 F 
ATOM     45  C   UNL     1       1.475  12.314   0.746  1.00  0.00     0.022 A 
BRANCH  42  46
ATOM     46  S   UNL     1       3.337  13.939   2.061  1.00  0.00     0.124 S 
ATOM     47  O   UNL     1       3.559  13.490   3.431  1.00  0.00    -0.237 OA
ATOM     48  O   UNL     1       4.537  14.254   1.291  1.00  0.00    -0.237 OA
ATOM     49  O   UNL     1       2.220  14.862   1.875  1.00  0.00    -0.744 OA
ENDBRANCH  42  46
ENDBRANCH  25  39
BRANCH  26  50
ATOM     50  C   UNL     1       5.730   4.864   9.902  1.00  0.00     0.023 A 
ATOM     51  C   UNL     1       5.712   3.669  10.647  1.00  0.00     0.031 A 
ATOM     52  C   UNL     1       6.513   5.905  10.519  1.00  0.00     0.131 A 
ATOM     53  C   UNL     1       6.504   3.548  11.842  1.00  0.00     0.055 A 
ATOM     54  C   UNL     1       7.359   5.748  11.616  1.00  0.00     0.041 A 
ATOM     55  F   UNL     1       6.491   7.175  10.094  1.00  0.00    -0.206 F 
ATOM     56  C   UNL     1       7.373   4.553  12.279  1.00  0.00     0.022 A 
BRANCH  53  57
ATOM     57  S   UNL     1       6.449   2.069  12.908  1.00  0.00     0.124 S 
ATOM     58  O   UNL     1       5.357   2.393  13.819  1.00  0.00    -0.237 OA
ATOM     59  O   UNL     1       6.202   0.991  11.957  1.00  0.00    -0.237 OA
ATOM     60  O   UNL     1       7.778   2.048  13.522  1.00  0.00    -0.744 OA
ENDBRANCH  53  57
ENDBRANCH  26  50
BRANCH  38  61
ATOM     61  C   UNL     1       2.331   8.551   6.434  1.00  0.00     0.023 A 
ATOM     62  C   UNL     1       1.620   9.056   7.540  1.00  0.00     0.031 A 
ATOM     63  C   UNL     1       1.598   7.720   5.567  1.00  0.00     0.131 A 
ATOM     64  C   UNL     1       0.269   8.716   7.758  1.00  0.00     0.055 A 
ATOM     65  C   UNL     1       0.253   7.380   5.776  1.00  0.00     0.041 A 
ATOM     66  F   UNL     1       2.167   7.188   4.487  1.00  0.00    -0.206 F 
ATOM     67  C   UNL     1      -0.420   7.878   6.881  1.00  0.00     0.022 A 
BRANCH  64  68
ATOM     68  S   UNL     1      -0.597   9.398   9.199  1.00  0.00     0.124 S 
ATOM     69  O   UNL     1       0.058   8.726  10.315  1.00  0.00    -0.237 OA
ATOM     70  O   UNL     1      -0.339  10.829   9.074  1.00  0.00    -0.237 OA
ATOM     71  O   UNL     1      -1.991   9.009   8.978  1.00  0.00    -0.744 OA
ENDBRANCH  64  68
ENDBRANCH  38  61
ENDBRANCH  12  13
ENDBRANCH   5   7
ENDBRANCH   2   3
ENDBRANCH   1   2
BRANCH   1  72
ATOM     72  C   UNL     1       4.543  -2.457   1.930  1.00  0.00     0.023 C 
BRANCH  72  73
ATOM     73  C   UNL     1       4.977  -3.791   1.324  1.00  0.00     0.116 C 
BRANCH  73  74
ATOM     74  N   UNL     1       6.410  -4.006   1.433  1.00  0.00    -0.351 N 
ATOM     75  C   UNL     1       7.119  -5.082   1.908  1.00  0.00     0.267 C 
ATOM     76  H   UNL     1       6.964  -3.257   1.114  1.00  0.00     0.163 HD
ATOM     77  O   UNL     1       8.335  -4.959   2.002  1.00  0.00    -0.268 OA
BRANCH  75  78
ATOM     78  C   UNL     1       6.421  -6.293   2.293  1.00  0.00     0.107 A 
ATOM     79  C   UNL     1       5.446  -6.993   1.594  1.00  0.00     0.033 A 
ATOM     80  N   UNL     1       6.689  -7.038   3.435  1.00  0.00    -0.334 N 
ATOM     81  C   UNL     1       5.138  -8.173   2.307  1.00  0.00     0.020 A 
ATOM     82  C   UNL     1       5.946  -8.196   3.420  1.00  0.00     0.087 A 
BRANCH  80  83
ATOM     83  C   UNL     1       7.654  -6.703   4.475  1.00  0.00     0.222 C 
BRANCH  83  84
ATOM     84  C   UNL     1       7.171  -6.555   5.914  1.00  0.00     0.242 C 
ATOM     85  O   UNL     1       7.861  -7.053   6.812  1.00  0.00    -0.273 OA
ATOM     86  N   UNL     1       6.147  -5.675   6.225  1.00  0.00    -0.339 N 
ATOM     87  C   UNL     1       6.208  -4.887   7.465  1.00  0.00     0.133 C 
ATOM     88  C   UNL     1       4.914  -5.482   5.471  1.00  0.00     0.133 C 
ATOM     89  C   UNL     1       6.208  -3.388   7.159  1.00  0.00     0.126 C 
ATOM     90  C   UNL     1       4.840  -4.074   4.931  1.00  0.00     0.126 C 
ATOM     91  S   UNL     1       4.701  -2.860   6.274  1.00  0.00     0.025 S 
ATOM     92  O   UNL     1       3.505  -3.246   7.091  1.00  0.00    -0.259 OA
ENDBRANCH  83  84
ENDBRANCH  80  83
ENDBRANCH  75  78
ENDBRANCH  73  74
ENDBRANCH  72  73
ENDBRANCH   1  72
TORSDOF 16
