REMARK SMILES Cc1ccccc1-c1c(Cl)ccc2c1C=C(C(=O)NCCCCNC(=O)c1ccc(-c3c4nc(c(-c5cc(S(=O)(=O)[O-])ccc5F)c5ccc([nH]5)c(-c5cc(S(=O)(=O)[O-])ccc5F)c5nc(c(-c6cc(S(=O)(=O)[O-])ccc6F)c6ccc3[nH]6)C=C5)C=C4)cc1)[C@@H](C(F)(F)F)O2
REMARK SMILES IDX 22 1 21 2 20 3 19 4 17 5 18 6 16 8 8 9 9 10 14 11 10 12
REMARK SMILES IDX 11 13 13 14 15 15 12 16 95 17 90 18 7 19 1 20 2 21 3 22 4 23
REMARK SMILES IDX 6 24 5 25 91 26 92 27 93 28 94 29 23 30 24 31 25 32 26 34
REMARK SMILES IDX 27 35 28 36 89 37 29 38 88 39 30 40 31 41 32 42 82 43 33 44
REMARK SMILES IDX 87 45 81 46 83 47 34 48 86 49 80 50 79 51 35 53 67 54 47 55
REMARK SMILES IDX 66 56 48 57 51 58 65 59 84 60 49 61 50 62 64 64 85 65 52 66
REMARK SMILES IDX 36 67 37 68 45 69 38 70 44 71 46 72 43 73 39 74 40 75 41 76
REMARK SMILES IDX 42 77 68 78 69 79 77 80 70 81 76 82 78 83 75 84 71 85 72 86
REMARK SMILES IDX 73 87 74 88 53 89 54 90 62 91 55 92 61 93 63 94 60 95 56 96
REMARK SMILES IDX 57 97 58 98 59 99
REMARK H PARENT 19 7 24 33 83 52 51 63
REMARK Flexibility Score: inf
ROOT
ATOM      1  C   UNL     1       7.223  -1.792  -2.763  1.00  0.00     0.023 C 
ENDROOT
BRANCH   1   2
ATOM      2  C   UNL     1       5.753  -1.585  -3.152  1.00  0.00     0.023 C 
BRANCH   2   3
ATOM      3  C   UNL     1       4.936  -0.671  -2.227  1.00  0.00     0.116 C 
BRANCH   3   4
ATOM      4  N   UNL     1       5.559   0.640  -2.103  1.00  0.00    -0.352 N 
ATOM      5  C   UNL     1       5.169   1.898  -2.399  1.00  0.00     0.251 C 
ATOM      6  O   UNL     1       6.055   2.757  -2.431  1.00  0.00    -0.270 OA
ATOM      7  H   UNL     1       6.465   0.599  -1.719  1.00  0.00     0.163 HD
BRANCH   5   8
ATOM      8  C   UNL     1       3.752   2.332  -2.578  1.00  0.00     0.067 C 
ATOM      9  C   UNL     1       1.142   2.417   0.072  1.00  0.00     0.012 A 
ATOM     10  C   UNL     1       0.831   3.381   1.065  1.00  0.00     0.049 A 
ATOM     11  C   UNL     1       2.043   2.809  -0.957  1.00  0.00     0.027 A 
ATOM     12  Cl  UNL     1      -0.161   3.005   2.438  1.00  0.00    -0.084 Cl
ATOM     13  C   UNL     1       1.323   4.690   1.002  1.00  0.00     0.025 A 
ATOM     14  C   UNL     1       2.449   4.161  -1.050  1.00  0.00     0.128 A 
ATOM     15  C   UNL     1       2.821   1.828  -1.753  1.00  0.00     0.026 C 
ATOM     16  C   UNL     1       2.099   5.090  -0.076  1.00  0.00     0.049 A 
ATOM     17  O   UNL     1       3.264   4.656  -2.040  1.00  0.00    -0.475 OA
ATOM     18  C   UNL     1       3.573   3.732  -3.107  1.00  0.00     0.314 C 
BRANCH   9  19
ATOM     19  C   UNL     1       0.433   1.109   0.055  1.00  0.00    -0.013 A 
ATOM     20  C   UNL     1       2.438  -0.340   0.777  1.00  0.00     0.045 C 
ATOM     21  C   UNL     1       1.011  -0.141   0.352  1.00  0.00    -0.043 A 
ATOM     22  C   UNL     1       0.226  -1.309   0.254  1.00  0.00     0.004 A 
ATOM     23  C   UNL     1      -1.129  -1.251  -0.057  1.00  0.00     0.000 A 
ATOM     24  C   UNL     1      -0.947   1.136  -0.264  1.00  0.00     0.009 A 
ATOM     25  C   UNL     1      -1.723  -0.023  -0.299  1.00  0.00     0.001 A 
ENDBRANCH   9  19
BRANCH  18  26
ATOM     26  C   UNL     1       2.551   3.822  -4.253  1.00  0.00     0.429 C 
ATOM     27  F   UNL     1       2.538   5.069  -4.794  1.00  0.00    -0.167 F 
ATOM     28  F   UNL     1       2.864   2.974  -5.265  1.00  0.00    -0.167 F 
ATOM     29  F   UNL     1       1.284   3.545  -3.875  1.00  0.00    -0.167 F 
ENDBRANCH  18  26
ENDBRANCH   5   8
ENDBRANCH   3   4
ENDBRANCH   2   3
ENDBRANCH   1   2
BRANCH   1  30
ATOM     30  C   UNL     1       7.450  -2.533  -1.449  1.00  0.00     0.116 C 
BRANCH  30  31
ATOM     31  N   UNL     1       7.699  -3.959  -1.596  1.00  0.00    -0.352 N 
ATOM     32  C   UNL     1       7.992  -4.914  -0.627  1.00  0.00     0.251 C 
ATOM     33  H   UNL     1       7.655  -4.299  -2.519  1.00  0.00     0.163 HD
ATOM     34  O   UNL     1       8.297  -6.043  -0.937  1.00  0.00    -0.269 OA
BRANCH  32  35
ATOM     35  C   UNL     1       7.828  -4.556   0.809  1.00  0.00     0.039 A 
ATOM     36  C   UNL     1       7.088  -5.431   1.617  1.00  0.00     0.014 A 
ATOM     37  C   UNL     1       8.223  -3.318   1.302  1.00  0.00     0.014 A 
ATOM     38  C   UNL     1       6.551  -4.971   2.819  1.00  0.00     0.010 A 
ATOM     39  C   UNL     1       7.611  -2.826   2.436  1.00  0.00     0.010 A 
ATOM     40  C   UNL     1       6.727  -3.632   3.161  1.00  0.00    -0.014 A 
BRANCH  40  41
ATOM     41  C   UNL     1       5.916  -2.936   4.154  1.00  0.00     0.031 A 
ATOM     42  C   UNL     1       6.496  -2.453   5.421  1.00  0.00     0.074 A 
ATOM     43  C   UNL     1       4.648  -2.600   3.836  1.00  0.00     0.049 A 
ATOM     44  N   UNL     1       5.810  -2.132   6.465  1.00  0.00    -0.248 NA
ATOM     45  C   UNL     1       7.933  -2.339   5.627  1.00  0.00     0.031 C 
ATOM     46  C   UNL     1       3.791  -1.623   4.501  1.00  0.00     0.029 A 
ATOM     47  N   UNL     1       3.796  -3.275   2.971  1.00  0.00    -0.354 N 
ATOM     48  C   UNL     1       6.649  -1.465   7.329  1.00  0.00     0.074 A 
ATOM     49  C   UNL     1       7.972  -1.723   6.812  1.00  0.00     0.031 C 
ATOM     50  C   UNL     1       2.510  -1.912   4.226  1.00  0.00     0.029 A 
ATOM     51  C   UNL     1       2.498  -3.166   3.494  1.00  0.00     0.049 A 
ATOM     52  H   UNL     1       4.054  -3.743   2.145  1.00  0.00     0.167 HD
ATOM     53  C   UNL     1       6.107  -0.644   8.277  1.00  0.00     0.034 A 
ATOM     54  C   UNL     1       1.793  -4.278   3.853  1.00  0.00     0.034 A 
ATOM     55  C   UNL     1       4.642  -0.760   8.311  1.00  0.00     0.049 A 
ATOM     56  C   UNL     1       1.428  -4.298   5.318  1.00  0.00     0.074 A 
ATOM     57  C   UNL     1       3.615   0.057   7.864  1.00  0.00     0.029 A 
ATOM     58  N   UNL     1       4.053  -1.983   8.629  1.00  0.00    -0.354 N 
ATOM     59  N   UNL     1       1.994  -3.546   6.222  1.00  0.00    -0.248 NA
ATOM     60  C   UNL     1       0.399  -5.163   5.880  1.00  0.00     0.031 C 
ATOM     61  C   UNL     1       2.415  -0.705   7.859  1.00  0.00     0.029 A 
ATOM     62  C   UNL     1       2.704  -1.975   8.330  1.00  0.00     0.049 A 
ATOM     63  H   UNL     1       4.534  -2.750   9.015  1.00  0.00     0.167 HD
ATOM     64  C   UNL     1       1.441  -3.798   7.451  1.00  0.00     0.074 A 
ATOM     65  C   UNL     1       0.432  -4.809   7.177  1.00  0.00     0.031 C 
ATOM     66  C   UNL     1       1.871  -3.150   8.578  1.00  0.00     0.034 A 
BRANCH  53  67
ATOM     67  C   UNL     1       6.856   0.497   8.955  1.00  0.00     0.023 A 
ATOM     68  C   UNL     1       6.125   1.597   9.460  1.00  0.00     0.031 A 
ATOM     69  C   UNL     1       8.255   0.617   9.079  1.00  0.00     0.131 A 
ATOM     70  C   UNL     1       6.765   2.762   9.934  1.00  0.00     0.055 A 
ATOM     71  C   UNL     1       8.894   1.792   9.503  1.00  0.00     0.041 A 
ATOM     72  F   UNL     1       9.080  -0.410   8.861  1.00  0.00    -0.206 F 
ATOM     73  C   UNL     1       8.149   2.880   9.921  1.00  0.00     0.022 A 
BRANCH  70  74
ATOM     74  S   UNL     1       5.761   4.131  10.574  1.00  0.00     0.124 S 
ATOM     75  O   UNL     1       4.974   4.510   9.405  1.00  0.00    -0.237 OA
ATOM     76  O   UNL     1       5.034   3.498  11.668  1.00  0.00    -0.237 OA
ATOM     77  O   UNL     1       6.758   5.117  10.990  1.00  0.00    -0.744 OA
ENDBRANCH  70  74
ENDBRANCH  53  67
BRANCH  54  78
ATOM     78  C   UNL     1       2.107  -5.461   3.000  1.00  0.00     0.023 A 
ATOM     79  C   UNL     1       1.926  -5.292   1.611  1.00  0.00     0.031 A 
ATOM     80  C   UNL     1       2.951  -6.492   3.430  1.00  0.00     0.131 A 
ATOM     81  C   UNL     1       2.738  -5.984   0.704  1.00  0.00     0.055 A 
ATOM     82  C   UNL     1       3.683  -7.259   2.511  1.00  0.00     0.041 A 
ATOM     83  F   UNL     1       3.186  -6.686   4.736  1.00  0.00    -0.206 F 
ATOM     84  C   UNL     1       3.618  -6.972   1.144  1.00  0.00     0.022 A 
BRANCH  81  85
ATOM     85  S   UNL     1       2.847  -5.330  -0.990  1.00  0.00     0.124 S 
ATOM     86  O   UNL     1       1.611  -5.822  -1.587  1.00  0.00    -0.237 OA
ATOM     87  O   UNL     1       2.914  -3.885  -0.763  1.00  0.00    -0.237 OA
ATOM     88  O   UNL     1       4.079  -5.914  -1.512  1.00  0.00    -0.744 OA
ENDBRANCH  81  85
ENDBRANCH  54  78
BRANCH  66  89
ATOM     89  C   UNL     1       1.488  -3.490  10.008  1.00  0.00     0.023 A 
ATOM     90  C   UNL     1       0.835  -4.674  10.379  1.00  0.00     0.031 A 
ATOM     91  C   UNL     1       1.844  -2.635  11.082  1.00  0.00     0.131 A 
ATOM     92  C   UNL     1       0.488  -4.933  11.719  1.00  0.00     0.055 A 
ATOM     93  C   UNL     1       1.567  -2.929  12.421  1.00  0.00     0.041 A 
ATOM     94  F   UNL     1       2.492  -1.478  10.884  1.00  0.00    -0.206 F 
ATOM     95  C   UNL     1       0.868  -4.078  12.748  1.00  0.00     0.022 A 
BRANCH  92  96
ATOM     96  S   UNL     1      -0.527  -6.392  12.075  1.00  0.00     0.124 S 
ATOM     97  O   UNL     1      -1.751  -6.096  11.335  1.00  0.00    -0.237 OA
ATOM     98  O   UNL     1       0.287  -7.479  11.540  1.00  0.00    -0.237 OA
ATOM     99  O   UNL     1      -0.662  -6.375  13.530  1.00  0.00    -0.744 OA
ENDBRANCH  92  96
ENDBRANCH  66  89
ENDBRANCH  40  41
ENDBRANCH  32  35
ENDBRANCH  30  31
ENDBRANCH   1  30
TORSDOF 16
