REMARK SMILES C[NH2+][C@@]1(C(=O)NCCCCNC(=O)c2ccc(-c3c4nc(c(-c5cc(S(=O)(=O)[O-])ccc5F)c5ccc([nH]5)c(-c5cc(S(=O)(=O)[O-])ccc5F)c5nc(c(-c6cc(S(=O)(=O)[O-])ccc6F)c6ccc3[nH]6)C=C5)C=C4)cc2)CC[C@H]([NH+]2CC[NH+](C)CC2)C1
REMARK SMILES IDX 9 1 8 2 7 3 6 4 4 5 5 6 3 8 77 9 87 10 78 11 79 12 2 13 1 14
REMARK SMILES IDX 80 17 81 18 86 19 82 21 85 22 83 23 84 24 10 26 11 27 12 28
REMARK SMILES IDX 13 30 14 31 15 32 76 33 16 34 75 35 17 36 18 37 19 38 69 39
REMARK SMILES IDX 20 40 74 41 68 42 70 43 21 44 73 45 67 46 66 47 22 49 54 50
REMARK SMILES IDX 34 51 53 52 35 53 38 54 52 55 71 56 36 57 37 58 51 60 72 61
REMARK SMILES IDX 39 62 23 63 24 64 32 65 25 66 31 67 33 68 30 69 26 70 27 71
REMARK SMILES IDX 28 72 29 73 55 74 56 75 64 76 57 77 63 78 65 79 62 80 58 81
REMARK SMILES IDX 59 82 60 83 61 84 40 85 41 86 49 87 42 88 48 89 50 90 47 91
REMARK SMILES IDX 43 92 44 93 45 94 46 95
REMARK H PARENT 6 7 2 15 2 16 80 20 83 25 11 29 70 48 38 59
REMARK Flexibility Score: inf
ROOT
ATOM      1  C   UNL     1      -5.990  -2.806   1.286  1.00  0.00     0.023 C 
ENDROOT
BRANCH   1   2
ATOM      2  C   UNL     1      -5.165  -2.022   0.025  1.00  0.00     0.023 C 
BRANCH   2   3
ATOM      3  C   UNL     1      -3.720  -0.484  -0.248  1.00  0.00     0.116 C 
BRANCH   3   4
ATOM      4  N   UNL     1      -2.297  -0.202   0.406  1.00  0.00    -0.351 N 
ATOM      5  C   UNL     1      -0.982  -0.465   0.200  1.00  0.00     0.281 C 
ATOM      6  O   UNL     1      -0.282  -0.192   1.185  1.00  0.00    -0.268 OA
ATOM      7  H   UNL     1      -2.406   0.336   1.223  1.00  0.00     0.163 HD
BRANCH   5   8
ATOM      8  C   UNL     1      -0.396  -1.055  -1.113  1.00  0.00     0.181 C 
ATOM      9  C   UNL     1      -0.951  -0.321  -2.344  1.00  0.00     0.085 C 
ATOM     10  C   UNL     1      -0.804  -2.529  -1.315  1.00  0.00     0.144 C 
ATOM     11  C   UNL     1      -1.819  -1.346  -3.068  1.00  0.00     0.072 C 
ATOM     12  C   UNL     1      -2.137  -2.473  -2.055  1.00  0.00     0.191 C 
BRANCH   8  13
ATOM     13  N   UNL     1       1.102  -1.018  -1.118  1.00  0.00    -0.336 N 
ATOM     14  C   UNL     1       1.691   0.279  -0.794  1.00  0.00     0.331 C 
ATOM     15  H   UNL     1       1.437  -1.696  -0.433  1.00  0.00     0.346 HD
ATOM     16  H   UNL     1       1.389  -1.230  -2.073  1.00  0.00     0.346 HD
ENDBRANCH   8  13
BRANCH  12  17
ATOM     17  N   UNL     1      -3.328  -2.330  -1.218  1.00  0.00    -0.323 N 
ATOM     18  C   UNL     1      -4.728  -1.426  -2.000  1.00  0.00     0.324 C 
ATOM     19  C   UNL     1      -3.202  -2.360   0.647  1.00  0.00     0.324 C 
ATOM     20  H   UNL     1      -3.638  -3.302  -1.218  1.00  0.00     0.348 HD
ATOM     21  C   UNL     1      -5.729  -0.106  -0.966  1.00  0.00     0.324 C 
ATOM     22  C   UNL     1      -4.254  -1.043   1.699  1.00  0.00     0.324 C 
ATOM     23  N   UNL     1      -5.618  -0.107   0.869  1.00  0.00    -0.328 N 
ATOM     24  C   UNL     1      -5.801   1.238   1.407  1.00  0.00     0.333 C 
ATOM     25  H   UNL     1      -6.405  -0.702   1.128  1.00  0.00     0.348 HD
ENDBRANCH  12  17
ENDBRANCH   5   8
ENDBRANCH   3   4
ENDBRANCH   2   3
ENDBRANCH   1   2
BRANCH   1  26
ATOM     26  C   UNL     1      -7.206  -2.141   1.950  1.00  0.00     0.116 C 
BRANCH  26  27
ATOM     27  N   UNL     1      -8.207  -1.663   1.006  1.00  0.00    -0.352 N 
ATOM     28  C   UNL     1      -9.395  -1.038   1.281  1.00  0.00     0.251 C 
ATOM     29  H   UNL     1      -8.005  -1.806   0.053  1.00  0.00     0.163 HD
ATOM     30  O   UNL     1     -10.141  -0.665   0.383  1.00  0.00    -0.269 OA
BRANCH  28  31
ATOM     31  C   UNL     1      -9.774  -0.891   2.693  1.00  0.00     0.039 A 
ATOM     32  C   UNL     1     -10.864  -1.621   3.166  1.00  0.00     0.014 A 
ATOM     33  C   UNL     1      -8.982  -0.129   3.555  1.00  0.00     0.014 A 
ATOM     34  C   UNL     1     -11.130  -1.630   4.532  1.00  0.00     0.010 A 
ATOM     35  C   UNL     1      -9.206  -0.198   4.923  1.00  0.00     0.010 A 
ATOM     36  C   UNL     1     -10.283  -0.947   5.420  1.00  0.00    -0.014 A 
BRANCH  36  37
ATOM     37  C   UNL     1     -10.532  -0.997   6.879  1.00  0.00     0.031 A 
ATOM     38  C   UNL     1     -10.948   0.254   7.598  1.00  0.00     0.074 A 
ATOM     39  C   UNL     1     -10.344  -2.154   7.541  1.00  0.00     0.049 A 
ATOM     40  N   UNL     1     -11.205   0.431   8.866  1.00  0.00    -0.248 NA
ATOM     41  C   UNL     1     -11.055   1.475   6.784  1.00  0.00     0.031 C 
ATOM     42  C   UNL     1      -9.882  -3.407   6.935  1.00  0.00     0.029 A 
ATOM     43  N   UNL     1     -10.516  -2.471   8.862  1.00  0.00    -0.354 N 
ATOM     44  C   UNL     1     -11.493   1.785   9.005  1.00  0.00     0.074 A 
ATOM     45  C   UNL     1     -11.308   2.391   7.705  1.00  0.00     0.031 C 
ATOM     46  C   UNL     1      -9.840  -4.362   7.877  1.00  0.00     0.029 A 
ATOM     47  C   UNL     1     -10.239  -3.787   9.156  1.00  0.00     0.049 A 
ATOM     48  H   UNL     1     -10.811  -1.819   9.538  1.00  0.00     0.167 HD
ATOM     49  C   UNL     1     -11.902   2.450  10.112  1.00  0.00     0.034 A 
ATOM     50  C   UNL     1     -10.306  -4.447  10.329  1.00  0.00     0.034 A 
ATOM     51  C   UNL     1     -12.090   1.810  11.390  1.00  0.00     0.049 A 
ATOM     52  C   UNL     1     -10.779  -3.691  11.544  1.00  0.00     0.074 A 
ATOM     53  C   UNL     1     -12.549   2.358  12.574  1.00  0.00     0.029 A 
ATOM     54  N   UNL     1     -11.820   0.470  11.651  1.00  0.00    -0.354 N 
ATOM     55  N   UNL     1     -11.114  -2.425  11.649  1.00  0.00    -0.248 NA
ATOM     56  C   UNL     1     -10.902  -4.453  12.792  1.00  0.00     0.031 C 
ATOM     57  C   UNL     1     -12.499   1.368  13.562  1.00  0.00     0.029 A 
ATOM     58  C   UNL     1     -12.079   0.181  12.981  1.00  0.00     0.049 A 
ATOM     59  H   UNL     1     -11.492  -0.178  10.986  1.00  0.00     0.167 HD
ATOM     60  C   UNL     1     -11.512  -2.245  12.970  1.00  0.00     0.074 A 
ATOM     61  C   UNL     1     -11.394  -3.538  13.615  1.00  0.00     0.031 C 
ATOM     62  C   UNL     1     -11.939  -1.118  13.597  1.00  0.00     0.034 A 
BRANCH  49  63
ATOM     63  C   UNL     1     -12.140   3.935   9.980  1.00  0.00     0.023 A 
ATOM     64  C   UNL     1     -13.117   4.453   9.108  1.00  0.00     0.031 A 
ATOM     65  C   UNL     1     -11.347   4.851  10.692  1.00  0.00     0.131 A 
ATOM     66  C   UNL     1     -13.215   5.838   8.906  1.00  0.00     0.055 A 
ATOM     67  C   UNL     1     -11.509   6.232  10.551  1.00  0.00     0.041 A 
ATOM     68  F   UNL     1     -10.384   4.421  11.522  1.00  0.00    -0.206 F 
ATOM     69  C   UNL     1     -12.435   6.732   9.641  1.00  0.00     0.022 A 
BRANCH  66  70
ATOM     70  S   UNL     1     -14.268   6.444   7.558  1.00  0.00     0.124 S 
ATOM     71  O   UNL     1     -13.649   5.812   6.395  1.00  0.00    -0.237 OA
ATOM     72  O   UNL     1     -15.584   5.942   7.935  1.00  0.00    -0.237 OA
ATOM     73  O   UNL     1     -14.110   7.896   7.627  1.00  0.00    -0.744 OA
ENDBRANCH  66  70
ENDBRANCH  49  63
BRANCH  50  74
ATOM     74  C   UNL     1      -9.931  -5.888  10.410  1.00  0.00     0.023 A 
ATOM     75  C   UNL     1     -10.883  -6.871  10.726  1.00  0.00     0.031 A 
ATOM     76  C   UNL     1      -8.605  -6.304  10.194  1.00  0.00     0.131 A 
ATOM     77  C   UNL     1     -10.489  -8.212  10.860  1.00  0.00     0.055 A 
ATOM     78  C   UNL     1      -8.227  -7.645  10.281  1.00  0.00     0.041 A 
ATOM     79  F   UNL     1      -7.656  -5.408   9.879  1.00  0.00    -0.206 F 
ATOM     80  C   UNL     1      -9.170  -8.607  10.628  1.00  0.00     0.022 A 
BRANCH  77  81
ATOM     81  S   UNL     1     -11.715  -9.429  11.417  1.00  0.00     0.124 S 
ATOM     82  O   UNL     1     -12.142  -8.860  12.690  1.00  0.00    -0.237 OA
ATOM     83  O   UNL     1     -12.693  -9.389  10.335  1.00  0.00    -0.237 OA
ATOM     84  O   UNL     1     -10.945 -10.668  11.513  1.00  0.00    -0.744 OA
ENDBRANCH  77  81
ENDBRANCH  50  74
BRANCH  62  85
ATOM     85  C   UNL     1     -12.339  -1.257  15.043  1.00  0.00     0.023 A 
ATOM     86  C   UNL     1     -11.395  -1.543  16.044  1.00  0.00     0.031 A 
ATOM     87  C   UNL     1     -13.684  -1.104  15.422  1.00  0.00     0.131 A 
ATOM     88  C   UNL     1     -11.817  -1.721  17.369  1.00  0.00     0.055 A 
ATOM     89  C   UNL     1     -14.089  -1.222  16.751  1.00  0.00     0.041 A 
ATOM     90  F   UNL     1     -14.626  -0.831  14.504  1.00  0.00    -0.206 F 
ATOM     91  C   UNL     1     -13.156  -1.545  17.731  1.00  0.00     0.022 A 
BRANCH  88  92
ATOM     92  S   UNL     1     -10.607  -2.276  18.599  1.00  0.00     0.124 S 
ATOM     93  O   UNL     1     -10.155  -3.542  18.029  1.00  0.00    -0.237 OA
ATOM     94  O   UNL     1      -9.633  -1.190  18.591  1.00  0.00    -0.237 OA
ATOM     95  O   UNL     1     -11.393  -2.394  19.825  1.00  0.00    -0.744 OA
ENDBRANCH  88  92
ENDBRANCH  62  85
ENDBRANCH  36  37
ENDBRANCH  28  31
ENDBRANCH  26  27
ENDBRANCH   1  26
TORSDOF 16
