REMARK SMILES O=C(NCCCCNC(=O)[C@@H]1CC[C@H](CNC(=O)c2cccn2C2CC2)O1)c1ccc(-c2c3nc(c(-c4cc(S(=O)(=O)[O-])ccc4F)c4ccc([nH]4)c(-c4cc(S(=O)(=O)[O-])ccc4F)c4nc(c(-c5cc(S(=O)(=O)[O-])ccc5F)c5ccc2[nH]5)C=C4)C=C3)cc1
REMARK SMILES IDX 6 1 5 2 4 3 3 4 1 5 2 6 28 8 29 9 90 10 30 11 89 12 31 13
REMARK SMILES IDX 32 14 33 15 83 16 34 17 88 18 82 19 84 20 35 21 87 22 81 23
REMARK SMILES IDX 80 24 36 26 68 27 48 28 67 29 49 30 52 31 66 32 85 33 50 34
REMARK SMILES IDX 51 35 65 37 86 38 53 39 37 40 38 41 46 42 39 43 45 44 47 45
REMARK SMILES IDX 44 46 40 47 41 48 42 49 43 50 69 51 70 52 78 53 71 54 77 55
REMARK SMILES IDX 79 56 76 57 72 58 73 59 74 60 75 61 54 62 55 63 63 64 56 65
REMARK SMILES IDX 62 66 64 67 61 68 57 69 58 70 59 71 60 72 7 73 8 74 9 75
REMARK SMILES IDX 10 77 11 78 12 79 27 80 13 81 14 82 15 83 16 84 17 85 18 87
REMARK SMILES IDX 19 88 20 89 23 90 21 91 22 92 24 93 25 94 26 95
REMARK H PARENT 3 7 84 25 52 36 8 76 16 86
REMARK Flexibility Score: inf
ROOT
ATOM      1  C   UNL     1       4.380  -3.144  -1.762  1.00  0.00     0.023 C 
ENDROOT
BRANCH   1   2
ATOM      2  C   UNL     1       5.000  -2.147  -0.784  1.00  0.00     0.023 C 
BRANCH   2   3
ATOM      3  C   UNL     1       4.778  -0.673  -1.127  1.00  0.00     0.116 C 
BRANCH   3   4
ATOM      4  N   UNL     1       3.395  -0.234  -1.181  1.00  0.00    -0.352 N 
ATOM      5  O   UNL     1       1.323   0.340  -0.582  1.00  0.00    -0.269 OA
ATOM      6  C   UNL     1       2.403  -0.140  -0.236  1.00  0.00     0.251 C 
ATOM      7  H   UNL     1       3.111   0.056  -2.078  1.00  0.00     0.163 HD
BRANCH   6   8
ATOM      8  C   UNL     1       2.562  -0.649   1.149  1.00  0.00     0.039 A 
ATOM      9  C   UNL     1       3.769  -0.587   1.845  1.00  0.00     0.014 A 
ATOM     10  C   UNL     1       1.431  -1.190   1.783  1.00  0.00     0.014 A 
ATOM     11  C   UNL     1       3.883  -1.167   3.102  1.00  0.00     0.010 A 
ATOM     12  C   UNL     1       1.527  -1.727   3.070  1.00  0.00     0.010 A 
ATOM     13  C   UNL     1       2.764  -1.732   3.724  1.00  0.00    -0.014 A 
BRANCH  13  14
ATOM     14  C   UNL     1       2.923  -2.119   5.148  1.00  0.00     0.031 A 
ATOM     15  C   UNL     1       3.041  -0.895   6.061  1.00  0.00     0.074 A 
ATOM     16  C   UNL     1       3.058  -3.442   5.452  1.00  0.00     0.049 A 
ATOM     17  N   UNL     1       3.799  -0.692   7.097  1.00  0.00    -0.248 NA
ATOM     18  C   UNL     1       2.315   0.341   5.667  1.00  0.00     0.031 C 
ATOM     19  C   UNL     1       2.951  -4.543   4.474  1.00  0.00     0.029 A 
ATOM     20  N   UNL     1       3.320  -4.129   6.621  1.00  0.00    -0.354 N 
ATOM     21  C   UNL     1       3.471   0.586   7.606  1.00  0.00     0.074 A 
ATOM     22  C   UNL     1       2.703   1.230   6.583  1.00  0.00     0.031 C 
ATOM     23  C   UNL     1       3.193  -5.733   5.064  1.00  0.00     0.029 A 
ATOM     24  C   UNL     1       3.472  -5.532   6.475  1.00  0.00     0.049 A 
ATOM     25  H   UNL     1       3.397  -3.678   7.493  1.00  0.00     0.167 HD
ATOM     26  C   UNL     1       3.699   0.970   8.899  1.00  0.00     0.034 A 
ATOM     27  C   UNL     1       3.827  -6.472   7.405  1.00  0.00     0.034 A 
ATOM     28  C   UNL     1       4.319  -0.089   9.629  1.00  0.00     0.049 A 
ATOM     29  C   UNL     1       3.959  -5.755   8.685  1.00  0.00     0.074 A 
ATOM     30  C   UNL     1       5.569  -0.645   9.667  1.00  0.00     0.029 A 
ATOM     31  N   UNL     1       3.486  -0.858  10.410  1.00  0.00    -0.354 N 
ATOM     32  N   UNL     1       2.970  -5.319   9.401  1.00  0.00    -0.248 NA
ATOM     33  C   UNL     1       5.306  -5.478   9.205  1.00  0.00     0.031 C 
ATOM     34  C   UNL     1       5.364  -1.951  10.171  1.00  0.00     0.029 A 
ATOM     35  C   UNL     1       3.999  -2.128  10.427  1.00  0.00     0.049 A 
ATOM     36  H   UNL     1       2.671  -0.551  10.870  1.00  0.00     0.167 HD
ATOM     37  C   UNL     1       3.580  -4.467  10.289  1.00  0.00     0.074 A 
ATOM     38  C   UNL     1       4.976  -4.840  10.324  1.00  0.00     0.031 C 
ATOM     39  C   UNL     1       3.057  -3.232  10.492  1.00  0.00     0.034 A 
BRANCH  26  40
ATOM     40  C   UNL     1       3.186   2.137   9.726  1.00  0.00     0.023 A 
ATOM     41  C   UNL     1       3.733   2.265  11.032  1.00  0.00     0.031 A 
ATOM     42  C   UNL     1       2.057   2.925   9.465  1.00  0.00     0.131 A 
ATOM     43  C   UNL     1       3.102   3.011  12.035  1.00  0.00     0.055 A 
ATOM     44  C   UNL     1       1.470   3.738  10.450  1.00  0.00     0.041 A 
ATOM     45  F   UNL     1       1.422   2.894   8.288  1.00  0.00    -0.206 F 
ATOM     46  C   UNL     1       1.965   3.754  11.751  1.00  0.00     0.022 A 
BRANCH  43  47
ATOM     47  S   UNL     1       3.688   2.827  13.745  1.00  0.00     0.124 S 
ATOM     48  O   UNL     1       3.737   1.377  13.902  1.00  0.00    -0.237 OA
ATOM     49  O   UNL     1       4.978   3.509  13.697  1.00  0.00    -0.237 OA
ATOM     50  O   UNL     1       2.656   3.502  14.530  1.00  0.00    -0.744 OA
ENDBRANCH  43  47
ENDBRANCH  26  40
BRANCH  27  51
ATOM     51  C   UNL     1       4.148  -7.956   7.443  1.00  0.00     0.023 A 
ATOM     52  C   UNL     1       4.047  -8.844   6.361  1.00  0.00     0.031 A 
ATOM     53  C   UNL     1       4.633  -8.548   8.652  1.00  0.00     0.131 A 
ATOM     54  C   UNL     1       4.463 -10.195   6.492  1.00  0.00     0.055 A 
ATOM     55  C   UNL     1       5.096  -9.861   8.761  1.00  0.00     0.041 A 
ATOM     56  F   UNL     1       4.691  -7.872   9.808  1.00  0.00    -0.206 F 
ATOM     57  C   UNL     1       5.023 -10.694   7.669  1.00  0.00     0.022 A 
BRANCH  54  58
ATOM     58  S   UNL     1       4.315 -11.367   5.112  1.00  0.00     0.124 S 
ATOM     59  O   UNL     1       3.106 -12.102   5.468  1.00  0.00    -0.237 OA
ATOM     60  O   UNL     1       4.213 -10.499   3.943  1.00  0.00    -0.237 OA
ATOM     61  O   UNL     1       5.559 -12.130   5.205  1.00  0.00    -0.744 OA
ENDBRANCH  54  58
ENDBRANCH  27  51
BRANCH  39  62
ATOM     62  C   UNL     1       1.556  -3.149  10.217  1.00  0.00     0.023 A 
ATOM     63  C   UNL     1       0.639  -3.922  10.954  1.00  0.00     0.031 A 
ATOM     64  C   UNL     1       1.022  -2.419   9.141  1.00  0.00     0.131 A 
ATOM     65  C   UNL     1      -0.726  -3.951  10.595  1.00  0.00     0.055 A 
ATOM     66  C   UNL     1      -0.333  -2.422   8.799  1.00  0.00     0.041 A 
ATOM     67  F   UNL     1       1.810  -1.687   8.359  1.00  0.00    -0.206 F 
ATOM     68  C   UNL     1      -1.217  -3.198   9.527  1.00  0.00     0.022 A 
BRANCH  65  69
ATOM     69  S   UNL     1      -1.881  -4.982  11.542  1.00  0.00     0.124 S 
ATOM     70  O   UNL     1      -1.506  -6.333  11.138  1.00  0.00    -0.237 OA
ATOM     71  O   UNL     1      -1.575  -4.619  12.922  1.00  0.00    -0.237 OA
ATOM     72  O   UNL     1      -3.196  -4.542  11.073  1.00  0.00    -0.744 OA
ENDBRANCH  65  69
ENDBRANCH  39  62
ENDBRANCH  13  14
ENDBRANCH   6   8
ENDBRANCH   3   4
ENDBRANCH   2   3
ENDBRANCH   1   2
BRANCH   1  73
ATOM     73  C   UNL     1       4.791  -2.963  -3.218  1.00  0.00     0.116 C 
BRANCH  73  74
ATOM     74  N   UNL     1       6.230  -3.036  -3.405  1.00  0.00    -0.354 N 
ATOM     75  C   UNL     1       6.958  -3.745  -4.316  1.00  0.00     0.249 C 
ATOM     76  H   UNL     1       6.760  -2.490  -2.780  1.00  0.00     0.163 HD
ATOM     77  O   UNL     1       8.178  -3.561  -4.354  1.00  0.00    -0.272 OA
BRANCH  75  78
ATOM     78  C   UNL     1       6.263  -4.754  -5.238  1.00  0.00     0.207 C 
ATOM     79  C   UNL     1       6.572  -6.174  -4.788  1.00  0.00     0.045 C 
ATOM     80  O   UNL     1       6.721  -4.629  -6.595  1.00  0.00    -0.363 OA
ATOM     81  C   UNL     1       6.596  -6.929  -6.093  1.00  0.00     0.037 C 
ATOM     82  C   UNL     1       7.177  -5.910  -7.060  1.00  0.00     0.138 C 
BRANCH  82  83
ATOM     83  C   UNL     1       8.712  -5.899  -7.112  1.00  0.00     0.148 C 
BRANCH  83  84
ATOM     84  N   UNL     1       9.252  -7.069  -7.794  1.00  0.00    -0.348 N 
ATOM     85  C   UNL     1       9.879  -7.161  -9.002  1.00  0.00     0.268 C 
ATOM     86  H   UNL     1       9.149  -7.920  -7.311  1.00  0.00     0.163 HD
ATOM     87  O   UNL     1      10.197  -8.306  -9.386  1.00  0.00    -0.268 OA
BRANCH  85  88
ATOM     88  C   UNL     1      10.212  -5.971  -9.730  1.00  0.00     0.107 A 
ATOM     89  C   UNL     1      11.004  -4.923  -9.255  1.00  0.00     0.033 A 
ATOM     90  N   UNL     1       9.914  -5.652 -11.041  1.00  0.00    -0.340 N 
ATOM     91  C   UNL     1      11.156  -3.963 -10.276  1.00  0.00     0.020 A 
ATOM     92  C   UNL     1      10.486  -4.446 -11.373  1.00  0.00     0.086 A 
BRANCH  90  93
ATOM     93  C   UNL     1       9.059  -6.322 -12.008  1.00  0.00     0.087 C 
ATOM     94  C   UNL     1       8.809  -7.809 -12.116  1.00  0.00     0.027 C 
ATOM     95  C   UNL     1       7.724  -6.923 -11.609  1.00  0.00     0.027 C 
ENDBRANCH  90  93
ENDBRANCH  85  88
ENDBRANCH  83  84
ENDBRANCH  82  83
ENDBRANCH  75  78
ENDBRANCH  73  74
ENDBRANCH   1  73
TORSDOF 18
