REMARK SMILES COc1c[nH]c(C[N@H+]2CCC[C@@H](c3ccc(C(=O)NCCCCNC(=O)c4ccc(-c5c6nc(c(-c7cc(S(=O)(=O)[O-])ccc7F)c7ccc([nH]7)c(-c7cc(S(=O)(=O)[O-])ccc7F)c7nc(c(-c8cc(S(=O)(=O)[O-])ccc8F)c8ccc5[nH]8)C=C7)C=C6)cc4)cc3)C2)cc1=O
REMARK SMILES IDX 21 1 20 2 19 3 17 4 18 5 16 7 13 8 14 9 91 10 15 11 90 12
REMARK SMILES IDX 12 13 8 14 9 15 92 16 10 18 11 19 7 20 6 21 3 22 4 23 94 24
REMARK SMILES IDX 5 25 93 26 95 27 2 29 1 30 22 31 23 32 24 33 25 34 26 36
REMARK SMILES IDX 27 37 28 38 89 39 29 40 88 41 30 42 31 43 32 44 82 45 33 46
REMARK SMILES IDX 87 47 81 48 83 49 34 50 86 51 80 52 79 53 35 55 67 56 47 57
REMARK SMILES IDX 66 58 48 59 51 60 65 61 84 62 49 63 50 64 64 66 85 67 52 68
REMARK SMILES IDX 36 69 37 70 45 71 38 72 44 73 46 74 43 75 39 76 40 77 41 78
REMARK SMILES IDX 42 79 68 80 69 81 77 82 70 83 76 84 78 85 75 86 71 87 72 88
REMARK SMILES IDX 73 89 74 90 53 91 54 92 62 93 55 94 61 95 63 96 60 97 56 98
REMARK SMILES IDX 57 99 58 100 59 101
REMARK H PARENT 19 6 8 17 5 28 24 35 83 54 51 65
REMARK Flexibility Score: inf
ROOT
ATOM      1  C   UNL     1      -6.326   0.063  11.658  1.00  0.00     0.023 C 
ENDROOT
BRANCH   1   2
ATOM      2  C   UNL     1      -6.320  -0.457  10.219  1.00  0.00     0.116 C 
BRANCH   2   3
ATOM      3  N   UNL     1      -6.425   0.644   9.282  1.00  0.00    -0.352 N 
ATOM      4  C   UNL     1      -5.469   1.340   8.588  1.00  0.00     0.251 C 
ATOM      5  O   UNL     1      -5.841   2.230   7.824  1.00  0.00    -0.269 OA
ATOM      6  H   UNL     1      -7.347   0.947   9.115  1.00  0.00     0.163 HD
BRANCH   4   7
ATOM      7  C   UNL     1      -4.016   1.017   8.664  1.00  0.00     0.039 A 
ATOM      8  C   UNL     1      -1.278   0.320   8.573  1.00  0.00    -0.039 A 
ATOM      9  C   UNL     1      -1.903   0.921   7.470  1.00  0.00     0.005 A 
ATOM     10  C   UNL     1      -2.016   0.161   9.749  1.00  0.00     0.005 A 
ATOM     11  C   UNL     1      -3.259   1.250   7.511  1.00  0.00     0.014 A 
ATOM     12  C   UNL     1      -3.364   0.529   9.799  1.00  0.00     0.014 A 
BRANCH   8  13
ATOM     13  C   UNL     1       0.154  -0.186   8.508  1.00  0.00     0.074 C 
ATOM     14  N   UNL     1       1.722  -1.600   7.130  1.00  0.00    -0.329 N 
ATOM     15  C   UNL     1       2.673  -0.483   7.058  1.00  0.00     0.262 C 
ATOM     16  C   UNL     1       0.345  -1.118   7.292  1.00  0.00     0.270 C 
ATOM     17  H   UNL     1       1.950  -2.139   7.966  1.00  0.00     0.348 HD
ATOM     18  C   UNL     1       2.577   0.420   8.291  1.00  0.00     0.062 C 
ATOM     19  C   UNL     1       1.163   0.966   8.472  1.00  0.00     0.020 C 
BRANCH  14  20
ATOM     20  C   UNL     1       1.865  -2.535   5.992  1.00  0.00     0.317 C 
BRANCH  20  21
ATOM     21  C   UNL     1       1.622  -1.954   4.602  1.00  0.00     0.074 A 
ATOM     22  C   UNL     1       0.951  -0.580   2.184  1.00  0.00     0.182 A 
ATOM     23  C   UNL     1       0.033  -0.978   3.076  1.00  0.00     0.133 A 
ATOM     24  C   UNL     1       2.373  -0.992   2.474  1.00  0.00     0.223 A 
ATOM     25  N   UNL     1       0.323  -1.694   4.205  1.00  0.00    -0.357 N 
ATOM     26  C   UNL     1       2.645  -1.671   3.775  1.00  0.00     0.083 A 
ATOM     27  O   UNL     1       3.310  -0.772   1.711  1.00  0.00    -0.286 OA
ATOM     28  H   UNL     1      -0.419  -2.035   4.755  1.00  0.00     0.166 HD
BRANCH  22  29
ATOM     29  O   UNL     1       0.579   0.221   1.121  1.00  0.00    -0.491 OA
ATOM     30  C   UNL     1       1.180  -0.130  -0.118  1.00  0.00     0.278 C 
ENDBRANCH  22  29
ENDBRANCH  20  21
ENDBRANCH  14  20
ENDBRANCH   8  13
ENDBRANCH   4   7
ENDBRANCH   2   3
ENDBRANCH   1   2
BRANCH   1  31
ATOM     31  C   UNL     1      -7.710   0.452  12.182  1.00  0.00     0.023 C 
BRANCH  31  32
ATOM     32  C   UNL     1      -8.700  -0.701  12.283  1.00  0.00     0.116 C 
BRANCH  32  33
ATOM     33  N   UNL     1      -8.225  -1.788  13.123  1.00  0.00    -0.352 N 
ATOM     34  C   UNL     1      -8.961  -2.671  13.880  1.00  0.00     0.251 C 
ATOM     35  H   UNL     1      -7.248  -1.909  13.154  1.00  0.00     0.163 HD
ATOM     36  O   UNL     1      -8.396  -3.455  14.623  1.00  0.00    -0.269 OA
BRANCH  34  37
ATOM     37  C   UNL     1     -10.438  -2.616  13.814  1.00  0.00     0.039 A 
ATOM     38  C   UNL     1     -11.159  -2.597  15.009  1.00  0.00     0.014 A 
ATOM     39  C   UNL     1     -11.103  -2.551  12.587  1.00  0.00     0.014 A 
ATOM     40  C   UNL     1     -12.547  -2.453  14.973  1.00  0.00     0.010 A 
ATOM     41  C   UNL     1     -12.477  -2.333  12.555  1.00  0.00     0.010 A 
ATOM     42  C   UNL     1     -13.213  -2.287  13.748  1.00  0.00    -0.014 A 
BRANCH  42  43
ATOM     43  C   UNL     1     -14.682  -2.071  13.705  1.00  0.00     0.031 A 
ATOM     44  C   UNL     1     -15.577  -3.095  13.063  1.00  0.00     0.074 A 
ATOM     45  C   UNL     1     -15.199  -0.932  14.205  1.00  0.00     0.049 A 
ATOM     46  N   UNL     1     -16.877  -3.081  12.915  1.00  0.00    -0.248 NA
ATOM     47  C   UNL     1     -14.919  -4.273  12.480  1.00  0.00     0.031 C 
ATOM     48  C   UNL     1     -14.422   0.161  14.797  1.00  0.00     0.029 A 
ATOM     49  N   UNL     1     -16.498  -0.501  14.298  1.00  0.00    -0.354 N 
ATOM     50  C   UNL     1     -17.192  -4.242  12.217  1.00  0.00     0.074 A 
ATOM     51  C   UNL     1     -15.938  -4.897  11.910  1.00  0.00     0.031 C 
ATOM     52  C   UNL     1     -15.262   1.119  15.220  1.00  0.00     0.029 A 
ATOM     53  C   UNL     1     -16.632   0.728  14.902  1.00  0.00     0.049 A 
ATOM     54  H   UNL     1     -17.263  -1.022  13.963  1.00  0.00     0.167 HD
ATOM     55  C   UNL     1     -18.414  -4.731  11.888  1.00  0.00     0.034 A 
ATOM     56  C   UNL     1     -17.734   1.454  15.173  1.00  0.00     0.034 A 
ATOM     57  C   UNL     1     -19.654  -4.067  12.213  1.00  0.00     0.049 A 
ATOM     58  C   UNL     1     -19.082   0.886  14.810  1.00  0.00     0.074 A 
ATOM     59  C   UNL     1     -20.949  -4.491  11.974  1.00  0.00     0.029 A 
ATOM     60  N   UNL     1     -19.752  -2.834  12.848  1.00  0.00    -0.354 N 
ATOM     61  N   UNL     1     -19.368  -0.245  14.206  1.00  0.00    -0.248 NA
ATOM     62  C   UNL     1     -20.257   1.681  15.188  1.00  0.00     0.031 C 
ATOM     63  C   UNL     1     -21.827  -3.490  12.408  1.00  0.00     0.029 A 
ATOM     64  C   UNL     1     -21.084  -2.474  12.987  1.00  0.00     0.049 A 
ATOM     65  H   UNL     1     -18.987  -2.295  13.153  1.00  0.00     0.167 HD
ATOM     66  C   UNL     1     -20.758  -0.310  14.162  1.00  0.00     0.074 A 
ATOM     67  C   UNL     1     -21.249   0.886  14.816  1.00  0.00     0.031 C 
ATOM     68  C   UNL     1     -21.557  -1.273  13.635  1.00  0.00     0.034 A 
BRANCH  55  69
ATOM     69  C   UNL     1     -18.455  -6.033  11.122  1.00  0.00     0.023 A 
ATOM     70  C   UNL     1     -17.947  -7.226  11.668  1.00  0.00     0.031 A 
ATOM     71  C   UNL     1     -18.974  -6.078   9.816  1.00  0.00     0.131 A 
ATOM     72  C   UNL     1     -17.890  -8.388  10.884  1.00  0.00     0.055 A 
ATOM     73  C   UNL     1     -18.994  -7.260   9.072  1.00  0.00     0.041 A 
ATOM     74  F   UNL     1     -19.454  -4.969   9.232  1.00  0.00    -0.206 F 
ATOM     75  C   UNL     1     -18.434  -8.421   9.599  1.00  0.00     0.022 A 
BRANCH  72  76
ATOM     76  S   UNL     1     -16.957  -9.811  11.514  1.00  0.00     0.124 S 
ATOM     77  O   UNL     1     -15.625  -9.236  11.685  1.00  0.00    -0.237 OA
ATOM     78  O   UNL     1     -17.674 -10.141  12.740  1.00  0.00    -0.237 OA
ATOM     79  O   UNL     1     -17.069 -10.796  10.441  1.00  0.00    -0.744 OA
ENDBRANCH  72  76
ENDBRANCH  55  69
BRANCH  56  80
ATOM     80  C   UNL     1     -17.619   2.785  15.834  1.00  0.00     0.023 A 
ATOM     81  C   UNL     1     -18.133   2.999  17.123  1.00  0.00     0.031 A 
ATOM     82  C   UNL     1     -17.025   3.873  15.171  1.00  0.00     0.131 A 
ATOM     83  C   UNL     1     -18.089   4.282  17.689  1.00  0.00     0.055 A 
ATOM     84  C   UNL     1     -16.939   5.136  15.759  1.00  0.00     0.041 A 
ATOM     85  F   UNL     1     -16.509   3.720  13.941  1.00  0.00    -0.206 F 
ATOM     86  C   UNL     1     -17.485   5.349  17.021  1.00  0.00     0.022 A 
BRANCH  83  87
ATOM     87  S   UNL     1     -18.908   4.554  19.285  1.00  0.00     0.124 S 
ATOM     88  O   UNL     1     -20.277   4.145  18.991  1.00  0.00    -0.237 OA
ATOM     89  O   UNL     1     -18.150   3.674  20.168  1.00  0.00    -0.237 OA
ATOM     90  O   UNL     1     -18.721   5.984  19.523  1.00  0.00    -0.744 OA
ENDBRANCH  83  87
ENDBRANCH  56  80
BRANCH  68  91
ATOM     91  C   UNL     1     -23.046  -1.086  13.795  1.00  0.00     0.023 A 
ATOM     92  C   UNL     1     -23.735  -0.037  13.160  1.00  0.00     0.031 A 
ATOM     93  C   UNL     1     -23.782  -1.956  14.619  1.00  0.00     0.131 A 
ATOM     94  C   UNL     1     -25.102   0.154  13.411  1.00  0.00     0.055 A 
ATOM     95  C   UNL     1     -25.154  -1.799  14.815  1.00  0.00     0.041 A 
ATOM     96  F   UNL     1     -23.175  -2.974  15.251  1.00  0.00    -0.206 F 
ATOM     97  C   UNL     1     -25.819  -0.729  14.222  1.00  0.00     0.022 A 
BRANCH  94  98
ATOM     98  S   UNL     1     -25.909   1.638  12.750  1.00  0.00     0.124 S 
ATOM     99  O   UNL     1     -25.086   2.706  13.308  1.00  0.00    -0.237 OA
ATOM    100  O   UNL     1     -25.799   1.435  11.309  1.00  0.00    -0.237 OA
ATOM    101  O   UNL     1     -27.267   1.557  13.285  1.00  0.00    -0.744 OA
ENDBRANCH  94  98
ENDBRANCH  68  91
ENDBRANCH  42  43
ENDBRANCH  34  37
ENDBRANCH  32  33
ENDBRANCH  31  32
ENDBRANCH   1  31
TORSDOF 18
