REMARK SMILES O=C(NCCCCNC(=O)[C@H]1CC[NH2+][C@@H]1c1cccc(F)c1)c1ccc(-c2c3nc(c(-c4cc(S(=O)(=O)[O-])ccc4F)c4ccc([nH]4)c(-c4cc(S(=O)(=O)[O-])ccc4F)c4nc(c(-c5cc(S(=O)(=O)[O-])ccc5F)c5ccc2[nH]5)C=C4)C=C3)cc1
REMARK SMILES IDX 4 1 3 2 1 3 2 4 23 6 24 7 85 8 25 9 84 10 26 11 27 12 28 13
REMARK SMILES IDX 78 14 29 15 83 16 77 17 79 18 30 19 82 20 76 21 75 22 31 24
REMARK SMILES IDX 63 25 43 26 62 27 44 28 47 29 61 30 80 31 45 32 46 33 60 35
REMARK SMILES IDX 81 36 48 37 32 38 33 39 41 40 34 41 40 42 42 43 39 44 35 45
REMARK SMILES IDX 36 46 37 47 38 48 64 49 65 50 73 51 66 52 72 53 74 54 71 55
REMARK SMILES IDX 67 56 68 57 69 58 70 59 49 60 50 61 58 62 51 63 57 64 59 65
REMARK SMILES IDX 56 66 52 67 53 68 54 69 55 70 5 71 6 72 7 73 8 74 9 75 10 77
REMARK SMILES IDX 11 78 12 79 15 80 13 81 14 82 16 85 17 86 22 87 18 88 20 89
REMARK SMILES IDX 19 90 21 91
REMARK H PARENT 3 5 79 23 47 34 8 76 14 83 14 84
REMARK Flexibility Score: inf
ROOT
ATOM      1  C   UNL     1       9.258   2.041   7.337  1.00  0.00     0.116 C 
ENDROOT
BRANCH   1   2
ATOM      2  N   UNL     1       9.151   0.633   6.988  1.00  0.00    -0.352 N 
ATOM      3  O   UNL     1       9.459  -1.585   7.250  1.00  0.00    -0.269 OA
ATOM      4  C   UNL     1       9.495  -0.461   7.744  1.00  0.00     0.251 C 
ATOM      5  H   UNL     1       8.786   0.439   6.094  1.00  0.00     0.163 HD
BRANCH   4   6
ATOM      6  C   UNL     1       9.927  -0.273   9.145  1.00  0.00     0.039 A 
ATOM      7  C   UNL     1       9.196   0.545  10.011  1.00  0.00     0.014 A 
ATOM      8  C   UNL     1      11.073  -0.934   9.597  1.00  0.00     0.014 A 
ATOM      9  C   UNL     1       9.664   0.777  11.300  1.00  0.00     0.010 A 
ATOM     10  C   UNL     1      11.505  -0.752  10.913  1.00  0.00     0.010 A 
ATOM     11  C   UNL     1      10.807   0.111  11.770  1.00  0.00    -0.014 A 
BRANCH  11  12
ATOM     12  C   UNL     1      11.188   0.246  13.197  1.00  0.00     0.031 A 
ATOM     13  C   UNL     1      12.438   0.962  13.611  1.00  0.00     0.074 A 
ATOM     14  C   UNL     1      10.357  -0.268  14.124  1.00  0.00     0.049 A 
ATOM     15  N   UNL     1      12.906   1.168  14.815  1.00  0.00    -0.248 NA
ATOM     16  C   UNL     1      13.273   1.515  12.536  1.00  0.00     0.031 C 
ATOM     17  C   UNL     1       9.105  -0.971  13.829  1.00  0.00     0.029 A 
ATOM     18  N   UNL     1      10.418  -0.256  15.492  1.00  0.00    -0.354 N 
ATOM     19  C   UNL     1      14.093   1.872  14.649  1.00  0.00     0.074 A 
ATOM     20  C   UNL     1      14.287   2.029  13.221  1.00  0.00     0.031 C 
ATOM     21  C   UNL     1       8.486  -1.264  14.980  1.00  0.00     0.029 A 
ATOM     22  C   UNL     1       9.326  -0.835  16.092  1.00  0.00     0.049 A 
ATOM     23  H   UNL     1      11.170   0.131  15.996  1.00  0.00     0.167 HD
ATOM     24  C   UNL     1      14.934   2.345  15.602  1.00  0.00     0.034 A 
ATOM     25  C   UNL     1       9.034  -1.014  17.393  1.00  0.00     0.034 A 
ATOM     26  C   UNL     1      14.730   2.162  17.021  1.00  0.00     0.049 A 
ATOM     27  C   UNL     1      10.009  -0.541  18.428  1.00  0.00     0.074 A 
ATOM     28  C   UNL     1      15.528   2.586  18.071  1.00  0.00     0.029 A 
ATOM     29  N   UNL     1      13.651   1.496  17.592  1.00  0.00    -0.354 N 
ATOM     30  N   UNL     1      11.155   0.074  18.254  1.00  0.00    -0.248 NA
ATOM     31  C   UNL     1       9.660  -0.793  19.829  1.00  0.00     0.031 C 
ATOM     32  C   UNL     1      14.963   2.130  19.267  1.00  0.00     0.029 A 
ATOM     33  C   UNL     1      13.774   1.480  18.974  1.00  0.00     0.049 A 
ATOM     34  H   UNL     1      12.907   1.094  17.088  1.00  0.00     0.167 HD
ATOM     35  C   UNL     1      11.662   0.295  19.529  1.00  0.00     0.074 A 
ATOM     36  C   UNL     1      10.693  -0.251  20.461  1.00  0.00     0.031 C 
ATOM     37  C   UNL     1      12.818   0.905  19.891  1.00  0.00     0.034 A 
BRANCH  24  38
ATOM     38  C   UNL     1      16.176   3.063  15.135  1.00  0.00     0.023 A 
ATOM     39  C   UNL     1      16.108   4.299  14.469  1.00  0.00     0.031 A 
ATOM     40  C   UNL     1      17.447   2.499  15.347  1.00  0.00     0.131 A 
ATOM     41  C   UNL     1      17.281   4.902  13.988  1.00  0.00     0.055 A 
ATOM     42  C   UNL     1      18.616   3.137  14.927  1.00  0.00     0.041 A 
ATOM     43  F   UNL     1      17.573   1.311  15.960  1.00  0.00    -0.206 F 
ATOM     44  C   UNL     1      18.536   4.340  14.233  1.00  0.00     0.022 A 
BRANCH  41  45
ATOM     45  S   UNL     1      17.135   6.374  12.938  1.00  0.00     0.124 S 
ATOM     46  O   UNL     1      16.359   5.858  11.813  1.00  0.00    -0.237 OA
ATOM     47  O   UNL     1      16.445   7.317  13.810  1.00  0.00    -0.237 OA
ATOM     48  O   UNL     1      18.522   6.712  12.627  1.00  0.00    -0.744 OA
ENDBRANCH  41  45
ENDBRANCH  24  38
BRANCH  25  49
ATOM     49  C   UNL     1       7.761  -1.684  17.761  1.00  0.00     0.023 A 
ATOM     50  C   UNL     1       6.685  -0.946  18.273  1.00  0.00     0.031 A 
ATOM     51  C   UNL     1       7.579  -3.058  17.523  1.00  0.00     0.131 A 
ATOM     52  C   UNL     1       5.464  -1.589  18.530  1.00  0.00     0.055 A 
ATOM     53  C   UNL     1       6.355  -3.685  17.752  1.00  0.00     0.041 A 
ATOM     54  F   UNL     1       8.577  -3.794  17.011  1.00  0.00    -0.206 F 
ATOM     55  C   UNL     1       5.288  -2.949  18.259  1.00  0.00     0.022 A 
BRANCH  52  56
ATOM     56  S   UNL     1       4.089  -0.615  19.200  1.00  0.00     0.124 S 
ATOM     57  O   UNL     1       4.567  -0.312  20.544  1.00  0.00    -0.237 OA
ATOM     58  O   UNL     1       4.026   0.510  18.272  1.00  0.00    -0.237 OA
ATOM     59  O   UNL     1       2.956  -1.536  19.131  1.00  0.00    -0.744 OA
ENDBRANCH  52  56
ENDBRANCH  25  49
BRANCH  37  60
ATOM     60  C   UNL     1      13.083   1.039  21.367  1.00  0.00     0.023 A 
ATOM     61  C   UNL     1      13.431  -0.069  22.158  1.00  0.00     0.031 A 
ATOM     62  C   UNL     1      12.992   2.299  21.984  1.00  0.00     0.131 A 
ATOM     63  C   UNL     1      13.640   0.099  23.535  1.00  0.00     0.055 A 
ATOM     64  C   UNL     1      13.245   2.467  23.345  1.00  0.00     0.041 A 
ATOM     65  F   UNL     1      12.660   3.386  21.270  1.00  0.00    -0.206 F 
ATOM     66  C   UNL     1      13.565   1.362  24.130  1.00  0.00     0.022 A 
BRANCH  63  67
ATOM     67  S   UNL     1      13.967  -1.364  24.555  1.00  0.00     0.124 S 
ATOM     68  O   UNL     1      12.715  -2.105  24.429  1.00  0.00    -0.237 OA
ATOM     69  O   UNL     1      15.127  -1.956  23.896  1.00  0.00    -0.237 OA
ATOM     70  O   UNL     1      14.226  -0.807  25.881  1.00  0.00    -0.744 OA
ENDBRANCH  63  67
ENDBRANCH  37  60
ENDBRANCH  11  12
ENDBRANCH   4   6
ENDBRANCH   1   2
BRANCH   1  71
ATOM     71  C   UNL     1       9.732   2.905   6.175  1.00  0.00     0.023 C 
BRANCH  71  72
ATOM     72  C   UNL     1       8.851   2.858   4.922  1.00  0.00     0.023 C 
BRANCH  72  73
ATOM     73  C   UNL     1       7.372   3.154   5.170  1.00  0.00     0.116 C 
BRANCH  73  74
ATOM     74  N   UNL     1       7.172   4.501   5.667  1.00  0.00    -0.356 N 
ATOM     75  C   UNL     1       6.774   5.622   4.999  1.00  0.00     0.229 C 
ATOM     76  H   UNL     1       7.349   4.625   6.628  1.00  0.00     0.163 HD
ATOM     77  O   UNL     1       6.729   6.685   5.616  1.00  0.00    -0.275 OA
BRANCH  75  78
ATOM     78  C   UNL     1       6.326   5.494   3.557  1.00  0.00     0.147 C 
ATOM     79  C   UNL     1       4.849   5.136   3.494  1.00  0.00     0.081 C 
ATOM     80  C   UNL     1       6.418   6.823   2.781  1.00  0.00     0.226 C 
ATOM     81  C   UNL     1       4.469   5.623   2.117  1.00  0.00     0.262 C 
ATOM     82  N   UNL     1       5.163   6.903   1.975  1.00  0.00    -0.339 N 
ATOM     83  H   UNL     1       4.574   7.660   2.321  1.00  0.00     0.346 HD
ATOM     84  H   UNL     1       5.376   7.091   0.995  1.00  0.00     0.346 HD
BRANCH  80  85
ATOM     85  C   UNL     1       7.641   7.020   1.891  1.00  0.00     0.013 A 
ATOM     86  C   UNL     1       7.690   8.143   1.039  1.00  0.00     0.010 A 
ATOM     87  C   UNL     1       8.757   6.171   1.903  1.00  0.00     0.049 A 
ATOM     88  C   UNL     1       8.789   8.387   0.209  1.00  0.00     0.004 A 
ATOM     89  C   UNL     1       9.843   6.413   1.064  1.00  0.00     0.123 A 
ATOM     90  C   UNL     1       9.869   7.511   0.216  1.00  0.00     0.039 A 
ATOM     91  F   UNL     1      10.882   5.566   1.076  1.00  0.00    -0.207 F 
ENDBRANCH  80  85
ENDBRANCH  75  78
ENDBRANCH  73  74
ENDBRANCH  72  73
ENDBRANCH  71  72
ENDBRANCH   1  71
TORSDOF 15
