REMARK SMILES COC(=O)c1c(NC(=O)[C@@H]2[C@H]3CC[C@H](CC3)[C@H]2C(=O)NCCCCNC(=O)c2ccc(-c3c4nc(c(-c5cc(S(=O)(=O)[O-])ccc5F)c5ccc([nH]5)c(-c5cc(S(=O)(=O)[O-])ccc5F)c5nc(c(-c6cc(S(=O)(=O)[O-])ccc6F)c6ccc3[nH]6)C=C5)C=C4)cc2)sc(C)c1-c1ccc(C)cc1
REMARK SMILES IDX 22 1 21 2 20 3 18 4 19 5 17 7 10 8 11 9 16 10 12 11 14 12
REMARK SMILES IDX 15 13 13 14 8 15 7 16 9 18 6 19 5 20 94 21 91 22 92 23 93 24
REMARK SMILES IDX 3 25 4 26 2 27 1 28 95 29 96 30 101 31 97 32 100 33 98 34
REMARK SMILES IDX 99 35 23 36 24 37 25 38 26 39 27 41 28 42 29 43 90 44 30 45
REMARK SMILES IDX 89 46 31 47 32 48 33 49 83 50 34 51 88 52 82 53 84 54 35 55
REMARK SMILES IDX 87 56 81 57 80 58 36 60 68 61 48 62 67 63 49 64 52 65 66 66
REMARK SMILES IDX 85 67 50 68 51 69 65 71 86 72 53 73 37 74 38 75 46 76 39 77
REMARK SMILES IDX 45 78 47 79 44 80 40 81 41 82 42 83 43 84 69 85 70 86 78 87
REMARK SMILES IDX 71 88 77 89 79 90 76 91 72 92 73 93 74 94 75 95 54 96 55 97
REMARK SMILES IDX 63 98 56 99 62 100 64 101 61 102 57 103 58 104 59 105 60 106
REMARK H PARENT 20 6 7 17 25 40 84 59 52 70
REMARK Flexibility Score: inf
ROOT
ATOM      1  C   UNL     1       3.795   6.023   0.405  1.00  0.00     0.023 C 
ENDROOT
BRANCH   1   2
ATOM      2  C   UNL     1       3.162   7.398   0.262  1.00  0.00     0.116 C 
BRANCH   2   3
ATOM      3  N   UNL     1       3.952   8.414  -0.383  1.00  0.00    -0.356 N 
ATOM      4  C   UNL     1       3.647   9.241  -1.421  1.00  0.00     0.224 C 
ATOM      5  O   UNL     1       4.345  10.259  -1.529  1.00  0.00    -0.275 OA
ATOM      6  H   UNL     1       4.858   8.530  -0.015  1.00  0.00     0.163 HD
BRANCH   4   7
ATOM      7  C   UNL     1       2.508   9.015  -2.441  1.00  0.00     0.094 C 
ATOM      8  C   UNL     1       2.077   7.574  -2.826  1.00  0.00     0.094 C 
ATOM      9  C   UNL     1       0.509   7.468  -2.574  1.00  0.00     0.002 C 
ATOM     10  C   UNL     1       0.079   7.864  -1.140  1.00  0.00     0.005 C 
ATOM     11  C   UNL     1      -0.237   8.482  -3.477  1.00  0.00     0.005 C 
ATOM     12  C   UNL     1       1.283   9.881  -2.034  1.00  0.00     0.002 C 
ATOM     13  C   UNL     1       0.569   9.280  -0.813  1.00  0.00     0.005 C 
ATOM     14  C   UNL     1       0.289   9.897  -3.210  1.00  0.00     0.005 C 
BRANCH   8  15
ATOM     15  C   UNL     1       2.365   7.143  -4.300  1.00  0.00     0.229 C 
ATOM     16  N   UNL     1       3.513   7.338  -5.005  1.00  0.00    -0.317 N 
ATOM     17  H   UNL     1       3.393   7.209  -5.973  1.00  0.00     0.170 HD
ATOM     18  O   UNL     1       1.485   6.538  -4.936  1.00  0.00    -0.274 OA
BRANCH  16  19
ATOM     19  C   UNL     1       4.805   7.677  -4.668  1.00  0.00     0.111 A 
ATOM     20  C   UNL     1       5.846   8.053  -5.513  1.00  0.00     0.102 A 
ATOM     21  C   UNL     1       6.975   8.548  -4.733  1.00  0.00     0.012 A 
ATOM     22  S   UNL     1       5.396   7.383  -3.118  1.00  0.00    -0.122 S 
ATOM     23  C   UNL     1       6.733   8.417  -3.372  1.00  0.00     0.012 A 
ATOM     24  C   UNL     1       7.441   8.990  -2.186  1.00  0.00     0.057 C 
BRANCH  20  25
ATOM     25  C   UNL     1       5.744   7.995  -6.969  1.00  0.00     0.341 C 
ATOM     26  O   UNL     1       4.668   7.964  -7.568  1.00  0.00    -0.246 OA
BRANCH  25  27
ATOM     27  O   UNL     1       6.957   7.916  -7.580  1.00  0.00    -0.465 OA
ATOM     28  C   UNL     1       6.936   7.860  -9.005  1.00  0.00     0.282 C 
ENDBRANCH  25  27
ENDBRANCH  20  25
BRANCH  21  29
ATOM     29  C   UNL     1       8.208   9.162  -5.229  1.00  0.00    -0.016 A 
ATOM     30  C   UNL     1       8.178  10.258  -6.100  1.00  0.00     0.009 A 
ATOM     31  C   UNL     1       9.446   8.613  -4.871  1.00  0.00     0.009 A 
ATOM     32  C   UNL     1       9.369  10.773  -6.626  1.00  0.00     0.004 A 
ATOM     33  C   UNL     1      10.634   9.144  -5.375  1.00  0.00     0.004 A 
ATOM     34  C   UNL     1      10.605  10.221  -6.265  1.00  0.00    -0.051 A 
ATOM     35  C   UNL     1      11.876  10.746  -6.863  1.00  0.00     0.044 C 
ENDBRANCH  21  29
ENDBRANCH  16  19
ENDBRANCH   8  15
ENDBRANCH   4   7
ENDBRANCH   2   3
ENDBRANCH   1   2
BRANCH   1  36
ATOM     36  C   UNL     1       4.876   5.888   1.466  1.00  0.00     0.023 C 
BRANCH  36  37
ATOM     37  C   UNL     1       4.615   6.619   2.775  1.00  0.00     0.116 C 
BRANCH  37  38
ATOM     38  N   UNL     1       3.330   6.311   3.394  1.00  0.00    -0.352 N 
ATOM     39  C   UNL     1       3.046   6.134   4.730  1.00  0.00     0.251 C 
ATOM     40  H   UNL     1       2.569   6.216   2.777  1.00  0.00     0.163 HD
ATOM     41  O   UNL     1       1.908   5.855   5.092  1.00  0.00    -0.269 OA
BRANCH  39  42
ATOM     42  C   UNL     1       4.154   6.218   5.701  1.00  0.00     0.039 A 
ATOM     43  C   UNL     1       4.389   5.133   6.546  1.00  0.00     0.014 A 
ATOM     44  C   UNL     1       5.033   7.303   5.671  1.00  0.00     0.014 A 
ATOM     45  C   UNL     1       5.568   5.089   7.289  1.00  0.00     0.010 A 
ATOM     46  C   UNL     1       6.250   7.208   6.331  1.00  0.00     0.010 A 
ATOM     47  C   UNL     1       6.535   6.098   7.143  1.00  0.00    -0.014 A 
BRANCH  47  48
ATOM     48  C   UNL     1       7.851   6.014   7.827  1.00  0.00     0.031 A 
ATOM     49  C   UNL     1       8.249   7.079   8.811  1.00  0.00     0.074 A 
ATOM     50  C   UNL     1       8.715   5.030   7.507  1.00  0.00     0.049 A 
ATOM     51  N   UNL     1       9.376   7.234   9.456  1.00  0.00    -0.248 NA
ATOM     52  C   UNL     1       7.258   8.133   9.069  1.00  0.00     0.031 C 
ATOM     53  C   UNL     1       8.464   3.965   6.532  1.00  0.00     0.029 A 
ATOM     54  N   UNL     1       9.980   4.763   7.967  1.00  0.00    -0.354 N 
ATOM     55  C   UNL     1       9.236   8.412  10.181  1.00  0.00     0.074 A 
ATOM     56  C   UNL     1       7.950   8.971   9.824  1.00  0.00     0.031 C 
ATOM     57  C   UNL     1       9.520   3.136   6.504  1.00  0.00     0.029 A 
ATOM     58  C   UNL     1      10.543   3.635   7.418  1.00  0.00     0.049 A 
ATOM     59  H   UNL     1      10.441   5.327   8.629  1.00  0.00     0.167 HD
ATOM     60  C   UNL     1      10.085   8.961  11.085  1.00  0.00     0.034 A 
ATOM     61  C   UNL     1      11.747   3.067   7.628  1.00  0.00     0.034 A 
ATOM     62  C   UNL     1      11.359   8.382  11.435  1.00  0.00     0.049 A 
ATOM     63  C   UNL     1      12.695   3.714   8.606  1.00  0.00     0.074 A 
ATOM     64  C   UNL     1      12.273   8.811  12.381  1.00  0.00     0.029 A 
ATOM     65  N   UNL     1      11.906   7.249  10.842  1.00  0.00    -0.354 N 
ATOM     66  N   UNL     1      12.526   4.796   9.330  1.00  0.00    -0.248 NA
ATOM     67  C   UNL     1      13.994   3.058   8.796  1.00  0.00     0.031 C 
ATOM     68  C   UNL     1      13.401   7.986  12.307  1.00  0.00     0.029 A 
ATOM     69  C   UNL     1      13.161   6.990  11.374  1.00  0.00     0.049 A 
ATOM     70  H   UNL     1      11.467   6.710  10.146  1.00  0.00     0.167 HD
ATOM     71  C   UNL     1      13.685   4.928  10.090  1.00  0.00     0.074 A 
ATOM     72  C   UNL     1      14.539   3.811   9.740  1.00  0.00     0.031 C 
ATOM     73  C   UNL     1      14.010   5.881  11.002  1.00  0.00     0.034 A 
BRANCH  60  74
ATOM     74  C   UNL     1       9.661  10.266  11.722  1.00  0.00     0.023 A 
ATOM     75  C   UNL     1       8.469  10.371  12.463  1.00  0.00     0.031 A 
ATOM     76  C   UNL     1      10.412  11.437  11.523  1.00  0.00     0.131 A 
ATOM     77  C   UNL     1       8.007  11.629  12.874  1.00  0.00     0.055 A 
ATOM     78  C   UNL     1       9.997  12.672  12.026  1.00  0.00     0.041 A 
ATOM     79  F   UNL     1      11.548  11.409  10.809  1.00  0.00    -0.206 F 
ATOM     80  C   UNL     1       8.776  12.778  12.685  1.00  0.00     0.022 A 
BRANCH  77  81
ATOM     81  S   UNL     1       6.298  11.765  13.472  1.00  0.00     0.124 S 
ATOM     82  O   UNL     1       5.548  11.210  12.347  1.00  0.00    -0.237 OA
ATOM     83  O   UNL     1       6.324  10.956  14.685  1.00  0.00    -0.237 OA
ATOM     84  O   UNL     1       6.121  13.200  13.680  1.00  0.00    -0.744 OA
ENDBRANCH  77  81
ENDBRANCH  60  74
BRANCH  61  85
ATOM     85  C   UNL     1      12.125   1.811   6.920  1.00  0.00     0.023 A 
ATOM     86  C   UNL     1      12.318   0.618   7.635  1.00  0.00     0.031 A 
ATOM     87  C   UNL     1      12.327   1.787   5.529  1.00  0.00     0.131 A 
ATOM     88  C   UNL     1      12.738  -0.540   6.964  1.00  0.00     0.055 A 
ATOM     89  C   UNL     1      12.698   0.619   4.859  1.00  0.00     0.041 A 
ATOM     90  F   UNL     1      12.150   2.898   4.797  1.00  0.00    -0.206 F 
ATOM     91  C   UNL     1      12.917  -0.551   5.579  1.00  0.00     0.022 A 
BRANCH  88  92
ATOM     92  S   UNL     1      13.113  -2.022   7.941  1.00  0.00     0.124 S 
ATOM     93  O   UNL     1      14.185  -1.544   8.806  1.00  0.00    -0.237 OA
ATOM     94  O   UNL     1      11.833  -2.288   8.591  1.00  0.00    -0.237 OA
ATOM     95  O   UNL     1      13.512  -3.002   6.934  1.00  0.00    -0.744 OA
ENDBRANCH  88  92
ENDBRANCH  61  85
BRANCH  73  96
ATOM     96  C   UNL     1      15.331   5.723  11.716  1.00  0.00     0.023 A 
ATOM     97  C   UNL     1      16.558   5.834  11.040  1.00  0.00     0.031 A 
ATOM     98  C   UNL     1      15.359   5.444  13.094  1.00  0.00     0.131 A 
ATOM     99  C   UNL     1      17.759   5.611  11.730  1.00  0.00     0.055 A 
ATOM    100  C   UNL     1      16.558   5.286  13.789  1.00  0.00     0.041 A 
ATOM    101  F   UNL     1      14.217   5.323  13.790  1.00  0.00    -0.206 F 
ATOM    102  C   UNL     1      17.768   5.356  13.104  1.00  0.00     0.022 A 
BRANCH  99 103
ATOM    103  S   UNL     1      19.310   5.563  10.790  1.00  0.00     0.124 S 
ATOM    104  O   UNL     1      19.053   4.489   9.836  1.00  0.00    -0.237 OA
ATOM    105  O   UNL     1      19.378   6.909  10.230  1.00  0.00    -0.237 OA
ATOM    106  O   UNL     1      20.318   5.263  11.805  1.00  0.00    -0.744 OA
ENDBRANCH  99 103
ENDBRANCH  73  96
ENDBRANCH  47  48
ENDBRANCH  39  42
ENDBRANCH  37  38
ENDBRANCH  36  37
ENDBRANCH   1  36
TORSDOF 19
