REMARK SMILES C[C@]1(c2nnnn2CCC(=O)NCCCCNC(=O)c2ccc(-c3c4nc(c(-c5cc(S(=O)(=O)[O-])ccc5F)c5ccc([nH]5)c(-c5cc(S(=O)(=O)[O-])ccc5F)c5nc(c(-c6cc(S(=O)(=O)[O-])ccc6F)c6ccc3[nH]6)C=C5)C=C4)cc2)CCCO1
REMARK SMILES IDX 14 1 13 2 12 3 10 4 11 5 9 7 8 8 7 9 3 10 4 11 5 12 6 13
REMARK SMILES IDX 2 14 1 15 83 16 86 17 84 18 85 19 15 20 16 21 17 22 18 23
REMARK SMILES IDX 19 25 20 26 21 27 82 28 22 29 81 30 23 31 24 32 25 33 75 34
REMARK SMILES IDX 26 35 80 36 74 37 76 38 27 39 79 40 73 41 72 42 28 44 60 45
REMARK SMILES IDX 40 46 59 47 41 48 44 49 58 50 77 51 42 52 43 53 57 55 78 56
REMARK SMILES IDX 45 57 29 58 30 59 38 60 31 61 37 62 39 63 36 64 32 65 33 66
REMARK SMILES IDX 34 67 35 68 61 69 62 70 70 71 63 72 69 73 71 74 68 75 64 76
REMARK SMILES IDX 65 77 66 78 67 79 46 80 47 81 55 82 48 83 54 84 56 85 53 86
REMARK SMILES IDX 49 87 50 88 51 89 52 90
REMARK H PARENT 12 6 17 24 76 43 44 54
REMARK Flexibility Score: inf
ROOT
ATOM      1  C   UNL     1       2.165   1.522   2.750  1.00  0.00     0.023 C 
ENDROOT
BRANCH   1   2
ATOM      2  C   UNL     1       1.166   0.557   3.384  1.00  0.00     0.116 C 
BRANCH   2   3
ATOM      3  N   UNL     1      -0.100   1.224   3.650  1.00  0.00    -0.356 N 
ATOM      4  C   UNL     1      -1.224   1.312   2.886  1.00  0.00     0.221 C 
ATOM      5  O   UNL     1      -2.107   2.104   3.223  1.00  0.00    -0.275 OA
ATOM      6  H   UNL     1      -0.152   1.684   4.518  1.00  0.00     0.163 HD
BRANCH   4   7
ATOM      7  C   UNL     1      -1.416   0.440   1.661  1.00  0.00     0.124 C 
BRANCH   7   8
ATOM      8  C   UNL     1      -1.306   1.239   0.366  1.00  0.00     0.158 C 
BRANCH   8   9
ATOM      9  N   UNL     1       0.040   1.306  -0.158  1.00  0.00    -0.226 N 
ATOM     10  C   UNL     1       0.829   0.390  -0.811  1.00  0.00     0.183 A 
ATOM     11  N   UNL     1       2.062   0.873  -0.801  1.00  0.00    -0.111 NA
ATOM     12  N   UNL     1       1.971   2.163  -0.367  1.00  0.00    -0.024 NA
ATOM     13  N   UNL     1       0.727   2.457  -0.029  1.00  0.00    -0.045 NA
BRANCH  10  14
ATOM     14  C   UNL     1       0.408  -0.776  -1.645  1.00  0.00     0.126 C 
ATOM     15  C   UNL     1       0.944  -0.538  -3.072  1.00  0.00     0.051 C 
ATOM     16  C   UNL     1       0.832  -2.134  -1.098  1.00  0.00     0.046 C 
ATOM     17  O   UNL     1      -1.027  -0.850  -1.726  1.00  0.00    -0.367 OA
ATOM     18  C   UNL     1      -0.137  -3.063  -1.796  1.00  0.00     0.032 C 
ATOM     19  C   UNL     1      -1.407  -2.234  -1.838  1.00  0.00     0.161 C 
ENDBRANCH  10  14
ENDBRANCH   8   9
ENDBRANCH   7   8
ENDBRANCH   4   7
ENDBRANCH   2   3
ENDBRANCH   1   2
BRANCH   1  20
ATOM     20  C   UNL     1       2.967   2.420   3.691  1.00  0.00     0.023 C 
BRANCH  20  21
ATOM     21  C   UNL     1       4.044   1.699   4.485  1.00  0.00     0.116 C 
BRANCH  21  22
ATOM     22  N   UNL     1       5.037   1.044   3.636  1.00  0.00    -0.352 N 
ATOM     23  C   UNL     1       5.902   0.032   3.995  1.00  0.00     0.251 C 
ATOM     24  H   UNL     1       5.095   1.361   2.705  1.00  0.00     0.163 HD
ATOM     25  O   UNL     1       6.892  -0.236   3.323  1.00  0.00    -0.269 OA
BRANCH  23  26
ATOM     26  C   UNL     1       5.606  -0.698   5.238  1.00  0.00     0.039 A 
ATOM     27  C   UNL     1       6.488  -0.621   6.312  1.00  0.00     0.014 A 
ATOM     28  C   UNL     1       4.345  -1.284   5.373  1.00  0.00     0.014 A 
ATOM     29  C   UNL     1       6.041  -1.020   7.568  1.00  0.00     0.010 A 
ATOM     30  C   UNL     1       3.878  -1.599   6.638  1.00  0.00     0.010 A 
ATOM     31  C   UNL     1       4.710  -1.448   7.750  1.00  0.00    -0.014 A 
BRANCH  31  32
ATOM     32  C   UNL     1       4.178  -1.514   9.123  1.00  0.00     0.031 A 
ATOM     33  C   UNL     1       4.500  -0.335   9.978  1.00  0.00     0.074 A 
ATOM     34  C   UNL     1       3.283  -2.401   9.609  1.00  0.00     0.049 A 
ATOM     35  N   UNL     1       5.303  -0.291  10.990  1.00  0.00    -0.248 NA
ATOM     36  C   UNL     1       3.955   0.979   9.600  1.00  0.00     0.031 C 
ATOM     37  C   UNL     1       2.563  -3.435   8.864  1.00  0.00     0.029 A 
ATOM     38  N   UNL     1       2.745  -2.497  10.868  1.00  0.00    -0.354 N 
ATOM     39  C   UNL     1       5.155   0.980  11.540  1.00  0.00     0.074 A 
ATOM     40  C   UNL     1       4.487   1.766  10.538  1.00  0.00     0.031 C 
ATOM     41  C   UNL     1       1.528  -3.885   9.605  1.00  0.00     0.029 A 
ATOM     42  C   UNL     1       1.627  -3.317  10.939  1.00  0.00     0.049 A 
ATOM     43  H   UNL     1       3.117  -2.027  11.649  1.00  0.00     0.167 HD
ATOM     44  C   UNL     1       5.342   1.181  12.875  1.00  0.00     0.034 A 
ATOM     45  C   UNL     1       0.828  -3.567  12.004  1.00  0.00     0.034 A 
ATOM     46  C   UNL     1       5.983   0.035  13.480  1.00  0.00     0.049 A 
ATOM     47  C   UNL     1       1.633  -3.402  13.233  1.00  0.00     0.074 A 
ATOM     48  C   UNL     1       7.240  -0.523  13.532  1.00  0.00     0.029 A 
ATOM     49  N   UNL     1       5.105  -0.905  13.948  1.00  0.00    -0.354 N 
ATOM     50  N   UNL     1       2.685  -4.129  13.496  1.00  0.00    -0.248 NA
ATOM     51  C   UNL     1       1.471  -2.225  14.078  1.00  0.00     0.031 C 
ATOM     52  C   UNL     1       7.052  -1.901  13.865  1.00  0.00     0.029 A 
ATOM     53  C   UNL     1       5.690  -2.141  14.033  1.00  0.00     0.049 A 
ATOM     54  H   UNL     1       4.170  -0.717  14.193  1.00  0.00     0.167 HD
ATOM     55  C   UNL     1       3.517  -3.294  14.209  1.00  0.00     0.074 A 
ATOM     56  C   UNL     1       2.657  -2.224  14.694  1.00  0.00     0.031 C 
ATOM     57  C   UNL     1       4.870  -3.342  14.039  1.00  0.00     0.034 A 
BRANCH  44  58
ATOM     58  C   UNL     1       4.547   2.142  13.754  1.00  0.00     0.023 A 
ATOM     59  C   UNL     1       4.828   2.121  15.140  1.00  0.00     0.031 A 
ATOM     60  C   UNL     1       3.358   2.809  13.389  1.00  0.00     0.131 A 
ATOM     61  C   UNL     1       3.916   2.634  16.081  1.00  0.00     0.055 A 
ATOM     62  C   UNL     1       2.479   3.367  14.326  1.00  0.00     0.041 A 
ATOM     63  F   UNL     1       2.927   2.884  12.126  1.00  0.00    -0.206 F 
ATOM     64  C   UNL     1       2.738   3.254  15.681  1.00  0.00     0.022 A 
BRANCH  61  65
ATOM     65  S   UNL     1       4.218   2.329  17.843  1.00  0.00     0.124 S 
ATOM     66  O   UNL     1       4.338   0.877  17.878  1.00  0.00    -0.237 OA
ATOM     67  O   UNL     1       5.444   3.086  18.073  1.00  0.00    -0.237 OA
ATOM     68  O   UNL     1       3.024   2.872  18.489  1.00  0.00    -0.744 OA
ENDBRANCH  61  65
ENDBRANCH  44  58
BRANCH  45  69
ATOM     69  C   UNL     1      -0.635  -3.813  11.989  1.00  0.00     0.023 A 
ATOM     70  C   UNL     1      -1.308  -4.450  13.048  1.00  0.00     0.031 A 
ATOM     71  C   UNL     1      -1.438  -3.203  10.998  1.00  0.00     0.131 A 
ATOM     72  C   UNL     1      -2.720  -4.454  13.091  1.00  0.00     0.055 A 
ATOM     73  C   UNL     1      -2.833  -3.219  11.038  1.00  0.00     0.041 A 
ATOM     74  F   UNL     1      -0.888  -2.498   9.995  1.00  0.00    -0.206 F 
ATOM     75  C   UNL     1      -3.481  -3.837  12.095  1.00  0.00     0.022 A 
BRANCH  72  76
ATOM     76  S   UNL     1      -3.587  -5.169  14.522  1.00  0.00     0.124 S 
ATOM     77  O   UNL     1      -3.410  -6.600  14.305  1.00  0.00    -0.237 OA
ATOM     78  O   UNL     1      -2.865  -4.588  15.649  1.00  0.00    -0.237 OA
ATOM     79  O   UNL     1      -4.959  -4.686  14.362  1.00  0.00    -0.744 OA
ENDBRANCH  72  76
ENDBRANCH  45  69
BRANCH  57  80
ATOM     80  C   UNL     1       5.497  -4.667  13.687  1.00  0.00     0.023 A 
ATOM     81  C   UNL     1       5.181  -5.447  12.554  1.00  0.00     0.031 A 
ATOM     82  C   UNL     1       6.485  -5.158  14.561  1.00  0.00     0.131 A 
ATOM     83  C   UNL     1       5.837  -6.675  12.341  1.00  0.00     0.055 A 
ATOM     84  C   UNL     1       7.146  -6.364  14.337  1.00  0.00     0.041 A 
ATOM     85  F   UNL     1       6.834  -4.462  15.656  1.00  0.00    -0.206 F 
ATOM     86  C   UNL     1       6.817  -7.132  13.228  1.00  0.00     0.022 A 
BRANCH  83  87
ATOM     87  S   UNL     1       5.394  -7.729  10.923  1.00  0.00     0.124 S 
ATOM     88  O   UNL     1       3.936  -7.714  10.923  1.00  0.00    -0.237 OA
ATOM     89  O   UNL     1       6.039  -7.042   9.808  1.00  0.00    -0.237 OA
ATOM     90  O   UNL     1       5.988  -9.023  11.264  1.00  0.00    -0.744 OA
ENDBRANCH  83  87
ENDBRANCH  57  80
ENDBRANCH  31  32
ENDBRANCH  23  26
ENDBRANCH  21  22
ENDBRANCH  20  21
ENDBRANCH   1  20
TORSDOF 17
