REMARK SMILES CCC(CC)(NC(=O)CS[C@H]1CCS(=O)(=O)C1)C(=O)NCCCCNC(=O)c1ccc(-c2c3nc(c(-c4cc(S(=O)(=O)[O-])ccc4F)c4ccc([nH]4)c(-c4cc(S(=O)(=O)[O-])ccc4F)c4nc(c(-c5cc(S(=O)(=O)[O-])ccc5F)c5ccc2[nH]5)C=C4)C=C3)cc1
REMARK SMILES IDX 22 1 21 2 20 3 18 4 19 5 3 7 2 8 1 9 4 10 5 11 6 12 7 13
REMARK SMILES IDX 8 15 9 16 10 17 11 18 12 19 17 20 13 21 14 22 15 23 16 24
REMARK SMILES IDX 23 25 24 26 25 27 26 28 27 30 28 31 29 32 90 33 30 34 89 35
REMARK SMILES IDX 31 36 32 37 33 38 83 39 34 40 88 41 82 42 84 43 35 44 87 45
REMARK SMILES IDX 81 46 80 47 36 49 68 50 48 51 67 52 49 53 52 54 66 55 85 56
REMARK SMILES IDX 50 57 51 58 65 60 86 61 53 62 37 63 38 64 46 65 39 66 45 67
REMARK SMILES IDX 47 68 44 69 40 70 41 71 42 72 43 73 69 74 70 75 78 76 71 77
REMARK SMILES IDX 77 78 79 79 76 80 72 81 73 82 74 83 75 84 54 85 55 86 63 87
REMARK SMILES IDX 56 88 62 89 64 90 61 91 57 92 58 93 59 94 60 95
REMARK H PARENT 20 6 6 14 25 29 84 48 52 59
REMARK Flexibility Score: inf
ROOT
ATOM      1  C   UNL     1      -0.191  -5.029  -0.669  1.00  0.00     0.023 C 
ENDROOT
BRANCH   1   2
ATOM      2  C   UNL     1       0.852  -4.077  -0.097  1.00  0.00     0.116 C 
BRANCH   2   3
ATOM      3  N   UNL     1       2.154  -4.154  -0.742  1.00  0.00    -0.354 N 
ATOM      4  C   UNL     1       2.888  -3.196  -1.387  1.00  0.00     0.245 C 
ATOM      5  O   UNL     1       3.979  -3.537  -1.849  1.00  0.00    -0.272 OA
ATOM      6  H   UNL     1       2.576  -5.042  -0.710  1.00  0.00     0.163 HD
BRANCH   4   7
ATOM      7  C   UNL     1       2.333  -1.758  -1.565  1.00  0.00     0.118 C 
BRANCH   7   8
ATOM      8  C   UNL     1       3.274  -0.822  -2.376  1.00  0.00     0.035 C 
ATOM      9  C   UNL     1       4.684  -0.574  -1.846  1.00  0.00     0.007 C 
ENDBRANCH   7   8
BRANCH   7  10
ATOM     10  C   UNL     1       2.186  -1.121  -0.138  1.00  0.00     0.035 C 
ATOM     11  C   UNL     1       1.601   0.287  -0.094  1.00  0.00     0.007 C 
ENDBRANCH   7  10
BRANCH   7  12
ATOM     12  N   UNL     1       0.994  -1.865  -2.253  1.00  0.00    -0.341 N 
ATOM     13  C   UNL     1       0.472  -2.577  -3.301  1.00  0.00     0.230 C 
ATOM     14  H   UNL     1       0.324  -1.270  -1.844  1.00  0.00     0.164 HD
ATOM     15  O   UNL     1      -0.578  -2.121  -3.771  1.00  0.00    -0.274 OA
BRANCH  13  16
ATOM     16  C   UNL     1       1.039  -3.895  -3.849  1.00  0.00     0.169 C 
BRANCH  16  17
ATOM     17  S   UNL     1       1.508  -3.825  -5.622  1.00  0.00    -0.148 SA
BRANCH  17  18
ATOM     18  C   UNL     1       2.660  -2.445  -5.519  1.00  0.00     0.063 C 
ATOM     19  C   UNL     1       3.948  -2.534  -6.332  1.00  0.00     0.031 C 
ATOM     20  C   UNL     1       1.971  -1.130  -5.873  1.00  0.00     0.151 C 
ATOM     21  C   UNL     1       4.621  -1.176  -6.122  1.00  0.00     0.138 C 
ATOM     22  S   UNL     1       3.294   0.016  -6.202  1.00  0.00     0.151 S 
ATOM     23  O   UNL     1       3.413   0.931  -5.082  1.00  0.00    -0.229 OA
ATOM     24  O   UNL     1       3.174   0.488  -7.563  1.00  0.00    -0.229 OA
ENDBRANCH  17  18
ENDBRANCH  16  17
ENDBRANCH  13  16
ENDBRANCH   7  12
ENDBRANCH   4   7
ENDBRANCH   2   3
ENDBRANCH   1   2
BRANCH   1  25
ATOM     25  C   UNL     1       0.222  -6.491  -0.730  1.00  0.00     0.023 C 
BRANCH  25  26
ATOM     26  C   UNL     1       0.839  -7.021   0.554  1.00  0.00     0.116 C 
BRANCH  26  27
ATOM     27  N   UNL     1       0.022  -6.747   1.727  1.00  0.00    -0.352 N 
ATOM     28  C   UNL     1      -0.325  -7.596   2.747  1.00  0.00     0.251 C 
ATOM     29  H   UNL     1      -0.327  -5.829   1.798  1.00  0.00     0.163 HD
ATOM     30  O   UNL     1      -1.131  -7.239   3.599  1.00  0.00    -0.269 OA
BRANCH  28  31
ATOM     31  C   UNL     1       0.257  -8.949   2.763  1.00  0.00     0.039 A 
ATOM     32  C   UNL     1      -0.596 -10.044   2.885  1.00  0.00     0.014 A 
ATOM     33  C   UNL     1       1.630  -9.124   2.570  1.00  0.00     0.014 A 
ATOM     34  C   UNL     1      -0.074 -11.329   2.750  1.00  0.00     0.010 A 
ATOM     35  C   UNL     1       2.128 -10.398   2.337  1.00  0.00     0.010 A 
ATOM     36  C   UNL     1       1.283 -11.514   2.436  1.00  0.00    -0.014 A 
BRANCH  36  37
ATOM     37  C   UNL     1       1.843 -12.872   2.233  1.00  0.00     0.031 A 
ATOM     38  C   UNL     1       2.921 -13.375   3.153  1.00  0.00     0.074 A 
ATOM     39  C   UNL     1       1.415 -13.623   1.200  1.00  0.00     0.049 A 
ATOM     40  N   UNL     1       3.582 -14.502   3.112  1.00  0.00    -0.248 NA
ATOM     41  C   UNL     1       3.332 -12.475   4.241  1.00  0.00     0.031 C 
ATOM     42  C   UNL     1       0.405 -13.216   0.219  1.00  0.00     0.029 A 
ATOM     43  N   UNL     1       1.776 -14.883   0.797  1.00  0.00    -0.354 N 
ATOM     44  C   UNL     1       4.492 -14.442   4.163  1.00  0.00     0.074 A 
ATOM     45  C   UNL     1       4.351 -13.136   4.767  1.00  0.00     0.031 C 
ATOM     46  C   UNL     1       0.204 -14.221  -0.647  1.00  0.00     0.029 A 
ATOM     47  C   UNL     1       1.105 -15.321  -0.321  1.00  0.00     0.049 A 
ATOM     48  H   UNL     1       2.453 -15.425   1.265  1.00  0.00     0.167 HD
ATOM     49  C   UNL     1       5.342 -15.402   4.602  1.00  0.00     0.034 A 
ATOM     50  C   UNL     1       1.213 -16.474  -1.011  1.00  0.00     0.034 A 
ATOM     51  C   UNL     1       5.460 -16.699   3.986  1.00  0.00     0.049 A 
ATOM     52  C   UNL     1       2.194 -17.513  -0.527  1.00  0.00     0.074 A 
ATOM     53  C   UNL     1       6.255 -17.765   4.368  1.00  0.00     0.029 A 
ATOM     54  N   UNL     1       4.770 -17.106   2.849  1.00  0.00    -0.354 N 
ATOM     55  N   UNL     1       3.012 -17.463   0.500  1.00  0.00    -0.248 NA
ATOM     56  C   UNL     1       2.257 -18.767  -1.287  1.00  0.00     0.031 C 
ATOM     57  C   UNL     1       6.106 -18.783   3.420  1.00  0.00     0.029 A 
ATOM     58  C   UNL     1       5.148 -18.392   2.497  1.00  0.00     0.049 A 
ATOM     59  H   UNL     1       4.110 -16.560   2.365  1.00  0.00     0.167 HD
ATOM     60  C   UNL     1       3.664 -18.693   0.526  1.00  0.00     0.074 A 
ATOM     61  C   UNL     1       3.130 -19.466  -0.577  1.00  0.00     0.031 C 
ATOM     62  C   UNL     1       4.613 -19.145   1.385  1.00  0.00     0.034 A 
BRANCH  49  63
ATOM     63  C   UNL     1       6.219 -15.063   5.785  1.00  0.00     0.023 A 
ATOM     64  C   UNL     1       5.673 -14.725   7.036  1.00  0.00     0.031 A 
ATOM     65  C   UNL     1       7.618 -15.038   5.652  1.00  0.00     0.131 A 
ATOM     66  C   UNL     1       6.512 -14.294   8.075  1.00  0.00     0.055 A 
ATOM     67  C   UNL     1       8.454 -14.700   6.719  1.00  0.00     0.041 A 
ATOM     68  F   UNL     1       8.200 -15.325   4.477  1.00  0.00    -0.206 F 
ATOM     69  C   UNL     1       7.901 -14.308   7.935  1.00  0.00     0.022 A 
BRANCH  66  70
ATOM     70  S   UNL     1       5.753 -13.560   9.550  1.00  0.00     0.124 S 
ATOM     71  O   UNL     1       4.997 -12.452   8.971  1.00  0.00    -0.237 OA
ATOM     72  O   UNL     1       4.962 -14.664  10.081  1.00  0.00    -0.237 OA
ATOM     73  O   UNL     1       6.900 -13.163  10.364  1.00  0.00    -0.744 OA
ENDBRANCH  66  70
ENDBRANCH  49  63
BRANCH  50  74
ATOM     74  C   UNL     1       0.388 -16.705  -2.232  1.00  0.00     0.023 A 
ATOM     75  C   UNL     1      -0.554 -17.744  -2.286  1.00  0.00     0.031 A 
ATOM     76  C   UNL     1       0.557 -15.911  -3.381  1.00  0.00     0.131 A 
ATOM     77  C   UNL     1      -1.255 -17.993  -3.476  1.00  0.00     0.055 A 
ATOM     78  C   UNL     1      -0.185 -16.125  -4.543  1.00  0.00     0.041 A 
ATOM     79  F   UNL     1       1.443 -14.901  -3.384  1.00  0.00    -0.206 F 
ATOM     80  C   UNL     1      -1.088 -17.181  -4.600  1.00  0.00     0.022 A 
BRANCH  77  81
ATOM     81  S   UNL     1      -2.322 -19.458  -3.567  1.00  0.00     0.124 S 
ATOM     82  O   UNL     1      -1.380 -20.529  -3.263  1.00  0.00    -0.237 OA
ATOM     83  O   UNL     1      -3.319 -19.169  -2.541  1.00  0.00    -0.237 OA
ATOM     84  O   UNL     1      -2.818 -19.432  -4.941  1.00  0.00    -0.744 OA
ENDBRANCH  77  81
ENDBRANCH  50  74
BRANCH  62  85
ATOM     85  C   UNL     1       5.098 -20.561   1.190  1.00  0.00     0.023 A 
ATOM     86  C   UNL     1       5.810 -20.951   0.042  1.00  0.00     0.031 A 
ATOM     87  C   UNL     1       4.838 -21.538   2.169  1.00  0.00     0.131 A 
ATOM     88  C   UNL     1       6.184 -22.292  -0.126  1.00  0.00     0.055 A 
ATOM     89  C   UNL     1       5.275 -22.855   2.029  1.00  0.00     0.041 A 
ATOM     90  F   UNL     1       4.159 -21.224   3.284  1.00  0.00    -0.206 F 
ATOM     91  C   UNL     1       5.940 -23.242   0.870  1.00  0.00     0.022 A 
BRANCH  88  92
ATOM     92  S   UNL     1       6.902 -22.803  -1.711  1.00  0.00     0.124 S 
ATOM     93  O   UNL     1       5.856 -22.420  -2.654  1.00  0.00    -0.237 OA
ATOM     94  O   UNL     1       8.129 -22.015  -1.766  1.00  0.00    -0.237 OA
ATOM     95  O   UNL     1       7.096 -24.243  -1.551  1.00  0.00    -0.744 OA
ENDBRANCH  88  92
ENDBRANCH  62  85
ENDBRANCH  36  37
ENDBRANCH  28  31
ENDBRANCH  26  27
ENDBRANCH  25  26
ENDBRANCH   1  25
TORSDOF 20
