REMARK SMILES C[C@@H](C(=O)NCCCCNC(=O)c1ccc(-c2c3nc(c(-c4cc(S(=O)(=O)[O-])ccc4F)c4ccc([nH]4)c(-c4cc(S(=O)(=O)[O-])ccc4F)c4nc(c(-c5cc(S(=O)(=O)[O-])ccc5F)c5ccc2[nH]5)C=C4)C=C3)cc1)c1ccc(-c2cccc(OC(=O)NC3CC3)c2)c(F)c1
REMARK SMILES IDX 6 1 5 2 3 3 4 4 2 6 1 7 76 8 77 9 95 10 78 11 93 12 79 13
REMARK SMILES IDX 94 14 80 15 81 16 92 17 82 18 84 19 83 20 85 21 86 22 87 23
REMARK SMILES IDX 88 24 89 26 90 27 91 28 7 29 8 30 9 31 10 32 11 33 12 35
REMARK SMILES IDX 13 36 14 37 75 38 15 39 74 40 16 41 17 42 18 43 68 44 19 45
REMARK SMILES IDX 73 46 67 47 69 48 20 49 72 50 66 51 65 52 21 54 53 55 33 56
REMARK SMILES IDX 52 57 34 58 37 59 51 60 70 61 35 62 36 63 50 65 71 66 38 67
REMARK SMILES IDX 22 68 23 69 31 70 24 71 30 72 32 73 29 74 25 75 26 76 27 77
REMARK SMILES IDX 28 78 54 79 55 80 63 81 56 82 62 83 64 84 61 85 57 86 58 87
REMARK SMILES IDX 59 88 60 89 39 90 40 91 48 92 41 93 47 94 49 95 46 96 42 97
REMARK SMILES IDX 43 98 44 99 45 100
REMARK H PARENT 5 5 88 25 10 34 69 53 37 64
REMARK Flexibility Score: inf
ROOT
ATOM      1  C   UNL     1       3.401   1.680   0.727  1.00  0.00     0.116 C 
ENDROOT
BRANCH   1   2
ATOM      2  N   UNL     1       2.367   2.569   0.237  1.00  0.00    -0.356 N 
ATOM      3  C   UNL     1       1.058   2.292  -0.040  1.00  0.00     0.227 C 
ATOM      4  O   UNL     1       0.464   3.088  -0.768  1.00  0.00    -0.274 OA
ATOM      5  H   UNL     1       2.646   3.500   0.082  1.00  0.00     0.163 HD
BRANCH   3   6
ATOM      6  C   UNL     1       0.405   1.041   0.578  1.00  0.00     0.105 C 
ATOM      7  C   UNL     1       0.830  -0.193  -0.232  1.00  0.00     0.023 C 
BRANCH   6   8
ATOM      8  C   UNL     1      -1.119   1.118   0.717  1.00  0.00    -0.033 A 
ATOM      9  C   UNL     1      -1.796   2.340   0.871  1.00  0.00     0.005 A 
ATOM     10  C   UNL     1      -1.892  -0.053   0.739  1.00  0.00     0.044 A 
ATOM     11  C   UNL     1      -3.193   2.395   0.938  1.00  0.00     0.012 A 
ATOM     12  C   UNL     1      -3.277   0.005   0.812  1.00  0.00     0.131 A 
ATOM     13  C   UNL     1      -3.954   1.223   0.901  1.00  0.00     0.018 A 
ATOM     14  F   UNL     1      -3.955  -1.154   0.805  1.00  0.00    -0.206 F 
BRANCH  13  15
ATOM     15  C   UNL     1      -5.407   1.260   1.048  1.00  0.00    -0.012 A 
ATOM     16  C   UNL     1      -6.239   1.899   0.118  1.00  0.00     0.009 A 
ATOM     17  C   UNL     1      -5.986   0.635   2.161  1.00  0.00     0.056 A 
ATOM     18  C   UNL     1      -7.624   1.905   0.297  1.00  0.00     0.004 A 
ATOM     19  C   UNL     1      -7.361   0.642   2.340  1.00  0.00     0.133 A 
ATOM     20  C   UNL     1      -8.186   1.276   1.410  1.00  0.00     0.047 A 
BRANCH  19  21
ATOM     21  O   UNL     1      -8.011   0.040   3.441  1.00  0.00    -0.410 OA
BRANCH  21  22
ATOM     22  C   UNL     1      -7.416  -0.784   4.393  1.00  0.00     0.412 C 
ATOM     23  O   UNL     1      -6.225  -1.073   4.473  1.00  0.00    -0.224 OA
ATOM     24  N   UNL     1      -8.296  -1.312   5.298  1.00  0.00    -0.318 N 
ATOM     25  H   UNL     1      -7.900  -1.925   5.960  1.00  0.00     0.167 HD
BRANCH  24  26
ATOM     26  C   UNL     1      -9.698  -1.108   5.425  1.00  0.00     0.085 C 
ATOM     27  C   UNL     1     -10.659  -0.736   4.333  1.00  0.00     0.027 C 
ATOM     28  C   UNL     1     -10.624  -2.144   4.840  1.00  0.00     0.027 C 
ENDBRANCH  24  26
ENDBRANCH  21  22
ENDBRANCH  19  21
ENDBRANCH  13  15
ENDBRANCH   6   8
ENDBRANCH   3   6
ENDBRANCH   1   2
BRANCH   1  29
ATOM     29  C   UNL     1       4.216   1.114  -0.441  1.00  0.00     0.023 C 
BRANCH  29  30
ATOM     30  C   UNL     1       4.995   2.162  -1.232  1.00  0.00     0.023 C 
BRANCH  30  31
ATOM     31  C   UNL     1       5.971   2.971  -0.399  1.00  0.00     0.116 C 
BRANCH  31  32
ATOM     32  N   UNL     1       6.975   2.135   0.243  1.00  0.00    -0.352 N 
ATOM     33  C   UNL     1       8.333   2.343   0.304  1.00  0.00     0.251 C 
ATOM     34  H   UNL     1       6.642   1.322   0.688  1.00  0.00     0.163 HD
ATOM     35  O   UNL     1       9.079   1.467   0.727  1.00  0.00    -0.269 OA
BRANCH  33  36
ATOM     36  C   UNL     1       8.864   3.629  -0.187  1.00  0.00     0.039 A 
ATOM     37  C   UNL     1       9.896   3.630  -1.126  1.00  0.00     0.014 A 
ATOM     38  C   UNL     1       8.266   4.824   0.220  1.00  0.00     0.014 A 
ATOM     39  C   UNL     1      10.286   4.836  -1.712  1.00  0.00     0.010 A 
ATOM     40  C   UNL     1       8.593   6.006  -0.429  1.00  0.00     0.010 A 
ATOM     41  C   UNL     1       9.611   6.026  -1.397  1.00  0.00    -0.014 A 
BRANCH  41  42
ATOM     42  C   UNL     1       9.959   7.323  -2.031  1.00  0.00     0.031 A 
ATOM     43  C   UNL     1      10.436   8.456  -1.165  1.00  0.00     0.074 A 
ATOM     44  C   UNL     1       9.752   7.514  -3.348  1.00  0.00     0.049 A 
ATOM     45  N   UNL     1      10.623   9.713  -1.470  1.00  0.00    -0.248 NA
ATOM     46  C   UNL     1      10.691   8.132   0.246  1.00  0.00     0.031 C 
ATOM     47  C   UNL     1       9.269   6.499  -4.285  1.00  0.00     0.029 A 
ATOM     48  N   UNL     1       9.898   8.638  -4.122  1.00  0.00    -0.354 N 
ATOM     49  C   UNL     1      10.992  10.336  -0.283  1.00  0.00     0.074 A 
ATOM     50  C   UNL     1      10.930   9.330   0.755  1.00  0.00     0.031 C 
ATOM     51  C   UNL     1       9.172   7.043  -5.509  1.00  0.00     0.029 A 
ATOM     52  C   UNL     1       9.524   8.458  -5.434  1.00  0.00     0.049 A 
ATOM     53  H   UNL     1      10.240   9.493  -3.772  1.00  0.00     0.167 HD
ATOM     54  C   UNL     1      11.367  11.624  -0.082  1.00  0.00     0.034 A 
ATOM     55  C   UNL     1       9.444   9.338  -6.452  1.00  0.00     0.034 A 
ATOM     56  C   UNL     1      11.425  12.607  -1.136  1.00  0.00     0.049 A 
ATOM     57  C   UNL     1       9.822  10.777  -6.204  1.00  0.00     0.074 A 
ATOM     58  C   UNL     1      11.838  13.926  -1.062  1.00  0.00     0.029 A 
ATOM     59  N   UNL     1      11.047  12.385  -2.455  1.00  0.00    -0.354 N 
ATOM     60  N   UNL     1      10.201  11.350  -5.085  1.00  0.00    -0.248 NA
ATOM     61  C   UNL     1       9.770  11.686  -7.356  1.00  0.00     0.031 C 
ATOM     62  C   UNL     1      11.629  14.521  -2.310  1.00  0.00     0.029 A 
ATOM     63  C   UNL     1      11.182  13.550  -3.193  1.00  0.00     0.049 A 
ATOM     64  H   UNL     1      10.729  11.524  -2.813  1.00  0.00     0.167 HD
ATOM     65  C   UNL     1      10.472  12.677  -5.409  1.00  0.00     0.074 A 
ATOM     66  C   UNL     1      10.209  12.819  -6.826  1.00  0.00     0.031 C 
ATOM     67  C   UNL     1      10.914  13.681  -4.608  1.00  0.00     0.034 A 
BRANCH  54  68
ATOM     68  C   UNL     1      11.695  12.036   1.335  1.00  0.00     0.023 A 
ATOM     69  C   UNL     1      12.720  11.412   2.069  1.00  0.00     0.031 A 
ATOM     70  C   UNL     1      10.933  13.023   1.985  1.00  0.00     0.131 A 
ATOM     71  C   UNL     1      12.880  11.699   3.433  1.00  0.00     0.055 A 
ATOM     72  C   UNL     1      11.169  13.380   3.314  1.00  0.00     0.041 A 
ATOM     73  F   UNL     1       9.926  13.641   1.348  1.00  0.00    -0.206 F 
ATOM     74  C   UNL     1      12.132  12.700   4.054  1.00  0.00     0.022 A 
BRANCH  71  75
ATOM     75  S   UNL     1      13.938  10.608   4.423  1.00  0.00     0.124 S 
ATOM     76  O   UNL     1      13.328   9.303   4.177  1.00  0.00    -0.237 OA
ATOM     77  O   UNL     1      15.253  10.820   3.830  1.00  0.00    -0.237 OA
ATOM     78  O   UNL     1      13.775  11.115   5.784  1.00  0.00    -0.744 OA
ENDBRANCH  71  75
ENDBRANCH  54  68
BRANCH  55  79
ATOM     79  C   UNL     1       8.966   8.888  -7.791  1.00  0.00     0.023 A 
ATOM     80  C   UNL     1       9.820   8.890  -8.905  1.00  0.00     0.031 A 
ATOM     81  C   UNL     1       7.641   8.456  -7.978  1.00  0.00     0.131 A 
ATOM     82  C   UNL     1       9.332   8.499 -10.162  1.00  0.00     0.055 A 
ATOM     83  C   UNL     1       7.174   8.017  -9.218  1.00  0.00     0.041 A 
ATOM     84  F   UNL     1       6.783   8.430  -6.945  1.00  0.00    -0.206 F 
ATOM     85  C   UNL     1       8.020   8.047 -10.322  1.00  0.00     0.022 A 
BRANCH  82  86
ATOM     86  S   UNL     1      10.420   8.651 -11.605  1.00  0.00     0.124 S 
ATOM     87  O   UNL     1      10.704  10.082 -11.611  1.00  0.00    -0.237 OA
ATOM     88  O   UNL     1      11.530   7.777 -11.242  1.00  0.00    -0.237 OA
ATOM     89  O   UNL     1       9.590   8.174 -12.709  1.00  0.00    -0.744 OA
ENDBRANCH  82  86
ENDBRANCH  55  79
BRANCH  67  90
ATOM     90  C   UNL     1      11.216  15.011  -5.258  1.00  0.00     0.023 A 
ATOM     91  C   UNL     1      10.212  15.827  -5.805  1.00  0.00     0.031 A 
ATOM     92  C   UNL     1      12.543  15.479  -5.299  1.00  0.00     0.131 A 
ATOM     93  C   UNL     1      10.556  17.050  -6.404  1.00  0.00     0.055 A 
ATOM     94  C   UNL     1      12.870  16.723  -5.838  1.00  0.00     0.041 A 
ATOM     95  F   UNL     1      13.544  14.738  -4.797  1.00  0.00    -0.206 F 
ATOM     96  C   UNL     1      11.875  17.512  -6.404  1.00  0.00     0.022 A 
BRANCH  93  97
ATOM     97  S   UNL     1       9.267  18.002  -7.256  1.00  0.00     0.124 S 
ATOM     98  O   UNL     1       8.806  17.052  -8.264  1.00  0.00    -0.237 OA
ATOM     99  O   UNL     1       8.328  18.293  -6.177  1.00  0.00    -0.237 OA
ATOM    100  O   UNL     1       9.986  19.162  -7.780  1.00  0.00    -0.744 OA
ENDBRANCH  93  97
ENDBRANCH  67  90
ENDBRANCH  41  42
ENDBRANCH  33  36
ENDBRANCH  31  32
ENDBRANCH  30  31
ENDBRANCH  29  30
ENDBRANCH   1  29
TORSDOF 19
