REMARK SMILES CC(=O)N[C@@H](CCC(=O)NCCCCNC(=O)c1ccc(-c2c3nc(c(-c4cc(S(=O)(=O)[O-])ccc4F)c4ccc([nH]4)c(-c4cc(S(=O)(=O)[O-])ccc4F)c4nc(c(-c5cc(S(=O)(=O)[O-])ccc5F)c5ccc2[nH]5)C=C4)C=C3)cc1)Cc1nc(C)ccc1O
REMARK SMILES IDX 11 1 10 2 8 3 9 4 7 6 6 7 5 8 4 9 1 10 2 11 3 12 81 14 82 15
REMARK SMILES IDX 83 16 88 17 84 18 87 19 85 20 86 21 89 22 12 24 13 25 14 26
REMARK SMILES IDX 15 27 16 28 17 30 18 31 19 32 80 33 20 34 79 35 21 36 22 37
REMARK SMILES IDX 23 38 73 39 24 40 78 41 72 42 74 43 25 44 77 45 71 46 70 47
REMARK SMILES IDX 26 49 58 50 38 51 57 52 39 53 42 54 56 55 75 56 40 57 41 58
REMARK SMILES IDX 55 60 76 61 43 62 27 63 28 64 36 65 29 66 35 67 37 68 34 69
REMARK SMILES IDX 30 70 31 71 32 72 33 73 59 74 60 75 68 76 61 77 67 78 69 79
REMARK SMILES IDX 66 80 62 81 63 82 64 83 65 84 44 85 45 86 53 87 46 88 52 89
REMARK SMILES IDX 54 90 51 91 47 92 48 93 49 94 50 95
REMARK H PARENT 10 5 4 13 89 23 15 29 74 48 42 59
REMARK Flexibility Score: inf
ROOT
ATOM      1  C   UNL     1      -0.215  -3.681  -4.790  1.00  0.00     0.116 C 
ENDROOT
BRANCH   1   2
ATOM      2  N   UNL     1       0.914  -3.152  -5.534  1.00  0.00    -0.356 N 
ATOM      3  C   UNL     1       2.130  -2.709  -5.110  1.00  0.00     0.220 C 
ATOM      4  O   UNL     1       2.905  -2.234  -5.940  1.00  0.00    -0.275 OA
ATOM      5  H   UNL     1       0.778  -3.107  -6.508  1.00  0.00     0.163 HD
BRANCH   3   6
ATOM      6  C   UNL     1       2.534  -2.868  -3.659  1.00  0.00     0.102 C 
BRANCH   6   7
ATOM      7  C   UNL     1       3.132  -1.591  -3.028  1.00  0.00     0.035 C 
BRANCH   7   8
ATOM      8  C   UNL     1       2.174  -0.704  -2.177  1.00  0.00     0.088 C 
BRANCH   8   9
ATOM      9  N   UNL     1       1.532  -1.532  -1.159  1.00  0.00    -0.353 N 
ATOM     10  C   UNL     1       1.723   0.063   0.711  1.00  0.00     0.114 C 
ATOM     11  C   UNL     1       1.280  -1.255   0.149  1.00  0.00     0.217 C 
ATOM     12  O   UNL     1       0.691  -2.089   0.838  1.00  0.00    -0.275 OA
ATOM     13  H   UNL     1       1.238  -2.420  -1.465  1.00  0.00     0.163 HD
ENDBRANCH   8   9
BRANCH   8  14
ATOM     14  C   UNL     1       1.233   0.118  -3.090  1.00  0.00     0.085 C 
BRANCH  14  15
ATOM     15  C   UNL     1       0.103   0.965  -2.541  1.00  0.00     0.084 A 
ATOM     16  N   UNL     1       0.092   2.253  -2.990  1.00  0.00    -0.254 NA
ATOM     17  C   UNL     1      -0.956   0.477  -1.771  1.00  0.00     0.137 A 
ATOM     18  C   UNL     1      -0.972   3.045  -2.694  1.00  0.00     0.038 A 
ATOM     19  C   UNL     1      -1.983   1.333  -1.385  1.00  0.00     0.050 A 
ATOM     20  C   UNL     1      -1.016   4.407  -3.320  1.00  0.00     0.067 C 
ATOM     21  C   UNL     1      -2.002   2.633  -1.863  1.00  0.00     0.027 A 
BRANCH  17  22
ATOM     22  O   UNL     1      -1.080  -0.842  -1.450  1.00  0.00    -0.506 OA
ATOM     23  H   UNL     1      -0.408  -1.448  -1.693  1.00  0.00     0.293 HD
ENDBRANCH  17  22
ENDBRANCH  14  15
ENDBRANCH   8  14
ENDBRANCH   7   8
ENDBRANCH   6   7
ENDBRANCH   3   6
ENDBRANCH   1   2
BRANCH   1  24
ATOM     24  C   UNL     1      -1.036  -2.590  -4.110  1.00  0.00     0.023 C 
BRANCH  24  25
ATOM     25  C   UNL     1      -1.484  -1.472  -5.062  1.00  0.00     0.023 C 
BRANCH  25  26
ATOM     26  C   UNL     1      -2.977  -1.203  -5.033  1.00  0.00     0.116 C 
BRANCH  26  27
ATOM     27  N   UNL     1      -3.483  -0.765  -3.744  1.00  0.00    -0.352 N 
ATOM     28  C   UNL     1      -4.579   0.032  -3.472  1.00  0.00     0.251 C 
ATOM     29  H   UNL     1      -2.978  -1.077  -2.958  1.00  0.00     0.163 HD
ATOM     30  O   UNL     1      -4.843   0.347  -2.321  1.00  0.00    -0.269 OA
BRANCH  28  31
ATOM     31  C   UNL     1      -5.401   0.546  -4.596  1.00  0.00     0.039 A 
ATOM     32  C   UNL     1      -5.833   1.877  -4.579  1.00  0.00     0.014 A 
ATOM     33  C   UNL     1      -5.719  -0.273  -5.678  1.00  0.00     0.014 A 
ATOM     34  C   UNL     1      -6.523   2.399  -5.680  1.00  0.00     0.010 A 
ATOM     35  C   UNL     1      -6.303   0.272  -6.810  1.00  0.00     0.010 A 
ATOM     36  C   UNL     1      -6.730   1.608  -6.818  1.00  0.00    -0.014 A 
BRANCH  36  37
ATOM     37  C   UNL     1      -7.443   2.090  -8.028  1.00  0.00     0.031 A 
ATOM     38  C   UNL     1      -8.688   1.362  -8.461  1.00  0.00     0.074 A 
ATOM     39  C   UNL     1      -6.901   3.051  -8.798  1.00  0.00     0.049 A 
ATOM     40  N   UNL     1      -9.318   1.392  -9.605  1.00  0.00    -0.248 NA
ATOM     41  C   UNL     1      -9.258   0.417  -7.486  1.00  0.00     0.031 C 
ATOM     42  C   UNL     1      -5.678   3.796  -8.492  1.00  0.00     0.029 A 
ATOM     43  N   UNL     1      -7.290   3.542 -10.019  1.00  0.00    -0.354 N 
ATOM     44  C   UNL     1     -10.321   0.431  -9.508  1.00  0.00     0.074 A 
ATOM     45  C   UNL     1     -10.174  -0.200  -8.214  1.00  0.00     0.031 C 
ATOM     46  C   UNL     1      -5.420   4.651  -9.495  1.00  0.00     0.029 A 
ATOM     47  C   UNL     1      -6.424   4.476 -10.539  1.00  0.00     0.049 A 
ATOM     48  H   UNL     1      -8.111   3.253 -10.479  1.00  0.00     0.167 HD
ATOM     49  C   UNL     1     -11.283   0.119 -10.411  1.00  0.00     0.034 A 
ATOM     50  C   UNL     1      -6.427   5.095 -11.736  1.00  0.00     0.034 A 
ATOM     51  C   UNL     1     -11.426   0.803 -11.673  1.00  0.00     0.049 A 
ATOM     52  C   UNL     1      -7.526   4.760 -12.714  1.00  0.00     0.074 A 
ATOM     53  C   UNL     1     -12.398   0.637 -12.643  1.00  0.00     0.029 A 
ATOM     54  N   UNL     1     -10.568   1.795 -12.136  1.00  0.00    -0.354 N 
ATOM     55  N   UNL     1      -8.489   3.873 -12.601  1.00  0.00    -0.248 NA
ATOM     56  C   UNL     1      -7.544   5.513 -13.973  1.00  0.00     0.031 C 
ATOM     57  C   UNL     1     -12.098   1.488 -13.713  1.00  0.00     0.029 A 
ATOM     58  C   UNL     1     -10.978   2.236 -13.383  1.00  0.00     0.049 A 
ATOM     59  H   UNL     1      -9.783   2.134 -11.648  1.00  0.00     0.167 HD
ATOM     60  C   UNL     1      -9.243   3.981 -13.765  1.00  0.00     0.074 A 
ATOM     61  C   UNL     1      -8.631   5.030 -14.557  1.00  0.00     0.031 C 
ATOM     62  C   UNL     1     -10.342   3.283 -14.149  1.00  0.00     0.034 A 
BRANCH  49  63
ATOM     63  C   UNL     1     -12.222  -1.015 -10.069  1.00  0.00     0.023 A 
ATOM     64  C   UNL     1     -13.049  -0.976  -8.932  1.00  0.00     0.031 A 
ATOM     65  C   UNL     1     -12.257  -2.177 -10.861  1.00  0.00     0.131 A 
ATOM     66  C   UNL     1     -13.795  -2.107  -8.565  1.00  0.00     0.055 A 
ATOM     67  C   UNL     1     -13.075  -3.264 -10.542  1.00  0.00     0.041 A 
ATOM     68  F   UNL     1     -11.478  -2.287 -11.949  1.00  0.00    -0.206 F 
ATOM     69  C   UNL     1     -13.836  -3.241  -9.377  1.00  0.00     0.022 A 
BRANCH  66  70
ATOM     70  S   UNL     1     -14.579  -2.130  -6.929  1.00  0.00     0.124 S 
ATOM     71  O   UNL     1     -13.423  -1.983  -6.048  1.00  0.00    -0.237 OA
ATOM     72  O   UNL     1     -15.481  -0.987  -6.995  1.00  0.00    -0.237 OA
ATOM     73  O   UNL     1     -15.229  -3.438  -6.879  1.00  0.00    -0.744 OA
ENDBRANCH  66  70
ENDBRANCH  49  63
BRANCH  50  74
ATOM     74  C   UNL     1      -5.365   6.083 -12.080  1.00  0.00     0.023 A 
ATOM     75  C   UNL     1      -5.676   7.441 -12.257  1.00  0.00     0.031 A 
ATOM     76  C   UNL     1      -4.027   5.687 -12.253  1.00  0.00     0.131 A 
ATOM     77  C   UNL     1      -4.672   8.348 -12.632  1.00  0.00     0.055 A 
ATOM     78  C   UNL     1      -3.022   6.602 -12.579  1.00  0.00     0.041 A 
ATOM     79  F   UNL     1      -3.672   4.403 -12.088  1.00  0.00    -0.206 F 
ATOM     80  C   UNL     1      -3.345   7.940 -12.781  1.00  0.00     0.022 A 
BRANCH  77  81
ATOM     81  S   UNL     1      -5.143  10.063 -12.988  1.00  0.00     0.124 S 
ATOM     82  O   UNL     1      -6.133   9.887 -14.044  1.00  0.00    -0.237 OA
ATOM     83  O   UNL     1      -5.655  10.510 -11.697  1.00  0.00    -0.237 OA
ATOM     84  O   UNL     1      -3.887  10.681 -13.406  1.00  0.00    -0.744 OA
ENDBRANCH  77  81
ENDBRANCH  50  74
BRANCH  62  85
ATOM     85  C   UNL     1     -10.971   3.673 -15.461  1.00  0.00     0.023 A 
ATOM     86  C   UNL     1     -10.329   3.430 -16.687  1.00  0.00     0.031 A 
ATOM     87  C   UNL     1     -12.230   4.299 -15.481  1.00  0.00     0.131 A 
ATOM     88  C   UNL     1     -10.925   3.859 -17.881  1.00  0.00     0.055 A 
ATOM     89  C   UNL     1     -12.844   4.671 -16.676  1.00  0.00     0.041 A 
ATOM     90  F   UNL     1     -12.884   4.553 -14.336  1.00  0.00    -0.206 F 
ATOM     91  C   UNL     1     -12.186   4.463 -17.885  1.00  0.00     0.022 A 
BRANCH  88  92
ATOM     92  S   UNL     1      -9.993   3.692 -19.427  1.00  0.00     0.124 S 
ATOM     93  O   UNL     1      -8.805   4.494 -19.152  1.00  0.00    -0.237 OA
ATOM     94  O   UNL     1      -9.783   2.250 -19.512  1.00  0.00    -0.237 OA
ATOM     95  O   UNL     1     -10.896   4.246 -20.434  1.00  0.00    -0.744 OA
ENDBRANCH  88  92
ENDBRANCH  62  85
ENDBRANCH  36  37
ENDBRANCH  28  31
ENDBRANCH  26  27
ENDBRANCH  25  26
ENDBRANCH  24  25
ENDBRANCH   1  24
TORSDOF 20
