REMARK SMILES CCCCCCNC(=O)Oc1cccc(-c2ccc([C@@H](C)C(=O)NCCCCNC(=O)c3ccc(-c4c5nc(c(-c6cc(S(=O)(=O)[O-])ccc6F)c6ccc([nH]6)c(-c6cc(S(=O)(=O)[O-])ccc6F)c6nc(c(-c7cc(S(=O)(=O)[O-])ccc7F)c7ccc4[nH]7)C=C6)C=C5)cc3)cc2N)c1
REMARK SMILES IDX 20 1 21 2 19 3 16 4 17 5 96 6 18 7 95 8 15 9 11 10 12 11
REMARK SMILES IDX 98 12 13 13 14 14 10 15 8 16 7 17 9 19 6 20 5 21 4 22 3 23
REMARK SMILES IDX 2 24 1 25 97 26 22 29 23 30 24 31 25 33 26 34 27 35 28 36
REMARK SMILES IDX 29 37 30 38 31 40 32 41 33 42 94 43 34 44 93 45 35 46 36 47
REMARK SMILES IDX 37 48 87 49 38 50 92 51 86 52 88 53 39 54 91 55 85 56 84 57
REMARK SMILES IDX 40 59 72 60 52 61 71 62 53 63 56 64 70 65 89 66 54 67 55 68
REMARK SMILES IDX 69 70 90 71 57 72 41 73 42 74 50 75 43 76 49 77 51 78 48 79
REMARK SMILES IDX 44 80 45 81 46 82 47 83 73 84 74 85 82 86 75 87 81 88 83 89
REMARK SMILES IDX 80 90 76 91 77 92 78 93 79 94 58 95 59 96 67 97 60 98 66 99
REMARK SMILES IDX 68 100 65 101 61 102 62 103 63 104 64 105
REMARK H PARENT 7 18 97 27 97 28 24 32 29 39 88 58 56 69
REMARK Flexibility Score: inf
ROOT
ATOM      1  C   UNL     1      -4.480 -10.713  -8.163  1.00  0.00     0.105 C 
ATOM      2  C   UNL     1      -5.608 -11.498  -8.832  1.00  0.00     0.023 C 
ENDROOT
BRANCH   1   3
ATOM      3  C   UNL     1      -4.803  -9.267  -7.822  1.00  0.00    -0.034 A 
ATOM      4  C   UNL     1      -5.133  -6.503  -7.183  1.00  0.00     0.005 A 
ATOM      5  C   UNL     1      -5.499  -7.029  -8.436  1.00  0.00     0.011 A 
ATOM      6  C   UNL     1      -4.710  -7.420  -6.194  1.00  0.00     0.040 A 
ATOM      7  C   UNL     1      -5.395  -8.390  -8.726  1.00  0.00     0.005 A 
ATOM      8  C   UNL     1      -4.473  -8.761  -6.553  1.00  0.00     0.030 A 
BRANCH   4   9
ATOM      9  C   UNL     1      -5.207  -5.034  -6.977  1.00  0.00    -0.013 A 
ATOM     10  C   UNL     1      -4.260  -2.945  -6.165  1.00  0.00     0.133 A 
ATOM     11  C   UNL     1      -5.356  -2.227  -6.630  1.00  0.00     0.047 A 
ATOM     12  C   UNL     1      -4.171  -4.328  -6.342  1.00  0.00     0.056 A 
ATOM     13  C   UNL     1      -6.377  -2.901  -7.290  1.00  0.00     0.004 A 
ATOM     14  C   UNL     1      -6.308  -4.289  -7.448  1.00  0.00     0.009 A 
BRANCH  10  15
ATOM     15  O   UNL     1      -3.328  -2.247  -5.381  1.00  0.00    -0.410 OA
BRANCH  15  16
ATOM     16  C   UNL     1      -1.983  -2.358  -5.695  1.00  0.00     0.412 C 
ATOM     17  N   UNL     1      -1.173  -1.756  -4.771  1.00  0.00    -0.321 N 
ATOM     18  H   UNL     1      -0.205  -1.780  -4.951  1.00  0.00     0.167 HD
ATOM     19  O   UNL     1      -1.514  -2.913  -6.679  1.00  0.00    -0.224 OA
BRANCH  17  20
ATOM     20  C   UNL     1      -1.589  -1.087  -3.556  1.00  0.00     0.119 C 
BRANCH  20  21
ATOM     21  C   UNL     1      -0.988  -1.735  -2.309  1.00  0.00     0.021 C 
BRANCH  21  22
ATOM     22  C   UNL     1       0.541  -1.666  -2.222  1.00  0.00     0.002 C 
BRANCH  22  23
ATOM     23  C   UNL     1       1.141  -0.256  -2.263  1.00  0.00    -0.000 C 
BRANCH  23  24
ATOM     24  C   UNL     1       0.657   0.695  -1.166  1.00  0.00    -0.003 C 
ATOM     25  C   UNL     1       1.027   0.234   0.235  1.00  0.00     0.004 C 
ENDBRANCH  23  24
ENDBRANCH  22  23
ENDBRANCH  21  22
ENDBRANCH  20  21
ENDBRANCH  17  20
ENDBRANCH  15  16
ENDBRANCH  10  15
ENDBRANCH   4   9
BRANCH   6  26
ATOM     26  N   UNL     1      -4.406  -7.030  -4.888  1.00  0.00    -0.398 N 
ATOM     27  H   UNL     1      -4.559  -6.100  -4.604  1.00  0.00     0.156 HD
ATOM     28  H   UNL     1      -4.038  -7.685  -4.251  1.00  0.00     0.156 HD
ENDBRANCH   6  26
ENDBRANCH   1   3
BRANCH   1  29
ATOM     29  C   UNL     1      -3.103 -10.915  -8.817  1.00  0.00     0.227 C 
ATOM     30  O   UNL     1      -2.188 -11.431  -8.163  1.00  0.00    -0.274 OA
ATOM     31  N   UNL     1      -2.815 -10.585 -10.106  1.00  0.00    -0.356 N 
ATOM     32  H   UNL     1      -1.912 -10.849 -10.397  1.00  0.00     0.163 HD
BRANCH  31  33
ATOM     33  C   UNL     1      -3.594  -9.918 -11.127  1.00  0.00     0.116 C 
BRANCH  33  34
ATOM     34  C   UNL     1      -3.291  -8.420 -11.192  1.00  0.00     0.023 C 
BRANCH  34  35
ATOM     35  C   UNL     1      -2.132  -8.037 -12.108  1.00  0.00     0.023 C 
BRANCH  35  36
ATOM     36  C   UNL     1      -2.325  -8.394 -13.577  1.00  0.00     0.116 C 
BRANCH  36  37
ATOM     37  N   UNL     1      -3.519  -7.814 -14.176  1.00  0.00    -0.352 N 
ATOM     38  C   UNL     1      -3.687  -7.374 -15.470  1.00  0.00     0.251 C 
ATOM     39  H   UNL     1      -4.301  -7.727 -13.584  1.00  0.00     0.163 HD
ATOM     40  O   UNL     1      -4.730  -6.824 -15.808  1.00  0.00    -0.269 OA
BRANCH  38  41
ATOM     41  C   UNL     1      -2.570  -7.532 -16.425  1.00  0.00     0.039 A 
ATOM     42  C   UNL     1      -2.120  -6.416 -17.133  1.00  0.00     0.014 A 
ATOM     43  C   UNL     1      -1.916  -8.761 -16.548  1.00  0.00     0.014 A 
ATOM     44  C   UNL     1      -0.960  -6.515 -17.904  1.00  0.00     0.010 A 
ATOM     45  C   UNL     1      -0.715  -8.832 -17.246  1.00  0.00     0.010 A 
ATOM     46  C   UNL     1      -0.222  -7.710 -17.930  1.00  0.00    -0.014 A 
BRANCH  46  47
ATOM     47  C   UNL     1       1.068  -7.809 -18.663  1.00  0.00     0.031 A 
ATOM     48  C   UNL     1       1.207  -8.786 -19.801  1.00  0.00     0.074 A 
ATOM     49  C   UNL     1       2.129  -7.080 -18.257  1.00  0.00     0.049 A 
ATOM     50  N   UNL     1       2.266  -9.087 -20.507  1.00  0.00    -0.248 NA
ATOM     51  C   UNL     1       0.005  -9.551 -20.171  1.00  0.00     0.031 C 
ATOM     52  C   UNL     1       2.129  -6.142 -17.131  1.00  0.00     0.029 A 
ATOM     53  N   UNL     1       3.417  -7.023 -18.730  1.00  0.00    -0.354 N 
ATOM     54  C   UNL     1       1.866 -10.091 -21.383  1.00  0.00     0.074 A 
ATOM     55  C   UNL     1       0.481 -10.382 -21.086  1.00  0.00     0.031 C 
ATOM     56  C   UNL     1       3.349  -5.591 -17.015  1.00  0.00     0.029 A 
ATOM     57  C   UNL     1       4.233  -6.169 -18.021  1.00  0.00     0.049 A 
ATOM     58  H   UNL     1       3.728  -7.544 -19.505  1.00  0.00     0.167 HD
ATOM     59  C   UNL     1       2.585 -10.700 -22.356  1.00  0.00     0.034 A 
ATOM     60  C   UNL     1       5.548  -5.897 -18.155  1.00  0.00     0.034 A 
ATOM     61  C   UNL     1       3.954 -10.370 -22.663  1.00  0.00     0.049 A 
ATOM     62  C   UNL     1       6.320  -6.584 -19.258  1.00  0.00     0.074 A 
ATOM     63  C   UNL     1       4.745 -10.857 -23.689  1.00  0.00     0.029 A 
ATOM     64  N   UNL     1       4.740  -9.479 -21.944  1.00  0.00    -0.354 N 
ATOM     65  N   UNL     1       5.899  -7.469 -20.133  1.00  0.00    -0.248 NA
ATOM     66  C   UNL     1       7.737  -6.226 -19.401  1.00  0.00     0.031 C 
ATOM     67  C   UNL     1       6.027 -10.321 -23.545  1.00  0.00     0.029 A 
ATOM     68  C   UNL     1       6.016  -9.432 -22.482  1.00  0.00     0.049 A 
ATOM     69  H   UNL     1       4.435  -8.957 -21.167  1.00  0.00     0.167 HD
ATOM     70  C   UNL     1       6.993  -7.743 -20.950  1.00  0.00     0.074 A 
ATOM     71  C   UNL     1       8.083  -6.916 -20.477  1.00  0.00     0.031 C 
ATOM     72  C   UNL     1       7.091  -8.600 -21.998  1.00  0.00     0.034 A 
BRANCH  59  73
ATOM     73  C   UNL     1       1.919 -11.800 -23.145  1.00  0.00     0.023 A 
ATOM     74  C   UNL     1       0.820 -11.555 -23.986  1.00  0.00     0.031 A 
ATOM     75  C   UNL     1       2.410 -13.116 -23.068  1.00  0.00     0.131 A 
ATOM     76  C   UNL     1       0.218 -12.617 -24.677  1.00  0.00     0.055 A 
ATOM     77  C   UNL     1       1.853 -14.155 -23.815  1.00  0.00     0.041 A 
ATOM     78  F   UNL     1       3.443 -13.414 -22.264  1.00  0.00    -0.206 F 
ATOM     79  C   UNL     1       0.744 -13.910 -24.619  1.00  0.00     0.022 A 
BRANCH  76  80
ATOM     80  S   UNL     1      -1.327 -12.306 -25.574  1.00  0.00     0.124 S 
ATOM     81  O   UNL     1      -2.213 -11.876 -24.494  1.00  0.00    -0.237 OA
ATOM     82  O   UNL     1      -0.937 -11.276 -26.529  1.00  0.00    -0.237 OA
ATOM     83  O   UNL     1      -1.653 -13.606 -26.157  1.00  0.00    -0.744 OA
ENDBRANCH  76  80
ENDBRANCH  59  73
BRANCH  60  84
ATOM     84  C   UNL     1       6.238  -4.959 -17.220  1.00  0.00     0.023 A 
ATOM     85  C   UNL     1       6.854  -3.787 -17.688  1.00  0.00     0.031 A 
ATOM     86  C   UNL     1       6.366  -5.264 -15.852  1.00  0.00     0.131 A 
ATOM     87  C   UNL     1       7.628  -3.003 -16.816  1.00  0.00     0.055 A 
ATOM     88  C   UNL     1       7.080  -4.445 -14.975  1.00  0.00     0.041 A 
ATOM     89  F   UNL     1       5.798  -6.370 -15.346  1.00  0.00    -0.206 F 
ATOM     90  C   UNL     1       7.733  -3.317 -15.460  1.00  0.00     0.022 A 
BRANCH  87  91
ATOM     91  S   UNL     1       8.607  -1.642 -17.511  1.00  0.00     0.124 S 
ATOM     92  O   UNL     1       9.374  -2.326 -18.545  1.00  0.00    -0.237 OA
ATOM     93  O   UNL     1       7.567  -0.732 -17.980  1.00  0.00    -0.237 OA
ATOM     94  O   UNL     1       9.383  -1.165 -16.369  1.00  0.00    -0.744 OA
ENDBRANCH  87  91
ENDBRANCH  60  84
BRANCH  72  95
ATOM     95  C   UNL     1       8.407  -8.638 -22.737  1.00  0.00     0.023 A 
ATOM     96  C   UNL     1       9.584  -9.112 -22.132  1.00  0.00     0.031 A 
ATOM     97  C   UNL     1       8.480  -8.189 -24.068  1.00  0.00     0.131 A 
ATOM     98  C   UNL     1      10.795  -9.072 -22.838  1.00  0.00     0.055 A 
ATOM     99  C   UNL     1       9.675  -8.214 -24.787  1.00  0.00     0.041 A 
ATOM    100  F   UNL     1       7.387  -7.724 -24.694  1.00  0.00    -0.206 F 
ATOM    101  C   UNL     1      10.845  -8.644 -24.168  1.00  0.00     0.022 A 
BRANCH  98 102
ATOM    102  S   UNL     1      12.326  -9.500 -21.965  1.00  0.00     0.124 S 
ATOM    103  O   UNL     1      12.330  -8.536 -20.870  1.00  0.00    -0.237 OA
ATOM    104  O   UNL     1      12.094 -10.891 -21.590  1.00  0.00    -0.237 OA
ATOM    105  O   UNL     1      13.365  -9.297 -22.974  1.00  0.00    -0.744 OA
ENDBRANCH  98 102
ENDBRANCH  72  95
ENDBRANCH  46  47
ENDBRANCH  38  41
ENDBRANCH  36  37
ENDBRANCH  35  36
ENDBRANCH  34  35
ENDBRANCH  33  34
ENDBRANCH  31  33
ENDBRANCH   1  29
TORSDOF 24
