REMARK SMILES C[NH2+][C@]1(C(=O)NCCCCNC(=O)c2ccc(-c3c4nc(c(-c5cc(S(=O)(=O)[O-])ccc5F)c5ccc([nH]5)c(-c5cc(S(=O)(=O)[O-])ccc5F)c5nc(c(-c6cc(S(=O)(=O)[O-])ccc6F)c6ccc3[nH]6)C=C5)C=C4)cc2)CC[C@@H](Sc2cc(F)ccc2F)C1
REMARK SMILES IDX 9 1 8 2 7 3 6 4 4 5 5 6 3 8 77 9 89 10 78 11 79 12 2 13 1 14
REMARK SMILES IDX 80 17 81 18 82 19 87 20 83 21 86 22 88 23 84 24 85 25 10 26
REMARK SMILES IDX 11 27 12 28 13 30 14 31 15 32 76 33 16 34 75 35 17 36 18 37
REMARK SMILES IDX 19 38 69 39 20 40 74 41 68 42 70 43 21 44 73 45 67 46 66 47
REMARK SMILES IDX 22 49 54 50 34 51 53 52 35 53 38 54 52 55 71 56 36 57 37 58
REMARK SMILES IDX 51 60 72 61 39 62 23 63 24 64 32 65 25 66 31 67 33 68 30 69
REMARK SMILES IDX 26 70 27 71 28 72 29 73 55 74 56 75 64 76 57 77 63 78 65 79
REMARK SMILES IDX 62 80 58 81 59 82 60 83 61 84 40 85 41 86 49 87 42 88 48 89
REMARK SMILES IDX 50 90 47 91 43 92 44 93 45 94 46 95
REMARK H PARENT 6 7 2 15 2 16 11 29 70 48 38 59
REMARK Flexibility Score: inf
ROOT
ATOM      1  C   UNL     1       2.453   1.559  -2.632  1.00  0.00     0.023 C 
ENDROOT
BRANCH   1   2
ATOM      2  C   UNL     1       1.008   1.120  -2.399  1.00  0.00     0.023 C 
BRANCH   2   3
ATOM      3  C   UNL     1       0.829  -0.377  -2.156  1.00  0.00     0.116 C 
BRANCH   3   4
ATOM      4  N   UNL     1       1.188  -0.752  -0.801  1.00  0.00    -0.351 N 
ATOM      5  C   UNL     1       0.441  -1.130   0.281  1.00  0.00     0.281 C 
ATOM      6  O   UNL     1       1.087  -1.326   1.316  1.00  0.00    -0.268 OA
ATOM      7  H   UNL     1       2.156  -0.730  -0.626  1.00  0.00     0.163 HD
BRANCH   5   8
ATOM      8  C   UNL     1      -1.116  -1.349   0.201  1.00  0.00     0.176 C 
ATOM      9  C   UNL     1      -1.855  -0.096  -0.323  1.00  0.00     0.080 C 
ATOM     10  C   UNL     1      -1.480  -2.450  -0.815  1.00  0.00     0.094 C 
ATOM     11  C   UNL     1      -3.026  -0.585  -1.179  1.00  0.00     0.022 C 
ATOM     12  C   UNL     1      -2.888  -2.104  -1.283  1.00  0.00     0.059 C 
BRANCH   8  13
ATOM     13  N   UNL     1      -1.691  -1.591   1.555  1.00  0.00    -0.336 N 
ATOM     14  C   UNL     1      -1.389  -2.880   2.157  1.00  0.00     0.331 C 
ATOM     15  H   UNL     1      -1.337  -0.865   2.178  1.00  0.00     0.346 HD
ATOM     16  H   UNL     1      -2.703  -1.577   1.429  1.00  0.00     0.346 HD
ENDBRANCH   8  13
BRANCH  12  17
ATOM     17  S   UNL     1      -3.399  -2.827  -2.893  1.00  0.00    -0.119 SA
BRANCH  17  18
ATOM     18  C   UNL     1      -2.239  -2.137  -4.066  1.00  0.00     0.046 A 
ATOM     19  C   UNL     1      -2.616  -1.036  -4.841  1.00  0.00     0.057 A 
ATOM     20  C   UNL     1      -0.992  -2.729  -4.317  1.00  0.00     0.136 A 
ATOM     21  C   UNL     1      -1.744  -0.527  -5.804  1.00  0.00     0.124 A 
ATOM     22  C   UNL     1      -0.117  -2.209  -5.274  1.00  0.00     0.043 A 
ATOM     23  F   UNL     1      -0.602  -3.809  -3.625  1.00  0.00    -0.206 F 
ATOM     24  F   UNL     1      -2.123   0.527  -6.536  1.00  0.00    -0.207 F 
ATOM     25  C   UNL     1      -0.494  -1.097  -6.021  1.00  0.00     0.042 A 
ENDBRANCH  17  18
ENDBRANCH  12  17
ENDBRANCH   5   8
ENDBRANCH   3   4
ENDBRANCH   2   3
ENDBRANCH   1   2
BRANCH   1  26
ATOM     26  C   UNL     1       3.135   0.939  -3.847  1.00  0.00     0.116 C 
BRANCH  26  27
ATOM     27  N   UNL     1       2.421   1.168  -5.093  1.00  0.00    -0.352 N 
ATOM     28  C   UNL     1       2.940   1.370  -6.354  1.00  0.00     0.251 C 
ATOM     29  H   UNL     1       1.439   1.180  -5.028  1.00  0.00     0.163 HD
ATOM     30  O   UNL     1       2.194   1.614  -7.290  1.00  0.00    -0.269 OA
BRANCH  28  31
ATOM     31  C   UNL     1       4.406   1.325  -6.543  1.00  0.00     0.039 A 
ATOM     32  C   UNL     1       5.037   2.396  -7.180  1.00  0.00     0.014 A 
ATOM     33  C   UNL     1       5.156   0.254  -6.048  1.00  0.00     0.014 A 
ATOM     34  C   UNL     1       6.432   2.428  -7.256  1.00  0.00     0.010 A 
ATOM     35  C   UNL     1       6.546   0.320  -6.068  1.00  0.00     0.010 A 
ATOM     36  C   UNL     1       7.199   1.410  -6.665  1.00  0.00    -0.014 A 
BRANCH  36  37
ATOM     37  C   UNL     1       8.684   1.469  -6.654  1.00  0.00     0.031 A 
ATOM     38  C   UNL     1       9.484   0.431  -7.391  1.00  0.00     0.074 A 
ATOM     39  C   UNL     1       9.308   2.409  -5.916  1.00  0.00     0.049 A 
ATOM     40  N   UNL     1      10.779   0.256  -7.427  1.00  0.00    -0.248 NA
ATOM     41  C   UNL     1       8.720  -0.561  -8.162  1.00  0.00     0.031 C 
ATOM     42  C   UNL     1       8.639   3.439  -5.118  1.00  0.00     0.029 A 
ATOM     43  N   UNL     1      10.643   2.642  -5.703  1.00  0.00    -0.354 N 
ATOM     44  C   UNL     1      10.987  -0.875  -8.210  1.00  0.00     0.074 A 
ATOM     45  C   UNL     1       9.678  -1.374  -8.578  1.00  0.00     0.031 C 
ATOM     46  C   UNL     1       9.566   4.202  -4.517  1.00  0.00     0.029 A 
ATOM     47  C   UNL     1      10.893   3.693  -4.851  1.00  0.00     0.049 A 
ATOM     48  H   UNL     1      11.356   2.108  -6.122  1.00  0.00     0.167 HD
ATOM     49  C   UNL     1      12.160  -1.433  -8.600  1.00  0.00     0.034 A 
ATOM     50  C   UNL     1      12.057   4.183  -4.380  1.00  0.00     0.034 A 
ATOM     51  C   UNL     1      13.456  -0.912  -8.237  1.00  0.00     0.049 A 
ATOM     52  C   UNL     1      13.349   3.547  -4.828  1.00  0.00     0.074 A 
ATOM     53  C   UNL     1      14.706  -1.359  -8.631  1.00  0.00     0.029 A 
ATOM     54  N   UNL     1      13.670   0.167  -7.389  1.00  0.00    -0.354 N 
ATOM     55  N   UNL     1      13.530   2.512  -5.614  1.00  0.00    -0.248 NA
ATOM     56  C   UNL     1      14.592   4.154  -4.334  1.00  0.00     0.031 C 
ATOM     57  C   UNL     1      15.674  -0.591  -7.973  1.00  0.00     0.029 A 
ATOM     58  C   UNL     1      15.030   0.382  -7.225  1.00  0.00     0.049 A 
ATOM     59  H   UNL     1      12.960   0.701  -6.966  1.00  0.00     0.167 HD
ATOM     60  C   UNL     1      14.909   2.361  -5.731  1.00  0.00     0.074 A 
ATOM     61  C   UNL     1      15.510   3.421  -4.946  1.00  0.00     0.031 C 
ATOM     62  C   UNL     1      15.615   1.435  -6.428  1.00  0.00     0.034 A 
BRANCH  49  63
ATOM     63  C   UNL     1      12.087  -2.684  -9.443  1.00  0.00     0.023 A 
ATOM     64  C   UNL     1      11.501  -2.681 -10.721  1.00  0.00     0.031 A 
ATOM     65  C   UNL     1      12.583  -3.904  -8.950  1.00  0.00     0.131 A 
ATOM     66  C   UNL     1      11.355  -3.884 -11.428  1.00  0.00     0.055 A 
ATOM     67  C   UNL     1      12.508  -5.084  -9.695  1.00  0.00     0.041 A 
ATOM     68  F   UNL     1      13.134  -3.975  -7.729  1.00  0.00    -0.206 F 
ATOM     69  C   UNL     1      11.877  -5.081 -10.935  1.00  0.00     0.022 A 
BRANCH  66  70
ATOM     70  S   UNL     1      10.344  -3.884 -12.934  1.00  0.00     0.124 S 
ATOM     71  O   UNL     1       9.054  -3.427 -12.422  1.00  0.00    -0.237 OA
ATOM     72  O   UNL     1      11.058  -2.948 -13.794  1.00  0.00    -0.237 OA
ATOM     73  O   UNL     1      10.375  -5.279 -13.368  1.00  0.00    -0.744 OA
ENDBRANCH  66  70
ENDBRANCH  49  63
BRANCH  50  74
ATOM     74  C   UNL     1      12.063   5.328  -3.426  1.00  0.00     0.023 A 
ATOM     75  C   UNL     1      12.600   6.572  -3.791  1.00  0.00     0.031 A 
ATOM     76  C   UNL     1      11.560   5.183  -2.121  1.00  0.00     0.131 A 
ATOM     77  C   UNL     1      12.662   7.611  -2.849  1.00  0.00     0.055 A 
ATOM     78  C   UNL     1      11.580   6.234  -1.202  1.00  0.00     0.041 A 
ATOM     79  F   UNL     1      11.028   4.016  -1.725  1.00  0.00    -0.206 F 
ATOM     80  C   UNL     1      12.146   7.454  -1.561  1.00  0.00     0.022 A 
BRANCH  77  81
ATOM     81  S   UNL     1      13.498   9.153  -3.311  1.00  0.00     0.124 S 
ATOM     82  O   UNL     1      14.835   8.678  -3.648  1.00  0.00    -0.237 OA
ATOM     83  O   UNL     1      12.680   9.617  -4.426  1.00  0.00    -0.237 OA
ATOM     84  O   UNL     1      13.410   9.964  -2.098  1.00  0.00    -0.744 OA
ENDBRANCH  77  81
ENDBRANCH  50  74
BRANCH  62  85
ATOM     85  C   UNL     1      17.119   1.560  -6.403  1.00  0.00     0.023 A 
ATOM     86  C   UNL     1      17.861   1.334  -5.231  1.00  0.00     0.031 A 
ATOM     87  C   UNL     1      17.816   1.919  -7.570  1.00  0.00     0.131 A 
ATOM     88  C   UNL     1      19.251   1.522  -5.238  1.00  0.00     0.055 A 
ATOM     89  C   UNL     1      19.205   2.049  -7.585  1.00  0.00     0.041 A 
ATOM     90  F   UNL     1      17.156   2.148  -8.717  1.00  0.00    -0.206 F 
ATOM     91  C   UNL     1      19.930   1.863  -6.412  1.00  0.00     0.022 A 
BRANCH  88  92
ATOM     92  S   UNL     1      20.155   1.400  -3.670  1.00  0.00     0.124 S 
ATOM     93  O   UNL     1      19.503   2.426  -2.863  1.00  0.00    -0.237 OA
ATOM     94  O   UNL     1      19.903   0.019  -3.271  1.00  0.00    -0.237 OA
ATOM     95  O   UNL     1      21.537   1.693  -4.047  1.00  0.00    -0.744 OA
ENDBRANCH  88  92
ENDBRANCH  62  85
ENDBRANCH  36  37
ENDBRANCH  28  31
ENDBRANCH  26  27
ENDBRANCH   1  26
TORSDOF 17
