REMARK SMILES COC(=O)[C@H]1CCN(C(=O)Nc2sccc2C(=O)NCCCCNC(=O)c2ccc(-c3c4nc(c(-c5cc(S(=O)(=O)[O-])ccc5F)c5ccc([nH]5)c(-c5cc(S(=O)(=O)[O-])ccc5F)c5nc(c(-c6cc(S(=O)(=O)[O-])ccc6F)c6ccc3[nH]6)C=C5)C=C4)cc2)C1
REMARK SMILES IDX 21 1 20 2 19 3 17 4 18 5 16 7 12 8 13 9 14 10 15 11 11 12
REMARK SMILES IDX 9 13 10 14 8 16 5 17 6 18 90 19 7 20 3 21 4 22 2 23 1 24
REMARK SMILES IDX 22 25 23 26 24 27 25 28 26 30 27 31 28 32 89 33 29 34 88 35
REMARK SMILES IDX 30 36 31 37 32 38 82 39 33 40 87 41 81 42 83 43 34 44 86 45
REMARK SMILES IDX 80 46 79 47 35 49 67 50 47 51 66 52 48 53 51 54 65 55 84 56
REMARK SMILES IDX 49 57 50 58 64 60 85 61 52 62 36 63 37 64 45 65 38 66 44 67
REMARK SMILES IDX 46 68 43 69 39 70 40 71 41 72 42 73 68 74 69 75 77 76 70 77
REMARK SMILES IDX 76 78 78 79 75 80 71 81 72 82 73 83 74 84 53 85 54 86 62 87
REMARK SMILES IDX 55 88 61 89 63 90 60 91 56 92 57 93 58 94 59 95
REMARK H PARENT 19 6 11 15 24 29 83 48 51 59
REMARK Flexibility Score: inf
ROOT
ATOM      1  C   UNL     1      -3.173  -6.474   5.467  1.00  0.00     0.023 C 
ENDROOT
BRANCH   1   2
ATOM      2  C   UNL     1      -2.223  -6.319   4.286  1.00  0.00     0.116 C 
BRANCH   2   3
ATOM      3  N   UNL     1      -0.840  -6.099   4.652  1.00  0.00    -0.352 N 
ATOM      4  C   UNL     1       0.315  -6.476   4.013  1.00  0.00     0.254 C 
ATOM      5  O   UNL     1       1.382  -6.173   4.551  1.00  0.00    -0.269 OA
ATOM      6  H   UNL     1      -0.707  -5.603   5.492  1.00  0.00     0.163 HD
BRANCH   4   7
ATOM      7  C   UNL     1       0.318  -7.296   2.796  1.00  0.00     0.074 A 
ATOM      8  C   UNL     1      -0.493  -7.263   1.673  1.00  0.00     0.109 A 
ATOM      9  S   UNL     1      -0.241  -8.597   0.631  1.00  0.00    -0.126 S 
ATOM     10  C   UNL     1       1.203  -9.015   1.427  1.00  0.00     0.068 A 
ATOM     11  C   UNL     1       1.373  -8.269   2.570  1.00  0.00     0.028 A 
BRANCH   8  12
ATOM     12  N   UNL     1      -1.462  -6.441   1.152  1.00  0.00    -0.299 N 
ATOM     13  C   UNL     1      -1.716  -5.133   1.389  1.00  0.00     0.322 C 
ATOM     14  O   UNL     1      -2.881  -4.748   1.262  1.00  0.00    -0.248 OA
ATOM     15  H   UNL     1      -2.067  -6.870   0.505  1.00  0.00     0.172 HD
BRANCH  13  16
ATOM     16  N   UNL     1      -0.713  -4.273   1.717  1.00  0.00    -0.324 N 
ATOM     17  C   UNL     1       0.315  -2.231   2.362  1.00  0.00     0.120 C 
ATOM     18  C   UNL     1       1.334  -3.368   2.338  1.00  0.00     0.039 C 
ATOM     19  C   UNL     1      -1.030  -2.938   2.211  1.00  0.00     0.136 C 
ATOM     20  C   UNL     1       0.697  -4.349   1.377  1.00  0.00     0.122 C 
BRANCH  17  21
ATOM     21  C   UNL     1       0.417  -1.434   3.633  1.00  0.00     0.310 C 
ATOM     22  O   UNL     1      -0.253  -1.618   4.641  1.00  0.00    -0.252 OA
BRANCH  21  23
ATOM     23  O   UNL     1       1.399  -0.498   3.497  1.00  0.00    -0.469 OA
ATOM     24  C   UNL     1       1.597   0.320   4.650  1.00  0.00     0.282 C 
ENDBRANCH  21  23
ENDBRANCH  17  21
ENDBRANCH  13  16
ENDBRANCH   8  12
ENDBRANCH   4   7
ENDBRANCH   2   3
ENDBRANCH   1   2
BRANCH   1  25
ATOM     25  C   UNL     1      -3.418  -5.210   6.293  1.00  0.00     0.023 C 
BRANCH  25  26
ATOM     26  C   UNL     1      -3.847  -3.963   5.521  1.00  0.00     0.116 C 
BRANCH  26  27
ATOM     27  N   UNL     1      -5.072  -4.139   4.752  1.00  0.00    -0.352 N 
ATOM     28  C   UNL     1      -6.283  -3.493   4.865  1.00  0.00     0.251 C 
ATOM     29  H   UNL     1      -5.027  -4.824   4.046  1.00  0.00     0.163 HD
ATOM     30  O   UNL     1      -7.249  -3.877   4.213  1.00  0.00    -0.269 OA
BRANCH  28  31
ATOM     31  C   UNL     1      -6.426  -2.358   5.804  1.00  0.00     0.039 A 
ATOM     32  C   UNL     1      -7.510  -2.335   6.683  1.00  0.00     0.014 A 
ATOM     33  C   UNL     1      -5.472  -1.338   5.842  1.00  0.00     0.014 A 
ATOM     34  C   UNL     1      -7.582  -1.343   7.666  1.00  0.00     0.010 A 
ATOM     35  C   UNL     1      -5.497  -0.406   6.877  1.00  0.00     0.010 A 
ATOM     36  C   UNL     1      -6.547  -0.403   7.808  1.00  0.00    -0.014 A 
BRANCH  36  37
ATOM     37  C   UNL     1      -6.543   0.576   8.930  1.00  0.00     0.031 A 
ATOM     38  C   UNL     1      -6.576   2.054   8.647  1.00  0.00     0.074 A 
ATOM     39  C   UNL     1      -6.455   0.137  10.203  1.00  0.00     0.049 A 
ATOM     40  N   UNL     1      -6.516   3.059   9.483  1.00  0.00    -0.248 NA
ATOM     41  C   UNL     1      -6.661   2.454   7.234  1.00  0.00     0.031 C 
ATOM     42  C   UNL     1      -6.368  -1.269  10.606  1.00  0.00     0.029 A 
ATOM     43  N   UNL     1      -6.417   0.822  11.393  1.00  0.00    -0.354 N 
ATOM     44  C   UNL     1      -6.556   4.208   8.700  1.00  0.00     0.074 A 
ATOM     45  C   UNL     1      -6.566   3.772   7.320  1.00  0.00     0.031 C 
ATOM     46  C   UNL     1      -6.317  -1.342  11.946  1.00  0.00     0.029 A 
ATOM     47  C   UNL     1      -6.312   0.009  12.499  1.00  0.00     0.049 A 
ATOM     48  H   UNL     1      -6.460   1.804  11.450  1.00  0.00     0.167 HD
ATOM     49  C   UNL     1      -6.612   5.505   9.095  1.00  0.00     0.034 A 
ATOM     50  C   UNL     1      -6.207   0.312  13.809  1.00  0.00     0.034 A 
ATOM     51  C   UNL     1      -6.598   5.925  10.475  1.00  0.00     0.049 A 
ATOM     52  C   UNL     1      -6.226   1.764  14.223  1.00  0.00     0.074 A 
ATOM     53  C   UNL     1      -6.680   7.209  10.986  1.00  0.00     0.029 A 
ATOM     54  N   UNL     1      -6.488   5.072  11.567  1.00  0.00    -0.354 N 
ATOM     55  N   UNL     1      -6.310   2.837  13.469  1.00  0.00    -0.248 NA
ATOM     56  C   UNL     1      -6.150   2.046  15.662  1.00  0.00     0.031 C 
ATOM     57  C   UNL     1      -6.544   7.139  12.376  1.00  0.00     0.029 A 
ATOM     58  C   UNL     1      -6.470   5.806  12.744  1.00  0.00     0.049 A 
ATOM     59  H   UNL     1      -6.430   4.091  11.513  1.00  0.00     0.167 HD
ATOM     60  C   UNL     1      -6.331   3.917  14.348  1.00  0.00     0.074 A 
ATOM     61  C   UNL     1      -6.269   3.365  15.685  1.00  0.00     0.031 C 
ATOM     62  C   UNL     1      -6.400   5.245  14.074  1.00  0.00     0.034 A 
BRANCH  49  63
ATOM     63  C   UNL     1      -6.676   6.557   8.013  1.00  0.00     0.023 A 
ATOM     64  C   UNL     1      -7.751   6.617   7.108  1.00  0.00     0.031 A 
ATOM     65  C   UNL     1      -5.644   7.501   7.867  1.00  0.00     0.131 A 
ATOM     66  C   UNL     1      -7.734   7.546   6.057  1.00  0.00     0.055 A 
ATOM     67  C   UNL     1      -5.676   8.480   6.872  1.00  0.00     0.041 A 
ATOM     68  F   UNL     1      -4.579   7.482   8.685  1.00  0.00    -0.206 F 
ATOM     69  C   UNL     1      -6.718   8.497   5.950  1.00  0.00     0.022 A 
BRANCH  66  70
ATOM     70  S   UNL     1      -8.980   7.394   4.749  1.00  0.00     0.124 S 
ATOM     71  O   UNL     1      -8.730   6.040   4.260  1.00  0.00    -0.237 OA
ATOM     72  O   UNL     1     -10.229   7.590   5.476  1.00  0.00    -0.237 OA
ATOM     73  O   UNL     1      -8.627   8.461   3.814  1.00  0.00    -0.744 OA
ENDBRANCH  66  70
ENDBRANCH  49  63
BRANCH  50  74
ATOM     74  C   UNL     1      -6.052  -0.768  14.829  1.00  0.00     0.023 A 
ATOM     75  C   UNL     1      -7.011  -0.965  15.836  1.00  0.00     0.031 A 
ATOM     76  C   UNL     1      -4.908  -1.587  14.844  1.00  0.00     0.131 A 
ATOM     77  C   UNL     1      -6.784  -1.916  16.844  1.00  0.00     0.055 A 
ATOM     78  C   UNL     1      -4.718  -2.575  15.811  1.00  0.00     0.041 A 
ATOM     79  F   UNL     1      -3.958  -1.443  13.906  1.00  0.00    -0.206 F 
ATOM     80  C   UNL     1      -5.652  -2.733  16.829  1.00  0.00     0.022 A 
BRANCH  77  81
ATOM     81  S   UNL     1      -7.939  -1.995  18.241  1.00  0.00     0.124 S 
ATOM     82  O   UNL     1      -7.883  -0.629  18.750  1.00  0.00    -0.237 OA
ATOM     83  O   UNL     1      -9.182  -2.387  17.585  1.00  0.00    -0.237 OA
ATOM     84  O   UNL     1      -7.350  -3.010  19.112  1.00  0.00    -0.744 OA
ENDBRANCH  77  81
ENDBRANCH  50  74
BRANCH  62  85
ATOM     85  C   UNL     1      -6.468   6.191  15.250  1.00  0.00     0.023 A 
ATOM     86  C   UNL     1      -5.399   6.336  16.152  1.00  0.00     0.031 A 
ATOM     87  C   UNL     1      -7.628   6.956  15.473  1.00  0.00     0.131 A 
ATOM     88  C   UNL     1      -5.533   7.180  17.265  1.00  0.00     0.055 A 
ATOM     89  C   UNL     1      -7.729   7.845  16.544  1.00  0.00     0.041 A 
ATOM     90  F   UNL     1      -8.682   6.856  14.648  1.00  0.00    -0.206 F 
ATOM     91  C   UNL     1      -6.683   7.951  17.455  1.00  0.00     0.022 A 
BRANCH  88  92
ATOM     92  S   UNL     1      -4.223   7.183  18.520  1.00  0.00     0.124 S 
ATOM     93  O   UNL     1      -4.184   5.779  18.920  1.00  0.00    -0.237 OA
ATOM     94  O   UNL     1      -3.070   7.664  17.767  1.00  0.00    -0.237 OA
ATOM     95  O   UNL     1      -4.726   8.103  19.539  1.00  0.00    -0.744 OA
ENDBRANCH  88  92
ENDBRANCH  62  85
ENDBRANCH  36  37
ENDBRANCH  28  31
ENDBRANCH  26  27
ENDBRANCH  25  26
ENDBRANCH   1  25
TORSDOF 18
