REMARK SMILES CC[C@](O)(C(=O)NCCCCNC(=O)c1ccc(-c2c3nc(c(-c4cc(S(=O)(=O)[O-])ccc4F)c4ccc([nH]4)c(-c4cc(S(=O)(=O)[O-])ccc4F)c4nc(c(-c5cc(S(=O)(=O)[O-])ccc5F)c5ccc2[nH]5)C=C4)C=C3)cc1)[C@@H](C)c1ccc2c(c1)OCCO2
REMARK SMILES IDX 10 1 9 2 8 3 7 4 5 5 6 6 3 8 2 9 1 10 78 11 79 12 80 13
REMARK SMILES IDX 81 14 85 15 82 16 84 17 83 18 86 19 89 20 87 21 88 22 4 23
REMARK SMILES IDX 11 25 12 26 13 27 14 29 15 30 16 31 77 32 17 33 76 34 18 35
REMARK SMILES IDX 19 36 20 37 70 38 21 39 75 40 69 41 71 42 22 43 74 44 68 45
REMARK SMILES IDX 67 46 23 48 55 49 35 50 54 51 36 52 39 53 53 54 72 55 37 56
REMARK SMILES IDX 38 57 52 59 73 60 40 61 24 62 25 63 33 64 26 65 32 66 34 67
REMARK SMILES IDX 31 68 27 69 28 70 29 71 30 72 56 73 57 74 65 75 58 76 64 77
REMARK SMILES IDX 66 78 63 79 59 80 60 81 61 82 62 83 41 84 42 85 50 86 43 87
REMARK SMILES IDX 49 88 51 89 48 90 44 91 45 92 46 93 47 94
REMARK H PARENT 7 7 4 24 12 28 71 47 39 58
REMARK Flexibility Score: inf
ROOT
ATOM      1  C   UNL     1      -3.678  -3.975   1.832  1.00  0.00     0.023 C 
ENDROOT
BRANCH   1   2
ATOM      2  C   UNL     1      -2.842  -3.005   1.001  1.00  0.00     0.023 C 
BRANCH   2   3
ATOM      3  C   UNL     1      -1.948  -2.068   1.801  1.00  0.00     0.116 C 
BRANCH   3   4
ATOM      4  N   UNL     1      -0.925  -2.740   2.586  1.00  0.00    -0.354 N 
ATOM      5  C   UNL     1       0.346  -2.341   2.912  1.00  0.00     0.252 C 
ATOM      6  O   UNL     1       0.935  -3.004   3.772  1.00  0.00    -0.272 OA
ATOM      7  H   UNL     1      -1.185  -3.621   2.940  1.00  0.00     0.163 HD
BRANCH   5   8
ATOM      8  C   UNL     1       0.997  -1.065   2.287  1.00  0.00     0.149 C 
BRANCH   8   9
ATOM      9  C   UNL     1       0.534   0.172   3.119  1.00  0.00     0.043 C 
ATOM     10  C   UNL     1      -0.943   0.481   3.287  1.00  0.00     0.007 C 
ENDBRANCH   8   9
BRANCH   8  11
ATOM     11  C   UNL     1       2.610  -1.215   2.323  1.00  0.00     0.058 C 
ATOM     12  C   UNL     1       3.090  -2.470   1.571  1.00  0.00     0.016 C 
BRANCH  11  13
ATOM     13  C   UNL     1       3.290   0.063   1.769  1.00  0.00    -0.038 A 
ATOM     14  C   UNL     1       3.543   0.225   0.393  1.00  0.00     0.008 A 
ATOM     15  C   UNL     1       3.295   1.197   2.594  1.00  0.00     0.054 A 
ATOM     16  C   UNL     1       3.465   1.490  -0.188  1.00  0.00     0.051 A 
ATOM     17  C   UNL     1       3.032   2.424   2.000  1.00  0.00     0.161 A 
ATOM     18  C   UNL     1       3.065   2.550   0.611  1.00  0.00     0.161 A 
ATOM     19  O   UNL     1       2.493   3.389   2.811  1.00  0.00    -0.486 OA
ATOM     20  O   UNL     1       2.474   3.632   0.002  1.00  0.00    -0.486 OA
ATOM     21  C   UNL     1       1.484   4.176   2.155  1.00  0.00     0.271 C 
ATOM     22  C   UNL     1       1.227   3.814   0.693  1.00  0.00     0.271 C 
ENDBRANCH  11  13
ENDBRANCH   8  11
BRANCH   8  23
ATOM     23  O   UNL     1       0.609  -0.888   0.920  1.00  0.00    -0.379 OA
ATOM     24  H   UNL     1       0.895  -1.655   0.400  1.00  0.00     0.212 HD
ENDBRANCH   8  23
ENDBRANCH   5   8
ENDBRANCH   3   4
ENDBRANCH   2   3
ENDBRANCH   1   2
BRANCH   1  25
ATOM     25  C   UNL     1      -4.453  -3.365   2.995  1.00  0.00     0.116 C 
BRANCH  25  26
ATOM     26  N   UNL     1      -5.401  -2.340   2.587  1.00  0.00    -0.352 N 
ATOM     27  C   UNL     1      -6.756  -2.249   2.822  1.00  0.00     0.251 C 
ATOM     28  H   UNL     1      -5.016  -1.600   2.063  1.00  0.00     0.163 HD
ATOM     29  O   UNL     1      -7.403  -1.364   2.284  1.00  0.00    -0.269 OA
BRANCH  27  30
ATOM     30  C   UNL     1      -7.425  -3.245   3.694  1.00  0.00     0.039 A 
ATOM     31  C   UNL     1      -8.647  -3.786   3.286  1.00  0.00     0.014 A 
ATOM     32  C   UNL     1      -6.854  -3.648   4.903  1.00  0.00     0.014 A 
ATOM     33  C   UNL     1      -9.262  -4.774   4.061  1.00  0.00     0.010 A 
ATOM     34  C   UNL     1      -7.418  -4.699   5.622  1.00  0.00     0.010 A 
ATOM     35  C   UNL     1      -8.639  -5.262   5.221  1.00  0.00    -0.014 A 
BRANCH  35  36
ATOM     36  C   UNL     1      -9.274  -6.321   6.052  1.00  0.00     0.031 A 
ATOM     37  C   UNL     1      -9.667  -6.022   7.476  1.00  0.00     0.074 A 
ATOM     38  C   UNL     1      -9.457  -7.558   5.547  1.00  0.00     0.049 A 
ATOM     39  N   UNL     1     -10.196  -6.811   8.376  1.00  0.00    -0.248 NA
ATOM     40  C   UNL     1      -9.393  -4.661   7.962  1.00  0.00     0.031 C 
ATOM     41  C   UNL     1      -9.076  -7.988   4.200  1.00  0.00     0.029 A 
ATOM     42  N   UNL     1     -10.013  -8.682   6.106  1.00  0.00    -0.354 N 
ATOM     43  C   UNL     1     -10.296  -6.050   9.537  1.00  0.00     0.074 A 
ATOM     44  C   UNL     1      -9.704  -4.763   9.244  1.00  0.00     0.031 C 
ATOM     45  C   UNL     1      -9.445  -9.268   4.025  1.00  0.00     0.029 A 
ATOM     46  C   UNL     1     -10.053  -9.764   5.256  1.00  0.00     0.049 A 
ATOM     47  H   UNL     1     -10.351  -8.712   7.030  1.00  0.00     0.167 HD
ATOM     48  C   UNL     1     -10.856  -6.381  10.728  1.00  0.00     0.034 A 
ATOM     49  C   UNL     1     -10.528 -11.011   5.447  1.00  0.00     0.034 A 
ATOM     50  C   UNL     1     -11.465  -7.662  10.994  1.00  0.00     0.049 A 
ATOM     51  C   UNL     1     -11.150 -11.357   6.777  1.00  0.00     0.074 A 
ATOM     52  C   UNL     1     -12.114  -8.087  12.141  1.00  0.00     0.029 A 
ATOM     53  N   UNL     1     -11.499  -8.727  10.103  1.00  0.00    -0.354 N 
ATOM     54  N   UNL     1     -11.291 -10.607   7.846  1.00  0.00    -0.248 NA
ATOM     55  C   UNL     1     -11.697 -12.713   6.917  1.00  0.00     0.031 C 
ATOM     56  C   UNL     1     -12.477  -9.427  11.969  1.00  0.00     0.029 A 
ATOM     57  C   UNL     1     -12.134  -9.815  10.683  1.00  0.00     0.049 A 
ATOM     58  H   UNL     1     -11.126  -8.713   9.192  1.00  0.00     0.167 HD
ATOM     59  C   UNL     1     -11.986 -11.388   8.768  1.00  0.00     0.074 A 
ATOM     60  C   UNL     1     -12.241 -12.659   8.123  1.00  0.00     0.031 C 
ATOM     61  C   UNL     1     -12.384 -11.079  10.029  1.00  0.00     0.034 A 
BRANCH  48  62
ATOM     62  C   UNL     1     -10.805  -5.347  11.831  1.00  0.00     0.023 A 
ATOM     63  C   UNL     1     -11.417  -4.088  11.696  1.00  0.00     0.031 A 
ATOM     64  C   UNL     1     -10.097  -5.606  13.018  1.00  0.00     0.131 A 
ATOM     65  C   UNL     1     -11.231  -3.107  12.682  1.00  0.00     0.055 A 
ATOM     66  C   UNL     1      -9.995  -4.658  14.038  1.00  0.00     0.041 A 
ATOM     67  F   UNL     1      -9.473  -6.781  13.200  1.00  0.00    -0.206 F 
ATOM     68  C   UNL     1     -10.547  -3.392  13.865  1.00  0.00     0.022 A 
BRANCH  65  69
ATOM     69  S   UNL     1     -11.748  -1.406  12.319  1.00  0.00     0.124 S 
ATOM     70  O   UNL     1     -10.973  -1.113  11.116  1.00  0.00    -0.237 OA
ATOM     71  O   UNL     1     -13.187  -1.546  12.134  1.00  0.00    -0.237 OA
ATOM     72  O   UNL     1     -11.340  -0.662  13.509  1.00  0.00    -0.744 OA
ENDBRANCH  65  69
ENDBRANCH  48  62
BRANCH  49  73
ATOM     73  C   UNL     1     -10.461 -12.026   4.354  1.00  0.00     0.023 A 
ATOM     74  C   UNL     1     -11.633 -12.548   3.783  1.00  0.00     0.031 A 
ATOM     75  C   UNL     1      -9.229 -12.527   3.900  1.00  0.00     0.131 A 
ATOM     76  C   UNL     1     -11.552 -13.576   2.831  1.00  0.00     0.055 A 
ATOM     77  C   UNL     1      -9.151 -13.511   2.913  1.00  0.00     0.041 A 
ATOM     78  F   UNL     1      -8.077 -12.059   4.407  1.00  0.00    -0.206 F 
ATOM     79  C   UNL     1     -10.318 -14.053   2.383  1.00  0.00     0.022 A 
BRANCH  76  80
ATOM     80  S   UNL     1     -13.089 -14.348   2.252  1.00  0.00     0.124 S 
ATOM     81  O   UNL     1     -13.667 -14.831   3.500  1.00  0.00    -0.237 OA
ATOM     82  O   UNL     1     -13.772 -13.224   1.620  1.00  0.00    -0.237 OA
ATOM     83  O   UNL     1     -12.623 -15.386   1.335  1.00  0.00    -0.744 OA
ENDBRANCH  76  80
ENDBRANCH  49  73
BRANCH  61  84
ATOM     84  C   UNL     1     -13.204 -12.114  10.764  1.00  0.00     0.023 A 
ATOM     85  C   UNL     1     -12.678 -13.368  11.120  1.00  0.00     0.031 A 
ATOM     86  C   UNL     1     -14.547 -11.847  11.087  1.00  0.00     0.131 A 
ATOM     87  C   UNL     1     -13.509 -14.332  11.711  1.00  0.00     0.055 A 
ATOM     88  C   UNL     1     -15.349 -12.784  11.739  1.00  0.00     0.041 A 
ATOM     89  F   UNL     1     -15.104 -10.667  10.769  1.00  0.00    -0.206 F 
ATOM     90  C   UNL     1     -14.836 -14.042  12.039  1.00  0.00     0.022 A 
BRANCH  87  91
ATOM     91  S   UNL     1     -12.868 -16.015  11.935  1.00  0.00     0.124 S 
ATOM     92  O   UNL     1     -12.449 -16.363  10.581  1.00  0.00    -0.237 OA
ATOM     93  O   UNL     1     -11.794 -15.813  12.902  1.00  0.00    -0.237 OA
ATOM     94  O   UNL     1     -14.023 -16.758  12.437  1.00  0.00    -0.744 OA
ENDBRANCH  87  91
ENDBRANCH  61  84
ENDBRANCH  35  36
ENDBRANCH  27  30
ENDBRANCH  25  26
ENDBRANCH   1  25
TORSDOF 18
