REMARK SMILES [H]/N=C1\C=CC2=NC(C(=O)NCCCCNC(=O)c3ccc(-c4c5nc(c(-c6cc(S(=O)(=O)[O-])ccc6F)c6ccc([nH]6)c(-c6cc(S(=O)(=O)[O-])ccc6F)c6nc(c(-c7cc(S(=O)(=O)[O-])ccc7F)c7ccc4[nH]7)C=C6)C=C5)cc3)=C[C@@H]2C1
REMARK SMILES IDX 15 1 14 2 13 3 12 4 11 5 9 6 10 7 8 9 2 10 3 11 1 12 4 13
REMARK SMILES IDX 84 14 5 15 83 16 6 17 82 18 7 19 16 20 17 21 18 23 19 24
REMARK SMILES IDX 20 25 81 26 21 27 80 28 22 29 23 30 24 31 74 32 25 33 79 34
REMARK SMILES IDX 73 35 75 36 26 37 78 38 72 39 71 40 27 42 59 43 39 44 58 45
REMARK SMILES IDX 40 46 43 47 57 48 76 49 41 50 42 51 56 53 77 54 44 55 28 56
REMARK SMILES IDX 29 57 37 58 30 59 36 60 38 61 35 62 31 63 32 64 33 65 34 66
REMARK SMILES IDX 60 67 61 68 69 69 62 70 68 71 70 72 67 73 63 74 64 75 65 76
REMARK SMILES IDX 66 77 45 78 46 79 54 80 47 81 53 82 55 83 52 84 48 85 49 86
REMARK SMILES IDX 50 87 51 88
REMARK H PARENT 11 8 16 22 75 41 43 52
REMARK Flexibility Score: inf
ROOT
ATOM      1  C   UNL     1      -9.118   4.583  -1.439  1.00  0.00     0.116 C 
ENDROOT
BRANCH   1   2
ATOM      2  C   UNL     1      -8.019   4.894  -0.431  1.00  0.00     0.023 C 
BRANCH   2   3
ATOM      3  C   UNL     1      -6.967   3.782  -0.277  1.00  0.00     0.023 C 
BRANCH   3   4
ATOM      4  C   UNL     1      -6.164   3.458  -1.544  1.00  0.00     0.116 C 
BRANCH   4   5
ATOM      5  N   UNL     1      -5.329   4.581  -1.919  1.00  0.00    -0.351 N 
ATOM      6  C   UNL     1      -3.997   4.842  -1.883  1.00  0.00     0.269 C 
ATOM      7  O   UNL     1      -3.671   6.006  -2.141  1.00  0.00    -0.268 OA
ATOM      8  H   UNL     1      -5.850   5.331  -2.288  1.00  0.00     0.163 HD
BRANCH   6   9
ATOM      9  C   UNL     1      -2.928   3.801  -1.645  1.00  0.00     0.125 C 
ATOM     10  N   UNL     1       1.082   0.020   0.175  1.00  0.00    -0.305 NA
ATOM     11  C   UNL     1       0.459   1.000  -0.394  1.00  0.00     0.032 C 
ATOM     12  H   UNL     1       2.054  -0.080   0.058  1.00  0.00     0.187 HD
ATOM     13  C   UNL     1       1.183   2.027  -1.189  1.00  0.00     0.025 C 
ATOM     14  C   UNL     1      -1.044   1.119  -0.188  1.00  0.00     0.069 C 
ATOM     15  C   UNL     1       0.540   3.022  -1.807  1.00  0.00     0.026 C 
ATOM     16  C   UNL     1      -1.697   1.855  -1.333  1.00  0.00     0.069 C 
ATOM     17  C   UNL     1      -0.921   3.078  -1.729  1.00  0.00     0.049 C 
ATOM     18  C   UNL     1      -2.999   2.565  -1.123  1.00  0.00     0.017 C 
ATOM     19  N   UNL     1      -1.624   4.131  -1.987  1.00  0.00    -0.247 NA
ENDBRANCH   6   9
ENDBRANCH   4   5
ENDBRANCH   3   4
ENDBRANCH   2   3
ENDBRANCH   1   2
BRANCH   1  20
ATOM     20  N   UNL     1      -9.958   3.454  -1.045  1.00  0.00    -0.352 N 
ATOM     21  C   UNL     1     -11.062   2.942  -1.712  1.00  0.00     0.251 C 
ATOM     22  H   UNL     1      -9.710   3.002  -0.206  1.00  0.00     0.163 HD
ATOM     23  O   UNL     1     -11.894   2.283  -1.110  1.00  0.00    -0.269 OA
BRANCH  21  24
ATOM     24  C   UNL     1     -11.208   3.218  -3.158  1.00  0.00     0.039 A 
ATOM     25  C   UNL     1     -12.453   3.472  -3.739  1.00  0.00     0.014 A 
ATOM     26  C   UNL     1     -10.054   3.243  -3.936  1.00  0.00     0.014 A 
ATOM     27  C   UNL     1     -12.502   3.833  -5.087  1.00  0.00     0.010 A 
ATOM     28  C   UNL     1     -10.085   3.766  -5.204  1.00  0.00     0.010 A 
ATOM     29  C   UNL     1     -11.307   4.007  -5.812  1.00  0.00    -0.014 A 
BRANCH  29  30
ATOM     30  C   UNL     1     -11.309   4.570  -7.162  1.00  0.00     0.031 A 
ATOM     31  C   UNL     1     -12.096   5.825  -7.282  1.00  0.00     0.074 A 
ATOM     32  C   UNL     1     -10.533   4.128  -8.180  1.00  0.00     0.049 A 
ATOM     33  N   UNL     1     -13.239   5.970  -7.861  1.00  0.00    -0.248 NA
ATOM     34  C   UNL     1     -11.667   7.010  -6.521  1.00  0.00     0.031 C 
ATOM     35  C   UNL     1      -9.507   3.078  -8.163  1.00  0.00     0.029 A 
ATOM     36  N   UNL     1     -10.441   4.597  -9.457  1.00  0.00    -0.354 N 
ATOM     37  C   UNL     1     -13.553   7.320  -7.766  1.00  0.00     0.074 A 
ATOM     38  C   UNL     1     -12.673   7.854  -6.761  1.00  0.00     0.031 C 
ATOM     39  C   UNL     1      -8.756   3.146  -9.287  1.00  0.00     0.029 A 
ATOM     40  C   UNL     1      -9.349   4.121 -10.186  1.00  0.00     0.049 A 
ATOM     41  H   UNL     1     -11.096   5.226  -9.837  1.00  0.00     0.167 HD
ATOM     42  C   UNL     1     -14.341   7.915  -8.704  1.00  0.00     0.034 A 
ATOM     43  C   UNL     1      -8.964   4.481 -11.444  1.00  0.00     0.034 A 
ATOM     44  C   UNL     1     -15.049   6.920  -9.484  1.00  0.00     0.049 A 
ATOM     45  C   UNL     1     -10.176   5.020 -12.108  1.00  0.00     0.074 A 
ATOM     46  C   UNL     1     -15.927   5.898  -9.171  1.00  0.00     0.029 A 
ATOM     47  N   UNL     1     -14.558   6.608 -10.734  1.00  0.00    -0.354 N 
ATOM     48  N   UNL     1     -11.223   4.287 -12.372  1.00  0.00    -0.248 NA
ATOM     49  C   UNL     1     -10.429   6.448 -12.002  1.00  0.00     0.031 C 
ATOM     50  C   UNL     1     -15.509   4.800  -9.980  1.00  0.00     0.029 A 
ATOM     51  C   UNL     1     -14.482   5.238 -10.819  1.00  0.00     0.049 A 
ATOM     52  H   UNL     1     -14.308   7.250 -11.438  1.00  0.00     0.167 HD
ATOM     53  C   UNL     1     -12.307   5.075 -12.018  1.00  0.00     0.074 A 
ATOM     54  C   UNL     1     -11.761   6.427 -11.883  1.00  0.00     0.031 C 
ATOM     55  C   UNL     1     -13.480   4.521 -11.590  1.00  0.00     0.034 A 
BRANCH  42  56
ATOM     56  C   UNL     1     -14.199   9.348  -9.171  1.00  0.00     0.023 A 
ATOM     57  C   UNL     1     -15.092   9.793 -10.165  1.00  0.00     0.031 A 
ATOM     58  C   UNL     1     -13.091  10.190  -8.923  1.00  0.00     0.131 A 
ATOM     59  C   UNL     1     -14.818  10.945 -10.923  1.00  0.00     0.055 A 
ATOM     60  C   UNL     1     -12.857  11.370  -9.634  1.00  0.00     0.041 A 
ATOM     61  F   UNL     1     -12.125   9.882  -8.052  1.00  0.00    -0.206 F 
ATOM     62  C   UNL     1     -13.704  11.737 -10.665  1.00  0.00     0.022 A 
BRANCH  59  63
ATOM     63  S   UNL     1     -15.847  11.285 -12.373  1.00  0.00     0.124 S 
ATOM     64  O   UNL     1     -15.742  10.030 -13.109  1.00  0.00    -0.237 OA
ATOM     65  O   UNL     1     -17.141  11.569 -11.762  1.00  0.00    -0.237 OA
ATOM     66  O   UNL     1     -15.187  12.431 -12.995  1.00  0.00    -0.744 OA
ENDBRANCH  59  63
ENDBRANCH  42  56
BRANCH  43  67
ATOM     67  C   UNL     1      -7.579   4.704 -11.960  1.00  0.00     0.023 A 
ATOM     68  C   UNL     1      -7.255   4.758 -13.338  1.00  0.00     0.031 A 
ATOM     69  C   UNL     1      -6.577   5.141 -11.064  1.00  0.00     0.131 A 
ATOM     70  C   UNL     1      -5.987   5.238 -13.760  1.00  0.00     0.055 A 
ATOM     71  C   UNL     1      -5.335   5.622 -11.487  1.00  0.00     0.041 A 
ATOM     72  F   UNL     1      -6.809   5.199  -9.743  1.00  0.00    -0.206 F 
ATOM     73  C   UNL     1      -5.037   5.682 -12.838  1.00  0.00     0.022 A 
BRANCH  70  74
ATOM     74  S   UNL     1      -5.569   5.371 -15.535  1.00  0.00     0.124 S 
ATOM     75  O   UNL     1      -5.513   3.974 -15.948  1.00  0.00    -0.237 OA
ATOM     76  O   UNL     1      -6.675   6.161 -16.063  1.00  0.00    -0.237 OA
ATOM     77  O   UNL     1      -4.276   6.059 -15.533  1.00  0.00    -0.744 OA
ENDBRANCH  70  74
ENDBRANCH  43  67
BRANCH  55  78
ATOM     78  C   UNL     1     -13.686   3.025 -11.766  1.00  0.00     0.023 A 
ATOM     79  C   UNL     1     -12.850   2.009 -11.241  1.00  0.00     0.031 A 
ATOM     80  C   UNL     1     -14.869   2.620 -12.411  1.00  0.00     0.131 A 
ATOM     81  C   UNL     1     -13.214   0.652 -11.381  1.00  0.00     0.055 A 
ATOM     82  C   UNL     1     -15.237   1.280 -12.525  1.00  0.00     0.041 A 
ATOM     83  F   UNL     1     -15.715   3.533 -12.916  1.00  0.00    -0.206 F 
ATOM     84  C   UNL     1     -14.407   0.290 -12.015  1.00  0.00     0.022 A 
BRANCH  81  85
ATOM     85  S   UNL     1     -12.131  -0.682 -10.764  1.00  0.00     0.124 S 
ATOM     86  O   UNL     1     -10.815  -0.321 -11.278  1.00  0.00    -0.237 OA
ATOM     87  O   UNL     1     -12.300  -0.587  -9.317  1.00  0.00    -0.237 OA
ATOM     88  O   UNL     1     -12.705  -1.890 -11.362  1.00  0.00    -0.744 OA
ENDBRANCH  81  85
ENDBRANCH  55  78
ENDBRANCH  29  30
ENDBRANCH  21  24
ENDBRANCH   1  20
TORSDOF 14
