REMARK SMILES COc1cc(NS(=O)(=O)c2cc(C)c(C(=O)NCCCCNC(=O)c3ccc(-c4c5nc(c(-c6cc(S(=O)(=O)[O-])ccc6F)c6ccc([nH]6)c(-c6cc(S(=O)(=O)[O-])ccc6F)c6nc(c(-c7cc(S(=O)(=O)[O-])ccc7F)c7ccc4[nH]7)C=C6)C=C5)cc3)s2)cc(OC)c1
REMARK SMILES IDX 19 1 18 2 17 3 15 4 16 5 14 7 10 8 11 9 88 10 12 11 13 12
REMARK SMILES IDX 7 13 8 14 9 15 6 16 5 18 3 19 4 20 93 21 90 22 89 23 2 24
REMARK SMILES IDX 1 25 91 26 92 27 20 28 21 29 22 30 23 31 24 33 25 34 26 35
REMARK SMILES IDX 87 36 27 37 86 38 28 39 29 40 30 41 80 42 31 43 85 44 79 45
REMARK SMILES IDX 81 46 32 47 84 48 78 49 77 50 33 52 65 53 45 54 64 55 46 56
REMARK SMILES IDX 49 57 63 58 82 59 47 60 48 61 62 63 83 64 50 65 34 66 35 67
REMARK SMILES IDX 43 68 36 69 42 70 44 71 41 72 37 73 38 74 39 75 40 76 66 77
REMARK SMILES IDX 67 78 75 79 68 80 74 81 76 82 73 83 69 84 70 85 71 86 72 87
REMARK SMILES IDX 51 88 52 89 60 90 53 91 59 92 61 93 58 94 54 95 55 96 56 97
REMARK SMILES IDX 57 98
REMARK H PARENT 17 6 6 17 22 32 81 51 49 62
REMARK Flexibility Score: inf
ROOT
ATOM      1  C   UNL     1      -1.949  -0.223   3.758  1.00  0.00     0.023 C 
ENDROOT
BRANCH   1   2
ATOM      2  C   UNL     1      -3.119   0.175   2.852  1.00  0.00     0.116 C 
BRANCH   2   3
ATOM      3  N   UNL     1      -2.662   0.413   1.508  1.00  0.00    -0.351 N 
ATOM      4  C   UNL     1      -2.599  -0.334   0.366  1.00  0.00     0.261 C 
ATOM      5  O   UNL     1      -2.165   0.327  -0.589  1.00  0.00    -0.268 OA
ATOM      6  H   UNL     1      -2.315   1.325   1.383  1.00  0.00     0.163 HD
BRANCH   4   7
ATOM      7  C   UNL     1      -2.948  -1.757   0.220  1.00  0.00     0.096 A 
ATOM      8  C   UNL     1      -2.858  -3.840  -1.138  1.00  0.00     0.141 A 
ATOM      9  C   UNL     1      -3.092  -4.103   0.188  1.00  0.00     0.038 A 
ATOM     10  S   UNL     1      -3.203  -2.215  -1.471  1.00  0.00    -0.116 S 
ATOM     11  C   UNL     1      -3.051  -2.911   1.011  1.00  0.00    -0.026 A 
ATOM     12  C   UNL     1      -2.926  -3.136   2.480  1.00  0.00     0.046 C 
BRANCH   8  13
ATOM     13  S   UNL     1      -2.196  -4.842  -2.435  1.00  0.00     0.271 S 
ATOM     14  O   UNL     1      -3.224  -4.920  -3.444  1.00  0.00    -0.200 OA
ATOM     15  O   UNL     1      -1.729  -6.045  -1.766  1.00  0.00    -0.200 OA
BRANCH  13  16
ATOM     16  N   UNL     1      -0.850  -4.109  -3.151  1.00  0.00    -0.279 N 
ATOM     17  H   UNL     1      -0.876  -3.924  -4.118  1.00  0.00     0.180 HD
BRANCH  16  18
ATOM     18  C   UNL     1       0.334  -3.744  -2.415  1.00  0.00     0.056 A 
ATOM     19  C   UNL     1       1.430  -2.423  -0.702  1.00  0.00     0.124 A 
ATOM     20  C   UNL     1       0.294  -3.046  -1.212  1.00  0.00     0.073 A 
ATOM     21  C   UNL     1       2.659  -2.555  -1.329  1.00  0.00     0.093 A 
ATOM     22  C   UNL     1       2.736  -3.282  -2.515  1.00  0.00     0.124 A 
ATOM     23  C   UNL     1       1.571  -3.845  -3.064  1.00  0.00     0.073 A 
BRANCH  19  24
ATOM     24  O   UNL     1       1.294  -1.675   0.437  1.00  0.00    -0.497 OA
ATOM     25  C   UNL     1       1.296  -0.279   0.114  1.00  0.00     0.278 C 
ENDBRANCH  19  24
BRANCH  22  26
ATOM     26  O   UNL     1       3.877  -3.485  -3.245  1.00  0.00    -0.497 OA
ATOM     27  C   UNL     1       5.075  -2.927  -2.715  1.00  0.00     0.278 C 
ENDBRANCH  22  26
ENDBRANCH  16  18
ENDBRANCH  13  16
ENDBRANCH   8  13
ENDBRANCH   4   7
ENDBRANCH   2   3
ENDBRANCH   1   2
BRANCH   1  28
ATOM     28  C   UNL     1      -1.386   0.924   4.605  1.00  0.00     0.023 C 
BRANCH  28  29
ATOM     29  C   UNL     1      -2.356   1.481   5.645  1.00  0.00     0.116 C 
BRANCH  29  30
ATOM     30  N   UNL     1      -2.864   0.476   6.567  1.00  0.00    -0.352 N 
ATOM     31  C   UNL     1      -3.365   0.655   7.835  1.00  0.00     0.251 C 
ATOM     32  H   UNL     1      -2.846  -0.453   6.240  1.00  0.00     0.163 HD
ATOM     33  O   UNL     1      -3.676  -0.320   8.512  1.00  0.00    -0.269 OA
BRANCH  31  34
ATOM     34  C   UNL     1      -3.461   2.022   8.389  1.00  0.00     0.039 A 
ATOM     35  C   UNL     1      -2.916   2.272   9.650  1.00  0.00     0.014 A 
ATOM     36  C   UNL     1      -4.035   3.058   7.649  1.00  0.00     0.014 A 
ATOM     37  C   UNL     1      -2.876   3.579  10.136  1.00  0.00     0.010 A 
ATOM     38  C   UNL     1      -3.933   4.368   8.104  1.00  0.00     0.010 A 
ATOM     39  C   UNL     1      -3.346   4.642   9.348  1.00  0.00    -0.014 A 
BRANCH  39  40
ATOM     40  C   UNL     1      -3.223   6.049   9.806  1.00  0.00     0.031 A 
ATOM     41  C   UNL     1      -4.457   6.860  10.085  1.00  0.00     0.074 A 
ATOM     42  C   UNL     1      -2.002   6.612   9.897  1.00  0.00     0.049 A 
ATOM     43  N   UNL     1      -4.561   8.119  10.424  1.00  0.00    -0.248 NA
ATOM     44  C   UNL     1      -5.745   6.170   9.926  1.00  0.00     0.031 C 
ATOM     45  C   UNL     1      -0.736   5.941   9.592  1.00  0.00     0.029 A 
ATOM     46  N   UNL     1      -1.626   7.880  10.261  1.00  0.00    -0.354 N 
ATOM     47  C   UNL     1      -5.925   8.378  10.504  1.00  0.00     0.074 A 
ATOM     48  C   UNL     1      -6.605   7.159  10.116  1.00  0.00     0.031 C 
ATOM     49  C   UNL     1       0.277   6.798   9.803  1.00  0.00     0.029 A 
ATOM     50  C   UNL     1      -0.266   8.085  10.223  1.00  0.00     0.049 A 
ATOM     51  H   UNL     1      -2.268   8.578  10.524  1.00  0.00     0.167 HD
ATOM     52  C   UNL     1      -6.551   9.518  10.888  1.00  0.00     0.034 A 
ATOM     53  C   UNL     1       0.459   9.188  10.494  1.00  0.00     0.034 A 
ATOM     54  C   UNL     1      -5.857  10.717  11.290  1.00  0.00     0.049 A 
ATOM     55  C   UNL     1      -0.257  10.438  10.933  1.00  0.00     0.074 A 
ATOM     56  C   UNL     1      -6.387  11.906  11.760  1.00  0.00     0.029 A 
ATOM     57  N   UNL     1      -4.478  10.881  11.265  1.00  0.00    -0.354 N 
ATOM     58  N   UNL     1      -1.546  10.649  11.062  1.00  0.00    -0.248 NA
ATOM     59  C   UNL     1       0.582  11.593  11.277  1.00  0.00     0.031 C 
ATOM     60  C   UNL     1      -5.334  12.804  11.969  1.00  0.00     0.029 A 
ATOM     61  C   UNL     1      -4.141  12.157  11.688  1.00  0.00     0.049 A 
ATOM     62  H   UNL     1      -3.833  10.190  10.988  1.00  0.00     0.167 HD
ATOM     63  C   UNL     1      -1.671  11.956  11.524  1.00  0.00     0.074 A 
ATOM     64  C   UNL     1      -0.326  12.476  11.666  1.00  0.00     0.031 C 
ATOM     65  C   UNL     1      -2.794  12.663  11.808  1.00  0.00     0.034 A 
BRANCH  52  66
ATOM     66  C   UNL     1      -8.061   9.514  10.867  1.00  0.00     0.023 A 
ATOM     67  C   UNL     1      -8.805   8.652  11.692  1.00  0.00     0.031 A 
ATOM     68  C   UNL     1      -8.765  10.347   9.980  1.00  0.00     0.131 A 
ATOM     69  C   UNL     1     -10.199   8.579  11.552  1.00  0.00     0.055 A 
ATOM     70  C   UNL     1     -10.159  10.329   9.905  1.00  0.00     0.041 A 
ATOM     71  F   UNL     1      -8.108  11.177   9.155  1.00  0.00    -0.206 F 
ATOM     72  C   UNL     1     -10.884   9.429  10.681  1.00  0.00     0.022 A 
BRANCH  69  73
ATOM     73  S   UNL     1     -11.085   7.251  12.413  1.00  0.00     0.124 S 
ATOM     74  O   UNL     1     -10.455   6.062  11.845  1.00  0.00    -0.237 OA
ATOM     75  O   UNL     1     -10.783   7.527  13.813  1.00  0.00    -0.237 OA
ATOM     76  O   UNL     1     -12.477   7.458  12.022  1.00  0.00    -0.744 OA
ENDBRANCH  69  73
ENDBRANCH  52  66
BRANCH  53  77
ATOM     77  C   UNL     1       1.941   9.166  10.362  1.00  0.00     0.023 A 
ATOM     78  C   UNL     1       2.767   9.277  11.491  1.00  0.00     0.031 A 
ATOM     79  C   UNL     1       2.554   9.069   9.100  1.00  0.00     0.131 A 
ATOM     80  C   UNL     1       4.161   9.332  11.335  1.00  0.00     0.055 A 
ATOM     81  C   UNL     1       3.942   9.082   8.953  1.00  0.00     0.041 A 
ATOM     82  F   UNL     1       1.807   8.949   7.991  1.00  0.00    -0.206 F 
ATOM     83  C   UNL     1       4.754   9.226  10.074  1.00  0.00     0.022 A 
BRANCH  80  84
ATOM     84  S   UNL     1       5.188   9.614  12.803  1.00  0.00     0.124 S 
ATOM     85  O   UNL     1       4.664  10.883  13.294  1.00  0.00    -0.237 OA
ATOM     86  O   UNL     1       4.886   8.438  13.612  1.00  0.00    -0.237 OA
ATOM     87  O   UNL     1       6.545   9.664  12.263  1.00  0.00    -0.744 OA
ENDBRANCH  80  84
ENDBRANCH  53  77
BRANCH  65  88
ATOM     88  C   UNL     1      -2.599  14.062  12.333  1.00  0.00     0.023 A 
ATOM     89  C   UNL     1      -2.094  15.090  11.518  1.00  0.00     0.031 A 
ATOM     90  C   UNL     1      -2.901  14.363  13.672  1.00  0.00     0.131 A 
ATOM     91  C   UNL     1      -1.854  16.359  12.064  1.00  0.00     0.055 A 
ATOM     92  C   UNL     1      -2.710  15.642  14.197  1.00  0.00     0.041 A 
ATOM     93  F   UNL     1      -3.384  13.417  14.493  1.00  0.00    -0.206 F 
ATOM     94  C   UNL     1      -2.172  16.645  13.395  1.00  0.00     0.022 A 
BRANCH  91  95
ATOM     95  S   UNL     1      -1.040  17.610  11.034  1.00  0.00     0.124 S 
ATOM     96  O   UNL     1       0.218  16.953  10.695  1.00  0.00    -0.237 OA
ATOM     97  O   UNL     1      -1.988  17.777   9.938  1.00  0.00    -0.237 OA
ATOM     98  O   UNL     1      -0.917  18.762  11.927  1.00  0.00    -0.744 OA
ENDBRANCH  91  95
ENDBRANCH  65  88
ENDBRANCH  39  40
ENDBRANCH  31  34
ENDBRANCH  29  30
ENDBRANCH  28  29
ENDBRANCH   1  28
TORSDOF 19
