REMARK SMILES Cc1ccc(N)cc1S(=O)(=O)Nc1cccc(C(=O)NCCCCNC(=O)c2ccc(-c3c4nc(c(-c5cc(S(=O)(=O)[O-])ccc5F)c5ccc([nH]5)c(-c5cc(S(=O)(=O)[O-])ccc5F)c5nc(c(-c6cc(S(=O)(=O)[O-])ccc6F)c6ccc3[nH]6)C=C5)C=C4)cc2)c1
REMARK SMILES IDX 22 1 21 2 20 3 18 4 19 5 17 7 13 8 14 9 91 10 15 11 16 12
REMARK SMILES IDX 12 13 9 15 10 16 11 17 8 18 1 19 2 20 3 21 4 22 7 23 5 24
REMARK SMILES IDX 6 25 23 28 24 29 25 30 26 31 27 33 28 34 29 35 90 36 30 37
REMARK SMILES IDX 89 38 31 39 32 40 33 41 83 42 34 43 88 44 82 45 84 46 35 47
REMARK SMILES IDX 87 48 81 49 80 50 36 52 68 53 48 54 67 55 49 56 52 57 66 58
REMARK SMILES IDX 85 59 50 60 51 61 65 63 86 64 53 65 37 66 38 67 46 68 39 69
REMARK SMILES IDX 45 70 47 71 44 72 40 73 41 74 42 75 43 76 69 77 70 78 78 79
REMARK SMILES IDX 71 80 77 81 79 82 76 83 72 84 73 85 74 86 75 87 54 88 55 89
REMARK SMILES IDX 63 90 56 91 62 92 64 93 61 94 57 95 58 96 59 97 60 98
REMARK H PARENT 20 6 12 14 6 26 6 27 25 32 84 51 52 62
REMARK Flexibility Score: inf
ROOT
ATOM      1  C   UNL     1      -1.659   0.277   3.962  1.00  0.00     0.023 C 
ENDROOT
BRANCH   1   2
ATOM      2  C   UNL     1      -1.669  -0.832   2.908  1.00  0.00     0.116 C 
BRANCH   2   3
ATOM      3  N   UNL     1      -2.841  -1.673   3.070  1.00  0.00    -0.352 N 
ATOM      4  C   UNL     1      -4.109  -1.615   2.552  1.00  0.00     0.251 C 
ATOM      5  O   UNL     1      -4.908  -2.479   2.918  1.00  0.00    -0.269 OA
ATOM      6  H   UNL     1      -2.697  -2.438   3.673  1.00  0.00     0.163 HD
BRANCH   4   7
ATOM      7  C   UNL     1      -4.549  -0.630   1.518  1.00  0.00     0.041 A 
ATOM      8  C   UNL     1      -4.227   1.294   0.084  1.00  0.00     0.050 A 
ATOM      9  C   UNL     1      -5.358   0.942  -0.658  1.00  0.00     0.027 A 
ATOM     10  C   UNL     1      -3.905   0.577   1.235  1.00  0.00     0.040 A 
ATOM     11  C   UNL     1      -6.084  -0.197  -0.326  1.00  0.00     0.003 A 
ATOM     12  C   UNL     1      -5.657  -0.997   0.733  1.00  0.00     0.014 A 
BRANCH   8  13
ATOM     13  N   UNL     1      -3.385   2.288  -0.479  1.00  0.00    -0.280 N 
ATOM     14  H   UNL     1      -3.788   2.867  -1.166  1.00  0.00     0.180 HD
BRANCH  13  15
ATOM     15  S   UNL     1      -1.787   2.584  -0.103  1.00  0.00     0.262 S 
ATOM     16  O   UNL     1      -1.719   2.862   1.317  1.00  0.00    -0.201 OA
ATOM     17  O   UNL     1      -1.362   3.575  -1.072  1.00  0.00    -0.201 OA
BRANCH  15  18
ATOM     18  C   UNL     1      -0.758   1.145  -0.391  1.00  0.00     0.092 A 
ATOM     19  C   UNL     1      -2.359  -0.326  -1.808  1.00  0.00     0.046 C 
ATOM     20  C   UNL     1      -1.104  -0.049  -1.042  1.00  0.00    -0.030 A 
ATOM     21  C   UNL     1      -0.193  -1.124  -0.972  1.00  0.00     0.007 A 
ATOM     22  C   UNL     1       1.069  -0.982  -0.393  1.00  0.00     0.026 A 
ATOM     23  C   UNL     1       0.538   1.277   0.165  1.00  0.00     0.048 A 
ATOM     24  C   UNL     1       1.473   0.243   0.118  1.00  0.00     0.033 A 
BRANCH  24  25
ATOM     25  N   UNL     1       2.722   0.389   0.691  1.00  0.00    -0.399 N 
ATOM     26  H   UNL     1       3.371  -0.350   0.650  1.00  0.00     0.156 HD
ATOM     27  H   UNL     1       2.962   1.231   1.141  1.00  0.00     0.156 HD
ENDBRANCH  24  25
ENDBRANCH  15  18
ENDBRANCH  13  15
ENDBRANCH   8  13
ENDBRANCH   4   7
ENDBRANCH   2   3
ENDBRANCH   1   2
BRANCH   1  28
ATOM     28  C   UNL     1      -1.051  -0.159   5.297  1.00  0.00     0.023 C 
BRANCH  28  29
ATOM     29  C   UNL     1       0.447  -0.447   5.245  1.00  0.00     0.116 C 
BRANCH  29  30
ATOM     30  N   UNL     1       1.233   0.697   4.816  1.00  0.00    -0.352 N 
ATOM     31  C   UNL     1       2.491   1.078   5.214  1.00  0.00     0.251 C 
ATOM     32  H   UNL     1       0.805   1.280   4.148  1.00  0.00     0.163 HD
ATOM     33  O   UNL     1       2.964   2.138   4.815  1.00  0.00    -0.269 OA
BRANCH  31  34
ATOM     34  C   UNL     1       3.253   0.227   6.154  1.00  0.00     0.039 A 
ATOM     35  C   UNL     1       3.879   0.832   7.246  1.00  0.00     0.014 A 
ATOM     36  C   UNL     1       3.344  -1.156   5.968  1.00  0.00     0.014 A 
ATOM     37  C   UNL     1       4.548   0.043   8.183  1.00  0.00     0.010 A 
ATOM     38  C   UNL     1       3.954  -1.948   6.939  1.00  0.00     0.010 A 
ATOM     39  C   UNL     1       4.564  -1.356   8.055  1.00  0.00    -0.014 A 
BRANCH  39  40
ATOM     40  C   UNL     1       5.213  -2.201   9.090  1.00  0.00     0.031 A 
ATOM     41  C   UNL     1       6.441  -3.003   8.759  1.00  0.00     0.074 A 
ATOM     42  C   UNL     1       4.670  -2.266  10.322  1.00  0.00     0.049 A 
ATOM     43  N   UNL     1       7.151  -3.784   9.532  1.00  0.00    -0.248 NA
ATOM     44  C   UNL     1       6.915  -2.942   7.369  1.00  0.00     0.031 C 
ATOM     45  C   UNL     1       3.444  -1.582  10.742  1.00  0.00     0.029 A 
ATOM     46  N   UNL     1       5.077  -2.934  11.448  1.00  0.00    -0.354 N 
ATOM     47  C   UNL     1       8.154  -4.309   8.724  1.00  0.00     0.074 A 
ATOM     48  C   UNL     1       7.917  -3.808   7.386  1.00  0.00     0.031 C 
ATOM     49  C   UNL     1       3.220  -1.837  12.041  1.00  0.00     0.029 A 
ATOM     50  C   UNL     1       4.266  -2.724  12.539  1.00  0.00     0.049 A 
ATOM     51  H   UNL     1       5.875  -3.510  11.473  1.00  0.00     0.167 HD
ATOM     52  C   UNL     1       9.191  -5.113   9.070  1.00  0.00     0.034 A 
ATOM     53  C   UNL     1       4.361  -3.188  13.800  1.00  0.00     0.034 A 
ATOM     54  C   UNL     1       9.417  -5.598  10.411  1.00  0.00     0.049 A 
ATOM     55  C   UNL     1       5.530  -4.065  14.165  1.00  0.00     0.074 A 
ATOM     56  C   UNL     1      10.460  -6.377  10.884  1.00  0.00     0.029 A 
ATOM     57  N   UNL     1       8.584  -5.353  11.496  1.00  0.00    -0.354 N 
ATOM     58  N   UNL     1       6.507  -4.501  13.402  1.00  0.00    -0.248 NA
ATOM     59  C   UNL     1       5.620  -4.494  15.565  1.00  0.00     0.031 C 
ATOM     60  C   UNL     1      10.228  -6.648  12.238  1.00  0.00     0.029 A 
ATOM     61  C   UNL     1       9.076  -5.984  12.629  1.00  0.00     0.049 A 
ATOM     62  H   UNL     1       7.763  -4.811  11.464  1.00  0.00     0.167 HD
ATOM     63  C   UNL     1       7.340  -5.237  14.240  1.00  0.00     0.074 A 
ATOM     64  C   UNL     1       6.764  -5.161  15.567  1.00  0.00     0.031 C 
ATOM     65  C   UNL     1       8.478  -5.916  13.941  1.00  0.00     0.034 A 
BRANCH  52  66
ATOM     66  C   UNL     1      10.141  -5.528   7.972  1.00  0.00     0.023 A 
ATOM     67  C   UNL     1      10.921  -4.586   7.278  1.00  0.00     0.031 A 
ATOM     68  C   UNL     1      10.248  -6.877   7.591  1.00  0.00     0.131 A 
ATOM     69  C   UNL     1      11.714  -4.992   6.194  1.00  0.00     0.055 A 
ATOM     70  C   UNL     1      11.101  -7.287   6.563  1.00  0.00     0.041 A 
ATOM     71  F   UNL     1       9.514  -7.821   8.202  1.00  0.00    -0.206 F 
ATOM     72  C   UNL     1      11.829  -6.340   5.848  1.00  0.00     0.022 A 
BRANCH  69  73
ATOM     73  S   UNL     1      12.485  -3.719   5.157  1.00  0.00     0.124 S 
ATOM     74  O   UNL     1      11.317  -2.992   4.667  1.00  0.00    -0.237 OA
ATOM     75  O   UNL     1      13.330  -3.006   6.108  1.00  0.00    -0.237 OA
ATOM     76  O   UNL     1      13.200  -4.490   4.142  1.00  0.00    -0.744 OA
ENDBRANCH  69  73
ENDBRANCH  52  66
BRANCH  53  77
ATOM     77  C   UNL     1       3.335  -2.827  14.819  1.00  0.00     0.023 A 
ATOM     78  C   UNL     1       3.668  -2.040  15.932  1.00  0.00     0.031 A 
ATOM     79  C   UNL     1       2.016  -3.304  14.717  1.00  0.00     0.131 A 
ATOM     80  C   UNL     1       2.710  -1.795  16.928  1.00  0.00     0.055 A 
ATOM     81  C   UNL     1       1.053  -3.016  15.686  1.00  0.00     0.041 A 
ATOM     82  F   UNL     1       1.644  -4.053  13.667  1.00  0.00    -0.206 F 
ATOM     83  C   UNL     1       1.401  -2.269  16.807  1.00  0.00     0.022 A 
BRANCH  80  84
ATOM     84  S   UNL     1       3.224  -0.918  18.430  1.00  0.00     0.124 S 
ATOM     85  O   UNL     1       4.316  -1.758  18.908  1.00  0.00    -0.237 OA
ATOM     86  O   UNL     1       3.603   0.388  17.901  1.00  0.00    -0.237 OA
ATOM     87  O   UNL     1       2.020  -0.927  19.258  1.00  0.00    -0.744 OA
ENDBRANCH  80  84
ENDBRANCH  53  77
BRANCH  65  88
ATOM     88  C   UNL     1       9.176  -6.601  15.091  1.00  0.00     0.023 A 
ATOM     89  C   UNL     1       8.584  -7.678  15.773  1.00  0.00     0.031 A 
ATOM     90  C   UNL     1      10.425  -6.138  15.539  1.00  0.00     0.131 A 
ATOM     91  C   UNL     1       9.206  -8.210  16.912  1.00  0.00     0.055 A 
ATOM     92  C   UNL     1      11.069  -6.713  16.636  1.00  0.00     0.041 A 
ATOM     93  F   UNL     1      11.035  -5.112  14.925  1.00  0.00    -0.206 F 
ATOM     94  C   UNL     1      10.452  -7.743  17.340  1.00  0.00     0.022 A 
BRANCH  91  95
ATOM     95  S   UNL     1       8.309  -9.441  17.897  1.00  0.00     0.124 S 
ATOM     96  O   UNL     1       7.066  -8.740  18.202  1.00  0.00    -0.237 OA
ATOM     97  O   UNL     1       8.197 -10.561  16.968  1.00  0.00    -0.237 OA
ATOM     98  O   UNL     1       9.188  -9.671  19.042  1.00  0.00    -0.744 OA
ENDBRANCH  91  95
ENDBRANCH  65  88
ENDBRANCH  39  40
ENDBRANCH  31  34
ENDBRANCH  29  30
ENDBRANCH  28  29
ENDBRANCH   1  28
TORSDOF 18
