REMARK SMILES CC(C)(C)OC(=O)N1CCC[C@H]1C(=O)N[C@@H](Cc1ccccc1)C(=O)NCCCCNC(=O)c1ccc(-c2c3nc(c(-c4cc(S(=O)(=O)[O-])ccc4F)c4ccc([nH]4)c(-c4cc(S(=O)(=O)[O-])ccc4F)c4nc(c(-c5cc(S(=O)(=O)[O-])ccc5F)c5ccc2[nH]5)C=C4)C=C3)cc1
REMARK SMILES IDX 27 1 26 2 24 3 25 4 16 6 15 7 13 8 14 9 12 11 8 12 9 13
REMARK SMILES IDX 10 14 11 15 6 16 7 17 5 18 2 19 1 20 3 21 4 22 17 23 18 24
REMARK SMILES IDX 19 25 23 26 20 27 22 28 21 29 28 30 29 31 30 32 31 33 32 34
REMARK SMILES IDX 33 36 34 37 35 38 96 39 36 40 95 41 37 42 38 43 39 44 89 45
REMARK SMILES IDX 40 46 94 47 88 48 90 49 41 50 93 51 87 52 86 53 42 55 74 56
REMARK SMILES IDX 54 57 73 58 55 59 58 60 72 61 91 62 56 63 57 64 71 66 92 67
REMARK SMILES IDX 59 68 43 69 44 70 52 71 45 72 51 73 53 74 50 75 46 76 47 77
REMARK SMILES IDX 48 78 49 79 75 80 76 81 84 82 77 83 83 84 85 85 82 86 78 87
REMARK SMILES IDX 79 88 80 89 81 90 60 91 61 92 69 93 62 94 68 95 70 96 67 97
REMARK SMILES IDX 63 98 64 99 65 100 66 101
REMARK H PARENT 26 5 15 10 31 35 90 54 58 65
REMARK Flexibility Score: inf
ROOT
ATOM      1  C   UNL     1      -3.144  -4.570   6.769  1.00  0.00     0.116 C 
ENDROOT
BRANCH   1   2
ATOM      2  N   UNL     1      -3.306  -4.029   5.436  1.00  0.00    -0.354 N 
ATOM      3  C   UNL     1      -3.284  -4.682   4.236  1.00  0.00     0.242 C 
ATOM      4  O   UNL     1      -3.984  -4.213   3.328  1.00  0.00    -0.273 OA
ATOM      5  H   UNL     1      -3.451  -3.057   5.388  1.00  0.00     0.163 HD
BRANCH   3   6
ATOM      6  C   UNL     1      -2.550  -6.029   4.005  1.00  0.00     0.175 C 
BRANCH   6   7
ATOM      7  N   UNL     1      -1.247  -6.143   4.670  1.00  0.00    -0.342 N 
ATOM      8  C   UNL     1      -0.019  -5.743   4.217  1.00  0.00     0.243 C 
ATOM      9  O   UNL     1       0.891  -5.630   5.043  1.00  0.00    -0.273 OA
ATOM     10  H   UNL     1      -1.257  -6.563   5.561  1.00  0.00     0.164 HD
BRANCH   8  11
ATOM     11  C   UNL     1       0.237  -5.594   2.704  1.00  0.00     0.178 C 
ATOM     12  N   UNL     1       0.988  -4.402   2.333  1.00  0.00    -0.296 N 
ATOM     13  C   UNL     1       2.249  -4.725   1.702  1.00  0.00     0.124 C 
ATOM     14  C   UNL     1       2.049  -6.144   1.198  1.00  0.00     0.024 C 
ATOM     15  C   UNL     1       1.122  -6.762   2.239  1.00  0.00     0.037 C 
BRANCH  12  16
ATOM     16  C   UNL     1       0.389  -3.170   2.389  1.00  0.00     0.410 C 
ATOM     17  O   UNL     1      -0.639  -2.970   3.025  1.00  0.00    -0.224 OA
BRANCH  16  18
ATOM     18  O   UNL     1       1.020  -2.255   1.612  1.00  0.00    -0.444 OA
BRANCH  18  19
ATOM     19  C   UNL     1       0.513  -0.900   1.479  1.00  0.00     0.106 C 
ATOM     20  C   UNL     1       1.222  -0.331   0.239  1.00  0.00     0.056 C 
ATOM     21  C   UNL     1       0.923  -0.092   2.711  1.00  0.00     0.056 C 
ATOM     22  C   UNL     1      -1.001  -0.820   1.228  1.00  0.00     0.056 C 
ENDBRANCH  18  19
ENDBRANCH  16  18
ENDBRANCH  12  16
ENDBRANCH   8  11
ENDBRANCH   6   7
BRANCH   6  23
ATOM     23  C   UNL     1      -3.455  -7.269   4.164  1.00  0.00     0.070 C 
BRANCH  23  24
ATOM     24  C   UNL     1      -3.885  -7.656   5.557  1.00  0.00    -0.045 A 
ATOM     25  C   UNL     1      -5.039  -7.096   6.122  1.00  0.00     0.004 A 
ATOM     26  C   UNL     1      -3.150  -8.585   6.305  1.00  0.00     0.004 A 
ATOM     27  C   UNL     1      -5.405  -7.397   7.436  1.00  0.00     0.000 A 
ATOM     28  C   UNL     1      -3.534  -8.907   7.609  1.00  0.00     0.000 A 
ATOM     29  C   UNL     1      -4.649  -8.297   8.181  1.00  0.00     0.000 A 
ENDBRANCH  23  24
ENDBRANCH   6  23
ENDBRANCH   3   6
ENDBRANCH   1   2
BRANCH   1  30
ATOM     30  C   UNL     1      -2.579  -3.596   7.792  1.00  0.00     0.023 C 
BRANCH  30  31
ATOM     31  C   UNL     1      -3.593  -2.611   8.380  1.00  0.00     0.023 C 
BRANCH  31  32
ATOM     32  C   UNL     1      -4.887  -3.202   8.945  1.00  0.00     0.116 C 
BRANCH  32  33
ATOM     33  N   UNL     1      -4.694  -4.258   9.930  1.00  0.00    -0.352 N 
ATOM     34  C   UNL     1      -5.411  -4.489  11.085  1.00  0.00     0.251 C 
ATOM     35  H   UNL     1      -3.957  -4.886   9.749  1.00  0.00     0.163 HD
ATOM     36  O   UNL     1      -5.101  -5.408  11.837  1.00  0.00    -0.269 OA
BRANCH  34  37
ATOM     37  C   UNL     1      -6.532  -3.586  11.426  1.00  0.00     0.039 A 
ATOM     38  C   UNL     1      -6.511  -2.909  12.648  1.00  0.00     0.014 A 
ATOM     39  C   UNL     1      -7.553  -3.346  10.502  1.00  0.00     0.014 A 
ATOM     40  C   UNL     1      -7.458  -1.912  12.901  1.00  0.00     0.010 A 
ATOM     41  C   UNL     1      -8.460  -2.313  10.733  1.00  0.00     0.010 A 
ATOM     42  C   UNL     1      -8.405  -1.567  11.922  1.00  0.00    -0.014 A 
BRANCH  42  43
ATOM     43  C   UNL     1      -9.324  -0.409  12.099  1.00  0.00     0.031 A 
ATOM     44  C   UNL     1     -10.810  -0.631  12.162  1.00  0.00     0.074 A 
ATOM     45  C   UNL     1      -8.828   0.846  12.116  1.00  0.00     0.049 A 
ATOM     46  N   UNL     1     -11.779   0.248  12.164  1.00  0.00    -0.248 NA
ATOM     47  C   UNL     1     -11.264  -2.029  12.206  1.00  0.00     0.031 C 
ATOM     48  C   UNL     1      -7.407   1.195  12.039  1.00  0.00     0.029 A 
ATOM     49  N   UNL     1      -9.461   2.064  12.182  1.00  0.00    -0.354 N 
ATOM     50  C   UNL     1     -12.959  -0.488  12.205  1.00  0.00     0.074 A 
ATOM     51  C   UNL     1     -12.581  -1.886  12.169  1.00  0.00     0.031 C 
ATOM     52  C   UNL     1      -7.279   2.532  12.070  1.00  0.00     0.029 A 
ATOM     53  C   UNL     1      -8.604   3.141  12.115  1.00  0.00     0.049 A 
ATOM     54  H   UNL     1     -10.437   2.159  12.270  1.00  0.00     0.167 HD
ATOM     55  C   UNL     1     -14.236  -0.040  12.286  1.00  0.00     0.034 A 
ATOM     56  C   UNL     1      -8.857   4.466  12.070  1.00  0.00     0.034 A 
ATOM     57  C   UNL     1     -14.601   1.354  12.323  1.00  0.00     0.049 A 
ATOM     58  C   UNL     1     -10.292   4.938  12.115  1.00  0.00     0.074 A 
ATOM     59  C   UNL     1     -15.865   1.913  12.412  1.00  0.00     0.029 A 
ATOM     60  N   UNL     1     -13.703   2.413  12.277  1.00  0.00    -0.354 N 
ATOM     61  N   UNL     1     -11.393   4.225  12.171  1.00  0.00    -0.248 NA
ATOM     62  C   UNL     1     -10.519   6.390  12.102  1.00  0.00     0.031 C 
ATOM     63  C   UNL     1     -15.735   3.305  12.367  1.00  0.00     0.029 A 
ATOM     64  C   UNL     1     -14.387   3.617  12.323  1.00  0.00     0.049 A 
ATOM     65  H   UNL     1     -12.725   2.321  12.219  1.00  0.00     0.167 HD
ATOM     66  C   UNL     1     -12.436   5.145  12.250  1.00  0.00     0.074 A 
ATOM     67  C   UNL     1     -11.835   6.461  12.237  1.00  0.00     0.031 C 
ATOM     68  C   UNL     1     -13.771   4.922  12.333  1.00  0.00     0.034 A 
BRANCH  55  69
ATOM     69  C   UNL     1     -15.333  -1.075  12.328  1.00  0.00     0.023 A 
ATOM     70  C   UNL     1     -15.457  -1.965  13.408  1.00  0.00     0.031 A 
ATOM     71  C   UNL     1     -16.265  -1.174  11.280  1.00  0.00     0.131 A 
ATOM     72  C   UNL     1     -16.451  -2.955  13.388  1.00  0.00     0.055 A 
ATOM     73  C   UNL     1     -17.299  -2.112  11.303  1.00  0.00     0.041 A 
ATOM     74  F   UNL     1     -16.184  -0.362  10.214  1.00  0.00    -0.206 F 
ATOM     75  C   UNL     1     -17.389  -3.017  12.356  1.00  0.00     0.022 A 
BRANCH  72  76
ATOM     76  S   UNL     1     -16.426  -4.231  14.675  1.00  0.00     0.124 S 
ATOM     77  O   UNL     1     -15.130  -4.863  14.437  1.00  0.00    -0.237 OA
ATOM     78  O   UNL     1     -16.539  -3.449  15.900  1.00  0.00    -0.237 OA
ATOM     79  O   UNL     1     -17.585  -5.062  14.356  1.00  0.00    -0.744 OA
ENDBRANCH  72  76
ENDBRANCH  55  69
BRANCH  56  80
ATOM     80  C   UNL     1      -7.744   5.455  11.949  1.00  0.00     0.023 A 
ATOM     81  C   UNL     1      -7.522   6.419  12.944  1.00  0.00     0.031 A 
ATOM     82  C   UNL     1      -6.938   5.504  10.797  1.00  0.00     0.131 A 
ATOM     83  C   UNL     1      -6.572   7.433  12.741  1.00  0.00     0.055 A 
ATOM     84  C   UNL     1      -5.948   6.474  10.628  1.00  0.00     0.041 A 
ATOM     85  F   UNL     1      -7.103   4.606   9.812  1.00  0.00    -0.206 F 
ATOM     86  C   UNL     1      -5.774   7.459  11.595  1.00  0.00     0.022 A 
BRANCH  83  87
ATOM     87  S   UNL     1      -6.489   8.795  13.936  1.00  0.00     0.124 S 
ATOM     88  O   UNL     1      -7.872   9.259  13.953  1.00  0.00    -0.237 OA
ATOM     89  O   UNL     1      -6.026   8.112  15.139  1.00  0.00    -0.237 OA
ATOM     90  O   UNL     1      -5.529   9.717  13.334  1.00  0.00    -0.744 OA
ENDBRANCH  83  87
ENDBRANCH  56  80
BRANCH  68  91
ATOM     91  C   UNL     1     -14.667   6.123  12.507  1.00  0.00     0.023 A 
ATOM     92  C   UNL     1     -14.869   7.059  11.479  1.00  0.00     0.031 A 
ATOM     93  C   UNL     1     -15.343   6.317  13.725  1.00  0.00     0.131 A 
ATOM     94  C   UNL     1     -15.697   8.171  11.702  1.00  0.00     0.055 A 
ATOM     95  C   UNL     1     -16.205   7.395  13.924  1.00  0.00     0.041 A 
ATOM     96  F   UNL     1     -15.184   5.451  14.739  1.00  0.00    -0.206 F 
ATOM     97  C   UNL     1     -16.378   8.335  12.912  1.00  0.00     0.022 A 
BRANCH  94  98
ATOM     98  S   UNL     1     -15.831   9.435  10.409  1.00  0.00     0.124 S 
ATOM     99  O   UNL     1     -14.452   9.895  10.289  1.00  0.00    -0.237 OA
ATOM    100  O   UNL     1     -16.349   8.672   9.278  1.00  0.00    -0.237 OA
ATOM    101  O   UNL     1     -16.763  10.409  10.975  1.00  0.00    -0.744 OA
ENDBRANCH  94  98
ENDBRANCH  68  91
ENDBRANCH  42  43
ENDBRANCH  34  37
ENDBRANCH  32  33
ENDBRANCH  31  32
ENDBRANCH  30  31
ENDBRANCH   1  30
TORSDOF 21
