REMARK SMILES C#CCN(CC(=O)NCCCCNC(=O)c1ccc(-c2c3nc(c(-c4cc(S(=O)(=O)[O-])ccc4F)c4ccc([nH]4)c(-c4cc(S(=O)(=O)[O-])ccc4F)c4nc(c(-c5cc(S(=O)(=O)[O-])ccc5F)c5ccc2[nH]5)C=C4)C=C3)cc1)C(=O)c1cccnc1C
REMARK SMILES IDX 10 1 9 2 8 3 6 4 7 5 5 7 4 8 3 9 2 10 1 11 79 12 80 13 81 14
REMARK SMILES IDX 82 15 86 16 83 17 85 18 87 19 84 20 11 21 12 22 13 23 14 24
REMARK SMILES IDX 15 26 16 27 17 28 78 29 18 30 77 31 19 32 20 33 21 34 71 35
REMARK SMILES IDX 22 36 76 37 70 38 72 39 23 40 75 41 69 42 68 43 24 45 56 46
REMARK SMILES IDX 36 47 55 48 37 49 40 50 54 51 73 52 38 53 39 54 53 56 74 57
REMARK SMILES IDX 41 58 25 59 26 60 34 61 27 62 33 63 35 64 32 65 28 66 29 67
REMARK SMILES IDX 30 68 31 69 57 70 58 71 66 72 59 73 65 74 67 75 64 76 60 77
REMARK SMILES IDX 61 78 62 79 63 80 42 81 43 82 51 83 44 84 50 85 52 86 49 87
REMARK SMILES IDX 45 88 46 89 47 90 48 91
REMARK H PARENT 8 6 13 25 72 44 40 55
REMARK Flexibility Score: inf
ROOT
ATOM      1  C   UNL     1      -4.902   1.301   0.696  1.00  0.00     0.023 C 
ENDROOT
BRANCH   1   2
ATOM      2  C   UNL     1      -5.124  -0.198   0.496  1.00  0.00     0.116 C 
BRANCH   2   3
ATOM      3  N   UNL     1      -5.424  -0.594  -0.865  1.00  0.00    -0.355 N 
ATOM      4  C   UNL     1      -4.638  -1.091  -1.861  1.00  0.00     0.239 C 
ATOM      5  O   UNL     1      -5.222  -1.677  -2.780  1.00  0.00    -0.273 OA
ATOM      6  H   UNL     1      -6.370  -0.483  -1.117  1.00  0.00     0.163 HD
BRANCH   4   7
ATOM      7  C   UNL     1      -3.099  -1.091  -1.830  1.00  0.00     0.220 C 
BRANCH   7   8
ATOM      8  N   UNL     1      -2.436   0.085  -1.270  1.00  0.00    -0.318 N 
BRANCH   8   9
ATOM      9  C   UNL     1      -1.878  -0.034   0.077  1.00  0.00     0.210 C 
BRANCH   9  10
ATOM     10  C   UNL     1      -0.358  -0.034   0.077  1.00  0.00    -0.085 C 
ATOM     11  C   UNL     1       0.946  -0.034   0.077  1.00  0.00     0.006 C 
ENDBRANCH   9  10
ENDBRANCH   8   9
BRANCH   8  12
ATOM     12  C   UNL     1      -2.291   1.300  -1.951  1.00  0.00     0.256 C 
ATOM     13  O   UNL     1      -1.838   2.311  -1.420  1.00  0.00    -0.269 OA
BRANCH  12  14
ATOM     14  C   UNL     1      -2.599   1.394  -3.399  1.00  0.00     0.061 A 
ATOM     15  C   UNL     1      -1.511   1.369  -4.280  1.00  0.00     0.017 A 
ATOM     16  C   UNL     1      -3.862   1.666  -3.928  1.00  0.00     0.050 A 
ATOM     17  C   UNL     1      -1.718   1.552  -5.646  1.00  0.00     0.021 A 
ATOM     18  N   UNL     1      -4.077   1.801  -5.267  1.00  0.00    -0.261 NA
ATOM     19  C   UNL     1      -5.081   1.894  -3.099  1.00  0.00     0.067 C 
ATOM     20  C   UNL     1      -3.012   1.745  -6.090  1.00  0.00     0.111 A 
ENDBRANCH  12  14
ENDBRANCH   8  12
ENDBRANCH   7   8
ENDBRANCH   4   7
ENDBRANCH   2   3
ENDBRANCH   1   2
BRANCH   1  21
ATOM     21  C   UNL     1      -6.122   2.196   0.494  1.00  0.00     0.023 C 
BRANCH  21  22
ATOM     22  C   UNL     1      -7.334   1.853   1.342  1.00  0.00     0.116 C 
BRANCH  22  23
ATOM     23  N   UNL     1      -7.043   1.800   2.763  1.00  0.00    -0.352 N 
ATOM     24  C   UNL     1      -7.815   2.224   3.817  1.00  0.00     0.251 C 
ATOM     25  H   UNL     1      -6.174   1.405   3.005  1.00  0.00     0.163 HD
ATOM     26  O   UNL     1      -7.355   2.192   4.955  1.00  0.00    -0.269 OA
BRANCH  24  27
ATOM     27  C   UNL     1      -9.171   2.760   3.567  1.00  0.00     0.039 A 
ATOM     28  C   UNL     1      -9.556   3.935   4.218  1.00  0.00     0.014 A 
ATOM     29  C   UNL     1     -10.046   2.132   2.676  1.00  0.00     0.014 A 
ATOM     30  C   UNL     1     -10.791   4.516   3.922  1.00  0.00     0.010 A 
ATOM     31  C   UNL     1     -11.238   2.756   2.322  1.00  0.00     0.010 A 
ATOM     32  C   UNL     1     -11.624   3.953   2.942  1.00  0.00    -0.014 A 
BRANCH  32  33
ATOM     33  C   UNL     1     -12.900   4.604   2.549  1.00  0.00     0.031 A 
ATOM     34  C   UNL     1     -14.208   3.896   2.772  1.00  0.00     0.074 A 
ATOM     35  C   UNL     1     -12.872   5.796   1.921  1.00  0.00     0.049 A 
ATOM     36  N   UNL     1     -15.416   4.259   2.425  1.00  0.00    -0.248 NA
ATOM     37  C   UNL     1     -14.142   2.589   3.442  1.00  0.00     0.031 C 
ATOM     38  C   UNL     1     -11.659   6.552   1.598  1.00  0.00     0.029 A 
ATOM     39  N   UNL     1     -13.888   6.574   1.425  1.00  0.00    -0.354 N 
ATOM     40  C   UNL     1     -16.251   3.217   2.816  1.00  0.00     0.074 A 
ATOM     41  C   UNL     1     -15.401   2.186   3.370  1.00  0.00     0.031 C 
ATOM     42  C   UNL     1     -12.003   7.689   0.972  1.00  0.00     0.029 A 
ATOM     43  C   UNL     1     -13.453   7.724   0.808  1.00  0.00     0.049 A 
ATOM     44  H   UNL     1     -14.839   6.333   1.504  1.00  0.00     0.167 HD
ATOM     45  C   UNL     1     -17.603   3.140   2.737  1.00  0.00     0.034 A 
ATOM     46  C   UNL     1     -14.140   8.690   0.166  1.00  0.00     0.034 A 
ATOM     47  C   UNL     1     -18.433   4.189   2.194  1.00  0.00     0.049 A 
ATOM     48  C   UNL     1     -15.641   8.584   0.088  1.00  0.00     0.074 A 
ATOM     49  C   UNL     1     -19.815   4.255   2.143  1.00  0.00     0.029 A 
ATOM     50  N   UNL     1     -17.960   5.349   1.594  1.00  0.00    -0.354 N 
ATOM     51  N   UNL     1     -16.425   7.628   0.532  1.00  0.00    -0.248 NA
ATOM     52  C   UNL     1     -16.349   9.692  -0.564  1.00  0.00     0.031 C 
ATOM     53  C   UNL     1     -20.174   5.414   1.446  1.00  0.00     0.029 A 
ATOM     54  C   UNL     1     -19.020   6.117   1.134  1.00  0.00     0.049 A 
ATOM     55  H   UNL     1     -17.010   5.592   1.507  1.00  0.00     0.167 HD
ATOM     56  C   UNL     1     -17.723   8.033   0.231  1.00  0.00     0.074 A 
ATOM     57  C   UNL     1     -17.614   9.325  -0.415  1.00  0.00     0.031 C 
ATOM     58  C   UNL     1     -18.898   7.395   0.471  1.00  0.00     0.034 A 
BRANCH  45  59
ATOM     59  C   UNL     1     -18.256   1.865   3.220  1.00  0.00     0.023 A 
ATOM     60  C   UNL     1     -18.146   1.434   4.554  1.00  0.00     0.031 A 
ATOM     61  C   UNL     1     -18.969   1.048   2.325  1.00  0.00     0.131 A 
ATOM     62  C   UNL     1     -18.659   0.184   4.933  1.00  0.00     0.055 A 
ATOM     63  C   UNL     1     -19.554  -0.154   2.729  1.00  0.00     0.041 A 
ATOM     64  F   UNL     1     -19.092   1.393   1.034  1.00  0.00    -0.206 F 
ATOM     65  C   UNL     1     -19.386  -0.601   4.036  1.00  0.00     0.022 A 
BRANCH  62  66
ATOM     66  S   UNL     1     -18.223  -0.471   6.567  1.00  0.00     0.124 S 
ATOM     67  O   UNL     1     -16.762  -0.463   6.508  1.00  0.00    -0.237 OA
ATOM     68  O   UNL     1     -18.831   0.500   7.469  1.00  0.00    -0.237 OA
ATOM     69  O   UNL     1     -18.830  -1.800   6.577  1.00  0.00    -0.744 OA
ENDBRANCH  62  66
ENDBRANCH  45  59
BRANCH  46  70
ATOM     70  C   UNL     1     -13.416   9.827  -0.471  1.00  0.00     0.023 A 
ATOM     71  C   UNL     1     -13.563  11.140   0.002  1.00  0.00     0.031 A 
ATOM     72  C   UNL     1     -12.578   9.614  -1.580  1.00  0.00     0.131 A 
ATOM     73  C   UNL     1     -12.912  12.196  -0.655  1.00  0.00     0.055 A 
ATOM     74  C   UNL     1     -11.894  10.661  -2.199  1.00  0.00     0.041 A 
ATOM     75  F   UNL     1     -12.397   8.376  -2.067  1.00  0.00    -0.206 F 
ATOM     76  C   UNL     1     -12.068  11.964  -1.743  1.00  0.00     0.022 A 
BRANCH  73  77
ATOM     77  S   UNL     1     -13.238  13.894  -0.106  1.00  0.00     0.124 S 
ATOM     78  O   UNL     1     -14.682  13.993  -0.288  1.00  0.00    -0.237 OA
ATOM     79  O   UNL     1     -12.766  13.862   1.274  1.00  0.00    -0.237 OA
ATOM     80  O   UNL     1     -12.436  14.707  -1.018  1.00  0.00    -0.744 OA
ENDBRANCH  73  77
ENDBRANCH  46  70
BRANCH  58  81
ATOM     81  C   UNL     1     -20.162   8.111   0.060  1.00  0.00     0.023 A 
ATOM     82  C   UNL     1     -20.474   8.347  -1.290  1.00  0.00     0.031 A 
ATOM     83  C   UNL     1     -21.062   8.573   1.037  1.00  0.00     0.131 A 
ATOM     84  C   UNL     1     -21.628   9.072  -1.624  1.00  0.00     0.055 A 
ATOM     85  C   UNL     1     -22.239   9.239   0.696  1.00  0.00     0.041 A 
ATOM     86  F   UNL     1     -20.813   8.379   2.342  1.00  0.00    -0.206 F 
ATOM     87  C   UNL     1     -22.521   9.504  -0.640  1.00  0.00     0.022 A 
BRANCH  84  88
ATOM     88  S   UNL     1     -21.901   9.526  -3.359  1.00  0.00     0.124 S 
ATOM     89  O   UNL     1     -20.701  10.298  -3.663  1.00  0.00    -0.237 OA
ATOM     90  O   UNL     1     -22.004   8.224  -4.010  1.00  0.00    -0.237 OA
ATOM     91  O   UNL     1     -23.142  10.299  -3.321  1.00  0.00    -0.744 OA
ENDBRANCH  84  88
ENDBRANCH  58  81
ENDBRANCH  32  33
ENDBRANCH  24  27
ENDBRANCH  22  23
ENDBRANCH  21  22
ENDBRANCH   1  21
TORSDOF 19
