REMARK SMILES COc1cc(C(=O)NCCCCNC(=O)c2ccc(-c3c4nc(c(-c5cc(S(=O)(=O)[O-])ccc5F)c5ccc([nH]5)c(-c5cc(S(=O)(=O)[O-])ccc5F)c5nc(c(-c6cc(S(=O)(=O)[O-])ccc6F)c6ccc3[nH]6)C=C5)C=C4)cc2)c([N+](=O)[O-])cc1O[C@H](C)[C@@H](C)O
REMARK SMILES IDX 10 1 9 2 8 3 6 4 7 5 5 7 3 8 4 9 84 10 83 11 79 12 2 13 1 14
REMARK SMILES IDX 85 15 86 16 87 17 88 18 89 19 90 20 80 22 81 23 82 24 11 25
REMARK SMILES IDX 12 26 13 27 14 28 15 30 16 31 17 32 78 33 18 34 77 35 19 36
REMARK SMILES IDX 20 37 21 38 71 39 22 40 76 41 70 42 72 43 23 44 75 45 69 46
REMARK SMILES IDX 68 47 24 49 56 50 36 51 55 52 37 53 40 54 54 55 73 56 38 57
REMARK SMILES IDX 39 58 53 60 74 61 41 62 25 63 26 64 34 65 27 66 33 67 35 68
REMARK SMILES IDX 32 69 28 70 29 71 30 72 31 73 57 74 58 75 66 76 59 77 65 78
REMARK SMILES IDX 67 79 64 80 60 81 61 82 62 83 63 84 42 85 43 86 51 87 44 88
REMARK SMILES IDX 50 89 52 90 49 91 45 92 46 93 47 94 48 95
REMARK H PARENT 8 6 90 21 13 29 72 48 40 59
REMARK Flexibility Score: inf
ROOT
ATOM      1  C   UNL     1      -1.462   6.781  -0.247  1.00  0.00     0.023 C 
ENDROOT
BRANCH   1   2
ATOM      2  C   UNL     1      -0.674   5.897   0.709  1.00  0.00     0.116 C 
BRANCH   2   3
ATOM      3  N   UNL     1      -1.337   5.578   1.963  1.00  0.00    -0.352 N 
ATOM      4  C   UNL     1      -1.191   4.483   2.787  1.00  0.00     0.258 C 
ATOM      5  O   UNL     1      -1.850   4.397   3.819  1.00  0.00    -0.269 OA
ATOM      6  H   UNL     1      -1.990   6.247   2.271  1.00  0.00     0.163 HD
BRANCH   4   7
ATOM      7  C   UNL     1      -0.317   3.350   2.404  1.00  0.00     0.121 A 
ATOM      8  C   UNL     1      -0.093   0.935   2.084  1.00  0.00     0.162 A 
ATOM      9  C   UNL     1      -0.838   2.055   2.506  1.00  0.00     0.071 A 
ATOM     10  C   UNL     1       1.151   1.107   1.443  1.00  0.00     0.168 A 
ATOM     11  C   UNL     1       1.681   2.393   1.391  1.00  0.00     0.136 A 
ATOM     12  C   UNL     1       0.986   3.478   1.945  1.00  0.00     0.286 A 
BRANCH   8  13
ATOM     13  O   UNL     1      -0.728  -0.257   2.331  1.00  0.00    -0.493 OA
ATOM     14  C   UNL     1       0.107  -1.380   2.595  1.00  0.00     0.278 C 
ENDBRANCH   8  13
BRANCH  10  15
ATOM     15  O   UNL     1       1.819   0.000   1.014  1.00  0.00    -0.484 OA
BRANCH  15  16
ATOM     16  C   UNL     1       2.794  -0.019  -0.049  1.00  0.00     0.198 C 
ATOM     17  C   UNL     1       4.059   0.796   0.219  1.00  0.00     0.056 C 
BRANCH  16  18
ATOM     18  C   UNL     1       2.151   0.169  -1.446  1.00  0.00     0.151 C 
ATOM     19  C   UNL     1       3.164   0.273  -2.582  1.00  0.00     0.042 C 
BRANCH  18  20
ATOM     20  O   UNL     1       1.295  -0.947  -1.736  1.00  0.00    -0.390 OA
ATOM     21  H   UNL     1       1.824  -1.760  -1.771  1.00  0.00     0.211 HD
ENDBRANCH  18  20
ENDBRANCH  16  18
ENDBRANCH  15  16
ENDBRANCH  10  15
BRANCH  12  22
ATOM     22  N   UNL     1       1.741   4.700   2.147  1.00  0.00     0.063 N 
ATOM     23  O   UNL     1       1.668   5.244   3.254  1.00  0.00    -0.258 OA
ATOM     24  O   UNL     1       2.445   5.084   1.202  1.00  0.00    -0.258 OA
ENDBRANCH  12  22
ENDBRANCH   4   7
ENDBRANCH   2   3
ENDBRANCH   1   2
BRANCH   1  25
ATOM     25  C   UNL     1      -1.833   8.169   0.272  1.00  0.00     0.023 C 
BRANCH  25  26
ATOM     26  C   UNL     1      -0.740   8.943   1.006  1.00  0.00     0.116 C 
BRANCH  26  27
ATOM     27  N   UNL     1       0.437   9.228   0.196  1.00  0.00    -0.352 N 
ATOM     28  C   UNL     1       0.936  10.424  -0.271  1.00  0.00     0.251 C 
ATOM     29  H   UNL     1       0.961   8.435  -0.061  1.00  0.00     0.163 HD
ATOM     30  O   UNL     1       1.909  10.421  -1.022  1.00  0.00    -0.269 OA
BRANCH  28  31
ATOM     31  C   UNL     1       0.274  11.701   0.077  1.00  0.00     0.039 A 
ATOM     32  C   UNL     1       0.008  12.620  -0.942  1.00  0.00     0.014 A 
ATOM     33  C   UNL     1      -0.117  11.983   1.386  1.00  0.00     0.014 A 
ATOM     34  C   UNL     1      -0.762  13.755  -0.670  1.00  0.00     0.010 A 
ATOM     35  C   UNL     1      -0.960  13.063   1.638  1.00  0.00     0.010 A 
ATOM     36  C   UNL     1      -1.312  13.948   0.607  1.00  0.00    -0.014 A 
BRANCH  36  37
ATOM     37  C   UNL     1      -2.300  15.030   0.871  1.00  0.00     0.031 A 
ATOM     38  C   UNL     1      -2.013  16.098   1.889  1.00  0.00     0.074 A 
ATOM     39  C   UNL     1      -3.502  14.991   0.259  1.00  0.00     0.049 A 
ATOM     40  N   UNL     1      -2.787  17.059   2.323  1.00  0.00    -0.248 NA
ATOM     41  C   UNL     1      -0.691  16.054   2.529  1.00  0.00     0.031 C 
ATOM     42  C   UNL     1      -3.926  13.976  -0.709  1.00  0.00     0.029 A 
ATOM     43  N   UNL     1      -4.592  15.818   0.367  1.00  0.00    -0.354 N 
ATOM     44  C   UNL     1      -2.055  17.725   3.300  1.00  0.00     0.074 A 
ATOM     45  C   UNL     1      -0.801  17.012   3.436  1.00  0.00     0.031 C 
ATOM     46  C   UNL     1      -5.170  14.259  -1.127  1.00  0.00     0.029 A 
ATOM     47  C   UNL     1      -5.653  15.441  -0.423  1.00  0.00     0.049 A 
ATOM     48  H   UNL     1      -4.613  16.607   0.956  1.00  0.00     0.167 HD
ATOM     49  C   UNL     1      -2.386  18.840   4.001  1.00  0.00     0.034 A 
ATOM     50  C   UNL     1      -6.882  15.976  -0.559  1.00  0.00     0.034 A 
ATOM     51  C   UNL     1      -3.637  19.544   3.845  1.00  0.00     0.049 A 
ATOM     52  C   UNL     1      -7.245  17.190   0.254  1.00  0.00     0.074 A 
ATOM     53  C   UNL     1      -4.041  20.728   4.437  1.00  0.00     0.029 A 
ATOM     54  N   UNL     1      -4.697  19.119   3.051  1.00  0.00    -0.354 N 
ATOM     55  N   UNL     1      -6.516  17.847   1.126  1.00  0.00    -0.248 NA
ATOM     56  C   UNL     1      -8.596  17.732   0.064  1.00  0.00     0.031 C 
ATOM     57  C   UNL     1      -5.365  20.981   4.058  1.00  0.00     0.029 A 
ATOM     58  C   UNL     1      -5.767  19.994   3.173  1.00  0.00     0.049 A 
ATOM     59  H   UNL     1      -4.688  18.314   2.485  1.00  0.00     0.167 HD
ATOM     60  C   UNL     1      -7.316  18.893   1.576  1.00  0.00     0.074 A 
ATOM     61  C   UNL     1      -8.576  18.787   0.866  1.00  0.00     0.031 C 
ATOM     62  C   UNL     1      -7.032  19.858   2.488  1.00  0.00     0.034 A 
BRANCH  49  63
ATOM     63  C   UNL     1      -1.384  19.338   5.017  1.00  0.00     0.023 A 
ATOM     64  C   UNL     1      -0.091  19.743   4.640  1.00  0.00     0.031 A 
ATOM     65  C   UNL     1      -1.704  19.358   6.386  1.00  0.00     0.131 A 
ATOM     66  C   UNL     1       0.863  20.050   5.622  1.00  0.00     0.055 A 
ATOM     67  C   UNL     1      -0.777  19.753   7.353  1.00  0.00     0.041 A 
ATOM     68  F   UNL     1      -2.916  18.968   6.811  1.00  0.00    -0.206 F 
ATOM     69  C   UNL     1       0.522  20.082   6.976  1.00  0.00     0.022 A 
BRANCH  66  70
ATOM     70  S   UNL     1       2.595  20.233   5.115  1.00  0.00     0.124 S 
ATOM     71  O   UNL     1       2.844  18.956   4.450  1.00  0.00    -0.237 OA
ATOM     72  O   UNL     1       2.548  21.406   4.251  1.00  0.00    -0.237 OA
ATOM     73  O   UNL     1       3.305  20.415   6.380  1.00  0.00    -0.744 OA
ENDBRANCH  66  70
ENDBRANCH  49  63
BRANCH  50  74
ATOM     74  C   UNL     1      -7.866  15.365  -1.495  1.00  0.00     0.023 A 
ATOM     75  C   UNL     1      -8.269  16.042  -2.656  1.00  0.00     0.031 A 
ATOM     76  C   UNL     1      -8.427  14.102  -1.236  1.00  0.00     0.131 A 
ATOM     77  C   UNL     1      -9.228  15.467  -3.503  1.00  0.00     0.055 A 
ATOM     78  C   UNL     1      -9.350  13.515  -2.104  1.00  0.00     0.041 A 
ATOM     79  F   UNL     1      -8.067  13.410  -0.143  1.00  0.00    -0.206 F 
ATOM     80  C   UNL     1      -9.762  14.202  -3.241  1.00  0.00     0.022 A 
BRANCH  77  81
ATOM     81  S   UNL     1      -9.805  16.417  -4.936  1.00  0.00     0.124 S 
ATOM     82  O   UNL     1     -10.397  17.588  -4.298  1.00  0.00    -0.237 OA
ATOM     83  O   UNL     1      -8.565  16.645  -5.670  1.00  0.00    -0.237 OA
ATOM     84  O   UNL     1     -10.752  15.513  -5.585  1.00  0.00    -0.744 OA
ENDBRANCH  77  81
ENDBRANCH  50  74
BRANCH  62  85
ATOM     85  C   UNL     1      -8.107  20.884   2.749  1.00  0.00     0.023 A 
ATOM     86  C   UNL     1      -9.312  20.543   3.388  1.00  0.00     0.031 A 
ATOM     87  C   UNL     1      -7.931  22.216   2.335  1.00  0.00     0.131 A 
ATOM     88  C   UNL     1     -10.316  21.509   3.549  1.00  0.00     0.055 A 
ATOM     89  C   UNL     1      -8.911  23.187   2.550  1.00  0.00     0.041 A 
ATOM     90  F   UNL     1      -6.803  22.597   1.716  1.00  0.00    -0.206 F 
ATOM     91  C   UNL     1     -10.116  22.833   3.149  1.00  0.00     0.022 A 
BRANCH  88  92
ATOM     92  S   UNL     1     -11.924  20.995   4.215  1.00  0.00     0.124 S 
ATOM     93  O   UNL     1     -12.355  20.005   3.233  1.00  0.00    -0.237 OA
ATOM     94  O   UNL     1     -11.566  20.476   5.531  1.00  0.00    -0.237 OA
ATOM     95  O   UNL     1     -12.701  22.233   4.229  1.00  0.00    -0.744 OA
ENDBRANCH  88  92
ENDBRANCH  62  85
ENDBRANCH  36  37
ENDBRANCH  28  31
ENDBRANCH  26  27
ENDBRANCH  25  26
ENDBRANCH   1  25
TORSDOF 20
