REMARK SMILES COc1cccc(-c2c(C(=O)NCCCCNC(=O)c3ccc(-c4c5nc(c(-c6cc(S(=O)(=O)[O-])ccc6F)c6ccc([nH]6)c(-c6cc(S(=O)(=O)[O-])ccc6F)c6nc(c(-c7cc(S(=O)(=O)[O-])ccc7F)c7ccc4[nH]7)C=C6)C=C5)cc3)nnn2-c2ccc(OC(F)(F)F)cc2)c1
REMARK SMILES IDX 14 1 13 2 12 3 10 4 11 5 9 7 8 8 85 9 83 10 84 11 7 12 3 13
REMARK SMILES IDX 4 14 97 15 5 16 6 17 2 18 1 19 86 20 87 21 96 22 88 23 95 24
REMARK SMILES IDX 89 25 90 26 91 27 92 28 93 29 94 30 15 31 16 32 17 33 18 34
REMARK SMILES IDX 19 36 20 37 21 38 82 39 22 40 81 41 23 42 24 43 25 44 75 45
REMARK SMILES IDX 26 46 80 47 74 48 76 49 27 50 79 51 73 52 72 53 28 55 60 56
REMARK SMILES IDX 40 57 59 58 41 59 44 60 58 61 77 62 42 63 43 64 57 66 78 67
REMARK SMILES IDX 45 68 29 69 30 70 38 71 31 72 37 73 39 74 36 75 32 76 33 77
REMARK SMILES IDX 34 78 35 79 61 80 62 81 70 82 63 83 69 84 71 85 68 86 64 87
REMARK SMILES IDX 65 88 66 89 67 90 46 91 47 92 55 93 48 94 54 95 56 96 53 97
REMARK SMILES IDX 49 98 50 99 51 100 52 101
REMARK H PARENT 12 6 17 35 76 54 44 65
REMARK Flexibility Score: inf
ROOT
ATOM      1  C   UNL     1       0.897  -1.105  -4.613  1.00  0.00     0.023 C 
ENDROOT
BRANCH   1   2
ATOM      2  C   UNL     1       1.431  -2.527  -4.539  1.00  0.00     0.116 C 
BRANCH   2   3
ATOM      3  N   UNL     1       2.535  -2.878  -5.387  1.00  0.00    -0.351 N 
ATOM      4  C   UNL     1       3.765  -3.429  -5.080  1.00  0.00     0.274 C 
ATOM      5  O   UNL     1       4.477  -3.663  -6.063  1.00  0.00    -0.267 OA
ATOM      6  H   UNL     1       2.393  -2.697  -6.344  1.00  0.00     0.163 HD
BRANCH   4   7
ATOM      7  C   UNL     1       4.287  -3.688  -3.719  1.00  0.00     0.178 A 
ATOM      8  C   UNL     1       3.748  -3.918  -2.445  1.00  0.00     0.108 A 
ATOM      9  N   UNL     1       4.871  -4.088  -1.633  1.00  0.00    -0.212 N 
ATOM     10  N   UNL     1       5.670  -3.682  -3.588  1.00  0.00    -0.124 NA
ATOM     11  N   UNL     1       5.995  -3.810  -2.315  1.00  0.00    -0.061 NA
BRANCH   8  12
ATOM     12  C   UNL     1       2.406  -3.807  -1.862  1.00  0.00     0.006 A 
ATOM     13  C   UNL     1       0.817  -2.458  -0.592  1.00  0.00     0.119 A 
ATOM     14  C   UNL     1      -0.185  -3.375  -0.904  1.00  0.00     0.046 A 
ATOM     15  C   UNL     1       2.113  -2.684  -1.052  1.00  0.00     0.056 A 
ATOM     16  C   UNL     1       0.099  -4.502  -1.682  1.00  0.00     0.005 A 
ATOM     17  C   UNL     1       1.394  -4.725  -2.159  1.00  0.00     0.011 A 
BRANCH  13  18
ATOM     18  O   UNL     1       0.448  -1.407   0.201  1.00  0.00    -0.497 OA
ATOM     19  C   UNL     1       1.036  -0.153  -0.130  1.00  0.00     0.278 C 
ENDBRANCH  13  18
ENDBRANCH   8  12
BRANCH   9  20
ATOM     20  C   UNL     1       4.911  -4.378  -0.245  1.00  0.00     0.067 A 
ATOM     21  C   UNL     1       5.830  -3.718   0.574  1.00  0.00     0.032 A 
ATOM     22  C   UNL     1       3.990  -5.270   0.315  1.00  0.00     0.032 A 
ATOM     23  C   UNL     1       5.757  -3.892   1.959  1.00  0.00     0.049 A 
ATOM     24  C   UNL     1       3.942  -5.457   1.696  1.00  0.00     0.049 A 
ATOM     25  C   UNL     1       4.809  -4.752   2.530  1.00  0.00     0.129 A 
BRANCH  25  26
ATOM     26  O   UNL     1       4.834  -4.808   3.894  1.00  0.00    -0.406 OA
BRANCH  26  27
ATOM     27  C   UNL     1       3.894  -5.660   4.529  1.00  0.00     0.573 C 
ATOM     28  F   UNL     1       2.627  -5.291   4.245  1.00  0.00    -0.132 F 
ATOM     29  F   UNL     1       4.085  -6.947   4.169  1.00  0.00    -0.132 F 
ATOM     30  F   UNL     1       4.066  -5.569   5.867  1.00  0.00    -0.132 F 
ENDBRANCH  26  27
ENDBRANCH  25  26
ENDBRANCH   9  20
ENDBRANCH   4   7
ENDBRANCH   2   3
ENDBRANCH   1   2
BRANCH   1  31
ATOM     31  C   UNL     1      -0.071  -0.777  -5.742  1.00  0.00     0.023 C 
BRANCH  31  32
ATOM     32  C   UNL     1      -1.248  -1.733  -5.893  1.00  0.00     0.116 C 
BRANCH  32  33
ATOM     33  N   UNL     1      -2.126  -1.787  -4.730  1.00  0.00    -0.352 N 
ATOM     34  C   UNL     1      -3.320  -2.486  -4.628  1.00  0.00     0.251 C 
ATOM     35  H   UNL     1      -1.842  -1.277  -3.937  1.00  0.00     0.163 HD
ATOM     36  O   UNL     1      -4.159  -2.156  -3.806  1.00  0.00    -0.269 OA
BRANCH  34  37
ATOM     37  C   UNL     1      -3.550  -3.636  -5.534  1.00  0.00     0.039 A 
ATOM     38  C   UNL     1      -4.787  -3.823  -6.153  1.00  0.00     0.014 A 
ATOM     39  C   UNL     1      -2.501  -4.529  -5.769  1.00  0.00     0.014 A 
ATOM     40  C   UNL     1      -4.926  -4.860  -7.077  1.00  0.00     0.010 A 
ATOM     41  C   UNL     1      -2.610  -5.498  -6.749  1.00  0.00     0.010 A 
ATOM     42  C   UNL     1      -3.824  -5.680  -7.400  1.00  0.00    -0.014 A 
BRANCH  42  43
ATOM     43  C   UNL     1      -3.889  -6.566  -8.569  1.00  0.00     0.031 A 
ATOM     44  C   UNL     1      -4.296  -5.850  -9.807  1.00  0.00     0.074 A 
ATOM     45  C   UNL     1      -3.474  -7.853  -8.630  1.00  0.00     0.049 A 
ATOM     46  N   UNL     1      -5.466  -5.859 -10.350  1.00  0.00    -0.248 NA
ATOM     47  C   UNL     1      -3.387  -4.849 -10.388  1.00  0.00     0.031 C 
ATOM     48  C   UNL     1      -2.791  -8.634  -7.597  1.00  0.00     0.029 A 
ATOM     49  N   UNL     1      -3.521  -8.730  -9.679  1.00  0.00    -0.354 N 
ATOM     50  C   UNL     1      -5.359  -5.096 -11.506  1.00  0.00     0.074 A 
ATOM     51  C   UNL     1      -4.158  -4.323 -11.344  1.00  0.00     0.031 C 
ATOM     52  C   UNL     1      -2.311  -9.782  -8.133  1.00  0.00     0.029 A 
ATOM     53  C   UNL     1      -2.779  -9.902  -9.506  1.00  0.00     0.049 A 
ATOM     54  H   UNL     1      -4.039  -8.549 -10.496  1.00  0.00     0.167 HD
ATOM     55  C   UNL     1      -6.127  -5.386 -12.594  1.00  0.00     0.034 A 
ATOM     56  C   UNL     1      -2.568 -10.905 -10.410  1.00  0.00     0.034 A 
ATOM     57  C   UNL     1      -7.210  -6.280 -12.223  1.00  0.00     0.049 A 
ATOM     58  C   UNL     1      -3.687 -10.839 -11.381  1.00  0.00     0.074 A 
ATOM     59  C   UNL     1      -8.232  -6.227 -11.291  1.00  0.00     0.029 A 
ATOM     60  N   UNL     1      -7.091  -7.612 -12.559  1.00  0.00    -0.354 N 
ATOM     61  N   UNL     1      -4.924 -11.095 -11.058  1.00  0.00    -0.248 NA
ATOM     62  C   UNL     1      -3.512 -10.015 -12.566  1.00  0.00     0.031 C 
ATOM     63  C   UNL     1      -8.299  -7.544 -10.747  1.00  0.00     0.029 A 
ATOM     64  C   UNL     1      -7.407  -8.357 -11.450  1.00  0.00     0.049 A 
ATOM     65  H   UNL     1      -6.825  -7.966 -13.438  1.00  0.00     0.167 HD
ATOM     66  C   UNL     1      -5.664 -10.110 -11.691  1.00  0.00     0.074 A 
ATOM     67  C   UNL     1      -4.753  -9.533 -12.681  1.00  0.00     0.031 C 
ATOM     68  C   UNL     1      -6.842  -9.663 -11.163  1.00  0.00     0.034 A 
BRANCH  55  69
ATOM     69  C   UNL     1      -5.689  -5.231 -14.039  1.00  0.00     0.023 A 
ATOM     70  C   UNL     1      -6.580  -5.710 -15.020  1.00  0.00     0.031 A 
ATOM     71  C   UNL     1      -4.385  -4.941 -14.494  1.00  0.00     0.131 A 
ATOM     72  C   UNL     1      -6.133  -6.033 -16.311  1.00  0.00     0.055 A 
ATOM     73  C   UNL     1      -3.962  -5.198 -15.803  1.00  0.00     0.041 A 
ATOM     74  F   UNL     1      -3.419  -4.473 -13.698  1.00  0.00    -0.206 F 
ATOM     75  C   UNL     1      -4.826  -5.786 -16.710  1.00  0.00     0.022 A 
BRANCH  72  76
ATOM     76  S   UNL     1      -7.251  -6.967 -17.385  1.00  0.00     0.124 S 
ATOM     77  O   UNL     1      -7.507  -8.148 -16.568  1.00  0.00    -0.237 OA
ATOM     78  O   UNL     1      -8.363  -6.036 -17.542  1.00  0.00    -0.237 OA
ATOM     79  O   UNL     1      -6.452  -7.193 -18.587  1.00  0.00    -0.744 OA
ENDBRANCH  72  76
ENDBRANCH  55  69
BRANCH  56  80
ATOM     80  C   UNL     1      -1.340 -11.728 -10.652  1.00  0.00     0.023 A 
ATOM     81  C   UNL     1      -1.330 -12.917 -11.427  1.00  0.00     0.031 A 
ATOM     82  C   UNL     1      -0.077 -11.180 -10.336  1.00  0.00     0.131 A 
ATOM     83  C   UNL     1      -0.102 -13.489 -11.855  1.00  0.00     0.055 A 
ATOM     84  C   UNL     1       1.127 -11.744 -10.768  1.00  0.00     0.041 A 
ATOM     85  F   UNL     1       0.027 -10.019  -9.671  1.00  0.00    -0.206 F 
ATOM     86  C   UNL     1       1.120 -12.894 -11.539  1.00  0.00     0.022 A 
BRANCH  83  87
ATOM     87  S   UNL     1      -0.064 -14.978 -12.918  1.00  0.00     0.124 S 
ATOM     88  O   UNL     1      -0.524 -16.022 -12.010  1.00  0.00    -0.237 OA
ATOM     89  O   UNL     1      -0.966 -14.617 -14.005  1.00  0.00    -0.237 OA
ATOM     90  O   UNL     1       1.344 -15.085 -13.307  1.00  0.00    -0.744 OA
ENDBRANCH  83  87
ENDBRANCH  56  80
BRANCH  68  91
ATOM     91  C   UNL     1      -7.523 -10.486 -10.084  1.00  0.00     0.023 A 
ATOM     92  C   UNL     1      -6.938 -10.900  -8.864  1.00  0.00     0.031 A 
ATOM     93  C   UNL     1      -8.887 -10.773 -10.280  1.00  0.00     0.131 A 
ATOM     94  C   UNL     1      -7.718 -11.581  -7.905  1.00  0.00     0.055 A 
ATOM     95  C   UNL     1      -9.659 -11.421  -9.319  1.00  0.00     0.041 A 
ATOM     96  F   UNL     1      -9.507 -10.396 -11.411  1.00  0.00    -0.206 F 
ATOM     97  C   UNL     1      -9.076 -11.834  -8.130  1.00  0.00     0.022 A 
BRANCH  94  98
ATOM     98  S   UNL     1      -6.980 -12.187  -6.352  1.00  0.00     0.124 S 
ATOM     99  O   UNL     1      -5.736 -12.812  -6.783  1.00  0.00    -0.237 OA
ATOM    100  O   UNL     1      -6.841 -10.961  -5.569  1.00  0.00    -0.237 OA
ATOM    101  O   UNL     1      -7.985 -13.121  -5.840  1.00  0.00    -0.744 OA
ENDBRANCH  94  98
ENDBRANCH  68  91
ENDBRANCH  42  43
ENDBRANCH  34  37
ENDBRANCH  32  33
ENDBRANCH  31  32
ENDBRANCH   1  31
TORSDOF 19
