REMARK SMILES Cc1nc(CNC(=O)[C@H]2CCO[C@H]2C)sc1C(=O)NCCCCNC(=O)c1ccc(-c2c3nc(c(-c4cc(S(=O)(=O)[O-])ccc4F)c4ccc([nH]4)c(-c4cc(S(=O)(=O)[O-])ccc4F)c4nc(c(-c5cc(S(=O)(=O)[O-])ccc5F)c5ccc2[nH]5)C=C4)C=C3)cc1
REMARK SMILES IDX 21 1 20 2 19 3 17 4 18 5 16 7 1 8 2 9 3 10 4 11 15 12 5 13
REMARK SMILES IDX 6 14 7 15 8 17 9 18 10 19 13 20 11 21 12 22 14 23 22 24
REMARK SMILES IDX 23 25 24 26 25 27 26 29 27 30 28 31 89 32 29 33 88 34 30 35
REMARK SMILES IDX 31 36 32 37 82 38 33 39 87 40 81 41 83 42 34 43 86 44 80 45
REMARK SMILES IDX 79 46 35 48 67 49 47 50 66 51 48 52 51 53 65 54 84 55 49 56
REMARK SMILES IDX 50 57 64 59 85 60 52 61 36 62 37 63 45 64 38 65 44 66 46 67
REMARK SMILES IDX 43 68 39 69 40 70 41 71 42 72 68 73 69 74 77 75 70 76 76 77
REMARK SMILES IDX 78 78 75 79 71 80 72 81 73 82 74 83 53 84 54 85 62 86 55 87
REMARK SMILES IDX 61 88 63 89 60 90 56 91 57 92 58 93 59 94
REMARK H PARENT 19 6 6 16 24 28 83 47 51 58
REMARK Flexibility Score: inf
ROOT
ATOM      1  C   UNL     1      -3.559  -2.608  -0.907  1.00  0.00     0.023 C 
ENDROOT
BRANCH   1   2
ATOM      2  C   UNL     1      -2.714  -2.666   0.366  1.00  0.00     0.116 C 
BRANCH   2   3
ATOM      3  N   UNL     1      -1.343  -2.975   0.045  1.00  0.00    -0.351 N 
ATOM      4  C   UNL     1      -0.222  -2.216  -0.162  1.00  0.00     0.263 C 
ATOM      5  O   UNL     1       0.776  -2.900  -0.422  1.00  0.00    -0.268 OA
ATOM      6  H   UNL     1      -1.176  -3.941  -0.044  1.00  0.00     0.163 HD
BRANCH   4   7
ATOM      7  C   UNL     1      -0.155  -0.758  -0.066  1.00  0.00     0.115 A 
ATOM      8  C   UNL     1      -2.479   0.444  -0.374  1.00  0.00     0.068 C 
ATOM      9  C   UNL     1      -1.020   0.335  -0.131  1.00  0.00     0.061 A 
ATOM     10  N   UNL     1      -0.408   1.578  -0.011  1.00  0.00    -0.244 NA
ATOM     11  C   UNL     1       0.895   1.469   0.042  1.00  0.00     0.113 A 
ATOM     12  S   UNL     1       1.472  -0.128   0.114  1.00  0.00    -0.111 S 
BRANCH  11  13
ATOM     13  C   UNL     1       1.831   2.637   0.024  1.00  0.00     0.183 C 
BRANCH  13  14
ATOM     14  N   UNL     1       1.443   3.535  -1.056  1.00  0.00    -0.349 N 
ATOM     15  C   UNL     1       0.725   4.691  -1.011  1.00  0.00     0.226 C 
ATOM     16  H   UNL     1       1.746   3.265  -1.953  1.00  0.00     0.163 HD
ATOM     17  O   UNL     1       0.459   5.251  -2.075  1.00  0.00    -0.275 OA
BRANCH  15  18
ATOM     18  C   UNL     1       0.323   5.270   0.330  1.00  0.00     0.109 C 
ATOM     19  C   UNL     1      -0.050   6.739   0.276  1.00  0.00     0.044 C 
ATOM     20  C   UNL     1      -0.926   4.665   0.962  1.00  0.00     0.127 C 
ATOM     21  C   UNL     1      -0.793   6.920   1.581  1.00  0.00     0.161 C 
ATOM     22  O   UNL     1      -1.380   5.654   1.916  1.00  0.00    -0.378 OA
ATOM     23  C   UNL     1      -2.091   4.396   0.012  1.00  0.00     0.039 C 
ENDBRANCH  15  18
ENDBRANCH  13  14
ENDBRANCH  11  13
ENDBRANCH   4   7
ENDBRANCH   2   3
ENDBRANCH   1   2
BRANCH   1  24
ATOM     24  C   UNL     1      -4.177  -3.940  -1.330  1.00  0.00     0.023 C 
BRANCH  24  25
ATOM     25  C   UNL     1      -5.226  -4.487  -0.370  1.00  0.00     0.116 C 
BRANCH  25  26
ATOM     26  N   UNL     1      -6.322  -3.563  -0.114  1.00  0.00    -0.352 N 
ATOM     27  C   UNL     1      -7.634  -3.858   0.183  1.00  0.00     0.251 C 
ATOM     28  H   UNL     1      -6.096  -2.606  -0.160  1.00  0.00     0.163 HD
ATOM     29  O   UNL     1      -8.458  -2.963   0.291  1.00  0.00    -0.269 OA
BRANCH  27  30
ATOM     30  C   UNL     1      -8.029  -5.277   0.311  1.00  0.00     0.039 A 
ATOM     31  C   UNL     1      -9.108  -5.742  -0.443  1.00  0.00     0.014 A 
ATOM     32  C   UNL     1      -7.285  -6.152   1.106  1.00  0.00     0.014 A 
ATOM     33  C   UNL     1      -9.390  -7.109  -0.463  1.00  0.00     0.010 A 
ATOM     34  C   UNL     1      -7.520  -7.519   1.025  1.00  0.00     0.010 A 
ATOM     35  C   UNL     1      -8.570  -8.011   0.234  1.00  0.00    -0.014 A 
BRANCH  35  36
ATOM     36  C   UNL     1      -8.789  -9.476   0.146  1.00  0.00     0.031 A 
ATOM     37  C   UNL     1      -9.168 -10.251   1.376  1.00  0.00     0.074 A 
ATOM     38  C   UNL     1      -8.568 -10.113  -1.021  1.00  0.00     0.049 A 
ATOM     39  N   UNL     1      -9.316 -11.541   1.529  1.00  0.00    -0.248 NA
ATOM     40  C   UNL     1      -9.370  -9.471   2.606  1.00  0.00     0.031 C 
ATOM     41  C   UNL     1      -8.143  -9.471  -2.269  1.00  0.00     0.029 A 
ATOM     42  N   UNL     1      -8.657 -11.442  -1.349  1.00  0.00    -0.354 N 
ATOM     43  C   UNL     1      -9.614 -11.730   2.874  1.00  0.00     0.074 A 
ATOM     44  C   UNL     1      -9.559 -10.427   3.503  1.00  0.00     0.031 C 
ATOM     45  C   UNL     1      -8.032 -10.404  -3.228  1.00  0.00     0.029 A 
ATOM     46  C   UNL     1      -8.336 -11.712  -2.659  1.00  0.00     0.049 A 
ATOM     47  H   UNL     1      -8.926 -12.137  -0.706  1.00  0.00     0.167 HD
ATOM     48  C   UNL     1      -9.929 -12.880   3.519  1.00  0.00     0.034 A 
ATOM     49  C   UNL     1      -8.284 -12.884  -3.321  1.00  0.00     0.034 A 
ATOM     50  C   UNL     1      -9.998 -14.166   2.871  1.00  0.00     0.049 A 
ATOM     51  C   UNL     1      -8.633 -14.151  -2.583  1.00  0.00     0.074 A 
ATOM     52  C   UNL     1     -10.372 -15.385   3.409  1.00  0.00     0.029 A 
ATOM     53  N   UNL     1      -9.680 -14.402   1.539  1.00  0.00    -0.354 N 
ATOM     54  N   UNL     1      -8.970 -14.306  -1.323  1.00  0.00    -0.248 NA
ATOM     55  C   UNL     1      -8.604 -15.398  -3.358  1.00  0.00     0.031 C 
ATOM     56  C   UNL     1     -10.223 -16.365   2.420  1.00  0.00     0.029 A 
ATOM     57  C   UNL     1      -9.820 -15.749   1.246  1.00  0.00     0.049 A 
ATOM     58  H   UNL     1      -9.395 -13.712   0.897  1.00  0.00     0.167 HD
ATOM     59  C   UNL     1      -9.217 -15.666  -1.163  1.00  0.00     0.074 A 
ATOM     60  C   UNL     1      -9.006 -16.282  -2.457  1.00  0.00     0.031 C 
ATOM     61  C   UNL     1      -9.589 -16.346  -0.048  1.00  0.00     0.034 A 
BRANCH  48  62
ATOM     62  C   UNL     1     -10.201 -12.788   5.002  1.00  0.00     0.023 A 
ATOM     63  C   UNL     1     -11.272 -12.031   5.508  1.00  0.00     0.031 A 
ATOM     64  C   UNL     1      -9.355 -13.429   5.923  1.00  0.00     0.131 A 
ATOM     65  C   UNL     1     -11.419 -11.863   6.893  1.00  0.00     0.055 A 
ATOM     66  C   UNL     1      -9.557 -13.328   7.301  1.00  0.00     0.041 A 
ATOM     67  F   UNL     1      -8.304 -14.149   5.501  1.00  0.00    -0.206 F 
ATOM     68  C   UNL     1     -10.584 -12.527   7.794  1.00  0.00     0.022 A 
BRANCH  65  69
ATOM     69  S   UNL     1     -12.621 -10.645   7.493  1.00  0.00     0.124 S 
ATOM     70  O   UNL     1     -12.126  -9.416   6.877  1.00  0.00    -0.237 OA
ATOM     71  O   UNL     1     -13.881 -11.160   6.969  1.00  0.00    -0.237 OA
ATOM     72  O   UNL     1     -12.476 -10.707   8.946  1.00  0.00    -0.744 OA
ENDBRANCH  65  69
ENDBRANCH  48  62
BRANCH  49  73
ATOM     73  C   UNL     1      -7.881 -12.925  -4.756  1.00  0.00     0.023 A 
ATOM     74  C   UNL     1      -8.794 -13.312  -5.750  1.00  0.00     0.031 A 
ATOM     75  C   UNL     1      -6.568 -12.615  -5.149  1.00  0.00     0.131 A 
ATOM     76  C   UNL     1      -8.369 -13.424  -7.083  1.00  0.00     0.055 A 
ATOM     77  C   UNL     1      -6.163 -12.681  -6.483  1.00  0.00     0.041 A 
ATOM     78  F   UNL     1      -5.659 -12.231  -4.238  1.00  0.00    -0.206 F 
ATOM     79  C   UNL     1      -7.063 -13.101  -7.458  1.00  0.00     0.022 A 
BRANCH  76  80
ATOM     80  S   UNL     1      -9.534 -14.073  -8.313  1.00  0.00     0.124 S 
ATOM     81  O   UNL     1      -9.862 -15.378  -7.752  1.00  0.00    -0.237 OA
ATOM     82  O   UNL     1     -10.597 -13.074  -8.279  1.00  0.00    -0.237 OA
ATOM     83  O   UNL     1      -8.747 -14.102  -9.544  1.00  0.00    -0.744 OA
ENDBRANCH  76  80
ENDBRANCH  49  73
BRANCH  61  84
ATOM     84  C   UNL     1      -9.820 -17.828  -0.201  1.00  0.00     0.023 A 
ATOM     85  C   UNL     1      -8.762 -18.716  -0.461  1.00  0.00     0.031 A 
ATOM     86  C   UNL     1     -11.119 -18.355  -0.098  1.00  0.00     0.131 A 
ATOM     87  C   UNL     1      -9.028 -20.079  -0.661  1.00  0.00     0.055 A 
ATOM     88  C   UNL     1     -11.371 -19.720  -0.243  1.00  0.00     0.041 A 
ATOM     89  F   UNL     1     -12.166 -17.550   0.147  1.00  0.00    -0.206 F 
ATOM     90  C   UNL     1     -10.324 -20.588  -0.539  1.00  0.00     0.022 A 
BRANCH  87  91
ATOM     91  S   UNL     1      -7.668 -21.166  -1.167  1.00  0.00     0.124 S 
ATOM     92  O   UNL     1      -7.239 -20.553  -2.420  1.00  0.00    -0.237 OA
ATOM     93  O   UNL     1      -6.739 -21.046  -0.048  1.00  0.00    -0.237 OA
ATOM     94  O   UNL     1      -8.306 -22.474  -1.302  1.00  0.00    -0.744 OA
ENDBRANCH  87  91
ENDBRANCH  61  84
ENDBRANCH  35  36
ENDBRANCH  27  30
ENDBRANCH  25  26
ENDBRANCH  24  25
ENDBRANCH   1  24
TORSDOF 17
