REMARK SMILES Cc1ccc2c(c1)C=C(C(=O)NCCCCNC(=O)c1ccc(-c3c4nc(c(-c5cc(S(=O)(=O)[O-])ccc5F)c5ccc([nH]5)c(-c5cc(S(=O)(=O)[O-])ccc5F)c5nc(c(-c6cc(S(=O)(=O)[O-])ccc6F)c6ccc3[nH]6)C=C5)C=C4)cc1)[C@@H](C(F)(F)F)O2
REMARK SMILES IDX 15 1 14 2 13 3 12 4 10 5 11 6 9 8 1 9 2 10 3 11 7 12 4 13
REMARK SMILES IDX 6 14 5 15 8 16 88 17 83 18 84 19 85 20 86 21 87 22 16 23
REMARK SMILES IDX 17 24 18 25 19 27 20 28 21 29 82 30 22 31 81 32 23 33 24 34
REMARK SMILES IDX 25 35 75 36 26 37 80 38 74 39 76 40 27 41 79 42 73 43 72 44
REMARK SMILES IDX 28 46 60 47 40 48 59 49 41 50 44 51 58 52 77 53 42 54 43 55
REMARK SMILES IDX 57 57 78 58 45 59 29 60 30 61 38 62 31 63 37 64 39 65 36 66
REMARK SMILES IDX 32 67 33 68 34 69 35 70 61 71 62 72 70 73 63 74 69 75 71 76
REMARK SMILES IDX 68 77 64 78 65 79 66 80 67 81 46 82 47 83 55 84 48 85 54 86
REMARK SMILES IDX 56 87 53 88 49 89 50 90 51 91 52 92
REMARK H PARENT 12 7 17 26 76 45 44 56
REMARK Flexibility Score: inf
ROOT
ATOM      1  C   UNL     1      -2.446  -7.783   7.225  1.00  0.00     0.023 C 
ENDROOT
BRANCH   1   2
ATOM      2  C   UNL     1      -1.860  -7.356   5.877  1.00  0.00     0.023 C 
BRANCH   2   3
ATOM      3  C   UNL     1      -2.883  -6.791   4.895  1.00  0.00     0.116 C 
BRANCH   3   4
ATOM      4  N   UNL     1      -3.125  -5.375   5.111  1.00  0.00    -0.352 N 
ATOM      5  C   UNL     1      -2.738  -4.209   4.544  1.00  0.00     0.251 C 
ATOM      6  O   UNL     1      -3.201  -3.190   5.066  1.00  0.00    -0.270 OA
ATOM      7  H   UNL     1      -3.731  -5.224   5.872  1.00  0.00     0.163 HD
BRANCH   5   8
ATOM      8  C   UNL     1      -1.821  -4.079   3.371  1.00  0.00     0.067 C 
ATOM      9  C   UNL     1       0.894   0.268  -0.112  1.00  0.00     0.044 C 
ATOM     10  C   UNL     1       0.597  -1.112   0.397  1.00  0.00    -0.050 A 
ATOM     11  C   UNL     1       1.190  -2.223  -0.215  1.00  0.00     0.007 A 
ATOM     12  C   UNL     1      -0.281  -1.309   1.473  1.00  0.00     0.015 A 
ATOM     13  C   UNL     1       0.917  -3.511   0.247  1.00  0.00     0.047 A 
ATOM     14  C   UNL     1      -0.560  -2.600   1.934  1.00  0.00     0.017 A 
ATOM     15  C   UNL     1       0.038  -3.694   1.311  1.00  0.00     0.128 A 
ATOM     16  C   UNL     1      -1.432  -2.823   3.080  1.00  0.00     0.025 C 
ATOM     17  O   UNL     1      -0.162  -4.979   1.729  1.00  0.00    -0.475 OA
ATOM     18  C   UNL     1      -1.368  -5.224   2.508  1.00  0.00     0.314 C 
BRANCH  18  19
ATOM     19  C   UNL     1      -2.477  -5.731   1.567  1.00  0.00     0.429 C 
ATOM     20  F   UNL     1      -2.139  -6.939   1.047  1.00  0.00    -0.167 F 
ATOM     21  F   UNL     1      -3.660  -5.904   2.200  1.00  0.00    -0.167 F 
ATOM     22  F   UNL     1      -2.703  -4.895   0.529  1.00  0.00    -0.167 F 
ENDBRANCH  18  19
ENDBRANCH   5   8
ENDBRANCH   3   4
ENDBRANCH   2   3
ENDBRANCH   1   2
BRANCH   1  23
ATOM     23  C   UNL     1      -3.590  -8.793   7.156  1.00  0.00     0.116 C 
BRANCH  23  24
ATOM     24  N   UNL     1      -3.293  -9.985   6.372  1.00  0.00    -0.352 N 
ATOM     25  C   UNL     1      -3.842 -11.242   6.514  1.00  0.00     0.251 C 
ATOM     26  H   UNL     1      -2.623  -9.881   5.659  1.00  0.00     0.163 HD
ATOM     27  O   UNL     1      -3.452 -12.176   5.823  1.00  0.00    -0.269 OA
BRANCH  25  28
ATOM     28  C   UNL     1      -4.864 -11.445   7.561  1.00  0.00     0.039 A 
ATOM     29  C   UNL     1      -5.973 -10.600   7.622  1.00  0.00     0.014 A 
ATOM     30  C   UNL     1      -4.637 -12.398   8.556  1.00  0.00     0.014 A 
ATOM     31  C   UNL     1      -6.750 -10.582   8.774  1.00  0.00     0.010 A 
ATOM     32  C   UNL     1      -5.470 -12.431   9.677  1.00  0.00     0.010 A 
ATOM     33  C   UNL     1      -6.491 -11.480   9.824  1.00  0.00    -0.014 A 
BRANCH  33  34
ATOM     34  C   UNL     1      -7.288 -11.382  11.074  1.00  0.00     0.031 A 
ATOM     35  C   UNL     1      -6.643 -10.965  12.368  1.00  0.00     0.074 A 
ATOM     36  C   UNL     1      -8.615 -11.602  11.020  1.00  0.00     0.049 A 
ATOM     37  N   UNL     1      -7.196 -10.776  13.539  1.00  0.00    -0.248 NA
ATOM     38  C   UNL     1      -5.190 -10.728  12.351  1.00  0.00     0.031 C 
ATOM     39  C   UNL     1      -9.343 -11.999   9.816  1.00  0.00     0.029 A 
ATOM     40  N   UNL     1      -9.589 -11.495  11.981  1.00  0.00    -0.354 N 
ATOM     41  C   UNL     1      -6.163 -10.419  14.399  1.00  0.00     0.074 A 
ATOM     42  C   UNL     1      -4.943 -10.445  13.623  1.00  0.00     0.031 C 
ATOM     43  C   UNL     1     -10.653 -12.042  10.091  1.00  0.00     0.029 A 
ATOM     44  C   UNL     1     -10.855 -11.745  11.508  1.00  0.00     0.049 A 
ATOM     45  H   UNL     1      -9.399 -11.261  12.918  1.00  0.00     0.167 HD
ATOM     46  C   UNL     1      -6.231 -10.085  15.710  1.00  0.00     0.034 A 
ATOM     47  C   UNL     1     -12.047 -11.743  12.139  1.00  0.00     0.034 A 
ATOM     48  C   UNL     1      -7.458 -10.041  16.464  1.00  0.00     0.049 A 
ATOM     49  C   UNL     1     -12.093 -11.389  13.601  1.00  0.00     0.074 A 
ATOM     50  C   UNL     1      -7.632  -9.693  17.792  1.00  0.00     0.029 A 
ATOM     51  N   UNL     1      -8.716 -10.342  15.963  1.00  0.00    -0.354 N 
ATOM     52  N   UNL     1     -11.110 -11.024  14.390  1.00  0.00    -0.248 NA
ATOM     53  C   UNL     1     -13.403 -11.448  14.263  1.00  0.00     0.031 C 
ATOM     54  C   UNL     1      -8.986  -9.830  18.106  1.00  0.00     0.029 A 
ATOM     55  C   UNL     1      -9.668 -10.209  16.961  1.00  0.00     0.049 A 
ATOM     56  H   UNL     1      -8.905 -10.611  15.034  1.00  0.00     0.167 HD
ATOM     57  C   UNL     1     -11.682 -10.804  15.639  1.00  0.00     0.074 A 
ATOM     58  C   UNL     1     -13.104 -11.044  15.492  1.00  0.00     0.031 C 
ATOM     59  C   UNL     1     -11.083 -10.446  16.802  1.00  0.00     0.034 A 
BRANCH  46  60
ATOM     60  C   UNL     1      -4.956  -9.727  16.430  1.00  0.00     0.023 A 
ATOM     61  C   UNL     1      -4.486 -10.540  17.480  1.00  0.00     0.031 A 
ATOM     62  C   UNL     1      -4.274  -8.527  16.161  1.00  0.00     0.131 A 
ATOM     63  C   UNL     1      -3.383 -10.128  18.239  1.00  0.00     0.055 A 
ATOM     64  C   UNL     1      -3.156  -8.137  16.900  1.00  0.00     0.041 A 
ATOM     65  F   UNL     1      -4.682  -7.721  15.168  1.00  0.00    -0.206 F 
ATOM     66  C   UNL     1      -2.713  -8.934  17.951  1.00  0.00     0.022 A 
BRANCH  63  67
ATOM     67  S   UNL     1      -2.805 -11.095  19.660  1.00  0.00     0.124 S 
ATOM     68  O   UNL     1      -1.435 -11.414  19.267  1.00  0.00    -0.237 OA
ATOM     69  O   UNL     1      -2.933 -10.137  20.755  1.00  0.00    -0.237 OA
ATOM     70  O   UNL     1      -3.719 -12.231  19.706  1.00  0.00    -0.744 OA
ENDBRANCH  63  67
ENDBRANCH  46  60
BRANCH  47  71
ATOM     71  C   UNL     1     -13.279 -12.044  11.354  1.00  0.00     0.023 A 
ATOM     72  C   UNL     1     -13.438 -13.285  10.710  1.00  0.00     0.031 A 
ATOM     73  C   UNL     1     -14.245 -11.051  11.126  1.00  0.00     0.131 A 
ATOM     74  C   UNL     1     -14.489 -13.470   9.804  1.00  0.00     0.055 A 
ATOM     75  C   UNL     1     -15.334 -11.266  10.279  1.00  0.00     0.041 A 
ATOM     76  F   UNL     1     -14.129  -9.848  11.708  1.00  0.00    -0.206 F 
ATOM     77  C   UNL     1     -15.447 -12.474   9.595  1.00  0.00     0.022 A 
BRANCH  74  78
ATOM     78  S   UNL     1     -14.554 -14.946   8.749  1.00  0.00     0.124 S 
ATOM     79  O   UNL     1     -15.802 -15.569   9.175  1.00  0.00    -0.237 OA
ATOM     80  O   UNL     1     -14.565 -14.357   7.412  1.00  0.00    -0.237 OA
ATOM     81  O   UNL     1     -13.335 -15.669   9.095  1.00  0.00    -0.744 OA
ENDBRANCH  74  78
ENDBRANCH  47  71
BRANCH  59  82
ATOM     82  C   UNL     1     -11.941 -10.299  18.034  1.00  0.00     0.023 A 
ATOM     83  C   UNL     1     -12.079  -9.044  18.654  1.00  0.00     0.031 A 
ATOM     84  C   UNL     1     -12.496 -11.423  18.670  1.00  0.00     0.131 A 
ATOM     85  C   UNL     1     -12.727  -8.948  19.892  1.00  0.00     0.055 A 
ATOM     86  C   UNL     1     -13.175 -11.316  19.883  1.00  0.00     0.041 A 
ATOM     87  F   UNL     1     -12.381 -12.643  18.119  1.00  0.00    -0.206 F 
ATOM     88  C   UNL     1     -13.281 -10.076  20.507  1.00  0.00     0.022 A 
BRANCH  85  89
ATOM     89  S   UNL     1     -12.804  -7.373  20.790  1.00  0.00     0.124 S 
ATOM     90  O   UNL     1     -14.244  -7.139  20.864  1.00  0.00    -0.237 OA
ATOM     91  O   UNL     1     -12.160  -7.709  22.057  1.00  0.00    -0.237 OA
ATOM     92  O   UNL     1     -12.066  -6.446  19.939  1.00  0.00    -0.744 OA
ENDBRANCH  85  89
ENDBRANCH  59  82
ENDBRANCH  33  34
ENDBRANCH  25  28
ENDBRANCH  23  24
ENDBRANCH   1  23
TORSDOF 15
