REMARK SMILES CC(C)Cn1c([C@@H](O)[C@@H](O)C(=O)NCCCCNC(=O)c2ccc(-c3c4nc(c(-c5cc(S(=O)(=O)[O-])ccc5F)c5ccc([nH]5)c(-c5cc(S(=O)(=O)[O-])ccc5F)c5nc(c(-c6cc(S(=O)(=O)[O-])ccc6F)c6ccc3[nH]6)C=C5)C=C4)cc2)nc2cc(Cl)ccc21
REMARK SMILES IDX 15 1 14 2 13 3 11 4 12 5 9 7 7 8 6 9 5 10 91 11 84 12 85 13
REMARK SMILES IDX 90 14 86 15 89 16 87 17 88 18 4 19 2 20 1 21 3 22 8 23 10 25
REMARK SMILES IDX 16 27 17 28 18 29 19 30 20 32 21 33 22 34 83 35 23 36 82 37
REMARK SMILES IDX 24 38 25 39 26 40 76 41 27 42 81 43 75 44 77 45 28 46 80 47
REMARK SMILES IDX 74 48 73 49 29 51 61 52 41 53 60 54 42 55 45 56 59 57 78 58
REMARK SMILES IDX 43 59 44 60 58 62 79 63 46 64 30 65 31 66 39 67 32 68 38 69
REMARK SMILES IDX 40 70 37 71 33 72 34 73 35 74 36 75 62 76 63 77 71 78 64 79
REMARK SMILES IDX 70 80 72 81 69 82 65 83 66 84 67 85 68 86 47 87 48 88 56 89
REMARK SMILES IDX 49 90 55 91 57 92 54 93 50 94 51 95 52 96 53 97
REMARK H PARENT 13 6 8 24 10 26 18 31 77 50 45 61
REMARK Flexibility Score: inf
ROOT
ATOM      1  C   UNL     1       0.764  -0.232  -3.229  1.00  0.00     0.023 C 
ENDROOT
BRANCH   1   2
ATOM      2  C   UNL     1      -0.569  -0.964  -3.095  1.00  0.00     0.116 C 
BRANCH   2   3
ATOM      3  N   UNL     1      -0.397  -2.397  -2.956  1.00  0.00    -0.354 N 
ATOM      4  C   UNL     1      -0.858  -3.240  -1.981  1.00  0.00     0.252 C 
ATOM      5  O   UNL     1      -0.724  -4.454  -2.167  1.00  0.00    -0.272 OA
ATOM      6  H   UNL     1       0.130  -2.827  -3.668  1.00  0.00     0.163 HD
BRANCH   4   7
ATOM      7  C   UNL     1      -1.522  -2.696  -0.701  1.00  0.00     0.239 C 
BRANCH   7   8
ATOM      8  C   UNL     1      -0.491  -1.948   0.158  1.00  0.00     0.219 C 
BRANCH   8   9
ATOM      9  C   UNL     1      -1.133  -1.279   1.347  1.00  0.00     0.142 A 
ATOM     10  N   UNL     1      -1.251   0.091   1.516  1.00  0.00    -0.325 N 
ATOM     11  C   UNL     1      -1.960   0.313   2.681  1.00  0.00     0.068 A 
ATOM     12  N   UNL     1      -1.645  -1.919   2.382  1.00  0.00    -0.230 NA
ATOM     13  C   UNL     1      -2.162  -0.959   3.209  1.00  0.00     0.090 A 
ATOM     14  C   UNL     1      -2.439   1.468   3.314  1.00  0.00     0.030 A 
ATOM     15  C   UNL     1      -2.834  -1.116   4.429  1.00  0.00     0.051 A 
ATOM     16  C   UNL     1      -3.126   1.296   4.524  1.00  0.00     0.023 A 
ATOM     17  C   UNL     1      -3.309   0.027   5.073  1.00  0.00     0.043 A 
ATOM     18  Cl  UNL     1      -4.142  -0.135   6.573  1.00  0.00    -0.084 Cl
BRANCH  10  19
ATOM     19  C   UNL     1      -0.809   1.126   0.595  1.00  0.00     0.127 C 
BRANCH  19  20
ATOM     20  C   UNL     1       0.631   1.641   0.801  1.00  0.00     0.003 C 
ATOM     21  C   UNL     1       1.711   0.566   0.672  1.00  0.00     0.009 C 
ATOM     22  C   UNL     1       0.915   2.753  -0.214  1.00  0.00     0.009 C 
ENDBRANCH  19  20
ENDBRANCH  10  19
ENDBRANCH   8   9
BRANCH   8  23
ATOM     23  O   UNL     1       0.495  -2.851   0.663  1.00  0.00    -0.382 OA
ATOM     24  H   UNL     1       0.069  -3.507   1.236  1.00  0.00     0.211 HD
ENDBRANCH   8  23
ENDBRANCH   7   8
BRANCH   7  25
ATOM     25  O   UNL     1      -2.655  -1.874  -1.015  1.00  0.00    -0.380 OA
ATOM     26  H   UNL     1      -2.364  -1.109  -1.537  1.00  0.00     0.211 HD
ENDBRANCH   7  25
ENDBRANCH   4   7
ENDBRANCH   2   3
ENDBRANCH   1   2
BRANCH   1  27
ATOM     27  C   UNL     1       1.497  -0.430  -4.560  1.00  0.00     0.023 C 
BRANCH  27  28
ATOM     28  C   UNL     1       0.679  -0.097  -5.809  1.00  0.00     0.116 C 
BRANCH  28  29
ATOM     29  N   UNL     1       0.103   1.232  -5.795  1.00  0.00    -0.352 N 
ATOM     30  C   UNL     1       0.483   2.445  -6.302  1.00  0.00     0.251 C 
ATOM     31  H   UNL     1      -0.754   1.272  -5.313  1.00  0.00     0.163 HD
ATOM     32  O   UNL     1      -0.383   3.325  -6.277  1.00  0.00    -0.269 OA
BRANCH  30  33
ATOM     33  C   UNL     1       1.849   2.790  -6.784  1.00  0.00     0.039 A 
ATOM     34  C   UNL     1       2.950   1.936  -6.765  1.00  0.00     0.014 A 
ATOM     35  C   UNL     1       2.045   4.130  -7.177  1.00  0.00     0.014 A 
ATOM     36  C   UNL     1       4.227   2.437  -6.991  1.00  0.00     0.010 A 
ATOM     37  C   UNL     1       3.319   4.631  -7.423  1.00  0.00     0.010 A 
ATOM     38  C   UNL     1       4.415   3.796  -7.262  1.00  0.00    -0.014 A 
BRANCH  38  39
ATOM     39  C   UNL     1       5.787   4.263  -7.444  1.00  0.00     0.031 A 
ATOM     40  C   UNL     1       6.513   3.601  -8.563  1.00  0.00     0.074 A 
ATOM     41  C   UNL     1       6.356   5.242  -6.712  1.00  0.00     0.049 A 
ATOM     42  N   UNL     1       7.521   2.794  -8.488  1.00  0.00    -0.248 NA
ATOM     43  C   UNL     1       5.943   3.726  -9.912  1.00  0.00     0.031 C 
ATOM     44  C   UNL     1       5.714   6.171  -5.780  1.00  0.00     0.029 A 
ATOM     45  N   UNL     1       7.650   5.670  -6.720  1.00  0.00    -0.354 N 
ATOM     46  C   UNL     1       7.839   2.454  -9.802  1.00  0.00     0.074 A 
ATOM     47  C   UNL     1       6.744   2.924 -10.613  1.00  0.00     0.031 C 
ATOM     48  C   UNL     1       6.562   7.191  -5.509  1.00  0.00     0.029 A 
ATOM     49  C   UNL     1       7.851   6.906  -6.119  1.00  0.00     0.049 A 
ATOM     50  H   UNL     1       8.383   5.146  -7.118  1.00  0.00     0.167 HD
ATOM     51  C   UNL     1       9.071   1.981 -10.147  1.00  0.00     0.034 A 
ATOM     52  C   UNL     1       8.970   7.675  -6.185  1.00  0.00     0.034 A 
ATOM     53  C   UNL     1       9.803   1.539  -8.990  1.00  0.00     0.049 A 
ATOM     54  C   UNL     1      10.103   6.809  -6.590  1.00  0.00     0.074 A 
ATOM     55  C   UNL     1       9.626   0.540  -8.055  1.00  0.00     0.029 A 
ATOM     56  N   UNL     1      10.724   2.402  -8.449  1.00  0.00    -0.354 N 
ATOM     57  N   UNL     1      10.624   5.892  -5.827  1.00  0.00    -0.248 NA
ATOM     58  C   UNL     1      10.353   6.658  -8.015  1.00  0.00     0.031 C 
ATOM     59  C   UNL     1      10.069   1.104  -6.825  1.00  0.00     0.029 A 
ATOM     60  C   UNL     1      10.555   2.386  -7.088  1.00  0.00     0.049 A 
ATOM     61  H   UNL     1      11.385   2.934  -8.947  1.00  0.00     0.167 HD
ATOM     62  C   UNL     1      10.836   4.821  -6.680  1.00  0.00     0.074 A 
ATOM     63  C   UNL     1      10.743   5.382  -8.028  1.00  0.00     0.031 C 
ATOM     64  C   UNL     1      10.777   3.533  -6.230  1.00  0.00     0.034 A 
BRANCH  51  65
ATOM     65  C   UNL     1       9.727   2.222 -11.486  1.00  0.00     0.023 A 
ATOM     66  C   UNL     1       9.229   3.146 -12.424  1.00  0.00     0.031 A 
ATOM     67  C   UNL     1      11.006   1.698 -11.764  1.00  0.00     0.131 A 
ATOM     68  C   UNL     1       9.958   3.507 -13.564  1.00  0.00     0.055 A 
ATOM     69  C   UNL     1      11.766   2.110 -12.867  1.00  0.00     0.041 A 
ATOM     70  F   UNL     1      11.586   0.812 -10.938  1.00  0.00    -0.206 F 
ATOM     71  C   UNL     1      11.243   3.022 -13.775  1.00  0.00     0.022 A 
BRANCH  68  72
ATOM     72  S   UNL     1       9.238   4.638 -14.786  1.00  0.00     0.124 S 
ATOM     73  O   UNL     1      10.200   5.740 -14.777  1.00  0.00    -0.237 OA
ATOM     74  O   UNL     1       9.239   3.810 -15.989  1.00  0.00    -0.237 OA
ATOM     75  O   UNL     1       7.921   4.938 -14.242  1.00  0.00    -0.744 OA
ENDBRANCH  68  72
ENDBRANCH  51  65
BRANCH  52  76
ATOM     76  C   UNL     1       8.998   9.134  -6.458  1.00  0.00     0.023 A 
ATOM     77  C   UNL     1       7.938   9.721  -7.171  1.00  0.00     0.031 A 
ATOM     78  C   UNL     1      10.188   9.876  -6.346  1.00  0.00     0.131 A 
ATOM     79  C   UNL     1       8.100  10.961  -7.800  1.00  0.00     0.055 A 
ATOM     80  C   UNL     1      10.341  11.129  -6.954  1.00  0.00     0.041 A 
ATOM     81  F   UNL     1      11.254   9.361  -5.713  1.00  0.00    -0.206 F 
ATOM     82  C   UNL     1       9.299  11.669  -7.702  1.00  0.00     0.022 A 
BRANCH  79  83
ATOM     83  S   UNL     1       6.783  11.619  -8.857  1.00  0.00     0.124 S 
ATOM     84  O   UNL     1       6.689  13.006  -8.408  1.00  0.00    -0.237 OA
ATOM     85  O   UNL     1       7.347  11.423 -10.187  1.00  0.00    -0.237 OA
ATOM     86  O   UNL     1       5.630  10.785  -8.525  1.00  0.00    -0.744 OA
ENDBRANCH  79  83
ENDBRANCH  52  76
BRANCH  64  87
ATOM     87  C   UNL     1      10.695   3.284  -4.738  1.00  0.00     0.023 A 
ATOM     88  C   UNL     1      11.552   2.308  -4.202  1.00  0.00     0.031 A 
ATOM     89  C   UNL     1       9.695   3.800  -3.889  1.00  0.00     0.131 A 
ATOM     90  C   UNL     1      11.379   1.851  -2.891  1.00  0.00     0.055 A 
ATOM     91  C   UNL     1       9.572   3.395  -2.555  1.00  0.00     0.041 A 
ATOM     92  F   UNL     1       8.757   4.643  -4.337  1.00  0.00    -0.206 F 
ATOM     93  C   UNL     1      10.406   2.403  -2.054  1.00  0.00     0.022 A 
BRANCH  90  94
ATOM     94  S   UNL     1      12.308   0.415  -2.298  1.00  0.00     0.124 S 
ATOM     95  O   UNL     1      13.145   1.000  -1.255  1.00  0.00    -0.237 OA
ATOM     96  O   UNL     1      11.244  -0.469  -1.826  1.00  0.00    -0.237 OA
ATOM     97  O   UNL     1      13.020  -0.058  -3.481  1.00  0.00    -0.744 OA
ENDBRANCH  90  94
ENDBRANCH  64  87
ENDBRANCH  38  39
ENDBRANCH  30  33
ENDBRANCH  28  29
ENDBRANCH  27  28
ENDBRANCH   1  27
TORSDOF 20
