REMARK SMILES CC1CCN(C(=O)N[C@]2(C(=O)NCCCCNC(=O)c3ccc(-c4c5nc(c(-c6cc(S(=O)(=O)[O-])ccc6F)c6ccc([nH]6)c(-c6cc(S(=O)(=O)[O-])ccc6F)c6nc(c(-c7cc(S(=O)(=O)[O-])ccc7F)c7ccc4[nH]7)C=C6)C=C5)cc3)CCSC2)CC1
REMARK SMILES IDX 15 1 14 2 13 3 12 4 10 5 11 6 9 8 83 9 86 10 84 11 85 12
REMARK SMILES IDX 8 13 1 14 2 15 3 16 88 17 4 18 87 19 5 20 6 21 7 22 16 24
REMARK SMILES IDX 17 25 18 26 19 28 20 29 21 30 82 31 22 32 81 33 23 34 24 35
REMARK SMILES IDX 25 36 75 37 26 38 80 39 74 40 76 41 27 42 79 43 73 44 72 45
REMARK SMILES IDX 28 47 60 48 40 49 59 50 41 51 44 52 58 53 77 54 42 55 43 56
REMARK SMILES IDX 57 58 78 59 45 60 29 61 30 62 38 63 31 64 37 65 39 66 36 67
REMARK SMILES IDX 32 68 33 69 34 70 35 71 61 72 62 73 70 74 63 75 69 76 71 77
REMARK SMILES IDX 68 78 64 79 65 80 66 81 67 82 46 83 47 84 55 85 48 86 54 87
REMARK SMILES IDX 56 88 53 89 49 90 50 91 51 92 52 93
REMARK H PARENT 12 7 8 23 17 27 76 46 44 57
REMARK Flexibility Score: inf
ROOT
ATOM      1  C   UNL     1      -0.782  -3.942   2.088  1.00  0.00     0.023 C 
ENDROOT
BRANCH   1   2
ATOM      2  C   UNL     1       0.469  -4.600   1.504  1.00  0.00     0.023 C 
BRANCH   2   3
ATOM      3  C   UNL     1       0.584  -4.790  -0.017  1.00  0.00     0.116 C 
BRANCH   3   4
ATOM      4  N   UNL     1       0.405  -3.609  -0.839  1.00  0.00    -0.354 N 
ATOM      5  C   UNL     1       1.260  -2.792  -1.511  1.00  0.00     0.246 C 
ATOM      6  O   UNL     1       0.742  -2.159  -2.443  1.00  0.00    -0.272 OA
ATOM      7  H   UNL     1      -0.538  -3.341  -0.930  1.00  0.00     0.163 HD
BRANCH   5   8
ATOM      8  C   UNL     1       2.787  -2.646  -1.240  1.00  0.00     0.130 C 
ATOM      9  C   UNL     1       3.432  -3.137   0.069  1.00  0.00     0.050 C 
ATOM     10  C   UNL     1       3.413  -3.462  -2.418  1.00  0.00     0.108 C 
ATOM     11  C   UNL     1       4.703  -3.928  -0.202  1.00  0.00     0.072 C 
ATOM     12  S   UNL     1       4.333  -4.841  -1.698  1.00  0.00    -0.159 SA
BRANCH   8  13
ATOM     13  N   UNL     1       3.134  -1.198  -1.413  1.00  0.00    -0.323 N 
ATOM     14  C   UNL     1      -2.500   0.781  -0.047  1.00  0.00     0.008 C 
ATOM     15  C   UNL     1      -1.063   0.736   0.472  1.00  0.00    -0.011 C 
ATOM     16  C   UNL     1      -0.166   1.772  -0.222  1.00  0.00     0.025 C 
ATOM     17  C   UNL     1      -0.484  -0.662   0.258  1.00  0.00     0.025 C 
ATOM     18  C   UNL     1       1.315   1.608   0.160  1.00  0.00     0.121 C 
ATOM     19  C   UNL     1       0.968  -0.721   0.726  1.00  0.00     0.121 C 
ATOM     20  N   UNL     1       1.769   0.222  -0.036  1.00  0.00    -0.325 N 
ATOM     21  C   UNL     1       2.795  -0.001  -0.905  1.00  0.00     0.318 C 
ATOM     22  O   UNL     1       3.490   0.930  -1.333  1.00  0.00    -0.249 OA
ATOM     23  H   UNL     1       3.819  -1.092  -2.113  1.00  0.00     0.166 HD
ENDBRANCH   8  13
ENDBRANCH   5   8
ENDBRANCH   3   4
ENDBRANCH   2   3
ENDBRANCH   1   2
BRANCH   1  24
ATOM     24  C   UNL     1      -2.104  -4.232   1.399  1.00  0.00     0.116 C 
BRANCH  24  25
ATOM     25  N   UNL     1      -2.425  -5.646   1.430  1.00  0.00    -0.352 N 
ATOM     26  C   UNL     1      -3.560  -6.272   1.880  1.00  0.00     0.251 C 
ATOM     27  H   UNL     1      -1.726  -6.244   1.077  1.00  0.00     0.163 HD
ATOM     28  O   UNL     1      -3.554  -7.491   2.016  1.00  0.00    -0.269 OA
BRANCH  26  29
ATOM     29  C   UNL     1      -4.764  -5.483   2.227  1.00  0.00     0.039 A 
ATOM     30  C   UNL     1      -5.470  -5.822   3.383  1.00  0.00     0.014 A 
ATOM     31  C   UNL     1      -5.210  -4.434   1.417  1.00  0.00     0.014 A 
ATOM     32  C   UNL     1      -6.593  -5.078   3.754  1.00  0.00     0.010 A 
ATOM     33  C   UNL     1      -6.289  -3.650   1.825  1.00  0.00     0.010 A 
ATOM     34  C   UNL     1      -6.994  -3.966   2.996  1.00  0.00    -0.014 A 
BRANCH  34  35
ATOM     35  C   UNL     1      -8.149  -3.131   3.423  1.00  0.00     0.031 A 
ATOM     36  C   UNL     1      -9.387  -3.054   2.570  1.00  0.00     0.074 A 
ATOM     37  C   UNL     1      -8.064  -2.413   4.561  1.00  0.00     0.049 A 
ATOM     38  N   UNL     1     -10.474  -2.350   2.754  1.00  0.00    -0.248 NA
ATOM     39  C   UNL     1      -9.394  -3.857   1.338  1.00  0.00     0.031 C 
ATOM     40  C   UNL     1      -6.901  -2.381   5.453  1.00  0.00     0.029 A 
ATOM     41  N   UNL     1      -8.963  -1.569   5.164  1.00  0.00    -0.354 N 
ATOM     42  C   UNL     1     -11.291  -2.616   1.659  1.00  0.00     0.074 A 
ATOM     43  C   UNL     1     -10.547  -3.503   0.790  1.00  0.00     0.031 C 
ATOM     44  C   UNL     1      -7.169  -1.582   6.497  1.00  0.00     0.029 A 
ATOM     45  C   UNL     1      -8.498  -1.004   6.329  1.00  0.00     0.049 A 
ATOM     46  H   UNL     1      -9.858  -1.386   4.796  1.00  0.00     0.167 HD
ATOM     47  C   UNL     1     -12.550  -2.176   1.414  1.00  0.00     0.034 A 
ATOM     48  C   UNL     1      -9.071  -0.109   7.161  1.00  0.00     0.034 A 
ATOM     49  C   UNL     1     -13.281  -1.300   2.298  1.00  0.00     0.049 A 
ATOM     50  C   UNL     1     -10.461   0.387   6.847  1.00  0.00     0.074 A 
ATOM     51  C   UNL     1     -14.581  -0.841   2.172  1.00  0.00     0.029 A 
ATOM     52  N   UNL     1     -12.775  -0.740   3.464  1.00  0.00    -0.354 N 
ATOM     53  N   UNL     1     -11.240   0.078   5.836  1.00  0.00    -0.248 NA
ATOM     54  C   UNL     1     -11.053   1.341   7.793  1.00  0.00     0.031 C 
ATOM     55  C   UNL     1     -14.834   0.054   3.217  1.00  0.00     0.029 A 
ATOM     56  C   UNL     1     -13.724   0.088   4.045  1.00  0.00     0.049 A 
ATOM     57  H   UNL     1     -11.875  -0.907   3.825  1.00  0.00     0.167 HD
ATOM     58  C   UNL     1     -12.426   0.777   6.045  1.00  0.00     0.074 A 
ATOM     59  C   UNL     1     -12.266   1.503   7.287  1.00  0.00     0.031 C 
ATOM     60  C   UNL     1     -13.548   0.815   5.280  1.00  0.00     0.034 A 
BRANCH  47  61
ATOM     61  C   UNL     1     -13.207  -2.614   0.126  1.00  0.00     0.023 A 
ATOM     62  C   UNL     1     -13.499  -3.964  -0.137  1.00  0.00     0.031 A 
ATOM     63  C   UNL     1     -13.551  -1.665  -0.854  1.00  0.00     0.131 A 
ATOM     64  C   UNL     1     -14.057  -4.333  -1.370  1.00  0.00     0.055 A 
ATOM     65  C   UNL     1     -14.179  -2.030  -2.046  1.00  0.00     0.041 A 
ATOM     66  F   UNL     1     -13.278  -0.363  -0.670  1.00  0.00    -0.206 F 
ATOM     67  C   UNL     1     -14.425  -3.373  -2.315  1.00  0.00     0.022 A 
BRANCH  64  68
ATOM     68  S   UNL     1     -14.181  -6.097  -1.772  1.00  0.00     0.124 S 
ATOM     69  O   UNL     1     -12.784  -6.516  -1.696  1.00  0.00    -0.237 OA
ATOM     70  O   UNL     1     -15.058  -6.601  -0.721  1.00  0.00    -0.237 OA
ATOM     71  O   UNL     1     -14.753  -6.103  -3.118  1.00  0.00    -0.744 OA
ENDBRANCH  64  68
ENDBRANCH  47  61
BRANCH  48  72
ATOM     72  C   UNL     1      -8.334   0.398   8.356  1.00  0.00     0.023 A 
ATOM     73  C   UNL     1      -8.822   0.182   9.654  1.00  0.00     0.031 A 
ATOM     74  C   UNL     1      -7.163   1.164   8.213  1.00  0.00     0.131 A 
ATOM     75  C   UNL     1      -8.179   0.775  10.752  1.00  0.00     0.055 A 
ATOM     76  C   UNL     1      -6.490   1.698   9.314  1.00  0.00     0.041 A 
ATOM     77  F   UNL     1      -6.649   1.401   6.995  1.00  0.00    -0.206 F 
ATOM     78  C   UNL     1      -7.008   1.519  10.592  1.00  0.00     0.022 A 
BRANCH  75  79
ATOM     79  S   UNL     1      -8.960   0.653  12.385  1.00  0.00     0.124 S 
ATOM     80  O   UNL     1     -10.276   1.224  12.127  1.00  0.00    -0.237 OA
ATOM     81  O   UNL     1      -8.920  -0.785  12.632  1.00  0.00    -0.237 OA
ATOM     82  O   UNL     1      -8.086   1.454  13.240  1.00  0.00    -0.744 OA
ENDBRANCH  75  79
ENDBRANCH  48  72
BRANCH  60  83
ATOM     83  C   UNL     1     -14.704   1.638   5.798  1.00  0.00     0.023 A 
ATOM     84  C   UNL     1     -14.620   3.035   5.928  1.00  0.00     0.031 A 
ATOM     85  C   UNL     1     -15.902   1.010   6.185  1.00  0.00     0.131 A 
ATOM     86  C   UNL     1     -15.688   3.751   6.490  1.00  0.00     0.055 A 
ATOM     87  C   UNL     1     -16.987   1.735   6.679  1.00  0.00     0.041 A 
ATOM     88  F   UNL     1     -16.038  -0.323   6.087  1.00  0.00    -0.206 F 
ATOM     89  C   UNL     1     -16.878   3.112   6.848  1.00  0.00     0.022 A 
BRANCH  86  90
ATOM     90  S   UNL     1     -15.462   5.515   6.846  1.00  0.00     0.124 S 
ATOM     91  O   UNL     1     -14.306   5.498   7.736  1.00  0.00    -0.237 OA
ATOM     92  O   UNL     1     -15.236   6.075   5.518  1.00  0.00    -0.237 OA
ATOM     93  O   UNL     1     -16.724   5.902   7.475  1.00  0.00    -0.744 OA
ENDBRANCH  86  90
ENDBRANCH  60  83
ENDBRANCH  34  35
ENDBRANCH  26  29
ENDBRANCH  24  25
ENDBRANCH   1  24
TORSDOF 15
