REMARK SMILES Cn1ncc(C(=O)NCCCCNC(=O)c2ccc(-c3c4nc(c(-c5cc(S(=O)(=O)[O-])ccc5F)c5ccc([nH]5)c(-c5cc(S(=O)(=O)[O-])ccc5F)c5nc(c(-c6cc(S(=O)(=O)[O-])ccc6F)c6ccc3[nH]6)C=C5)C=C4)cc2)c1NS(=O)(=O)[C@@H]1CCS(=O)(=O)C1
REMARK SMILES IDX 10 1 9 2 8 3 6 4 7 5 5 7 1 8 2 9 3 10 79 11 4 12 80 13 81 15
REMARK SMILES IDX 82 16 83 17 84 18 85 19 90 20 86 21 87 22 88 23 89 24 11 25
REMARK SMILES IDX 12 26 13 27 14 28 15 30 16 31 17 32 78 33 18 34 77 35 19 36
REMARK SMILES IDX 20 37 21 38 71 39 22 40 76 41 70 42 72 43 23 44 75 45 69 46
REMARK SMILES IDX 68 47 24 49 56 50 36 51 55 52 37 53 40 54 54 55 73 56 38 57
REMARK SMILES IDX 39 58 53 60 74 61 41 62 25 63 26 64 34 65 27 66 33 67 35 68
REMARK SMILES IDX 32 69 28 70 29 71 30 72 31 73 57 74 58 75 66 76 59 77 65 78
REMARK SMILES IDX 67 79 64 80 60 81 61 82 62 83 63 84 42 85 43 86 51 87 44 88
REMARK SMILES IDX 50 89 52 90 49 91 45 92 46 93 47 94 48 95
REMARK H PARENT 8 6 80 14 13 29 72 48 40 59
REMARK Flexibility Score: inf
ROOT
ATOM      1  C   UNL     1       0.143  -3.854  -1.716  1.00  0.00     0.023 C 
ENDROOT
BRANCH   1   2
ATOM      2  C   UNL     1       0.573  -2.400  -2.256  1.00  0.00     0.116 C 
BRANCH   2   3
ATOM      3  N   UNL     1       1.677  -1.506  -1.786  1.00  0.00    -0.352 N 
ATOM      4  C   UNL     1       1.918  -0.568  -0.804  1.00  0.00     0.256 C 
ATOM      5  O   UNL     1       2.961   0.084  -0.817  1.00  0.00    -0.269 OA
ATOM      6  H   UNL     1       2.475  -1.623  -2.350  1.00  0.00     0.163 HD
BRANCH   4   7
ATOM      7  C   UNL     1       0.935  -0.397   0.192  1.00  0.00     0.102 A 
ATOM      8  C   UNL     1      -2.239  -1.321   0.825  1.00  0.00     0.176 C 
ATOM      9  N   UNL     1      -0.908  -0.858   1.165  1.00  0.00    -0.251 N 
ATOM     10  N   UNL     1      -0.782   0.482   1.359  1.00  0.00    -0.179 NA
ATOM     11  C   UNL     1       0.314  -1.437   0.829  1.00  0.00     0.150 A 
ATOM     12  C   UNL     1       0.359   0.770   0.726  1.00  0.00     0.151 A 
BRANCH  11  13
ATOM     13  N   UNL     1       0.793  -2.761   0.842  1.00  0.00    -0.267 N 
ATOM     14  H   UNL     1       0.181  -3.468   0.535  1.00  0.00     0.181 HD
BRANCH  13  15
ATOM     15  S   UNL     1       2.330  -3.232   1.342  1.00  0.00     0.237 S 
ATOM     16  O   UNL     1       2.830  -2.167   2.192  1.00  0.00    -0.206 OA
ATOM     17  O   UNL     1       2.024  -4.499   1.985  1.00  0.00    -0.206 OA
BRANCH  15  18
ATOM     18  C   UNL     1       3.708  -3.635   0.219  1.00  0.00     0.145 C 
ATOM     19  C   UNL     1       4.016  -3.178  -1.209  1.00  0.00     0.039 C 
ATOM     20  C   UNL     1       4.292  -5.042   0.417  1.00  0.00     0.158 C 
ATOM     21  C   UNL     1       4.505  -4.286  -2.126  1.00  0.00     0.138 C 
ATOM     22  S   UNL     1       5.064  -5.581  -1.096  1.00  0.00     0.151 S 
ATOM     23  O   UNL     1       4.415  -6.788  -1.553  1.00  0.00    -0.229 OA
ATOM     24  O   UNL     1       6.495  -5.442  -0.969  1.00  0.00    -0.229 OA
ENDBRANCH  15  18
ENDBRANCH  13  15
ENDBRANCH  11  13
ENDBRANCH   4   7
ENDBRANCH   2   3
ENDBRANCH   1   2
BRANCH   1  25
ATOM     25  C   UNL     1       0.842  -5.201  -2.123  1.00  0.00     0.023 C 
BRANCH  25  26
ATOM     26  C   UNL     1       1.275  -6.272  -1.051  1.00  0.00     0.116 C 
BRANCH  26  27
ATOM     27  N   UNL     1       0.298  -7.234  -0.564  1.00  0.00    -0.352 N 
ATOM     28  C   UNL     1       0.460  -8.562  -0.157  1.00  0.00     0.251 C 
ATOM     29  H   UNL     1      -0.625  -6.895  -0.512  1.00  0.00     0.163 HD
ATOM     30  O   UNL     1      -0.557  -9.162   0.197  1.00  0.00    -0.269 OA
BRANCH  28  31
ATOM     31  C   UNL     1       1.763  -9.316  -0.147  1.00  0.00     0.039 A 
ATOM     32  C   UNL     1       1.811 -10.586  -0.749  1.00  0.00     0.014 A 
ATOM     33  C   UNL     1       2.887  -8.908   0.578  1.00  0.00     0.014 A 
ATOM     34  C   UNL     1       2.980 -11.382  -0.706  1.00  0.00     0.010 A 
ATOM     35  C   UNL     1       4.068  -9.700   0.602  1.00  0.00     0.010 A 
ATOM     36  C   UNL     1       4.146 -10.942  -0.057  1.00  0.00    -0.014 A 
BRANCH  36  37
ATOM     37  C   UNL     1       5.423 -11.750  -0.119  1.00  0.00     0.031 A 
ATOM     38  C   UNL     1       6.035 -12.402   1.105  1.00  0.00     0.074 A 
ATOM     39  C   UNL     1       6.076 -11.900  -1.295  1.00  0.00     0.049 A 
ATOM     40  N   UNL     1       7.136 -13.113   1.211  1.00  0.00    -0.248 NA
ATOM     41  C   UNL     1       5.323 -12.217   2.373  1.00  0.00     0.031 C 
ATOM     42  C   UNL     1       5.647 -11.325  -2.569  1.00  0.00     0.029 A 
ATOM     43  N   UNL     1       7.237 -12.574  -1.615  1.00  0.00    -0.354 N 
ATOM     44  C   UNL     1       7.253 -13.460   2.557  1.00  0.00     0.074 A 
ATOM     45  C   UNL     1       6.130 -12.833   3.229  1.00  0.00     0.031 C 
ATOM     46  C   UNL     1       6.517 -11.679  -3.529  1.00  0.00     0.029 A 
ATOM     47  C   UNL     1       7.594 -12.475  -2.942  1.00  0.00     0.049 A 
ATOM     48  H   UNL     1       7.763 -13.080  -0.954  1.00  0.00     0.167 HD
ATOM     49  C   UNL     1       8.188 -14.233   3.176  1.00  0.00     0.034 A 
ATOM     50  C   UNL     1       8.663 -12.946  -3.622  1.00  0.00     0.034 A 
ATOM     51  C   UNL     1       9.314 -14.863   2.516  1.00  0.00     0.049 A 
ATOM     52  C   UNL     1       9.713 -13.765  -2.911  1.00  0.00     0.074 A 
ATOM     53  C   UNL     1      10.275 -15.703   3.061  1.00  0.00     0.029 A 
ATOM     54  N   UNL     1       9.647 -14.716   1.176  1.00  0.00    -0.354 N 
ATOM     55  N   UNL     1       9.774 -14.114  -1.648  1.00  0.00    -0.248 NA
ATOM     56  C   UNL     1      10.835 -14.262  -3.723  1.00  0.00     0.031 C 
ATOM     57  C   UNL     1      11.223 -16.001   2.074  1.00  0.00     0.029 A 
ATOM     58  C   UNL     1      10.813 -15.416   0.888  1.00  0.00     0.049 A 
ATOM     59  H   UNL     1       9.130 -14.190   0.523  1.00  0.00     0.167 HD
ATOM     60  C   UNL     1      10.923 -14.894  -1.524  1.00  0.00     0.074 A 
ATOM     61  C   UNL     1      11.518 -14.976  -2.840  1.00  0.00     0.031 C 
ATOM     62  C   UNL     1      11.430 -15.492  -0.416  1.00  0.00     0.034 A 
BRANCH  49  63
ATOM     63  C   UNL     1       8.052 -14.426   4.674  1.00  0.00     0.023 A 
ATOM     64  C   UNL     1       6.933 -15.065   5.236  1.00  0.00     0.031 A 
ATOM     65  C   UNL     1       9.045 -13.956   5.554  1.00  0.00     0.131 A 
ATOM     66  C   UNL     1       6.789 -15.135   6.630  1.00  0.00     0.055 A 
ATOM     67  C   UNL     1       8.939 -14.109   6.939  1.00  0.00     0.041 A 
ATOM     68  F   UNL     1      10.134 -13.328   5.084  1.00  0.00    -0.206 F 
ATOM     69  C   UNL     1       7.796 -14.684   7.486  1.00  0.00     0.022 A 
BRANCH  66  70
ATOM     70  S   UNL     1       5.192 -15.666   7.306  1.00  0.00     0.124 S 
ATOM     71  O   UNL     1       4.276 -14.718   6.676  1.00  0.00    -0.237 OA
ATOM     72  O   UNL     1       5.099 -17.047   6.848  1.00  0.00    -0.237 OA
ATOM     73  O   UNL     1       5.356 -15.494   8.748  1.00  0.00    -0.744 OA
ENDBRANCH  66  70
ENDBRANCH  49  63
BRANCH  50  74
ATOM     74  C   UNL     1       8.824 -12.634  -5.075  1.00  0.00     0.023 A 
ATOM     75  C   UNL     1       8.778 -13.646  -6.049  1.00  0.00     0.031 A 
ATOM     76  C   UNL     1       9.075 -11.318  -5.503  1.00  0.00     0.131 A 
ATOM     77  C   UNL     1       9.014 -13.330  -7.397  1.00  0.00     0.055 A 
ATOM     78  C   UNL     1       9.258 -11.002  -6.850  1.00  0.00     0.041 A 
ATOM     79  F   UNL     1       9.132 -10.314  -4.614  1.00  0.00    -0.206 F 
ATOM     80  C   UNL     1       9.239 -12.013  -7.805  1.00  0.00     0.022 A 
BRANCH  77  81
ATOM     81  S   UNL     1       9.090 -14.678  -8.609  1.00  0.00     0.124 S 
ATOM     82  O   UNL     1      10.198 -15.476  -8.097  1.00  0.00    -0.237 OA
ATOM     83  O   UNL     1       7.761 -15.269  -8.489  1.00  0.00    -0.237 OA
ATOM     84  O   UNL     1       9.348 -13.986  -9.870  1.00  0.00    -0.744 OA
ENDBRANCH  77  81
ENDBRANCH  50  74
BRANCH  62  85
ATOM     85  C   UNL     1      12.678 -16.331  -0.587  1.00  0.00     0.023 A 
ATOM     86  C   UNL     1      13.917 -15.764  -0.938  1.00  0.00     0.031 A 
ATOM     87  C   UNL     1      12.623 -17.726  -0.411  1.00  0.00     0.131 A 
ATOM     88  C   UNL     1      15.034 -16.590  -1.153  1.00  0.00     0.055 A 
ATOM     89  C   UNL     1      13.749 -18.537  -0.571  1.00  0.00     0.041 A 
ATOM     90  F   UNL     1      11.469 -18.328  -0.081  1.00  0.00    -0.206 F 
ATOM     91  C   UNL     1      14.961 -17.971  -0.956  1.00  0.00     0.022 A 
BRANCH  88  92
ATOM     92  S   UNL     1      16.567 -15.845  -1.778  1.00  0.00     0.124 S 
ATOM     93  O   UNL     1      16.122 -15.241  -3.030  1.00  0.00    -0.237 OA
ATOM     94  O   UNL     1      16.920 -14.915  -0.711  1.00  0.00    -0.237 OA
ATOM     95  O   UNL     1      17.468 -16.987  -1.927  1.00  0.00    -0.744 OA
ENDBRANCH  88  92
ENDBRANCH  62  85
ENDBRANCH  36  37
ENDBRANCH  28  31
ENDBRANCH  26  27
ENDBRANCH  25  26
ENDBRANCH   1  25
TORSDOF 17
