REMARK SMILES Nc1cc([N+](=O)[O-])ccc1[C@H]([NH3+])C(=O)NCCCCNC(=O)c1ccc(-c2c3nc(c(-c4cc(S(=O)(=O)[O-])ccc4F)c4ccc([nH]4)c(-c4cc(S(=O)(=O)[O-])ccc4F)c4nc(c(-c5cc(S(=O)(=O)[O-])ccc5F)c5ccc2[nH]5)C=C4)C=C3)cc1
REMARK SMILES IDX 18 1 17 2 16 3 15 4 13 5 14 6 11 8 10 9 2 10 3 11 4 12 9 13
REMARK SMILES IDX 8 14 1 15 5 18 6 19 7 20 12 21 19 25 20 26 21 27 22 29 23 30
REMARK SMILES IDX 24 31 85 32 25 33 84 34 26 35 27 36 28 37 78 38 29 39 83 40
REMARK SMILES IDX 77 41 79 42 30 43 82 44 76 45 75 46 31 48 63 49 43 50 62 51
REMARK SMILES IDX 44 52 47 53 61 54 80 55 45 56 46 57 60 59 81 60 48 61 32 62
REMARK SMILES IDX 33 63 41 64 34 65 40 66 42 67 39 68 35 69 36 70 37 71 38 72
REMARK SMILES IDX 64 73 65 74 73 75 66 76 72 77 74 78 71 79 67 80 68 81 69 82
REMARK SMILES IDX 70 83 49 84 50 85 58 86 51 87 57 88 59 89 56 90 52 91 53 92
REMARK SMILES IDX 54 93 55 94
REMARK H PARENT 15 7 1 16 1 17 12 22 12 23 12 24 20 28 79 47 47 58
REMARK Flexibility Score: inf
ROOT
ATOM      1  C   UNL     1      -3.510   3.047   2.410  1.00  0.00     0.023 C 
ENDROOT
BRANCH   1   2
ATOM      2  C   UNL     1      -2.808   2.387   1.221  1.00  0.00     0.023 C 
BRANCH   2   3
ATOM      3  C   UNL     1      -1.835   3.297   0.478  1.00  0.00     0.116 C 
BRANCH   3   4
ATOM      4  N   UNL     1      -0.698   3.653   1.302  1.00  0.00    -0.351 N 
ATOM      5  C   UNL     1       0.622   3.332   1.140  1.00  0.00     0.283 C 
ATOM      6  O   UNL     1       1.429   3.768   1.968  1.00  0.00    -0.268 OA
ATOM      7  H   UNL     1      -0.904   4.204   2.091  1.00  0.00     0.163 HD
BRANCH   5   8
ATOM      8  C   UNL     1       1.102   2.486  -0.076  1.00  0.00     0.304 C 
BRANCH   8   9
ATOM      9  C   UNL     1       0.857   3.186  -1.424  1.00  0.00     0.042 A 
ATOM     10  C   UNL     1       0.443   2.560  -2.621  1.00  0.00     0.048 A 
ATOM     11  C   UNL     1       0.159   3.349  -3.751  1.00  0.00     0.111 A 
ATOM     12  C   UNL     1       0.364   4.733  -3.737  1.00  0.00     0.271 A 
ATOM     13  C   UNL     1       1.086   4.588  -1.455  1.00  0.00     0.020 A 
ATOM     14  C   UNL     1       0.837   5.360  -2.590  1.00  0.00     0.086 A 
BRANCH  10  15
ATOM     15  N   UNL     1       0.169   1.199  -2.718  1.00  0.00    -0.398 N 
ATOM     16  H   UNL     1      -0.117   0.814  -3.578  1.00  0.00     0.156 HD
ATOM     17  H   UNL     1       0.259   0.621  -1.926  1.00  0.00     0.156 HD
ENDBRANCH  10  15
BRANCH  12  18
ATOM     18  N   UNL     1       0.101   5.521  -4.946  1.00  0.00     0.062 N 
ATOM     19  O   UNL     1      -0.252   4.911  -5.966  1.00  0.00    -0.258 OA
ATOM     20  O   UNL     1       0.265   6.747  -4.883  1.00  0.00    -0.258 OA
ENDBRANCH  12  18
ENDBRANCH   8   9
BRANCH   8  21
ATOM     21  N   UNL     1       0.571   1.118   0.091  1.00  0.00    -0.343 N 
ATOM     22  H   UNL     1      -0.448   1.151   0.120  1.00  0.00     0.345 HD
ATOM     23  H   UNL     1       0.923   0.721   0.962  1.00  0.00     0.345 HD
ATOM     24  H   UNL     1       0.871   0.539  -0.693  1.00  0.00     0.345 HD
ENDBRANCH   8  21
ENDBRANCH   5   8
ENDBRANCH   3   4
ENDBRANCH   2   3
ENDBRANCH   1   2
BRANCH   1  25
ATOM     25  C   UNL     1      -4.247   4.344   2.092  1.00  0.00     0.116 C 
BRANCH  25  26
ATOM     26  N   UNL     1      -5.253   4.181   1.055  1.00  0.00    -0.352 N 
ATOM     27  C   UNL     1      -6.540   4.655   1.009  1.00  0.00     0.251 C 
ATOM     28  H   UNL     1      -4.970   3.654   0.273  1.00  0.00     0.163 HD
ATOM     29  O   UNL     1      -7.289   4.270   0.112  1.00  0.00    -0.269 OA
BRANCH  27  30
ATOM     30  C   UNL     1      -7.032   5.590   2.046  1.00  0.00     0.039 A 
ATOM     31  C   UNL     1      -8.318   5.402   2.558  1.00  0.00     0.014 A 
ATOM     32  C   UNL     1      -6.244   6.647   2.511  1.00  0.00     0.014 A 
ATOM     33  C   UNL     1      -8.788   6.239   3.572  1.00  0.00     0.010 A 
ATOM     34  C   UNL     1      -6.683   7.427   3.580  1.00  0.00     0.010 A 
ATOM     35  C   UNL     1      -7.963   7.238   4.118  1.00  0.00    -0.014 A 
BRANCH  35  36
ATOM     36  C   UNL     1      -8.444   8.071   5.254  1.00  0.00     0.031 A 
ATOM     37  C   UNL     1      -8.619   9.559   5.096  1.00  0.00     0.074 A 
ATOM     38  C   UNL     1      -8.711   7.480   6.436  1.00  0.00     0.049 A 
ATOM     39  N   UNL     1      -9.078  10.432   5.957  1.00  0.00    -0.248 NA
ATOM     40  C   UNL     1      -8.200  10.148   3.816  1.00  0.00     0.031 C 
ATOM     41  C   UNL     1      -8.525   6.055   6.728  1.00  0.00     0.029 A 
ATOM     42  N   UNL     1      -9.211   7.992   7.608  1.00  0.00    -0.354 N 
ATOM     43  C   UNL     1      -8.998  11.670   5.327  1.00  0.00     0.074 A 
ATOM     44  C   UNL     1      -8.386  11.441   4.036  1.00  0.00     0.031 C 
ATOM     45  C   UNL     1      -8.960   5.800   7.972  1.00  0.00     0.029 A 
ATOM     46  C   UNL     1      -9.412   7.043   8.586  1.00  0.00     0.049 A 
ATOM     47  H   UNL     1      -9.407   8.948   7.737  1.00  0.00     0.167 HD
ATOM     48  C   UNL     1      -9.417  12.880   5.774  1.00  0.00     0.034 A 
ATOM     49  C   UNL     1      -9.910   7.161   9.832  1.00  0.00     0.034 A 
ATOM     50  C   UNL     1     -10.037  13.088   7.062  1.00  0.00     0.049 A 
ATOM     51  C   UNL     1     -10.361   8.521  10.305  1.00  0.00     0.074 A 
ATOM     52  C   UNL     1     -10.562  14.257   7.586  1.00  0.00     0.029 A 
ATOM     53  N   UNL     1     -10.206  12.110   8.034  1.00  0.00    -0.354 N 
ATOM     54  N   UNL     1     -10.356   9.667   9.661  1.00  0.00    -0.248 NA
ATOM     55  C   UNL     1     -10.904   8.597  11.666  1.00  0.00     0.031 C 
ATOM     56  C   UNL     1     -10.969  14.006   8.900  1.00  0.00     0.029 A 
ATOM     57  C   UNL     1     -10.787  12.659   9.168  1.00  0.00     0.049 A 
ATOM     58  H   UNL     1      -9.950  11.165   7.933  1.00  0.00     0.167 HD
ATOM     59  C   UNL     1     -10.928  10.591  10.532  1.00  0.00     0.074 A 
ATOM     60  C   UNL     1     -11.296   9.859  11.727  1.00  0.00     0.031 C 
ATOM     61  C   UNL     1     -11.131  11.924  10.363  1.00  0.00     0.034 A 
BRANCH  48  62
ATOM     62  C   UNL     1      -9.192  14.077   4.878  1.00  0.00     0.023 A 
ATOM     63  C   UNL     1      -9.798  14.186   3.614  1.00  0.00     0.031 A 
ATOM     64  C   UNL     1      -8.355  15.128   5.297  1.00  0.00     0.131 A 
ATOM     65  C   UNL     1      -9.509  15.284   2.789  1.00  0.00     0.055 A 
ATOM     66  C   UNL     1      -8.137  16.257   4.505  1.00  0.00     0.041 A 
ATOM     67  F   UNL     1      -7.729  15.072   6.483  1.00  0.00    -0.206 F 
ATOM     68  C   UNL     1      -8.705  16.334   3.237  1.00  0.00     0.022 A 
BRANCH  65  69
ATOM     69  S   UNL     1     -10.091  15.258   1.071  1.00  0.00     0.124 S 
ATOM     70  O   UNL     1      -9.462  14.040   0.566  1.00  0.00    -0.237 OA
ATOM     71  O   UNL     1     -11.539  15.212   1.229  1.00  0.00    -0.237 OA
ATOM     72  O   UNL     1      -9.562  16.501   0.511  1.00  0.00    -0.744 OA
ENDBRANCH  65  69
ENDBRANCH  48  62
BRANCH  49  73
ATOM     73  C   UNL     1     -10.025   5.973  10.729  1.00  0.00     0.023 A 
ATOM     74  C   UNL     1     -11.274   5.550  11.212  1.00  0.00     0.031 A 
ATOM     75  C   UNL     1      -8.882   5.287  11.178  1.00  0.00     0.131 A 
ATOM     76  C   UNL     1     -11.348   4.521  12.164  1.00  0.00     0.055 A 
ATOM     77  C   UNL     1      -8.966   4.219  12.073  1.00  0.00     0.041 A 
ATOM     78  F   UNL     1      -7.662   5.645  10.748  1.00  0.00    -0.206 F 
ATOM     79  C   UNL     1     -10.203   3.843  12.587  1.00  0.00     0.022 A 
BRANCH  76  80
ATOM     80  S   UNL     1     -12.952   4.163  12.932  1.00  0.00     0.124 S 
ATOM     81  O   UNL     1     -13.315   5.464  13.482  1.00  0.00    -0.237 OA
ATOM     82  O   UNL     1     -13.738   3.706  11.792  1.00  0.00    -0.237 OA
ATOM     83  O   UNL     1     -12.633   3.134  13.920  1.00  0.00    -0.744 OA
ENDBRANCH  76  80
ENDBRANCH  49  73
BRANCH  61  84
ATOM     84  C   UNL     1     -11.818  12.655  11.495  1.00  0.00     0.023 A 
ATOM     85  C   UNL     1     -11.246  12.736  12.777  1.00  0.00     0.031 A 
ATOM     86  C   UNL     1     -13.089  13.226  11.305  1.00  0.00     0.131 A 
ATOM     87  C   UNL     1     -11.981  13.282  13.839  1.00  0.00     0.055 A 
ATOM     88  C   UNL     1     -13.781  13.845  12.348  1.00  0.00     0.041 A 
ATOM     89  F   UNL     1     -13.689  13.180  10.105  1.00  0.00    -0.206 F 
ATOM     90  C   UNL     1     -13.238  13.855  13.629  1.00  0.00     0.022 A 
BRANCH  87  91
ATOM     91  S   UNL     1     -11.340  13.091  15.526  1.00  0.00     0.124 S 
ATOM     92  O   UNL     1     -11.158  11.646  15.618  1.00  0.00    -0.237 OA
ATOM     93  O   UNL     1     -10.117  13.886  15.485  1.00  0.00    -0.237 OA
ATOM     94  O   UNL     1     -12.407  13.637  16.362  1.00  0.00    -0.744 OA
ENDBRANCH  87  91
ENDBRANCH  61  84
ENDBRANCH  35  36
ENDBRANCH  27  30
ENDBRANCH  25  26
ENDBRANCH   1  25
TORSDOF 18
