REMARK SMILES Cc1ccc(C#N)cc1S(=O)(=O)Nc1cccc(C(=O)NCCCCNC(=O)c2ccc(-c3c4nc(c(-c5cc(S(=O)(=O)[O-])ccc5F)c5ccc([nH]5)c(-c5cc(S(=O)(=O)[O-])ccc5F)c5nc(c(-c6cc(S(=O)(=O)[O-])ccc6F)c6ccc3[nH]6)C=C5)C=C4)cc2)c1
REMARK SMILES IDX 23 1 22 2 21 3 19 4 20 5 18 7 14 8 15 9 92 10 16 11 17 12
REMARK SMILES IDX 13 13 10 15 11 16 12 17 9 18 1 19 2 20 3 21 4 22 8 23 5 24
REMARK SMILES IDX 6 25 7 26 24 27 25 28 26 29 27 30 28 32 29 33 30 34 91 35
REMARK SMILES IDX 31 36 90 37 32 38 33 39 34 40 84 41 35 42 89 43 83 44 85 45
REMARK SMILES IDX 36 46 88 47 82 48 81 49 37 51 69 52 49 53 68 54 50 55 53 56
REMARK SMILES IDX 67 57 86 58 51 59 52 60 66 62 87 63 54 64 38 65 39 66 47 67
REMARK SMILES IDX 40 68 46 69 48 70 45 71 41 72 42 73 43 74 44 75 70 76 71 77
REMARK SMILES IDX 79 78 72 79 78 80 80 81 77 82 73 83 74 84 75 85 76 86 55 87
REMARK SMILES IDX 56 88 64 89 57 90 63 91 65 92 62 93 58 94 59 95 60 96 61 97
REMARK H PARENT 21 6 13 14 26 31 85 50 53 61
REMARK Flexibility Score: inf
ROOT
ATOM      1  C   UNL     1      -2.389   2.340   3.787  1.00  0.00     0.023 C 
ENDROOT
BRANCH   1   2
ATOM      2  C   UNL     1      -0.934   1.898   3.719  1.00  0.00     0.116 C 
BRANCH   2   3
ATOM      3  N   UNL     1      -0.631   0.549   4.164  1.00  0.00    -0.352 N 
ATOM      4  C   UNL     1       0.402  -0.314   3.841  1.00  0.00     0.251 C 
ATOM      5  O   UNL     1       0.450  -1.393   4.434  1.00  0.00    -0.269 OA
ATOM      6  H   UNL     1      -1.277   0.182   4.811  1.00  0.00     0.163 HD
BRANCH   4   7
ATOM      7  C   UNL     1       1.396  -0.062   2.743  1.00  0.00     0.041 A 
ATOM      8  C   UNL     1       2.079   1.221   0.806  1.00  0.00     0.050 A 
ATOM      9  C   UNL     1       2.822   0.160   0.315  1.00  0.00     0.027 A 
ATOM     10  C   UNL     1       1.528   1.156   2.088  1.00  0.00     0.040 A 
ATOM     11  C   UNL     1       2.896  -1.015   1.065  1.00  0.00     0.003 A 
ATOM     12  C   UNL     1       2.138  -1.145   2.242  1.00  0.00     0.014 A 
BRANCH   8  13
ATOM     13  N   UNL     1       1.860   2.398   0.045  1.00  0.00    -0.280 N 
ATOM     14  H   UNL     1       2.309   3.220   0.346  1.00  0.00     0.180 HD
BRANCH  13  15
ATOM     15  S   UNL     1       0.891   2.505  -1.338  1.00  0.00     0.262 S 
ATOM     16  O   UNL     1       1.747   3.211  -2.275  1.00  0.00    -0.201 OA
ATOM     17  O   UNL     1      -0.338   3.130  -0.891  1.00  0.00    -0.201 OA
BRANCH  15  18
ATOM     18  C   UNL     1       0.394   1.009  -2.188  1.00  0.00     0.092 A 
ATOM     19  C   UNL     1      -0.378  -0.483  -0.218  1.00  0.00     0.046 C 
ATOM     20  C   UNL     1      -0.038  -0.209  -1.647  1.00  0.00    -0.030 A 
ATOM     21  C   UNL     1      -0.280  -1.295  -2.524  1.00  0.00     0.006 A 
ATOM     22  C   UNL     1      -0.284  -1.136  -3.907  1.00  0.00     0.020 A 
ATOM     23  C   UNL     1       0.315   1.170  -3.596  1.00  0.00     0.042 A 
ATOM     24  C   UNL     1      -0.050   0.121  -4.446  1.00  0.00     0.053 A 
BRANCH  24  25
ATOM     25  C   UNL     1      -0.214   0.340  -5.857  1.00  0.00     0.099 C 
ATOM     26  N   UNL     1      -0.369   0.502  -6.991  1.00  0.00    -0.192 NA
ENDBRANCH  24  25
ENDBRANCH  15  18
ENDBRANCH  13  15
ENDBRANCH   8  13
ENDBRANCH   4   7
ENDBRANCH   2   3
ENDBRANCH   1   2
BRANCH   1  27
ATOM     27  C   UNL     1      -3.034   2.393   5.159  1.00  0.00     0.023 C 
BRANCH  27  28
ATOM     28  C   UNL     1      -2.255   3.142   6.228  1.00  0.00     0.116 C 
BRANCH  28  29
ATOM     29  N   UNL     1      -2.023   4.552   5.923  1.00  0.00    -0.352 N 
ATOM     30  C   UNL     1      -2.406   5.680   6.621  1.00  0.00     0.251 C 
ATOM     31  H   UNL     1      -1.518   4.723   5.095  1.00  0.00     0.163 HD
ATOM     32  O   UNL     1      -2.192   6.794   6.154  1.00  0.00    -0.269 OA
BRANCH  30  33
ATOM     33  C   UNL     1      -3.126   5.527   7.904  1.00  0.00     0.039 A 
ATOM     34  C   UNL     1      -2.683   4.598   8.842  1.00  0.00     0.014 A 
ATOM     35  C   UNL     1      -4.314   6.230   8.119  1.00  0.00     0.014 A 
ATOM     36  C   UNL     1      -3.554   4.170   9.833  1.00  0.00     0.010 A 
ATOM     37  C   UNL     1      -5.125   5.894   9.207  1.00  0.00     0.010 A 
ATOM     38  C   UNL     1      -4.794   4.803  10.025  1.00  0.00    -0.014 A 
BRANCH  38  39
ATOM     39  C   UNL     1      -5.721   4.287  11.072  1.00  0.00     0.031 A 
ATOM     40  C   UNL     1      -7.102   3.792  10.716  1.00  0.00     0.074 A 
ATOM     41  C   UNL     1      -5.289   4.202  12.346  1.00  0.00     0.049 A 
ATOM     42  N   UNL     1      -8.020   3.286  11.500  1.00  0.00    -0.248 NA
ATOM     43  C   UNL     1      -7.513   3.879   9.304  1.00  0.00     0.031 C 
ATOM     44  C   UNL     1      -3.970   4.640  12.809  1.00  0.00     0.029 A 
ATOM     45  N   UNL     1      -5.886   3.703  13.476  1.00  0.00    -0.354 N 
ATOM     46  C   UNL     1      -9.117   3.017  10.688  1.00  0.00     0.074 A 
ATOM     47  C   UNL     1      -8.768   3.455   9.355  1.00  0.00     0.031 C 
ATOM     48  C   UNL     1      -3.835   4.335  14.104  1.00  0.00     0.029 A 
ATOM     49  C   UNL     1      -5.088   3.770  14.595  1.00  0.00     0.049 A 
ATOM     50  H   UNL     1      -6.799   3.333  13.486  1.00  0.00     0.167 HD
ATOM     51  C   UNL     1     -10.298   2.443  11.022  1.00  0.00     0.034 A 
ATOM     52  C   UNL     1      -5.334   3.441  15.880  1.00  0.00     0.034 A 
ATOM     53  C   UNL     1     -10.619   1.988  12.353  1.00  0.00     0.049 A 
ATOM     54  C   UNL     1      -6.668   2.838  16.231  1.00  0.00     0.074 A 
ATOM     55  C   UNL     1     -11.776   1.360  12.781  1.00  0.00     0.029 A 
ATOM     56  N   UNL     1      -9.796   2.102  13.464  1.00  0.00    -0.354 N 
ATOM     57  N   UNL     1      -7.673   2.548  15.440  1.00  0.00    -0.248 NA
ATOM     58  C   UNL     1      -6.902   2.507  17.642  1.00  0.00     0.031 C 
ATOM     59  C   UNL     1     -11.691   1.181  14.161  1.00  0.00     0.029 A 
ATOM     60  C   UNL     1     -10.436   1.589  14.582  1.00  0.00     0.049 A 
ATOM     61  H   UNL     1      -8.891   2.491  13.460  1.00  0.00     0.167 HD
ATOM     62  C   UNL     1      -8.644   1.969  16.251  1.00  0.00     0.074 A 
ATOM     63  C   UNL     1      -8.093   1.927  17.589  1.00  0.00     0.031 C 
ATOM     64  C   UNL     1      -9.879   1.519  15.913  1.00  0.00     0.034 A 
BRANCH  51  65
ATOM     65  C   UNL     1     -11.353   2.248   9.954  1.00  0.00     0.023 A 
ATOM     66  C   UNL     1     -12.622   2.840  10.111  1.00  0.00     0.031 A 
ATOM     67  C   UNL     1     -11.169   1.353   8.885  1.00  0.00     0.131 A 
ATOM     68  C   UNL     1     -13.670   2.486   9.252  1.00  0.00     0.055 A 
ATOM     69  C   UNL     1     -12.201   1.049   7.996  1.00  0.00     0.041 A 
ATOM     70  F   UNL     1      -9.982   0.756   8.691  1.00  0.00    -0.206 F 
ATOM     71  C   UNL     1     -13.464   1.601   8.189  1.00  0.00     0.022 A 
BRANCH  68  72
ATOM     72  S   UNL     1     -15.360   3.077   9.542  1.00  0.00     0.124 S 
ATOM     73  O   UNL     1     -15.658   3.762   8.286  1.00  0.00    -0.237 OA
ATOM     74  O   UNL     1     -16.086   1.829   9.760  1.00  0.00    -0.237 OA
ATOM     75  O   UNL     1     -15.233   3.946  10.707  1.00  0.00    -0.744 OA
ENDBRANCH  68  72
ENDBRANCH  51  65
BRANCH  52  76
ATOM     76  C   UNL     1      -4.264   3.653  16.900  1.00  0.00     0.023 A 
ATOM     77  C   UNL     1      -3.727   4.935  17.122  1.00  0.00     0.031 A 
ATOM     78  C   UNL     1      -3.682   2.569  17.578  1.00  0.00     0.131 A 
ATOM     79  C   UNL     1      -2.591   5.088  17.925  1.00  0.00     0.055 A 
ATOM     80  C   UNL     1      -2.605   2.740  18.451  1.00  0.00     0.041 A 
ATOM     81  F   UNL     1      -4.145   1.324  17.389  1.00  0.00    -0.206 F 
ATOM     82  C   UNL     1      -2.041   4.001  18.611  1.00  0.00     0.022 A 
BRANCH  79  83
ATOM     83  S   UNL     1      -1.701   6.668  17.980  1.00  0.00     0.124 S 
ATOM     84  O   UNL     1      -1.738   6.991  19.402  1.00  0.00    -0.237 OA
ATOM     85  O   UNL     1      -0.392   6.288  17.452  1.00  0.00    -0.237 OA
ATOM     86  O   UNL     1      -2.489   7.538  17.113  1.00  0.00    -0.744 OA
ENDBRANCH  79  83
ENDBRANCH  52  76
BRANCH  64  87
ATOM     87  C   UNL     1     -10.747   0.896  16.983  1.00  0.00     0.023 A 
ATOM     88  C   UNL     1     -11.203  -0.428  16.825  1.00  0.00     0.031 A 
ATOM     89  C   UNL     1     -11.254   1.644  18.060  1.00  0.00     0.131 A 
ATOM     90  C   UNL     1     -12.176  -0.943  17.690  1.00  0.00     0.055 A 
ATOM     91  C   UNL     1     -12.172   1.103  18.962  1.00  0.00     0.041 A 
ATOM     92  F   UNL     1     -10.867   2.916  18.249  1.00  0.00    -0.206 F 
ATOM     93  C   UNL     1     -12.652  -0.189  18.767  1.00  0.00     0.022 A 
BRANCH  90  94
ATOM     94  S   UNL     1     -12.942  -2.558  17.381  1.00  0.00     0.124 S 
ATOM     95  O   UNL     1     -12.598  -3.293  18.596  1.00  0.00    -0.237 OA
ATOM     96  O   UNL     1     -14.352  -2.206  17.243  1.00  0.00    -0.237 OA
ATOM     97  O   UNL     1     -12.290  -3.030  16.164  1.00  0.00    -0.744 OA
ENDBRANCH  90  94
ENDBRANCH  64  87
ENDBRANCH  38  39
ENDBRANCH  30  33
ENDBRANCH  28  29
ENDBRANCH  27  28
ENDBRANCH   1  27
TORSDOF 18
