REMARK SMILES COc1cc(Br)c(OC)c(C(=O)NCCC(=O)NCCCCNC(=O)c2ccc(-c3c4nc(c(-c5cc(S(=O)(=O)[O-])ccc5F)c5ccc([nH]5)c(-c5cc(S(=O)(=O)[O-])ccc5F)c5nc(c(-c6cc(S(=O)(=O)[O-])ccc6F)c6ccc3[nH]6)C=C5)C=C4)cc2)c1
REMARK SMILES IDX 20 1 19 2 18 3 16 4 17 5 15 7 14 8 13 9 11 10 12 11 10 13
REMARK SMILES IDX 3 14 4 15 89 16 5 17 6 18 7 19 2 20 1 21 8 22 9 23 21 24
REMARK SMILES IDX 22 25 23 26 24 27 25 29 26 30 27 31 88 32 28 33 87 34 29 35
REMARK SMILES IDX 30 36 31 37 81 38 32 39 86 40 80 41 82 42 33 43 85 44 79 45
REMARK SMILES IDX 78 46 34 48 66 49 46 50 65 51 47 52 50 53 64 54 83 55 48 56
REMARK SMILES IDX 49 57 63 59 84 60 51 61 35 62 36 63 44 64 37 65 43 66 45 67
REMARK SMILES IDX 42 68 38 69 39 70 40 71 41 72 67 73 68 74 76 75 69 76 75 77
REMARK SMILES IDX 77 78 74 79 70 80 71 81 72 82 73 83 52 84 53 85 61 86 54 87
REMARK SMILES IDX 60 88 62 89 59 90 55 91 56 92 57 93 58 94
REMARK H PARENT 18 6 13 12 23 28 82 47 50 58
REMARK Flexibility Score: inf
ROOT
ATOM      1  C   UNL     1      -2.831   7.972   0.837  1.00  0.00     0.023 C 
ENDROOT
BRANCH   1   2
ATOM      2  C   UNL     1      -3.222   6.867   1.815  1.00  0.00     0.116 C 
BRANCH   2   3
ATOM      3  N   UNL     1      -4.379   6.132   1.342  1.00  0.00    -0.356 N 
ATOM      4  C   UNL     1      -4.430   4.883   0.804  1.00  0.00     0.221 C 
ATOM      5  O   UNL     1      -5.508   4.457   0.386  1.00  0.00    -0.275 OA
ATOM      6  H   UNL     1      -5.242   6.598   1.422  1.00  0.00     0.163 HD
BRANCH   4   7
ATOM      7  C   UNL     1      -3.175   4.041   0.709  1.00  0.00     0.121 C 
BRANCH   7   8
ATOM      8  C   UNL     1      -2.442   4.271  -0.606  1.00  0.00     0.126 C 
BRANCH   8   9
ATOM      9  N   UNL     1      -1.415   5.311  -0.560  1.00  0.00    -0.351 N 
ATOM     10  C   UNL     1      -0.109   5.428  -0.150  1.00  0.00     0.255 C 
ATOM     11  O   UNL     1       0.352   6.571  -0.151  1.00  0.00    -0.269 OA
ATOM     12  H   UNL     1      -1.752   6.161  -0.923  1.00  0.00     0.163 HD
BRANCH  10  13
ATOM     13  C   UNL     1       0.785   4.285   0.190  1.00  0.00     0.086 A 
ATOM     14  C   UNL     1       1.508   2.009  -0.247  1.00  0.00     0.121 A 
ATOM     15  C   UNL     1       2.654   2.209   0.508  1.00  0.00     0.066 A 
ATOM     16  C   UNL     1       0.622   3.058  -0.464  1.00  0.00     0.064 A 
ATOM     17  C   UNL     1       2.858   3.431   1.155  1.00  0.00     0.064 A 
ATOM     18  Br  UNL     1       4.426   3.530   2.229  1.00  0.00    -0.047 Br
ATOM     19  C   UNL     1       1.919   4.472   1.024  1.00  0.00     0.146 A 
BRANCH  14  20
ATOM     20  O   UNL     1       1.208   0.820  -0.853  1.00  0.00    -0.497 OA
ATOM     21  C   UNL     1       1.343  -0.295   0.031  1.00  0.00     0.278 C 
ENDBRANCH  14  20
BRANCH  19  22
ATOM     22  O   UNL     1       1.979   5.603   1.802  1.00  0.00    -0.495 OA
ATOM     23  C   UNL     1       3.110   6.444   1.569  1.00  0.00     0.278 C 
ENDBRANCH  19  22
ENDBRANCH  10  13
ENDBRANCH   8   9
ENDBRANCH   7   8
ENDBRANCH   4   7
ENDBRANCH   2   3
ENDBRANCH   1   2
BRANCH   1  24
ATOM     24  C   UNL     1      -3.720   9.209   0.863  1.00  0.00     0.023 C 
BRANCH  24  25
ATOM     25  C   UNL     1      -3.840   9.891   2.215  1.00  0.00     0.116 C 
BRANCH  25  26
ATOM     26  N   UNL     1      -2.559  10.250   2.803  1.00  0.00    -0.352 N 
ATOM     27  C   UNL     1      -2.213  11.413   3.458  1.00  0.00     0.251 C 
ATOM     28  H   UNL     1      -1.846   9.576   2.722  1.00  0.00     0.163 HD
ATOM     29  O   UNL     1      -1.063  11.604   3.820  1.00  0.00    -0.269 OA
BRANCH  27  30
ATOM     30  C   UNL     1      -3.254  12.443   3.664  1.00  0.00     0.039 A 
ATOM     31  C   UNL     1      -2.992  13.756   3.268  1.00  0.00     0.014 A 
ATOM     32  C   UNL     1      -4.510  12.089   4.161  1.00  0.00     0.014 A 
ATOM     33  C   UNL     1      -4.022  14.698   3.293  1.00  0.00     0.010 A 
ATOM     34  C   UNL     1      -5.555  13.002   4.095  1.00  0.00     0.010 A 
ATOM     35  C   UNL     1      -5.322  14.316   3.662  1.00  0.00    -0.014 A 
BRANCH  35  36
ATOM     36  C   UNL     1      -6.456  15.276   3.619  1.00  0.00     0.031 A 
ATOM     37  C   UNL     1      -7.191  15.612   4.888  1.00  0.00     0.074 A 
ATOM     38  C   UNL     1      -6.872  15.773   2.438  1.00  0.00     0.049 A 
ATOM     39  N   UNL     1      -8.270  16.332   5.056  1.00  0.00    -0.248 NA
ATOM     40  C   UNL     1      -6.664  15.020   6.126  1.00  0.00     0.031 C 
ATOM     41  C   UNL     1      -6.274  15.474   1.134  1.00  0.00     0.029 A 
ATOM     42  N   UNL     1      -7.904  16.626   2.139  1.00  0.00    -0.354 N 
ATOM     43  C   UNL     1      -8.565  16.257   6.413  1.00  0.00     0.074 A 
ATOM     44  C   UNL     1      -7.592  15.364   7.004  1.00  0.00     0.031 C 
ATOM     45  C   UNL     1      -6.934  16.154   0.181  1.00  0.00     0.029 A 
ATOM     46  C   UNL     1      -8.025  16.901   0.797  1.00  0.00     0.049 A 
ATOM     47  H   UNL     1      -8.503  17.006   2.822  1.00  0.00     0.167 HD
ATOM     48  C   UNL     1      -9.539  16.897   7.107  1.00  0.00     0.034 A 
ATOM     49  C   UNL     1      -8.920  17.663   0.137  1.00  0.00     0.034 A 
ATOM     50  C   UNL     1     -10.481  17.806   6.502  1.00  0.00     0.049 A 
ATOM     51  C   UNL     1      -9.989  18.375   0.927  1.00  0.00     0.074 A 
ATOM     52  C   UNL     1     -11.468  18.560   7.112  1.00  0.00     0.029 A 
ATOM     53  N   UNL     1     -10.555  18.083   5.142  1.00  0.00    -0.354 N 
ATOM     54  N   UNL     1     -10.225  18.336   2.218  1.00  0.00    -0.248 NA
ATOM     55  C   UNL     1     -10.903  19.241   0.172  1.00  0.00     0.031 C 
ATOM     56  C   UNL     1     -12.174  19.247   6.118  1.00  0.00     0.029 A 
ATOM     57  C   UNL     1     -11.585  18.977   4.892  1.00  0.00     0.049 A 
ATOM     58  H   UNL     1      -9.962  17.700   4.455  1.00  0.00     0.167 HD
ATOM     59  C   UNL     1     -11.298  19.195   2.433  1.00  0.00     0.074 A 
ATOM     60  C   UNL     1     -11.652  19.746   1.141  1.00  0.00     0.031 C 
ATOM     61  C   UNL     1     -11.930  19.506   3.594  1.00  0.00     0.034 A 
BRANCH  48  62
ATOM     62  C   UNL     1      -9.632  16.612   8.587  1.00  0.00     0.023 A 
ATOM     63  C   UNL     1      -8.572  16.907   9.464  1.00  0.00     0.031 A 
ATOM     64  C   UNL     1     -10.771  15.985   9.124  1.00  0.00     0.131 A 
ATOM     65  C   UNL     1      -8.631  16.490  10.802  1.00  0.00     0.055 A 
ATOM     66  C   UNL     1     -10.860  15.655  10.478  1.00  0.00     0.041 A 
ATOM     67  F   UNL     1     -11.808  15.660   8.336  1.00  0.00    -0.206 F 
ATOM     68  C   UNL     1      -9.778  15.889  11.322  1.00  0.00     0.022 A 
BRANCH  65  69
ATOM     69  S   UNL     1      -7.122  16.593  11.805  1.00  0.00     0.124 S 
ATOM     70  O   UNL     1      -6.200  15.761  11.034  1.00  0.00    -0.237 OA
ATOM     71  O   UNL     1      -6.843  18.024  11.808  1.00  0.00    -0.237 OA
ATOM     72  O   UNL     1      -7.528  16.032  13.092  1.00  0.00    -0.744 OA
ENDBRANCH  65  69
ENDBRANCH  48  62
BRANCH  49  73
ATOM     73  C   UNL     1      -8.849  17.797  -1.345  1.00  0.00     0.023 A 
ATOM     74  C   UNL     1      -8.529  19.025  -1.945  1.00  0.00     0.031 A 
ATOM     75  C   UNL     1      -9.127  16.705  -2.186  1.00  0.00     0.131 A 
ATOM     76  C   UNL     1      -8.534  19.144  -3.344  1.00  0.00     0.055 A 
ATOM     77  C   UNL     1      -9.086  16.815  -3.577  1.00  0.00     0.041 A 
ATOM     78  F   UNL     1      -9.429  15.506  -1.663  1.00  0.00    -0.206 F 
ATOM     79  C   UNL     1      -8.799  18.044  -4.164  1.00  0.00     0.022 A 
BRANCH  76  80
ATOM     80  S   UNL     1      -8.255  20.778  -4.079  1.00  0.00     0.124 S 
ATOM     81  O   UNL     1      -9.343  21.556  -3.498  1.00  0.00    -0.237 OA
ATOM     82  O   UNL     1      -6.912  21.098  -3.604  1.00  0.00    -0.237 OA
ATOM     83  O   UNL     1      -8.362  20.529  -5.515  1.00  0.00    -0.744 OA
ENDBRANCH  76  80
ENDBRANCH  49  73
BRANCH  61  84
ATOM     84  C   UNL     1     -13.041  20.523   3.514  1.00  0.00     0.023 A 
ATOM     85  C   UNL     1     -14.255  20.243   2.863  1.00  0.00     0.031 A 
ATOM     86  C   UNL     1     -12.876  21.794   4.093  1.00  0.00     0.131 A 
ATOM     87  C   UNL     1     -15.237  21.239   2.762  1.00  0.00     0.055 A 
ATOM     88  C   UNL     1     -13.879  22.761   4.039  1.00  0.00     0.041 A 
ATOM     89  F   UNL     1     -11.735  22.113   4.726  1.00  0.00    -0.206 F 
ATOM     90  C   UNL     1     -15.063  22.491   3.359  1.00  0.00     0.022 A 
BRANCH  87  91
ATOM     91  S   UNL     1     -16.716  20.906   1.766  1.00  0.00     0.124 S 
ATOM     92  O   UNL     1     -16.142  20.624   0.455  1.00  0.00    -0.237 OA
ATOM     93  O   UNL     1     -17.311  19.769   2.461  1.00  0.00    -0.237 OA
ATOM     94  O   UNL     1     -17.477  22.151   1.855  1.00  0.00    -0.744 OA
ENDBRANCH  87  91
ENDBRANCH  61  84
ENDBRANCH  35  36
ENDBRANCH  27  30
ENDBRANCH  25  26
ENDBRANCH  24  25
ENDBRANCH   1  24
TORSDOF 19
