REMARK SMILES COc1ccc(-n2ccnc2C[N@@H+]2CCn3nc(C(=O)NCCCCNC(=O)c4ccc(-c5c6nc(c(-c7cc(S(=O)(=O)[O-])ccc7F)c7ccc([nH]7)c(-c7cc(S(=O)(=O)[O-])ccc7F)c7nc(c(-c8cc(S(=O)(=O)[O-])ccc8F)c8ccc5[nH]8)C=C7)C=C6)cc4)cc3C2)cc1
REMARK SMILES IDX 23 1 22 2 21 3 19 4 20 5 18 7 13 8 14 9 94 10 15 12 93 13
REMARK SMILES IDX 16 14 92 15 17 16 12 17 11 18 7 19 8 20 9 21 10 22 6 23 3 24
REMARK SMILES IDX 4 25 96 26 5 27 95 28 2 29 1 30 24 31 25 32 26 33 27 34
REMARK SMILES IDX 28 36 29 37 30 38 91 39 31 40 90 41 32 42 33 43 34 44 84 45
REMARK SMILES IDX 35 46 89 47 83 48 85 49 36 50 88 51 82 52 81 53 37 55 69 56
REMARK SMILES IDX 49 57 68 58 50 59 53 60 67 61 86 62 51 63 52 64 66 66 87 67
REMARK SMILES IDX 54 68 38 69 39 70 47 71 40 72 46 73 48 74 45 75 41 76 42 77
REMARK SMILES IDX 43 78 44 79 70 80 71 81 79 82 72 83 78 84 80 85 77 86 73 87
REMARK SMILES IDX 74 88 75 89 76 90 55 91 56 92 64 93 57 94 63 95 65 96 62 97
REMARK SMILES IDX 58 98 59 99 60 100 61 101
REMARK H PARENT 21 6 13 11 26 35 85 54 53 65
REMARK Flexibility Score: inf
ROOT
ATOM      1  C   UNL     1       0.150   1.277  -7.019  1.00  0.00     0.023 C 
ENDROOT
BRANCH   1   2
ATOM      2  C   UNL     1      -0.514   0.953  -5.676  1.00  0.00     0.116 C 
BRANCH   2   3
ATOM      3  N   UNL     1       0.545   0.722  -4.681  1.00  0.00    -0.351 N 
ATOM      4  C   UNL     1       1.301   1.389  -3.569  1.00  0.00     0.271 C 
ATOM      5  O   UNL     1       2.324   0.606  -3.828  1.00  0.00    -0.267 OA
ATOM      6  H   UNL     1       0.876  -0.200  -4.780  1.00  0.00     0.163 HD
BRANCH   4   7
ATOM      7  C   UNL     1       0.988   2.856  -2.145  1.00  0.00     0.150 A 
ATOM      8  N   UNL     1       1.374   6.840  -2.416  1.00  0.00    -0.322 N 
ATOM      9  C   UNL     1       2.670   6.457  -1.783  1.00  0.00     0.286 C 
ATOM     10  C   UNL     1       0.212   6.456  -1.571  1.00  0.00     0.319 C 
ATOM     11  H   UNL     1       1.471   7.854  -2.477  1.00  0.00     0.348 HD
ATOM     12  C   UNL     1       2.585   5.530  -0.548  1.00  0.00     0.206 C 
ATOM     13  C   UNL     1       0.353   5.007  -1.299  1.00  0.00     0.094 A 
ATOM     14  N   UNL     1       1.530   4.571  -0.810  1.00  0.00    -0.257 N 
ATOM     15  C   UNL     1      -0.243   3.890  -1.813  1.00  0.00     0.065 A 
ATOM     16  N   UNL     1       1.823   3.304  -1.068  1.00  0.00    -0.167 NA
BRANCH   8  17
ATOM     17  C   UNL     1       1.129   6.408  -3.826  1.00  0.00     0.339 C 
BRANCH  17  18
ATOM     18  C   UNL     1       2.216   5.766  -4.647  1.00  0.00     0.168 A 
ATOM     19  N   UNL     1       2.511   4.407  -4.692  1.00  0.00    -0.299 N 
ATOM     20  C   UNL     1       3.611   4.263  -5.502  1.00  0.00     0.113 A 
ATOM     21  C   UNL     1       3.880   5.515  -5.992  1.00  0.00     0.132 A 
ATOM     22  N   UNL     1       3.033   6.438  -5.449  1.00  0.00    -0.236 NA
BRANCH  19  23
ATOM     23  C   UNL     1       1.928   3.339  -3.990  1.00  0.00     0.047 A 
ATOM     24  C   UNL     1       0.468   0.836  -1.766  1.00  0.00     0.119 A 
ATOM     25  C   UNL     1      -0.605   1.748  -2.922  1.00  0.00     0.048 A 
ATOM     26  C   UNL     1       2.256   1.154  -1.728  1.00  0.00     0.048 A 
ATOM     27  C   UNL     1       0.145   3.029  -4.048  1.00  0.00     0.030 A 
ATOM     28  C   UNL     1       2.992   2.416  -2.855  1.00  0.00     0.030 A 
BRANCH  24  29
ATOM     29  O   UNL     1      -0.149  -0.064  -0.946  1.00  0.00    -0.497 OA
ATOM     30  C   UNL     1       0.595  -0.307   0.241  1.00  0.00     0.278 C 
ENDBRANCH  24  29
ENDBRANCH  19  23
ENDBRANCH  17  18
ENDBRANCH   8  17
ENDBRANCH   4   7
ENDBRANCH   2   3
ENDBRANCH   1   2
BRANCH   1  31
ATOM     31  C   UNL     1       0.422   0.039  -7.885  1.00  0.00     0.023 C 
BRANCH  31  32
ATOM     32  C   UNL     1      -0.844  -0.653  -8.377  1.00  0.00     0.116 C 
BRANCH  32  33
ATOM     33  N   UNL     1      -1.689   0.233  -9.181  1.00  0.00    -0.352 N 
ATOM     34  C   UNL     1      -2.942  -0.041  -9.703  1.00  0.00     0.251 C 
ATOM     35  H   UNL     1      -1.323   1.126  -9.374  1.00  0.00     0.163 HD
ATOM     36  O   UNL     1      -3.349   0.548 -10.697  1.00  0.00    -0.269 OA
BRANCH  34  37
ATOM     37  C   UNL     1      -3.793  -1.006  -8.982  1.00  0.00     0.039 A 
ATOM     38  C   UNL     1      -4.589  -1.963  -9.620  1.00  0.00     0.014 A 
ATOM     39  C   UNL     1      -3.728  -0.949  -7.593  1.00  0.00     0.014 A 
ATOM     40  C   UNL     1      -5.317  -2.860  -8.828  1.00  0.00     0.010 A 
ATOM     41  C   UNL     1      -4.242  -1.972  -6.849  1.00  0.00     0.010 A 
ATOM     42  C   UNL     1      -5.149  -2.842  -7.430  1.00  0.00    -0.014 A 
BRANCH  42  43
ATOM     43  C   UNL     1      -5.680  -3.866  -6.527  1.00  0.00     0.031 A 
ATOM     44  C   UNL     1      -5.112  -5.199  -6.876  1.00  0.00     0.074 A 
ATOM     45  C   UNL     1      -6.348  -3.567  -5.379  1.00  0.00     0.049 A 
ATOM     46  N   UNL     1      -5.691  -6.132  -7.559  1.00  0.00    -0.248 NA
ATOM     47  C   UNL     1      -3.654  -5.410  -6.741  1.00  0.00     0.031 C 
ATOM     48  C   UNL     1      -6.727  -2.244  -4.861  1.00  0.00     0.029 A 
ATOM     49  N   UNL     1      -6.790  -4.387  -4.373  1.00  0.00    -0.354 N 
ATOM     50  C   UNL     1      -4.778  -7.181  -7.582  1.00  0.00     0.074 A 
ATOM     51  C   UNL     1      -3.498  -6.570  -7.385  1.00  0.00     0.031 C 
ATOM     52  C   UNL     1      -7.139  -2.337  -3.570  1.00  0.00     0.029 A 
ATOM     53  C   UNL     1      -7.199  -3.737  -3.185  1.00  0.00     0.049 A 
ATOM     54  H   UNL     1      -6.822  -5.366  -4.471  1.00  0.00     0.167 HD
ATOM     55  C   UNL     1      -5.205  -8.454  -7.339  1.00  0.00     0.034 A 
ATOM     56  C   UNL     1      -7.591  -4.315  -1.998  1.00  0.00     0.034 A 
ATOM     57  C   UNL     1      -6.652  -8.511  -7.451  1.00  0.00     0.049 A 
ATOM     58  C   UNL     1      -7.995  -5.700  -2.346  1.00  0.00     0.074 A 
ATOM     59  C   UNL     1      -7.575  -8.250  -8.444  1.00  0.00     0.029 A 
ATOM     60  N   UNL     1      -7.353  -8.470  -6.266  1.00  0.00    -0.354 N 
ATOM     61  N   UNL     1      -9.021  -5.960  -3.111  1.00  0.00    -0.248 NA
ATOM     62  C   UNL     1      -6.954  -6.714  -2.328  1.00  0.00     0.031 C 
ATOM     63  C   UNL     1      -8.667  -7.616  -7.777  1.00  0.00     0.029 A 
ATOM     64  C   UNL     1      -8.431  -7.637  -6.400  1.00  0.00     0.049 A 
ATOM     65  H   UNL     1      -7.115  -8.964  -5.449  1.00  0.00     0.167 HD
ATOM     66  C   UNL     1      -8.558  -6.910  -4.010  1.00  0.00     0.074 A 
ATOM     67  C   UNL     1      -7.291  -7.381  -3.437  1.00  0.00     0.031 C 
ATOM     68  C   UNL     1      -9.073  -6.978  -5.276  1.00  0.00     0.034 A 
BRANCH  55  69
ATOM     69  C   UNL     1      -4.446  -9.479  -6.500  1.00  0.00     0.023 A 
ATOM     70  C   UNL     1      -5.152 -10.657  -6.184  1.00  0.00     0.031 A 
ATOM     71  C   UNL     1      -3.267  -9.265  -5.749  1.00  0.00     0.131 A 
ATOM     72  C   UNL     1      -4.799 -11.443  -5.075  1.00  0.00     0.055 A 
ATOM     73  C   UNL     1      -2.886 -10.085  -4.681  1.00  0.00     0.041 A 
ATOM     74  F   UNL     1      -2.446  -8.231  -5.947  1.00  0.00    -0.206 F 
ATOM     75  C   UNL     1      -3.675 -11.158  -4.310  1.00  0.00     0.022 A 
BRANCH  72  76
ATOM     76  S   UNL     1      -5.962 -12.722  -4.538  1.00  0.00     0.124 S 
ATOM     77  O   UNL     1      -7.177 -11.938  -4.347  1.00  0.00    -0.237 OA
ATOM     78  O   UNL     1      -5.951 -13.631  -5.679  1.00  0.00    -0.237 OA
ATOM     79  O   UNL     1      -5.350 -13.241  -3.318  1.00  0.00    -0.744 OA
ENDBRANCH  72  76
ENDBRANCH  55  69
BRANCH  56  80
ATOM     80  C   UNL     1      -7.258  -3.929  -0.572  1.00  0.00     0.023 A 
ATOM     81  C   UNL     1      -7.916  -4.430   0.595  1.00  0.00     0.031 A 
ATOM     82  C   UNL     1      -6.044  -3.249  -0.339  1.00  0.00     0.131 A 
ATOM     83  C   UNL     1      -7.353  -4.238   1.893  1.00  0.00     0.055 A 
ATOM     84  C   UNL     1      -5.485  -3.086   0.934  1.00  0.00     0.041 A 
ATOM     85  F   UNL     1      -5.307  -2.791  -1.362  1.00  0.00    -0.206 F 
ATOM     86  C   UNL     1      -6.130  -3.587   2.053  1.00  0.00     0.022 A 
BRANCH  83  87
ATOM     87  S   UNL     1      -8.156  -4.863   3.427  1.00  0.00     0.124 S 
ATOM     88  O   UNL     1      -9.386  -4.082   3.480  1.00  0.00    -0.237 OA
ATOM     89  O   UNL     1      -8.301  -6.288   3.159  1.00  0.00    -0.237 OA
ATOM     90  O   UNL     1      -7.189  -4.540   4.480  1.00  0.00    -0.744 OA
ENDBRANCH  83  87
ENDBRANCH  56  80
BRANCH  68  91
ATOM     91  C   UNL     1     -10.359  -6.224  -5.566  1.00  0.00     0.023 A 
ATOM     92  C   UNL     1     -10.548  -4.821  -5.493  1.00  0.00     0.031 A 
ATOM     93  C   UNL     1     -11.430  -7.001  -6.039  1.00  0.00     0.131 A 
ATOM     94  C   UNL     1     -11.787  -4.259  -5.877  1.00  0.00     0.055 A 
ATOM     95  C   UNL     1     -12.636  -6.440  -6.445  1.00  0.00     0.041 A 
ATOM     96  F   UNL     1     -11.304  -8.334  -6.148  1.00  0.00    -0.206 F 
ATOM     97  C   UNL     1     -12.823  -5.067  -6.359  1.00  0.00     0.022 A 
BRANCH  94  98
ATOM     98  S   UNL     1     -12.105  -2.467  -5.721  1.00  0.00     0.124 S 
ATOM     99  O   UNL     1     -11.665  -2.160  -4.365  1.00  0.00    -0.237 OA
ATOM    100  O   UNL     1     -11.293  -1.904  -6.797  1.00  0.00    -0.237 OA
ATOM    101  O   UNL     1     -13.550  -2.357  -5.932  1.00  0.00    -0.744 OA
ENDBRANCH  94  98
ENDBRANCH  68  91
ENDBRANCH  42  43
ENDBRANCH  34  37
ENDBRANCH  32  33
ENDBRANCH  31  32
ENDBRANCH   1  31
TORSDOF 18
