REMARK SMILES COc1ccc(C(=O)C2=C(NCCCCNC(=O)c3ccc(-c4c5nc(c(-c6cc(S(=O)(=O)[O-])ccc6F)c6ccc([nH]6)c(-c6cc(S(=O)(=O)[O-])ccc6F)c6nc(c(-c7cc(S(=O)(=O)[O-])ccc7F)c7ccc4[nH]7)C=C6)C=C5)cc3)C(=O)N(CCC(=O)[O-])[C@H]2c2ccccc2F)cc1
REMARK SMILES IDX 13 1 12 2 11 3 10 5 9 6 90 7 82 8 84 9 83 10 7 11 8 12 6 13
REMARK SMILES IDX 3 14 4 15 99 16 5 17 98 18 2 19 1 20 91 21 92 22 96 23 93 24
REMARK SMILES IDX 95 25 97 26 94 27 85 28 86 29 87 30 88 31 89 32 14 33 15 34
REMARK SMILES IDX 16 35 17 36 18 38 19 39 20 40 81 41 21 42 80 43 22 44 23 45
REMARK SMILES IDX 24 46 74 47 25 48 79 49 73 50 75 51 26 52 78 53 72 54 71 55
REMARK SMILES IDX 27 57 59 58 39 59 58 60 40 61 43 62 57 63 76 64 41 65 42 66
REMARK SMILES IDX 56 68 77 69 44 70 28 71 29 72 37 73 30 74 36 75 38 76 35 77
REMARK SMILES IDX 31 78 32 79 33 80 34 81 60 82 61 83 69 84 62 85 68 86 70 87
REMARK SMILES IDX 67 88 63 89 64 90 65 91 66 92 45 93 46 94 54 95 47 96 53 97
REMARK SMILES IDX 55 98 52 99 48 100 49 101 50 102 51 103
REMARK H PARENT 11 4 16 37 75 56 43 67
REMARK Flexibility Score: inf
ROOT
ATOM      1  C   UNL     1       0.697   2.813   7.129  1.00  0.00     0.023 C 
ENDROOT
BRANCH   1   2
ATOM      2  C   UNL     1       1.286   4.164   6.734  1.00  0.00     0.113 C 
BRANCH   2   3
ATOM      3  N   UNL     1       2.728   4.089   6.741  1.00  0.00    -0.380 N 
ATOM      4  H   UNL     1       3.127   3.783   7.587  1.00  0.00     0.160 HD
BRANCH   3   5
ATOM      5  C   UNL     1       3.623   4.380   5.747  1.00  0.00     0.110 C 
ATOM      6  C   UNL     1       3.561   4.732   4.458  1.00  0.00     0.056 C 
ATOM      7  C   UNL     1       4.888   5.011   3.820  1.00  0.00     0.155 C 
ATOM      8  C   UNL     1       5.091   4.382   6.065  1.00  0.00     0.271 C 
ATOM      9  N   UNL     1       5.767   4.861   4.962  1.00  0.00    -0.326 N 
ATOM     10  O   UNL     1       5.556   4.024   7.131  1.00  0.00    -0.267 OA
BRANCH   6  11
ATOM     11  C   UNL     1       2.302   4.996   3.746  1.00  0.00     0.193 C 
ATOM     12  O   UNL     1       1.823   6.126   3.761  1.00  0.00    -0.289 OA
BRANCH  11  13
ATOM     13  C   UNL     1       1.641   3.898   2.980  1.00  0.00     0.023 A 
ATOM     14  C   UNL     1       0.501   1.997   1.240  1.00  0.00     0.118 A 
ATOM     15  C   UNL     1      -0.134   3.219   1.468  1.00  0.00     0.047 A 
ATOM     16  C   UNL     1       1.658   1.694   1.953  1.00  0.00     0.047 A 
ATOM     17  C   UNL     1       0.436   4.171   2.322  1.00  0.00     0.016 A 
ATOM     18  C   UNL     1       2.200   2.625   2.845  1.00  0.00     0.016 A 
BRANCH  14  19
ATOM     19  O   UNL     1      -0.097   1.193   0.311  1.00  0.00    -0.497 OA
ATOM     20  C   UNL     1       0.616   0.021  -0.069  1.00  0.00     0.278 C 
ENDBRANCH  14  19
ENDBRANCH  11  13
ENDBRANCH   6  11
BRANCH   7  21
ATOM     21  C   UNL     1       5.244   4.030   2.717  1.00  0.00     0.015 A 
ATOM     22  C   UNL     1       5.622   2.699   2.990  1.00  0.00     0.009 A 
ATOM     23  C   UNL     1       5.142   4.420   1.381  1.00  0.00     0.128 A 
ATOM     24  C   UNL     1       5.843   1.789   1.954  1.00  0.00     0.001 A 
ATOM     25  C   UNL     1       5.376   3.521   0.342  1.00  0.00     0.039 A 
ATOM     26  F   UNL     1       4.802   5.680   1.078  1.00  0.00    -0.207 F 
ATOM     27  C   UNL     1       5.715   2.200   0.629  1.00  0.00     0.003 A 
ENDBRANCH   7  21
BRANCH   9  28
ATOM     28  C   UNL     1       7.204   5.105   4.905  1.00  0.00     0.127 C 
BRANCH  28  29
ATOM     29  C   UNL     1       7.641   6.342   5.678  1.00  0.00     0.074 C 
BRANCH  29  30
ATOM     30  C   UNL     1       7.749   6.030   7.140  1.00  0.00     0.043 C 
ATOM     31  O   UNL     1       8.626   5.360   7.658  1.00  0.00    -0.550 OA
ATOM     32  O   UNL     1       6.718   6.522   7.850  1.00  0.00    -0.550 OA
ENDBRANCH  29  30
ENDBRANCH  28  29
ENDBRANCH   9  28
ENDBRANCH   3   5
ENDBRANCH   2   3
ENDBRANCH   1   2
BRANCH   1  33
ATOM     33  C   UNL     1       0.940   2.415   8.587  1.00  0.00     0.023 C 
BRANCH  33  34
ATOM     34  C   UNL     1       0.436   3.416   9.622  1.00  0.00     0.116 C 
BRANCH  34  35
ATOM     35  N   UNL     1      -0.988   3.684   9.492  1.00  0.00    -0.352 N 
ATOM     36  C   UNL     1      -1.976   3.634  10.446  1.00  0.00     0.251 C 
ATOM     37  H   UNL     1      -1.288   3.939   8.590  1.00  0.00     0.163 HD
ATOM     38  O   UNL     1      -3.152   3.719  10.106  1.00  0.00    -0.269 OA
BRANCH  36  39
ATOM     39  C   UNL     1      -1.619   3.447  11.869  1.00  0.00     0.039 A 
ATOM     40  C   UNL     1      -2.358   2.546  12.638  1.00  0.00     0.014 A 
ATOM     41  C   UNL     1      -0.555   4.150  12.442  1.00  0.00     0.014 A 
ATOM     42  C   UNL     1      -1.987   2.301  13.962  1.00  0.00     0.010 A 
ATOM     43  C   UNL     1      -0.135   3.841  13.733  1.00  0.00     0.010 A 
ATOM     44  C   UNL     1      -0.849   2.916  14.510  1.00  0.00    -0.014 A 
BRANCH  44  45
ATOM     45  C   UNL     1      -0.397   2.602  15.891  1.00  0.00     0.031 A 
ATOM     46  C   UNL     1      -0.367   3.679  16.942  1.00  0.00     0.074 A 
ATOM     47  C   UNL     1       0.030   1.358  16.186  1.00  0.00     0.049 A 
ATOM     48  N   UNL     1       0.023   3.609  18.190  1.00  0.00    -0.248 NA
ATOM     49  C   UNL     1      -0.805   5.018  16.526  1.00  0.00     0.031 C 
ATOM     50  C   UNL     1       0.086   0.239  15.243  1.00  0.00     0.029 A 
ATOM     51  N   UNL     1       0.495   0.822  17.361  1.00  0.00    -0.354 N 
ATOM     52  C   UNL     1      -0.114   4.894  18.704  1.00  0.00     0.074 A 
ATOM     53  C   UNL     1      -0.551   5.735  17.609  1.00  0.00     0.031 C 
ATOM     54  C   UNL     1       0.514  -0.858  15.887  1.00  0.00     0.029 A 
ATOM     55  C   UNL     1       0.814  -0.513  17.272  1.00  0.00     0.049 A 
ATOM     56  H   UNL     1       0.592   1.345  18.189  1.00  0.00     0.167 HD
ATOM     57  C   UNL     1       0.080   5.328  19.975  1.00  0.00     0.034 A 
ATOM     58  C   UNL     1       1.296  -1.363  18.201  1.00  0.00     0.034 A 
ATOM     59  C   UNL     1       0.517   4.474  21.054  1.00  0.00     0.049 A 
ATOM     60  C   UNL     1       1.550  -0.847  19.596  1.00  0.00     0.074 A 
ATOM     61  C   UNL     1       0.697   4.794  22.388  1.00  0.00     0.029 A 
ATOM     62  N   UNL     1       0.857   3.132  20.921  1.00  0.00    -0.354 N 
ATOM     63  N   UNL     1       1.358   0.358  20.081  1.00  0.00    -0.248 NA
ATOM     64  C   UNL     1       2.075  -1.813  20.569  1.00  0.00     0.031 C 
ATOM     65  C   UNL     1       1.223   3.674  23.042  1.00  0.00     0.029 A 
ATOM     66  C   UNL     1       1.284   2.624  22.140  1.00  0.00     0.049 A 
ATOM     67  H   UNL     1       0.803   2.618  20.084  1.00  0.00     0.167 HD
ATOM     68  C   UNL     1       1.704   0.283  21.428  1.00  0.00     0.074 A 
ATOM     69  C   UNL     1       2.098  -1.089  21.677  1.00  0.00     0.031 C 
ATOM     70  C   UNL     1       1.690   1.257  22.375  1.00  0.00     0.034 A 
BRANCH  57  71
ATOM     71  C   UNL     1      -0.150   6.798  20.248  1.00  0.00     0.023 A 
ATOM     72  C   UNL     1      -1.401   7.404  20.034  1.00  0.00     0.031 A 
ATOM     73  C   UNL     1       0.907   7.618  20.684  1.00  0.00     0.131 A 
ATOM     74  C   UNL     1      -1.540   8.794  20.162  1.00  0.00     0.055 A 
ATOM     75  C   UNL     1       0.737   8.987  20.902  1.00  0.00     0.041 A 
ATOM     76  F   UNL     1       2.131   7.107  20.886  1.00  0.00    -0.206 F 
ATOM     77  C   UNL     1      -0.487   9.587  20.622  1.00  0.00     0.022 A 
BRANCH  74  78
ATOM     78  S   UNL     1      -3.060   9.571  19.547  1.00  0.00     0.124 S 
ATOM     79  O   UNL     1      -3.076   9.127  18.155  1.00  0.00    -0.237 OA
ATOM     80  O   UNL     1      -4.082   8.995  20.413  1.00  0.00    -0.237 OA
ATOM     81  O   UNL     1      -2.815  11.000  19.733  1.00  0.00    -0.744 OA
ENDBRANCH  74  78
ENDBRANCH  57  71
BRANCH  58  82
ATOM     82  C   UNL     1       1.568  -2.789  17.857  1.00  0.00     0.023 A 
ATOM     83  C   UNL     1       0.862  -3.827  18.485  1.00  0.00     0.031 A 
ATOM     84  C   UNL     1       2.568  -3.139  16.933  1.00  0.00     0.131 A 
ATOM     85  C   UNL     1       1.198  -5.164  18.222  1.00  0.00     0.055 A 
ATOM     86  C   UNL     1       2.859  -4.470  16.629  1.00  0.00     0.041 A 
ATOM     87  F   UNL     1       3.273  -2.186  16.302  1.00  0.00    -0.206 F 
ATOM     88  C   UNL     1       2.182  -5.492  17.286  1.00  0.00     0.022 A 
BRANCH  85  89
ATOM     89  S   UNL     1       0.394  -6.469  19.191  1.00  0.00     0.124 S 
ATOM     90  O   UNL     1       0.760  -6.096  20.552  1.00  0.00    -0.237 OA
ATOM     91  O   UNL     1      -1.010  -6.292  18.831  1.00  0.00    -0.237 OA
ATOM     92  O   UNL     1       1.013  -7.694  18.690  1.00  0.00    -0.744 OA
ENDBRANCH  85  89
ENDBRANCH  58  82
BRANCH  70  93
ATOM     93  C   UNL     1       2.069   0.851  23.781  1.00  0.00     0.023 A 
ATOM     94  C   UNL     1       3.358   0.388  24.100  1.00  0.00     0.031 A 
ATOM     95  C   UNL     1       1.114   0.900  24.813  1.00  0.00     0.131 A 
ATOM     96  C   UNL     1       3.635  -0.075  25.396  1.00  0.00     0.055 A 
ATOM     97  C   UNL     1       1.417   0.509  26.117  1.00  0.00     0.041 A 
ATOM     98  F   UNL     1      -0.135   1.328  24.568  1.00  0.00    -0.206 F 
ATOM     99  C   UNL     1       2.679   0.002  26.411  1.00  0.00     0.022 A 
BRANCH  96 100
ATOM    100  S   UNL     1       5.225  -0.892  25.707  1.00  0.00     0.124 S 
ATOM    101  O   UNL     1       5.206  -1.974  24.728  1.00  0.00    -0.237 OA
ATOM    102  O   UNL     1       6.182   0.179  25.455  1.00  0.00    -0.237 OA
ATOM    103  O   UNL     1       5.125  -1.317  27.102  1.00  0.00    -0.744 OA
ENDBRANCH  96 100
ENDBRANCH  70  93
ENDBRANCH  44  45
ENDBRANCH  36  39
ENDBRANCH  34  35
ENDBRANCH  33  34
ENDBRANCH   1  33
TORSDOF 21
