REMARK SMILES CCOC(=O)CS[C@H]1CC(=O)N(c2ccc(C(=O)NCCCCNC(=O)c3ccc(-c4c5nc(c(-c6cc(S(=O)(=O)[O-])ccc6F)c6ccc([nH]6)c(-c6cc(S(=O)(=O)[O-])ccc6F)c6nc(c(-c7cc(S(=O)(=O)[O-])ccc7F)c7ccc4[nH]7)C=C6)C=C5)cc3)c(O)c2)C1=O
REMARK SMILES IDX 20 1 19 2 17 3 18 4 16 6 13 7 14 8 92 9 15 10 90 11 12 12
REMARK SMILES IDX 8 13 9 14 93 15 10 16 94 17 11 18 7 19 6 20 4 21 5 22 3 23
REMARK SMILES IDX 2 24 1 25 91 26 21 28 22 29 23 30 24 31 25 32 26 34 27 35
REMARK SMILES IDX 28 36 89 37 29 38 88 39 30 40 31 41 32 42 82 43 33 44 87 45
REMARK SMILES IDX 81 46 83 47 34 48 86 49 80 50 79 51 35 53 67 54 47 55 66 56
REMARK SMILES IDX 48 57 51 58 65 59 84 60 49 61 50 62 64 64 85 65 52 66 36 67
REMARK SMILES IDX 37 68 45 69 38 70 44 71 46 72 43 73 39 74 40 75 41 76 42 77
REMARK SMILES IDX 68 78 69 79 77 80 70 81 76 82 78 83 75 84 71 85 72 86 73 87
REMARK SMILES IDX 74 88 53 89 54 90 62 91 55 92 61 93 63 94 60 95 56 96 57 97
REMARK SMILES IDX 58 98 59 99
REMARK H PARENT 19 5 91 27 24 33 83 52 51 63
REMARK Flexibility Score: inf
ROOT
ATOM      1  C   UNL     1       0.908  -9.460  -7.439  1.00  0.00     0.116 C 
ENDROOT
BRANCH   1   2
ATOM      2  N   UNL     1       1.223 -10.390  -6.365  1.00  0.00    -0.352 N 
ATOM      3  C   UNL     1       1.727 -10.116  -5.115  1.00  0.00     0.255 C 
ATOM      4  O   UNL     1       1.971 -11.025  -4.328  1.00  0.00    -0.269 OA
ATOM      5  H   UNL     1       1.054 -11.340  -6.558  1.00  0.00     0.163 HD
BRANCH   3   6
ATOM      6  C   UNL     1       2.019  -8.720  -4.721  1.00  0.00     0.081 A 
ATOM      7  C   UNL     1       2.784  -6.066  -4.121  1.00  0.00     0.055 A 
ATOM      8  C   UNL     1       3.680  -7.132  -3.943  1.00  0.00     0.028 A 
ATOM      9  C   UNL     1       1.490  -6.364  -4.570  1.00  0.00     0.073 A 
ATOM     10  C   UNL     1       3.298  -8.450  -4.226  1.00  0.00     0.020 A 
ATOM     11  C   UNL     1       1.102  -7.676  -4.837  1.00  0.00     0.130 A 
BRANCH   7  12
ATOM     12  N   UNL     1       3.157  -4.725  -3.826  1.00  0.00    -0.249 N 
ATOM     13  C   UNL     1       3.028  -2.503  -3.095  1.00  0.00     0.146 C 
ATOM     14  C   UNL     1       4.451  -2.791  -3.514  1.00  0.00     0.125 C 
ATOM     15  C   UNL     1       2.269  -3.765  -3.389  1.00  0.00     0.247 C 
ATOM     16  C   UNL     1       4.443  -4.240  -3.900  1.00  0.00     0.235 C 
ATOM     17  O   UNL     1       1.065  -3.877  -3.186  1.00  0.00    -0.273 OA
ATOM     18  O   UNL     1       5.461  -4.818  -4.261  1.00  0.00    -0.274 OA
BRANCH  13  19
ATOM     19  S   UNL     1       2.873  -1.893  -1.369  1.00  0.00    -0.136 SA
BRANCH  19  20
ATOM     20  C   UNL     1       2.601  -3.406  -0.374  1.00  0.00     0.192 C 
BRANCH  20  21
ATOM     21  C   UNL     1       3.889  -4.093   0.015  1.00  0.00     0.315 C 
ATOM     22  O   UNL     1       4.341  -4.125   1.152  1.00  0.00    -0.251 OA
BRANCH  21  23
ATOM     23  O   UNL     1       4.459  -4.693  -1.066  1.00  0.00    -0.465 OA
BRANCH  23  24
ATOM     24  C   UNL     1       5.678  -5.415  -0.828  1.00  0.00     0.229 C 
ATOM     25  C   UNL     1       6.866  -4.472  -0.793  1.00  0.00     0.049 C 
ENDBRANCH  23  24
ENDBRANCH  21  23
ENDBRANCH  20  21
ENDBRANCH  19  20
ENDBRANCH  13  19
ENDBRANCH   7  12
BRANCH  11  26
ATOM     26  O   UNL     1      -0.205  -7.843  -5.197  1.00  0.00    -0.507 OA
ATOM     27  H   UNL     1      -0.532  -8.700  -5.390  1.00  0.00     0.293 HD
ENDBRANCH  11  26
ENDBRANCH   3   6
ENDBRANCH   1   2
BRANCH   1  28
ATOM     28  C   UNL     1       1.133 -10.013  -8.841  1.00  0.00     0.023 C 
BRANCH  28  29
ATOM     29  C   UNL     1       0.341 -11.269  -9.198  1.00  0.00     0.023 C 
BRANCH  29  30
ATOM     30  C   UNL     1      -1.137 -11.257  -8.826  1.00  0.00     0.116 C 
BRANCH  30  31
ATOM     31  N   UNL     1      -1.895 -10.202  -9.482  1.00  0.00    -0.352 N 
ATOM     32  C   UNL     1      -2.942 -10.297 -10.373  1.00  0.00     0.251 C 
ATOM     33  H   UNL     1      -1.619  -9.284  -9.256  1.00  0.00     0.163 HD
ATOM     34  O   UNL     1      -3.380  -9.285 -10.912  1.00  0.00    -0.269 OA
BRANCH  32  35
ATOM     35  C   UNL     1      -3.500 -11.625 -10.708  1.00  0.00     0.039 A 
ATOM     36  C   UNL     1      -3.671 -11.973 -12.050  1.00  0.00     0.014 A 
ATOM     37  C   UNL     1      -3.801 -12.543  -9.701  1.00  0.00     0.014 A 
ATOM     38  C   UNL     1      -4.046 -13.278 -12.383  1.00  0.00     0.010 A 
ATOM     39  C   UNL     1      -4.077 -13.864 -10.037  1.00  0.00     0.010 A 
ATOM     40  C   UNL     1      -4.198 -14.250 -11.381  1.00  0.00    -0.014 A 
BRANCH  40  41
ATOM     41  C   UNL     1      -4.495 -15.673 -11.703  1.00  0.00     0.031 A 
ATOM     42  C   UNL     1      -5.754 -16.308 -11.174  1.00  0.00     0.074 A 
ATOM     43  C   UNL     1      -3.601 -16.415 -12.387  1.00  0.00     0.049 A 
ATOM     44  N   UNL     1      -6.131 -17.560 -11.208  1.00  0.00    -0.248 NA
ATOM     45  C   UNL     1      -6.694 -15.416 -10.478  1.00  0.00     0.031 C 
ATOM     46  C   UNL     1      -2.328 -15.928 -12.924  1.00  0.00     0.029 A 
ATOM     47  N   UNL     1      -3.616 -17.744 -12.735  1.00  0.00    -0.354 N 
ATOM     48  C   UNL     1      -7.338 -17.610 -10.518  1.00  0.00     0.074 A 
ATOM     49  C   UNL     1      -7.591 -16.275 -10.020  1.00  0.00     0.031 C 
ATOM     50  C   UNL     1      -1.699 -16.935 -13.551  1.00  0.00     0.029 A 
ATOM     51  C   UNL     1      -2.491 -18.154 -13.415  1.00  0.00     0.049 A 
ATOM     52  H   UNL     1      -4.362 -18.348 -12.518  1.00  0.00     0.167 HD
ATOM     53  C   UNL     1      -8.171 -18.665 -10.337  1.00  0.00     0.034 A 
ATOM     54  C   UNL     1      -2.128 -19.374 -13.860  1.00  0.00     0.034 A 
ATOM     55  C   UNL     1      -7.912 -19.985 -10.858  1.00  0.00     0.049 A 
ATOM     56  C   UNL     1      -3.057 -20.541 -13.623  1.00  0.00     0.074 A 
ATOM     57  C   UNL     1      -8.710 -21.113 -10.781  1.00  0.00     0.029 A 
ATOM     58  N   UNL     1      -6.767 -20.358 -11.551  1.00  0.00    -0.354 N 
ATOM     59  N   UNL     1      -4.214 -20.564 -13.002  1.00  0.00    -0.248 NA
ATOM     60  C   UNL     1      -2.635 -21.843 -14.156  1.00  0.00     0.031 C 
ATOM     61  C   UNL     1      -8.019 -22.181 -11.361  1.00  0.00     0.029 A 
ATOM     62  C   UNL     1      -6.825 -21.704 -11.879  1.00  0.00     0.049 A 
ATOM     63  H   UNL     1      -6.022 -19.754 -11.775  1.00  0.00     0.167 HD
ATOM     64  C   UNL     1      -4.673 -21.875 -13.104  1.00  0.00     0.074 A 
ATOM     65  C   UNL     1      -3.674 -22.607 -13.855  1.00  0.00     0.031 C 
ATOM     66  C   UNL     1      -5.820 -22.423 -12.627  1.00  0.00     0.034 A 
BRANCH  53  67
ATOM     67  C   UNL     1      -9.421 -18.431  -9.523  1.00  0.00     0.023 A 
ATOM     68  C   UNL     1     -10.405 -17.511  -9.928  1.00  0.00     0.031 A 
ATOM     69  C   UNL     1      -9.619 -19.109  -8.307  1.00  0.00     0.131 A 
ATOM     70  C   UNL     1     -11.492 -17.230  -9.086  1.00  0.00     0.055 A 
ATOM     71  C   UNL     1     -10.750 -18.892  -7.518  1.00  0.00     0.041 A 
ATOM     72  F   UNL     1      -8.706 -19.984  -7.855  1.00  0.00    -0.206 F 
ATOM     73  C   UNL     1     -11.686 -17.935  -7.897  1.00  0.00     0.022 A 
BRANCH  70  74
ATOM     74  S   UNL     1     -12.556 -15.819  -9.492  1.00  0.00     0.124 S 
ATOM     75  O   UNL     1     -11.594 -14.719  -9.502  1.00  0.00    -0.237 OA
ATOM     76  O   UNL     1     -13.104 -16.199 -10.789  1.00  0.00    -0.237 OA
ATOM     77  O   UNL     1     -13.517 -15.787  -8.392  1.00  0.00    -0.744 OA
ENDBRANCH  70  74
ENDBRANCH  53  67
BRANCH  54  78
ATOM     78  C   UNL     1      -0.826 -19.572 -14.561  1.00  0.00     0.023 A 
ATOM     79  C   UNL     1      -0.783 -19.991 -15.901  1.00  0.00     0.031 A 
ATOM     80  C   UNL     1       0.397 -19.395 -13.889  1.00  0.00     0.131 A 
ATOM     81  C   UNL     1       0.452 -20.269 -16.509  1.00  0.00     0.055 A 
ATOM     82  C   UNL     1       1.624 -19.617 -14.516  1.00  0.00     0.041 A 
ATOM     83  F   UNL     1       0.416 -18.993 -12.608  1.00  0.00    -0.206 F 
ATOM     84  C   UNL     1       1.656 -20.072 -15.831  1.00  0.00     0.022 A 
BRANCH  81  85
ATOM     85  S   UNL     1       0.456 -20.986 -18.176  1.00  0.00     0.124 S 
ATOM     86  O   UNL     1      -0.324 -22.203 -17.977  1.00  0.00    -0.237 OA
ATOM     87  O   UNL     1      -0.183 -19.935 -18.959  1.00  0.00    -0.237 OA
ATOM     88  O   UNL     1       1.876 -21.192 -18.453  1.00  0.00    -0.744 OA
ENDBRANCH  81  85
ENDBRANCH  54  78
BRANCH  66  89
ATOM     89  C   UNL     1      -6.083 -23.872 -12.959  1.00  0.00     0.023 A 
ATOM     90  C   UNL     1      -5.287 -24.911 -12.448  1.00  0.00     0.031 A 
ATOM     91  C   UNL     1      -7.155 -24.215 -13.805  1.00  0.00     0.131 A 
ATOM     92  C   UNL     1      -5.539 -26.238 -12.830  1.00  0.00     0.055 A 
ATOM     93  C   UNL     1      -7.441 -25.542 -14.129  1.00  0.00     0.041 A 
ATOM     94  F   UNL     1      -7.947 -23.264 -14.324  1.00  0.00    -0.206 F 
ATOM     95  C   UNL     1      -6.623 -26.561 -13.651  1.00  0.00     0.022 A 
BRANCH  92  96
ATOM     96  S   UNL     1      -4.377 -27.530 -12.313  1.00  0.00     0.124 S 
ATOM     97  O   UNL     1      -3.120 -27.053 -12.881  1.00  0.00    -0.237 OA
ATOM     98  O   UNL     1      -4.479 -27.479 -10.858  1.00  0.00    -0.237 OA
ATOM     99  O   UNL     1      -4.915 -28.742 -12.928  1.00  0.00    -0.744 OA
ENDBRANCH  92  96
ENDBRANCH  66  89
ENDBRANCH  40  41
ENDBRANCH  32  35
ENDBRANCH  30  31
ENDBRANCH  29  30
ENDBRANCH  28  29
ENDBRANCH   1  28
TORSDOF 21
