REMARK SMILES COc1ccc(CCN2C(=O)C[C@@H](C(=O)NCCCCNC(=O)c3ccc(-c4c5nc(c(-c6cc(S(=O)(=O)[O-])ccc6F)c6ccc([nH]6)c(-c6cc(S(=O)(=O)[O-])ccc6F)c6nc(c(-c7cc(S(=O)(=O)[O-])ccc7F)c7ccc4[nH]7)C=C6)C=C5)cc3)S/C2=[NH+]\c2ccc(F)cc2)cc1OC
REMARK SMILES IDX 18 1 17 2 16 3 14 4 15 5 13 7 9 8 10 9 88 10 11 11 12 12
REMARK SMILES IDX 87 13 89 14 8 16 7 17 6 18 3 19 4 20 98 21 5 22 97 23 2 24
REMARK SMILES IDX 1 25 99 26 100 27 90 28 91 29 96 30 92 31 95 32 93 33 94 34
REMARK SMILES IDX 19 35 20 36 21 37 22 38 23 40 24 41 25 42 86 43 26 44 85 45
REMARK SMILES IDX 27 46 28 47 29 48 79 49 30 50 84 51 78 52 80 53 31 54 83 55
REMARK SMILES IDX 77 56 76 57 32 59 64 60 44 61 63 62 45 63 48 64 62 65 81 66
REMARK SMILES IDX 46 67 47 68 61 70 82 71 49 72 33 73 34 74 42 75 35 76 41 77
REMARK SMILES IDX 43 78 40 79 36 80 37 81 38 82 39 83 65 84 66 85 74 86 67 87
REMARK SMILES IDX 73 88 75 89 72 90 68 91 69 92 70 93 71 94 50 95 51 96 59 97
REMARK SMILES IDX 52 98 58 99 60 100 57 101 53 102 54 103 55 104 56 105
REMARK H PARENT 16 6 89 15 21 39 80 58 48 69
REMARK Flexibility Score: inf
ROOT
ATOM      1  C   UNL     1       0.375   6.043  -0.698  1.00  0.00     0.023 C 
ENDROOT
BRANCH   1   2
ATOM      2  C   UNL     1       0.102   7.116   0.352  1.00  0.00     0.116 C 
BRANCH   2   3
ATOM      3  N   UNL     1      -1.235   7.673   0.266  1.00  0.00    -0.355 N 
ATOM      4  C   UNL     1      -2.149   7.997   1.221  1.00  0.00     0.234 C 
ATOM      5  O   UNL     1      -3.174   8.569   0.833  1.00  0.00    -0.274 OA
ATOM      6  H   UNL     1      -1.537   7.850  -0.654  1.00  0.00     0.163 HD
BRANCH   4   7
ATOM      7  C   UNL     1      -1.968   7.687   2.710  1.00  0.00     0.160 C 
ATOM      8  N   UNL     1       0.081   6.018   4.075  1.00  0.00    -0.191 N 
ATOM      9  C   UNL     1       0.068   7.399   4.241  1.00  0.00     0.311 C 
ATOM     10  C   UNL     1      -1.070   5.264   3.872  1.00  0.00     0.319 C 
ATOM     11  O   UNL     1       0.756   7.960   5.101  1.00  0.00    -0.247 OA
ATOM     12  C   UNL     1      -0.712   8.256   3.298  1.00  0.00     0.153 C 
ATOM     13  S   UNL     1      -2.416   5.989   3.044  1.00  0.00    -0.024 SA
ATOM     14  N   UNL     1      -1.091   4.030   4.266  1.00  0.00    -0.235 N 
ATOM     15  H   UNL     1      -0.327   3.703   4.794  1.00  0.00     0.313 HD
BRANCH   8  16
ATOM     16  C   UNL     1       1.350   5.426   4.544  1.00  0.00     0.251 C 
BRANCH  16  17
ATOM     17  C   UNL     1       1.744   3.946   4.374  1.00  0.00     0.082 C 
BRANCH  17  18
ATOM     18  C   UNL     1       1.913   3.292   3.018  1.00  0.00    -0.040 A 
ATOM     19  C   UNL     1       1.928   1.566   0.783  1.00  0.00     0.160 A 
ATOM     20  C   UNL     1       1.038   2.638   0.852  1.00  0.00     0.051 A 
ATOM     21  C   UNL     1       2.913   1.422   1.761  1.00  0.00     0.160 A 
ATOM     22  C   UNL     1       1.046   3.501   1.950  1.00  0.00     0.008 A 
ATOM     23  C   UNL     1       2.875   2.272   2.879  1.00  0.00     0.054 A 
BRANCH  19  24
ATOM     24  O   UNL     1       1.805   0.689  -0.261  1.00  0.00    -0.493 OA
ATOM     25  C   UNL     1       0.624  -0.108  -0.118  1.00  0.00     0.278 C 
ENDBRANCH  19  24
BRANCH  21  26
ATOM     26  O   UNL     1       3.918   0.494   1.821  1.00  0.00    -0.493 OA
ATOM     27  C   UNL     1       4.149  -0.307   0.670  1.00  0.00     0.278 C 
ENDBRANCH  21  26
ENDBRANCH  17  18
ENDBRANCH  16  17
ENDBRANCH   8  16
BRANCH  14  28
ATOM     28  C   UNL     1      -2.131   3.126   3.991  1.00  0.00     0.125 A 
ATOM     29  C   UNL     1      -2.881   2.583   5.039  1.00  0.00     0.055 A 
ATOM     30  C   UNL     1      -2.337   2.633   2.693  1.00  0.00     0.055 A 
ATOM     31  C   UNL     1      -3.827   1.581   4.792  1.00  0.00     0.043 A 
ATOM     32  C   UNL     1      -3.277   1.633   2.441  1.00  0.00     0.043 A 
ATOM     33  C   UNL     1      -4.012   1.114   3.495  1.00  0.00     0.123 A 
ATOM     34  F   UNL     1      -4.900   0.139   3.262  1.00  0.00    -0.207 F 
ENDBRANCH  14  28
ENDBRANCH   4   7
ENDBRANCH   2   3
ENDBRANCH   1   2
BRANCH   1  35
ATOM     35  C   UNL     1       0.179   6.450  -2.160  1.00  0.00     0.023 C 
BRANCH  35  36
ATOM     36  C   UNL     1       0.918   7.702  -2.621  1.00  0.00     0.116 C 
BRANCH  36  37
ATOM     37  N   UNL     1       2.364   7.582  -2.546  1.00  0.00    -0.352 N 
ATOM     38  C   UNL     1       3.319   7.832  -3.512  1.00  0.00     0.251 C 
ATOM     39  H   UNL     1       2.715   7.277  -1.679  1.00  0.00     0.163 HD
ATOM     40  O   UNL     1       4.490   7.578  -3.281  1.00  0.00    -0.269 OA
BRANCH  38  41
ATOM     41  C   UNL     1       2.914   8.362  -4.838  1.00  0.00     0.039 A 
ATOM     42  C   UNL     1       3.418   7.746  -5.988  1.00  0.00     0.014 A 
ATOM     43  C   UNL     1       2.030   9.437  -4.954  1.00  0.00     0.014 A 
ATOM     44  C   UNL     1       2.958   8.142  -7.248  1.00  0.00     0.010 A 
ATOM     45  C   UNL     1       1.522   9.785  -6.205  1.00  0.00     0.010 A 
ATOM     46  C   UNL     1       1.964   9.128  -7.364  1.00  0.00    -0.014 A 
BRANCH  46  47
ATOM     47  C   UNL     1       1.347   9.459  -8.678  1.00  0.00     0.031 A 
ATOM     48  C   UNL     1       1.491  10.839  -9.260  1.00  0.00     0.074 A 
ATOM     49  C   UNL     1       0.582   8.542  -9.305  1.00  0.00     0.049 A 
ATOM     50  N   UNL     1       0.929  11.352 -10.324  1.00  0.00    -0.248 NA
ATOM     51  C   UNL     1       2.362  11.770  -8.529  1.00  0.00     0.031 C 
ATOM     52  C   UNL     1       0.337   7.178  -8.829  1.00  0.00     0.029 A 
ATOM     53  N   UNL     1      -0.144   8.619 -10.469  1.00  0.00    -0.354 N 
ATOM     54  C   UNL     1       1.367  12.671 -10.386  1.00  0.00     0.074 A 
ATOM     55  C   UNL     1       2.197  12.889  -9.219  1.00  0.00     0.031 C 
ATOM     56  C   UNL     1      -0.467   6.546  -9.699  1.00  0.00     0.029 A 
ATOM     57  C   UNL     1      -0.839   7.469 -10.767  1.00  0.00     0.049 A 
ATOM     58  H   UNL     1      -0.165   9.423 -11.037  1.00  0.00     0.167 HD
ATOM     59  C   UNL     1       1.116  13.606 -11.338  1.00  0.00     0.034 A 
ATOM     60  C   UNL     1      -1.695   7.193 -11.771  1.00  0.00     0.034 A 
ATOM     61  C   UNL     1       0.294  13.371 -12.500  1.00  0.00     0.049 A 
ATOM     62  C   UNL     1      -1.994   8.261 -12.792  1.00  0.00     0.074 A 
ATOM     63  C   UNL     1       0.021  14.231 -13.551  1.00  0.00     0.029 A 
ATOM     64  N   UNL     1      -0.399  12.196 -12.763  1.00  0.00    -0.354 N 
ATOM     65  N   UNL     1      -1.537   9.491 -12.858  1.00  0.00    -0.248 NA
ATOM     66  C   UNL     1      -2.919   7.904 -13.875  1.00  0.00     0.031 C 
ATOM     67  C   UNL     1      -0.886  13.602 -14.411  1.00  0.00     0.029 A 
ATOM     68  C   UNL     1      -1.124  12.322 -13.939  1.00  0.00     0.049 A 
ATOM     69  H   UNL     1      -0.379  11.391 -12.196  1.00  0.00     0.167 HD
ATOM     70  C   UNL     1      -2.099  10.042 -14.006  1.00  0.00     0.074 A 
ATOM     71  C   UNL     1      -2.918   9.008 -14.606  1.00  0.00     0.031 C 
ATOM     72  C   UNL     1      -1.948  11.288 -14.521  1.00  0.00     0.034 A 
BRANCH  59  73
ATOM     73  C   UNL     1       1.721  14.976 -11.140  1.00  0.00     0.023 A 
ATOM     74  C   UNL     1       3.113  15.171 -11.117  1.00  0.00     0.031 A 
ATOM     75  C   UNL     1       0.896  16.099 -10.947  1.00  0.00     0.131 A 
ATOM     76  C   UNL     1       3.638  16.439 -10.830  1.00  0.00     0.055 A 
ATOM     77  C   UNL     1       1.426  17.375 -10.744  1.00  0.00     0.041 A 
ATOM     78  F   UNL     1      -0.440  15.973 -10.940  1.00  0.00    -0.206 F 
ATOM     79  C   UNL     1       2.805  17.548 -10.668  1.00  0.00     0.022 A 
BRANCH  76  80
ATOM     80  S   UNL     1       5.420  16.588 -10.527  1.00  0.00     0.124 S 
ATOM     81  O   UNL     1       5.605  15.674  -9.402  1.00  0.00    -0.237 OA
ATOM     82  O   UNL     1       5.993  16.162 -11.798  1.00  0.00    -0.237 OA
ATOM     83  O   UNL     1       5.596  18.003 -10.206  1.00  0.00    -0.744 OA
ENDBRANCH  76  80
ENDBRANCH  59  73
BRANCH  60  84
ATOM     84  C   UNL     1      -2.354   5.858 -11.857  1.00  0.00     0.023 A 
ATOM     85  C   UNL     1      -2.092   4.992 -12.931  1.00  0.00     0.031 A 
ATOM     86  C   UNL     1      -3.288   5.447 -10.890  1.00  0.00     0.131 A 
ATOM     87  C   UNL     1      -2.790   3.779 -13.036  1.00  0.00     0.055 A 
ATOM     88  C   UNL     1      -3.942   4.216 -10.972  1.00  0.00     0.041 A 
ATOM     89  F   UNL     1      -3.572   6.235  -9.841  1.00  0.00    -0.206 F 
ATOM     90  C   UNL     1      -3.703   3.379 -12.058  1.00  0.00     0.022 A 
BRANCH  87  91
ATOM     91  S   UNL     1      -2.545   2.763 -14.519  1.00  0.00     0.124 S 
ATOM     92  O   UNL     1      -2.936   3.686 -15.579  1.00  0.00    -0.237 OA
ATOM     93  O   UNL     1      -1.124   2.445 -14.436  1.00  0.00    -0.237 OA
ATOM     94  O   UNL     1      -3.448   1.633 -14.310  1.00  0.00    -0.744 OA
ENDBRANCH  87  91
ENDBRANCH  60  84
BRANCH  72  95
ATOM     95  C   UNL     1      -2.652  11.584 -15.822  1.00  0.00     0.023 A 
ATOM     96  C   UNL     1      -4.053  11.666 -15.904  1.00  0.00     0.031 A 
ATOM     97  C   UNL     1      -1.906  11.781 -16.998  1.00  0.00     0.131 A 
ATOM     98  C   UNL     1      -4.667  11.893 -17.145  1.00  0.00     0.055 A 
ATOM     99  C   UNL     1      -2.521  12.061 -18.219  1.00  0.00     0.041 A 
ATOM    100  F   UNL     1      -0.566  11.711 -16.977  1.00  0.00    -0.206 F 
ATOM    101  C   UNL     1      -3.909  12.108 -18.300  1.00  0.00     0.022 A 
BRANCH  98 102
ATOM    102  S   UNL     1      -6.477  11.831 -17.247  1.00  0.00     0.124 S 
ATOM    103  O   UNL     1      -6.759  10.467 -16.814  1.00  0.00    -0.237 OA
ATOM    104  O   UNL     1      -6.879  12.889 -16.326  1.00  0.00    -0.237 OA
ATOM    105  O   UNL     1      -6.751  12.103 -18.657  1.00  0.00    -0.744 OA
ENDBRANCH  98 102
ENDBRANCH  72  95
ENDBRANCH  46  47
ENDBRANCH  38  41
ENDBRANCH  36  37
ENDBRANCH  35  36
ENDBRANCH   1  35
TORSDOF 20
