REMARK SMILES C[C@@H](c1ccccn1)S(=O)(=O)N1CC[NH2+]C[C@@H]1C(=O)NCCCCNC(=O)c1ccc(-c2c3nc(c(-c4cc(S(=O)(=O)[O-])ccc4F)c4ccc([nH]4)c(-c4cc(S(=O)(=O)[O-])ccc4F)c4nc(c(-c5cc(S(=O)(=O)[O-])ccc5F)c5ccc2[nH]5)C=C4)C=C3)cc1
REMARK SMILES IDX 22 1 21 2 20 3 18 4 19 5 17 7 12 8 13 9 14 10 16 11 15 12
REMARK SMILES IDX 9 15 10 16 11 17 2 18 1 19 3 20 4 21 8 22 5 23 7 24 6 25
REMARK SMILES IDX 23 26 24 27 25 28 26 29 27 31 28 32 29 33 90 34 30 35 89 36
REMARK SMILES IDX 31 37 32 38 33 39 83 40 34 41 88 42 82 43 84 44 35 45 87 46
REMARK SMILES IDX 81 47 80 48 36 50 68 51 48 52 67 53 49 54 52 55 66 56 85 57
REMARK SMILES IDX 50 58 51 59 65 61 86 62 53 63 37 64 38 65 46 66 39 67 45 68
REMARK SMILES IDX 47 69 44 70 40 71 41 72 42 73 43 74 69 75 70 76 78 77 71 78
REMARK SMILES IDX 77 79 79 80 76 81 72 82 73 83 74 84 75 85 54 86 55 87 63 88
REMARK SMILES IDX 56 89 62 90 64 91 61 92 57 93 58 94 59 95 60 96
REMARK H PARENT 20 6 15 13 15 14 25 30 84 49 52 60
REMARK Flexibility Score: inf
ROOT
ATOM      1  C   UNL     1      -0.635   6.349   1.014  1.00  0.00     0.023 C 
ENDROOT
BRANCH   1   2
ATOM      2  C   UNL     1      -1.299   5.316   1.925  1.00  0.00     0.116 C 
BRANCH   2   3
ATOM      3  N   UNL     1      -2.415   4.671   1.263  1.00  0.00    -0.355 N 
ATOM      4  C   UNL     1      -2.701   3.348   1.076  1.00  0.00     0.244 C 
ATOM      5  O   UNL     1      -3.681   3.116   0.365  1.00  0.00    -0.273 OA
ATOM      6  H   UNL     1      -3.080   5.291   0.884  1.00  0.00     0.163 HD
BRANCH   4   7
ATOM      7  C   UNL     1      -1.849   2.245   1.756  1.00  0.00     0.216 C 
ATOM      8  N   UNL     1      -2.075   0.866   1.183  1.00  0.00    -0.177 NA
ATOM      9  C   UNL     1      -3.500   0.424   1.518  1.00  0.00     0.164 C 
ATOM     10  C   UNL     1      -3.834   0.579   3.025  1.00  0.00     0.277 C 
ATOM     11  C   UNL     1      -2.118   2.259   3.276  1.00  0.00     0.291 C 
ATOM     12  N   UNL     1      -3.501   1.885   3.628  1.00  0.00    -0.343 N 
ATOM     13  H   UNL     1      -3.587   1.821   4.643  1.00  0.00     0.346 HD
ATOM     14  H   UNL     1      -4.143   2.594   3.274  1.00  0.00     0.346 HD
BRANCH   8  15
ATOM     15  S   UNL     1      -0.983  -0.409   1.487  1.00  0.00     0.223 S 
ATOM     16  O   UNL     1      -1.331  -1.426   0.506  1.00  0.00    -0.211 OA
ATOM     17  O   UNL     1      -1.108  -0.765   2.884  1.00  0.00    -0.211 OA
BRANCH  15  18
ATOM     18  C   UNL     1       0.741   0.060   1.128  1.00  0.00     0.170 C 
ATOM     19  C   UNL     1       0.972   0.382  -0.342  1.00  0.00     0.033 C 
BRANCH  18  20
ATOM     20  C   UNL     1       1.257   1.046   2.147  1.00  0.00     0.060 A 
ATOM     21  C   UNL     1       1.567   2.372   1.840  1.00  0.00     0.025 A 
ATOM     22  N   UNL     1       1.460   0.565   3.397  1.00  0.00    -0.260 NA
ATOM     23  C   UNL     1       1.971   3.235   2.859  1.00  0.00     0.004 A 
ATOM     24  C   UNL     1       1.864   1.412   4.368  1.00  0.00     0.111 A 
ATOM     25  C   UNL     1       2.108   2.752   4.152  1.00  0.00     0.020 A 
ENDBRANCH  18  20
ENDBRANCH  15  18
ENDBRANCH   8  15
ENDBRANCH   4   7
ENDBRANCH   2   3
ENDBRANCH   1   2
BRANCH   1  26
ATOM     26  C   UNL     1      -1.508   7.558   0.658  1.00  0.00     0.023 C 
BRANCH  26  27
ATOM     27  C   UNL     1      -1.984   8.397   1.842  1.00  0.00     0.116 C 
BRANCH  27  28
ATOM     28  N   UNL     1      -0.885   9.002   2.576  1.00  0.00    -0.352 N 
ATOM     29  C   UNL     1      -0.697  10.315   2.949  1.00  0.00     0.251 C 
ATOM     30  H   UNL     1      -0.170   8.382   2.849  1.00  0.00     0.163 HD
ATOM     31  O   UNL     1       0.378  10.655   3.423  1.00  0.00    -0.269 OA
BRANCH  29  32
ATOM     32  C   UNL     1      -1.777  11.310   2.740  1.00  0.00     0.039 A 
ATOM     33  C   UNL     1      -1.449  12.562   2.215  1.00  0.00     0.014 A 
ATOM     34  C   UNL     1      -3.105  11.013   3.057  1.00  0.00     0.014 A 
ATOM     35  C   UNL     1      -2.461  13.486   1.937  1.00  0.00     0.010 A 
ATOM     36  C   UNL     1      -4.118  11.904   2.708  1.00  0.00     0.010 A 
ATOM     37  C   UNL     1      -3.809  13.150   2.141  1.00  0.00    -0.014 A 
BRANCH  37  38
ATOM     38  C   UNL     1      -4.907  14.084   1.767  1.00  0.00     0.031 A 
ATOM     39  C   UNL     1      -5.837  14.621   2.821  1.00  0.00     0.074 A 
ATOM     40  C   UNL     1      -5.112  14.391   0.471  1.00  0.00     0.049 A 
ATOM     41  N   UNL     1      -6.901  15.370   2.685  1.00  0.00    -0.248 NA
ATOM     42  C   UNL     1      -5.546  14.236   4.209  1.00  0.00     0.031 C 
ATOM     43  C   UNL     1      -4.305  13.904  -0.650  1.00  0.00     0.029 A 
ATOM     44  N   UNL     1      -6.067  15.176  -0.127  1.00  0.00    -0.354 N 
ATOM     45  C   UNL     1      -7.417  15.534   3.967  1.00  0.00     0.074 A 
ATOM     46  C   UNL     1      -6.583  14.748   4.853  1.00  0.00     0.031 C 
ATOM     47  C   UNL     1      -4.786  14.417  -1.793  1.00  0.00     0.029 A 
ATOM     48  C   UNL     1      -5.964  15.226  -1.498  1.00  0.00     0.049 A 
ATOM     49  H   UNL     1      -6.762  15.657   0.379  1.00  0.00     0.167 HD
ATOM     50  C   UNL     1      -8.470  16.288   4.370  1.00  0.00     0.034 A 
ATOM     51  C   UNL     1      -6.738  15.838  -2.417  1.00  0.00     0.034 A 
ATOM     52  C   UNL     1      -9.289  17.067   3.472  1.00  0.00     0.049 A 
ATOM     53  C   UNL     1      -7.926  16.641  -1.954  1.00  0.00     0.074 A 
ATOM     54  C   UNL     1     -10.345  17.909   3.779  1.00  0.00     0.029 A 
ATOM     55  N   UNL     1      -9.157  17.090   2.088  1.00  0.00    -0.354 N 
ATOM     56  N   UNL     1      -8.370  16.830  -0.732  1.00  0.00    -0.248 NA
ATOM     57  C   UNL     1      -8.711  17.321  -2.992  1.00  0.00     0.031 C 
ATOM     58  C   UNL     1     -10.899  18.375   2.581  1.00  0.00     0.029 A 
ATOM     59  C   UNL     1     -10.134  17.899   1.527  1.00  0.00     0.049 A 
ATOM     60  H   UNL     1      -8.469  16.603   1.580  1.00  0.00     0.167 HD
ATOM     61  C   UNL     1      -9.470  17.677  -0.855  1.00  0.00     0.074 A 
ATOM     62  C   UNL     1      -9.612  17.969  -2.266  1.00  0.00     0.031 C 
ATOM     63  C   UNL     1     -10.281  18.173   0.115  1.00  0.00     0.034 A 
BRANCH  50  64
ATOM     64  C   UNL     1      -8.809  16.271   5.845  1.00  0.00     0.023 A 
ATOM     65  C   UNL     1      -7.889  16.698   6.819  1.00  0.00     0.031 A 
ATOM     66  C   UNL     1     -10.049  15.777   6.288  1.00  0.00     0.131 A 
ATOM     67  C   UNL     1      -8.180  16.530   8.182  1.00  0.00     0.055 A 
ATOM     68  C   UNL     1     -10.371  15.704   7.646  1.00  0.00     0.041 A 
ATOM     69  F   UNL     1     -10.963  15.335   5.411  1.00  0.00    -0.206 F 
ATOM     70  C   UNL     1      -9.426  16.061   8.602  1.00  0.00     0.022 A 
BRANCH  67  71
ATOM     71  S   UNL     1      -6.840  16.756   9.383  1.00  0.00     0.124 S 
ATOM     72  O   UNL     1      -5.840  15.812   8.891  1.00  0.00    -0.237 OA
ATOM     73  O   UNL     1      -6.514  18.169   9.230  1.00  0.00    -0.237 OA
ATOM     74  O   UNL     1      -7.456  16.390  10.657  1.00  0.00    -0.744 OA
ENDBRANCH  67  71
ENDBRANCH  50  64
BRANCH  51  75
ATOM     75  C   UNL     1      -6.423  15.705  -3.869  1.00  0.00     0.023 A 
ATOM     76  C   UNL     1      -6.027  16.815  -4.631  1.00  0.00     0.031 A 
ATOM     77  C   UNL     1      -6.530  14.462  -4.519  1.00  0.00     0.131 A 
ATOM     78  C   UNL     1      -5.786  16.668  -6.007  1.00  0.00     0.055 A 
ATOM     79  C   UNL     1      -6.240  14.311  -5.876  1.00  0.00     0.041 A 
ATOM     80  F   UNL     1      -6.899  13.367  -3.835  1.00  0.00    -0.206 F 
ATOM     81  C   UNL     1      -5.875  15.422  -6.630  1.00  0.00     0.022 A 
BRANCH  78  82
ATOM     82  S   UNL     1      -5.417  18.148  -6.988  1.00  0.00     0.124 S 
ATOM     83  O   UNL     1      -6.617  18.950  -6.779  1.00  0.00    -0.237 OA
ATOM     84  O   UNL     1      -4.199  18.638  -6.352  1.00  0.00    -0.237 OA
ATOM     85  O   UNL     1      -5.242  17.624  -8.341  1.00  0.00    -0.744 OA
ENDBRANCH  78  82
ENDBRANCH  51  75
BRANCH  63  86
ATOM     86  C   UNL     1     -11.371  19.126  -0.318  1.00  0.00     0.023 A 
ATOM     87  C   UNL     1     -12.445  18.712  -1.125  1.00  0.00     0.031 A 
ATOM     88  C   UNL     1     -11.329  20.474   0.084  1.00  0.00     0.131 A 
ATOM     89  C   UNL     1     -13.403  19.648  -1.548  1.00  0.00     0.055 A 
ATOM     90  C   UNL     1     -12.320  21.384  -0.286  1.00  0.00     0.041 A 
ATOM     91  F   UNL     1     -10.324  20.928   0.850  1.00  0.00    -0.206 F 
ATOM     92  C   UNL     1     -13.358  20.976  -1.117  1.00  0.00     0.022 A 
BRANCH  89  93
ATOM     93  S   UNL     1     -14.659  19.128  -2.750  1.00  0.00     0.124 S 
ATOM     94  O   UNL     1     -13.838  18.674  -3.868  1.00  0.00    -0.237 OA
ATOM     95  O   UNL     1     -15.377  18.087  -2.022  1.00  0.00    -0.237 OA
ATOM     96  O   UNL     1     -15.423  20.349  -2.997  1.00  0.00    -0.744 OA
ENDBRANCH  89  93
ENDBRANCH  63  86
ENDBRANCH  37  38
ENDBRANCH  29  32
ENDBRANCH  27  28
ENDBRANCH  26  27
ENDBRANCH   1  26
TORSDOF 17
