REMARK SMILES O=C(NCCCCNC(=O)c1ccc([C@H]2Nc3ccc(Cl)cc3[C@@H]3C=CC[C@@H]23)cc1)c1ccc(-c2c3nc(c(-c4cc(S(=O)(=O)[O-])ccc4F)c4ccc([nH]4)c(-c4cc(S(=O)(=O)[O-])ccc4F)c4nc(c(-c5cc(S(=O)(=O)[O-])ccc5F)c5ccc2[nH]5)C=C4)C=C3)cc1
REMARK SMILES IDX 4 1 3 2 1 3 2 4 31 6 32 7 93 8 33 9 92 10 34 11 35 12 36 13
REMARK SMILES IDX 86 14 37 15 91 16 85 17 87 18 38 19 90 20 84 21 83 22 39 24
REMARK SMILES IDX 71 25 51 26 70 27 52 28 55 29 69 30 88 31 53 32 54 33 68 35
REMARK SMILES IDX 89 36 56 37 40 38 41 39 49 40 42 41 48 42 50 43 47 44 43 45
REMARK SMILES IDX 44 46 45 47 46 48 72 49 73 50 81 51 74 52 80 53 82 54 79 55
REMARK SMILES IDX 75 56 76 57 77 58 78 59 57 60 58 61 66 62 59 63 65 64 67 65
REMARK SMILES IDX 64 66 60 67 61 68 62 69 63 70 5 71 6 72 7 73 8 74 9 75 10 77
REMARK SMILES IDX 11 78 12 79 30 80 13 81 29 82 14 83 15 84 16 85 28 86 17 87
REMARK SMILES IDX 24 89 27 90 18 91 23 92 25 93 26 94 19 95 22 96 20 97 21 98
REMARK H PARENT 3 5 87 23 55 34 8 76 16 88
REMARK Flexibility Score: inf
ROOT
ATOM      1  C   UNL     1       4.654   0.060  -1.486  1.00  0.00     0.116 C 
ENDROOT
BRANCH   1   2
ATOM      2  N   UNL     1       3.218   0.145  -1.253  1.00  0.00    -0.352 N 
ATOM      3  O   UNL     1       1.271   0.067  -0.126  1.00  0.00    -0.269 OA
ATOM      4  C   UNL     1       2.502   0.068  -0.079  1.00  0.00     0.251 C 
ATOM      5  H   UNL     1       2.674   0.279  -2.062  1.00  0.00     0.163 HD
BRANCH   4   6
ATOM      6  C   UNL     1       3.188  -0.036   1.232  1.00  0.00     0.039 A 
ATOM      7  C   UNL     1       4.306   0.744   1.526  1.00  0.00     0.014 A 
ATOM      8  C   UNL     1       2.686  -0.915   2.200  1.00  0.00     0.014 A 
ATOM      9  C   UNL     1       5.010   0.534   2.710  1.00  0.00     0.010 A 
ATOM     10  C   UNL     1       3.345  -1.060   3.429  1.00  0.00     0.010 A 
ATOM     11  C   UNL     1       4.534  -0.360   3.683  1.00  0.00    -0.014 A 
BRANCH  11  12
ATOM     12  C   UNL     1       5.270  -0.499   4.971  1.00  0.00     0.031 A 
ATOM     13  C   UNL     1       5.909  -1.804   5.370  1.00  0.00     0.074 A 
ATOM     14  C   UNL     1       5.394   0.580   5.769  1.00  0.00     0.049 A 
ATOM     15  N   UNL     1       6.599  -2.090   6.446  1.00  0.00    -0.248 NA
ATOM     16  C   UNL     1       5.748  -2.934   4.444  1.00  0.00     0.031 C 
ATOM     17  C   UNL     1       4.819   1.899   5.491  1.00  0.00     0.029 A 
ATOM     18  N   UNL     1       6.051   0.754   6.961  1.00  0.00    -0.354 N 
ATOM     19  C   UNL     1       6.952  -3.431   6.332  1.00  0.00     0.074 A 
ATOM     20  C   UNL     1       6.358  -3.911   5.101  1.00  0.00     0.031 C 
ATOM     21  C   UNL     1       5.189   2.754   6.455  1.00  0.00     0.029 A 
ATOM     22  C   UNL     1       5.958   2.032   7.461  1.00  0.00     0.049 A 
ATOM     23  H   UNL     1       6.543   0.032   7.415  1.00  0.00     0.167 HD
ATOM     24  C   UNL     1       7.710  -4.186   7.169  1.00  0.00     0.034 A 
ATOM     25  C   UNL     1       6.415   2.563   8.612  1.00  0.00     0.034 A 
ATOM     26  C   UNL     1       8.286  -3.693   8.400  1.00  0.00     0.049 A 
ATOM     27  C   UNL     1       7.190   1.685   9.559  1.00  0.00     0.074 A 
ATOM     28  C   UNL     1       9.081  -4.368   9.311  1.00  0.00     0.029 A 
ATOM     29  N   UNL     1       8.122  -2.407   8.902  1.00  0.00    -0.354 N 
ATOM     30  N   UNL     1       7.527   0.422   9.425  1.00  0.00    -0.248 NA
ATOM     31  C   UNL     1       7.650   2.303  10.807  1.00  0.00     0.031 C 
ATOM     32  C   UNL     1       9.331  -3.520  10.395  1.00  0.00     0.029 A 
ATOM     33  C   UNL     1       8.769  -2.283  10.123  1.00  0.00     0.049 A 
ATOM     34  H   UNL     1       7.619  -1.688   8.456  1.00  0.00     0.167 HD
ATOM     35  C   UNL     1       8.264   0.106  10.562  1.00  0.00     0.074 A 
ATOM     36  C   UNL     1       8.340   1.315  11.357  1.00  0.00     0.031 C 
ATOM     37  C   UNL     1       8.829  -1.077  10.917  1.00  0.00     0.034 A 
BRANCH  24  38
ATOM     38  C   UNL     1       7.925  -5.637   6.801  1.00  0.00     0.023 A 
ATOM     39  C   UNL     1       8.612  -6.011   5.633  1.00  0.00     0.031 A 
ATOM     40  C   UNL     1       7.430  -6.664   7.626  1.00  0.00     0.131 A 
ATOM     41  C   UNL     1       8.724  -7.367   5.287  1.00  0.00     0.055 A 
ATOM     42  C   UNL     1       7.617  -8.013   7.319  1.00  0.00     0.041 A 
ATOM     43  F   UNL     1       6.749  -6.373   8.746  1.00  0.00    -0.206 F 
ATOM     44  C   UNL     1       8.254  -8.372   6.135  1.00  0.00     0.022 A 
BRANCH  41  45
ATOM     45  S   UNL     1       9.362  -7.792   3.643  1.00  0.00     0.124 S 
ATOM     46  O   UNL     1       8.434  -7.077   2.771  1.00  0.00    -0.237 OA
ATOM     47  O   UNL     1      10.724  -7.273   3.689  1.00  0.00    -0.237 OA
ATOM     48  O   UNL     1       9.250  -9.249   3.597  1.00  0.00    -0.744 OA
ENDBRANCH  41  45
ENDBRANCH  24  38
BRANCH  25  49
ATOM     49  C   UNL     1       6.118   3.984   8.957  1.00  0.00     0.023 A 
ATOM     50  C   UNL     1       7.149   4.918   9.141  1.00  0.00     0.031 A 
ATOM     51  C   UNL     1       4.794   4.418   9.155  1.00  0.00     0.131 A 
ATOM     52  C   UNL     1       6.844   6.221   9.563  1.00  0.00     0.055 A 
ATOM     53  C   UNL     1       4.492   5.733   9.509  1.00  0.00     0.041 A 
ATOM     54  F   UNL     1       3.768   3.566   8.994  1.00  0.00    -0.206 F 
ATOM     55  C   UNL     1       5.522   6.640   9.731  1.00  0.00     0.022 A 
BRANCH  52  56
ATOM     56  S   UNL     1       8.209   7.334   9.995  1.00  0.00     0.124 S 
ATOM     57  O   UNL     1       8.907   6.564  11.018  1.00  0.00    -0.237 OA
ATOM     58  O   UNL     1       8.898   7.477   8.716  1.00  0.00    -0.237 OA
ATOM     59  O   UNL     1       7.529   8.536  10.473  1.00  0.00    -0.744 OA
ENDBRANCH  52  56
ENDBRANCH  25  49
BRANCH  37  60
ATOM     60  C   UNL     1       9.620  -1.098  12.204  1.00  0.00     0.023 A 
ATOM     61  C   UNL     1       9.009  -0.894  13.454  1.00  0.00     0.031 A 
ATOM     62  C   UNL     1      11.011  -1.298  12.174  1.00  0.00     0.131 A 
ATOM     63  C   UNL     1       9.796  -0.830  14.614  1.00  0.00     0.055 A 
ATOM     64  C   UNL     1      11.779  -1.303  13.339  1.00  0.00     0.041 A 
ATOM     65  F   UNL     1      11.650  -1.492  11.009  1.00  0.00    -0.206 F 
ATOM     66  C   UNL     1      11.174  -1.052  14.567  1.00  0.00     0.022 A 
BRANCH  63  67
ATOM     67  S   UNL     1       9.008  -0.346  16.176  1.00  0.00     0.124 S 
ATOM     68  O   UNL     1       8.455   0.962  15.843  1.00  0.00    -0.237 OA
ATOM     69  O   UNL     1       8.037  -1.416  16.380  1.00  0.00    -0.237 OA
ATOM     70  O   UNL     1      10.117  -0.326  17.128  1.00  0.00    -0.744 OA
ENDBRANCH  63  67
ENDBRANCH  37  60
ENDBRANCH  11  12
ENDBRANCH   4   6
ENDBRANCH   1   2
BRANCH   1  71
ATOM     71  C   UNL     1       5.050  -1.017  -2.492  1.00  0.00     0.023 C 
BRANCH  71  72
ATOM     72  C   UNL     1       4.534  -0.840  -3.923  1.00  0.00     0.023 C 
BRANCH  72  73
ATOM     73  C   UNL     1       4.942   0.447  -4.649  1.00  0.00     0.116 C 
BRANCH  73  74
ATOM     74  N   UNL     1       6.380   0.577  -4.846  1.00  0.00    -0.352 N 
ATOM     75  C   UNL     1       7.139   0.767  -5.980  1.00  0.00     0.251 C 
ATOM     76  H   UNL     1       6.906   0.519  -4.016  1.00  0.00     0.163 HD
ATOM     77  O   UNL     1       8.365   0.748  -5.891  1.00  0.00    -0.269 OA
BRANCH  75  78
ATOM     78  C   UNL     1       6.529   0.944  -7.321  1.00  0.00     0.039 A 
ATOM     79  C   UNL     1       7.055   0.214  -8.395  1.00  0.00     0.014 A 
ATOM     80  C   UNL     1       5.469   1.819  -7.551  1.00  0.00     0.014 A 
ATOM     81  C   UNL     1       6.400   0.200  -9.633  1.00  0.00     0.006 A 
ATOM     82  C   UNL     1       4.804   1.793  -8.783  1.00  0.00     0.006 A 
ATOM     83  C   UNL     1       5.184   0.879  -9.789  1.00  0.00    -0.025 A 
BRANCH  83  84
ATOM     84  C   UNL     1       4.102   0.406 -10.765  1.00  0.00     0.114 C 
ATOM     85  N   UNL     1       4.595  -0.004 -12.105  1.00  0.00    -0.378 N 
ATOM     86  C   UNL     1       3.308  -0.766 -10.141  1.00  0.00     0.031 C 
ATOM     87  C   UNL     1       4.163  -1.219 -12.664  1.00  0.00     0.038 A 
ATOM     88  H   UNL     1       5.222   0.573 -12.600  1.00  0.00     0.161 HD
ATOM     89  C   UNL     1       4.122  -2.055 -10.359  1.00  0.00     0.049 C 
ATOM     90  C   UNL     1       2.840  -0.794  -8.688  1.00  0.00     0.034 C 
ATOM     91  C   UNL     1       3.830  -1.329 -14.014  1.00  0.00     0.027 A 
ATOM     92  C   UNL     1       3.897  -2.328 -11.815  1.00  0.00    -0.016 A 
ATOM     93  C   UNL     1       3.631  -2.943  -9.273  1.00  0.00    -0.023 C 
ATOM     94  C   UNL     1       2.984  -2.244  -8.332  1.00  0.00    -0.030 C 
ATOM     95  C   UNL     1       3.232  -2.503 -14.501  1.00  0.00     0.022 A 
ATOM     96  C   UNL     1       3.347  -3.513 -12.307  1.00  0.00     0.027 A 
ATOM     97  C   UNL     1       2.998  -3.585 -13.649  1.00  0.00     0.041 A 
ATOM     98  Cl  UNL     1       2.214  -4.997 -14.247  1.00  0.00    -0.084 Cl
ENDBRANCH  83  84
ENDBRANCH  75  78
ENDBRANCH  73  74
ENDBRANCH  72  73
ENDBRANCH  71  72
ENDBRANCH   1  71
TORSDOF 15
