REMARK SMILES Nc1ccc(-c2cc(Cl)cc3c2O[C@H](C(F)(F)F)C(C(=O)NCCCCNC(=O)c2ccc(-c4c5nc(c(-c6cc(S(=O)(=O)[O-])ccc6F)c6ccc([nH]6)c(-c6cc(S(=O)(=O)[O-])ccc6F)c6nc(c(-c7cc(S(=O)(=O)[O-])ccc7F)c7ccc4[nH]7)C=C6)C=C5)cc2)=C3)cc1
REMARK SMILES IDX 25 1 24 2 23 3 22 4 20 5 21 6 19 8 6 9 7 10 12 11 8 12 11 13
REMARK SMILES IDX 13 14 9 15 10 16 93 17 14 18 5 19 2 20 3 21 95 22 4 23 94 24
REMARK SMILES IDX 1 25 15 28 16 29 17 30 18 31 26 32 27 33 28 34 29 36 30 37
REMARK SMILES IDX 31 38 92 39 32 40 91 41 33 42 34 43 35 44 85 45 36 46 90 47
REMARK SMILES IDX 84 48 86 49 37 50 89 51 83 52 82 53 38 55 70 56 50 57 69 58
REMARK SMILES IDX 51 59 54 60 68 61 87 62 52 63 53 64 67 66 88 67 55 68 39 69
REMARK SMILES IDX 40 70 48 71 41 72 47 73 49 74 46 75 42 76 43 77 44 78 45 79
REMARK SMILES IDX 71 80 72 81 80 82 73 83 79 84 81 85 78 86 74 87 75 88 76 89
REMARK SMILES IDX 77 90 56 91 57 92 65 93 58 94 64 95 66 96 63 97 59 98 60 99
REMARK SMILES IDX 61 100 62 101
REMARK H PARENT 22 7 1 26 1 27 27 35 86 54 54 65
REMARK Flexibility Score: inf
ROOT
ATOM      1  C   UNL     1      -4.016  -2.653   8.081  1.00  0.00     0.023 C 
ENDROOT
BRANCH   1   2
ATOM      2  C   UNL     1      -3.659  -2.341   6.624  1.00  0.00     0.023 C 
BRANCH   2   3
ATOM      3  C   UNL     1      -4.240  -3.323   5.609  1.00  0.00     0.116 C 
BRANCH   3   4
ATOM      4  N   UNL     1      -5.580  -2.949   5.185  1.00  0.00    -0.352 N 
ATOM      5  C   UNL     1      -6.138  -2.298   4.137  1.00  0.00     0.251 C 
ATOM      6  O   UNL     1      -7.368  -2.197   4.168  1.00  0.00    -0.270 OA
ATOM      7  H   UNL     1      -6.261  -3.247   5.831  1.00  0.00     0.163 HD
BRANCH   5   8
ATOM      8  C   UNL     1      -5.387  -1.713   2.987  1.00  0.00     0.067 C 
ATOM      9  C   UNL     1      -3.358   0.148  -0.203  1.00  0.00     0.026 A 
ATOM     10  C   UNL     1      -4.111   0.687  -1.257  1.00  0.00     0.033 A 
ATOM     11  C   UNL     1      -4.053  -0.402   0.892  1.00  0.00     0.135 A 
ATOM     12  C   UNL     1      -5.506   0.670  -1.209  1.00  0.00     0.042 A 
ATOM     13  C   UNL     1      -5.452  -0.426   0.939  1.00  0.00     0.019 A 
ATOM     14  O   UNL     1      -3.308  -0.860   1.950  1.00  0.00    -0.475 OA
ATOM     15  Cl  UNL     1      -6.407   1.342  -2.514  1.00  0.00    -0.084 Cl
ATOM     16  C   UNL     1      -6.180   0.117  -0.120  1.00  0.00     0.032 A 
ATOM     17  C   UNL     1      -6.115  -0.998   2.107  1.00  0.00     0.025 C 
ATOM     18  C   UNL     1      -3.917  -1.904   2.752  1.00  0.00     0.314 C 
BRANCH   9  19
ATOM     19  C   UNL     1      -1.888   0.138  -0.253  1.00  0.00    -0.014 A 
ATOM     20  C   UNL     1       0.942   0.090  -0.146  1.00  0.00     0.031 A 
ATOM     21  C   UNL     1       0.215  -1.096  -0.247  1.00  0.00     0.026 A 
ATOM     22  C   UNL     1       0.249   1.301  -0.181  1.00  0.00     0.026 A 
ATOM     23  C   UNL     1      -1.182  -1.075  -0.290  1.00  0.00     0.011 A 
ATOM     24  C   UNL     1      -1.151   1.328  -0.221  1.00  0.00     0.011 A 
BRANCH  20  25
ATOM     25  N   UNL     1       2.328   0.068  -0.149  1.00  0.00    -0.399 N 
ATOM     26  H   UNL     1       2.807  -0.792  -0.124  1.00  0.00     0.156 HD
ATOM     27  H   UNL     1       2.834   0.912  -0.175  1.00  0.00     0.156 HD
ENDBRANCH  20  25
ENDBRANCH   9  19
BRANCH  18  28
ATOM     28  C   UNL     1      -3.576  -3.280   2.149  1.00  0.00     0.429 C 
ATOM     29  F   UNL     1      -2.245  -3.524   2.242  1.00  0.00    -0.167 F 
ATOM     30  F   UNL     1      -4.202  -4.296   2.787  1.00  0.00    -0.167 F 
ATOM     31  F   UNL     1      -3.909  -3.373   0.841  1.00  0.00    -0.167 F 
ENDBRANCH  18  28
ENDBRANCH   5   8
ENDBRANCH   3   4
ENDBRANCH   2   3
ENDBRANCH   1   2
BRANCH   1  32
ATOM     32  C   UNL     1      -3.619  -4.045   8.570  1.00  0.00     0.116 C 
BRANCH  32  33
ATOM     33  N   UNL     1      -2.215  -4.378   8.369  1.00  0.00    -0.352 N 
ATOM     34  C   UNL     1      -1.473  -5.322   9.046  1.00  0.00     0.251 C 
ATOM     35  H   UNL     1      -1.743  -3.872   7.669  1.00  0.00     0.163 HD
ATOM     36  O   UNL     1      -0.272  -5.446   8.828  1.00  0.00    -0.269 OA
BRANCH  34  37
ATOM     37  C   UNL     1      -2.144  -6.132  10.085  1.00  0.00     0.039 A 
ATOM     38  C   UNL     1      -3.335  -6.796   9.788  1.00  0.00     0.014 A 
ATOM     39  C   UNL     1      -1.641  -6.124  11.387  1.00  0.00     0.014 A 
ATOM     40  C   UNL     1      -4.117  -7.286  10.826  1.00  0.00     0.010 A 
ATOM     41  C   UNL     1      -2.392  -6.694  12.419  1.00  0.00     0.010 A 
ATOM     42  C   UNL     1      -3.666  -7.221  12.156  1.00  0.00    -0.014 A 
BRANCH  42  43
ATOM     43  C   UNL     1      -4.561  -7.690  13.246  1.00  0.00     0.031 A 
ATOM     44  C   UNL     1      -5.117  -6.725  14.259  1.00  0.00     0.074 A 
ATOM     45  C   UNL     1      -4.940  -8.983  13.266  1.00  0.00     0.049 A 
ATOM     46  N   UNL     1      -5.969  -6.950  15.226  1.00  0.00    -0.248 NA
ATOM     47  C   UNL     1      -4.658  -5.329  14.182  1.00  0.00     0.031 C 
ATOM     48  C   UNL     1      -4.467 -10.001  12.329  1.00  0.00     0.029 A 
ATOM     49  N   UNL     1      -5.827  -9.653  14.070  1.00  0.00    -0.354 N 
ATOM     50  C   UNL     1      -6.139  -5.734  15.879  1.00  0.00     0.074 A 
ATOM     51  C   UNL     1      -5.275  -4.780  15.220  1.00  0.00     0.031 C 
ATOM     52  C   UNL     1      -5.116 -11.148  12.566  1.00  0.00     0.029 A 
ATOM     53  C   UNL     1      -6.002 -10.970  13.714  1.00  0.00     0.049 A 
ATOM     54  H   UNL     1      -6.292  -9.232  14.829  1.00  0.00     0.167 HD
ATOM     55  C   UNL     1      -6.954  -5.438  16.920  1.00  0.00     0.034 A 
ATOM     56  C   UNL     1      -6.785 -11.930  14.247  1.00  0.00     0.034 A 
ATOM     57  C   UNL     1      -7.823  -6.395  17.557  1.00  0.00     0.049 A 
ATOM     58  C   UNL     1      -7.675 -11.578  15.410  1.00  0.00     0.074 A 
ATOM     59  C   UNL     1      -8.688  -6.192  18.618  1.00  0.00     0.029 A 
ATOM     60  N   UNL     1      -7.951  -7.727  17.189  1.00  0.00    -0.354 N 
ATOM     61  N   UNL     1      -7.840 -10.416  15.997  1.00  0.00    -0.248 NA
ATOM     62  C   UNL     1      -8.485 -12.661  15.984  1.00  0.00     0.031 C 
ATOM     63  C   UNL     1      -9.303  -7.408  18.921  1.00  0.00     0.029 A 
ATOM     64  C   UNL     1      -8.868  -8.360  18.012  1.00  0.00     0.049 A 
ATOM     65  H   UNL     1      -7.461  -8.159  16.452  1.00  0.00     0.167 HD
ATOM     66  C   UNL     1      -8.779 -10.625  17.003  1.00  0.00     0.074 A 
ATOM     67  C   UNL     1      -9.170 -12.017  16.921  1.00  0.00     0.031 C 
ATOM     68  C   UNL     1      -9.261  -9.746  17.916  1.00  0.00     0.034 A 
BRANCH  55  69
ATOM     69  C   UNL     1      -6.970  -4.023  17.443  1.00  0.00     0.023 A 
ATOM     70  C   UNL     1      -6.530  -3.747  18.751  1.00  0.00     0.031 A 
ATOM     71  C   UNL     1      -7.529  -2.973  16.694  1.00  0.00     0.131 A 
ATOM     72  C   UNL     1      -6.682  -2.458  19.280  1.00  0.00     0.055 A 
ATOM     73  C   UNL     1      -7.647  -1.683  17.213  1.00  0.00     0.041 A 
ATOM     74  F   UNL     1      -7.960  -3.185  15.440  1.00  0.00    -0.206 F 
ATOM     75  C   UNL     1      -7.233  -1.424  18.516  1.00  0.00     0.022 A 
BRANCH  72  76
ATOM     76  S   UNL     1      -6.223  -2.085  20.994  1.00  0.00     0.124 S 
ATOM     77  O   UNL     1      -5.209  -1.047  20.812  1.00  0.00    -0.237 OA
ATOM     78  O   UNL     1      -7.490  -1.627  21.558  1.00  0.00    -0.237 OA
ATOM     79  O   UNL     1      -5.725  -3.355  21.510  1.00  0.00    -0.744 OA
ENDBRANCH  72  76
ENDBRANCH  55  69
BRANCH  56  80
ATOM     80  C   UNL     1      -6.782 -13.288  13.631  1.00  0.00     0.023 A 
ATOM     81  C   UNL     1      -5.601 -14.051  13.574  1.00  0.00     0.031 A 
ATOM     82  C   UNL     1      -7.920 -13.784  12.974  1.00  0.00     0.131 A 
ATOM     83  C   UNL     1      -5.562 -15.222  12.808  1.00  0.00     0.055 A 
ATOM     84  C   UNL     1      -7.899 -14.991  12.274  1.00  0.00     0.041 A 
ATOM     85  F   UNL     1      -9.066 -13.086  12.989  1.00  0.00    -0.206 F 
ATOM     86  C   UNL     1      -6.709 -15.706  12.170  1.00  0.00     0.022 A 
BRANCH  83  87
ATOM     87  S   UNL     1      -3.988 -16.064  12.481  1.00  0.00     0.124 S 
ATOM     88  O   UNL     1      -4.203 -17.363  13.108  1.00  0.00    -0.237 OA
ATOM     89  O   UNL     1      -3.947 -16.066  11.020  1.00  0.00    -0.237 OA
ATOM     90  O   UNL     1      -2.999 -15.206  13.124  1.00  0.00    -0.744 OA
ENDBRANCH  83  87
ENDBRANCH  56  80
BRANCH  68  91
ATOM     91  C   UNL     1     -10.268 -10.240  18.926  1.00  0.00     0.023 A 
ATOM     92  C   UNL     1     -11.574  -9.716  18.936  1.00  0.00     0.031 A 
ATOM     93  C   UNL     1      -9.892 -11.115  19.959  1.00  0.00     0.131 A 
ATOM     94  C   UNL     1     -12.448 -10.045  19.980  1.00  0.00     0.055 A 
ATOM     95  C   UNL     1     -10.779 -11.473  20.975  1.00  0.00     0.041 A 
ATOM     96  F   UNL     1      -8.653 -11.632  19.997  1.00  0.00    -0.206 F 
ATOM     97  C   UNL     1     -12.059 -10.926  20.995  1.00  0.00     0.022 A 
BRANCH  94  98
ATOM     98  S   UNL     1     -14.088  -9.281  20.105  1.00  0.00     0.124 S 
ATOM     99  O   UNL     1     -14.970 -10.441  19.992  1.00  0.00    -0.237 OA
ATOM    100  O   UNL     1     -14.039  -8.661  21.427  1.00  0.00    -0.237 OA
ATOM    101  O   UNL     1     -14.132  -8.354  18.979  1.00  0.00    -0.744 OA
ENDBRANCH  94  98
ENDBRANCH  68  91
ENDBRANCH  42  43
ENDBRANCH  34  37
ENDBRANCH  32  33
ENDBRANCH   1  32
TORSDOF 17
