REMARK SMILES CC1=C(C#N)C(=O)N(C)C(=O)/C1=C\Nc1ccc(C(=O)NCCCCNC(=O)c2ccc(-c3c4nc(c(-c5cc(S(=O)(=O)[O-])ccc5F)c5ccc([nH]5)c(-c5cc(S(=O)(=O)[O-])ccc5F)c5nc(c(-c6cc(S(=O)(=O)[O-])ccc6F)c6ccc3[nH]6)C=C5)C=C4)cc2)c(O)c1
REMARK SMILES IDX 23 1 22 2 21 3 19 4 20 5 18 7 15 8 16 9 94 10 17 11 92 12
REMARK SMILES IDX 14 13 13 15 1 16 2 17 3 18 12 19 6 20 10 21 7 22 8 23 11 24
REMARK SMILES IDX 9 25 4 26 5 27 93 28 24 30 25 31 26 32 27 33 28 35 29 36
REMARK SMILES IDX 30 37 91 38 31 39 90 40 32 41 33 42 34 43 84 44 35 45 89 46
REMARK SMILES IDX 83 47 85 48 36 49 88 50 82 51 81 52 37 54 69 55 49 56 68 57
REMARK SMILES IDX 50 58 53 59 67 60 86 61 51 62 52 63 66 65 87 66 54 67 38 68
REMARK SMILES IDX 39 69 47 70 40 71 46 72 48 73 45 74 41 75 42 76 43 77 44 78
REMARK SMILES IDX 70 79 71 80 79 81 72 82 78 83 80 84 77 85 73 86 74 87 75 88
REMARK SMILES IDX 76 89 55 90 56 91 64 92 57 93 63 94 65 95 62 96 58 97 59 98
REMARK SMILES IDX 60 99 61 100
REMARK H PARENT 21 6 14 14 93 29 26 34 85 53 53 64
REMARK Flexibility Score: inf
ROOT
ATOM      1  C   UNL     1      -6.842   5.463  -5.296  1.00  0.00     0.023 C 
ENDROOT
BRANCH   1   2
ATOM      2  C   UNL     1      -5.620   4.738  -5.843  1.00  0.00     0.116 C 
BRANCH   2   3
ATOM      3  N   UNL     1      -4.454   5.571  -6.091  1.00  0.00    -0.352 N 
ATOM      4  C   UNL     1      -3.114   5.268  -5.990  1.00  0.00     0.255 C 
ATOM      5  O   UNL     1      -2.287   6.134  -6.268  1.00  0.00    -0.269 OA
ATOM      6  H   UNL     1      -4.653   6.492  -6.374  1.00  0.00     0.163 HD
BRANCH   4   7
ATOM      7  C   UNL     1      -2.632   3.951  -5.493  1.00  0.00     0.081 A 
ATOM      8  C   UNL     1      -1.693   1.581  -4.255  1.00  0.00     0.042 A 
ATOM      9  C   UNL     1      -1.053   2.802  -4.031  1.00  0.00     0.027 A 
ATOM     10  C   UNL     1      -2.773   1.557  -5.147  1.00  0.00     0.073 A 
ATOM     11  C   UNL     1      -1.519   3.975  -4.639  1.00  0.00     0.020 A 
ATOM     12  C   UNL     1      -3.191   2.712  -5.807  1.00  0.00     0.130 A 
BRANCH   8  13
ATOM     13  N   UNL     1      -1.340   0.387  -3.618  1.00  0.00    -0.361 N 
ATOM     14  H   UNL     1      -1.701  -0.428  -4.036  1.00  0.00     0.166 HD
BRANCH  13  15
ATOM     15  C   UNL     1      -0.568   0.169  -2.502  1.00  0.00     0.097 C 
ATOM     16  C   UNL     1       1.029   0.041   0.058  1.00  0.00     0.047 C 
ATOM     17  C   UNL     1       0.639  -1.169  -0.770  1.00  0.00    -0.013 C 
ATOM     18  C   UNL     1       1.015  -2.402  -0.362  1.00  0.00     0.121 C 
ATOM     19  C   UNL     1      -0.147  -1.012  -1.998  1.00  0.00     0.060 C 
ATOM     20  C   UNL     1       0.682  -3.619  -1.146  1.00  0.00     0.271 C 
ATOM     21  C   UNL     1      -0.534  -2.245  -2.786  1.00  0.00     0.262 C 
ATOM     22  O   UNL     1       1.048  -4.726  -0.750  1.00  0.00    -0.268 OA
ATOM     23  N   UNL     1      -0.042  -3.451  -2.314  1.00  0.00    -0.277 N 
ATOM     24  O   UNL     1      -1.251  -2.175  -3.786  1.00  0.00    -0.269 OA
ATOM     25  C   UNL     1      -0.335  -4.654  -3.076  1.00  0.00     0.157 C 
BRANCH  18  26
ATOM     26  C   UNL     1       1.758  -2.605   0.839  1.00  0.00     0.105 C 
ATOM     27  N   UNL     1       2.361  -2.707   1.828  1.00  0.00    -0.192 NA
ENDBRANCH  18  26
ENDBRANCH  13  15
ENDBRANCH   8  13
BRANCH  12  28
ATOM     28  O   UNL     1      -4.122   2.511  -6.788  1.00  0.00    -0.507 OA
ATOM     29  H   UNL     1      -4.452   3.239  -7.277  1.00  0.00     0.293 HD
ENDBRANCH  12  28
ENDBRANCH   4   7
ENDBRANCH   2   3
ENDBRANCH   1   2
BRANCH   1  30
ATOM     30  C   UNL     1      -7.420   6.577  -6.165  1.00  0.00     0.023 C 
BRANCH  30  31
ATOM     31  C   UNL     1      -7.629   6.242  -7.638  1.00  0.00     0.116 C 
BRANCH  31  32
ATOM     32  N   UNL     1      -8.553   5.139  -7.861  1.00  0.00    -0.352 N 
ATOM     33  C   UNL     1      -9.789   5.124  -8.468  1.00  0.00     0.251 C 
ATOM     34  H   UNL     1      -8.246   4.266  -7.524  1.00  0.00     0.163 HD
ATOM     35  O   UNL     1     -10.468   4.101  -8.437  1.00  0.00    -0.269 OA
BRANCH  33  36
ATOM     36  C   UNL     1     -10.316   6.348  -9.112  1.00  0.00     0.039 A 
ATOM     37  C   UNL     1     -11.625   6.748  -8.832  1.00  0.00     0.014 A 
ATOM     38  C   UNL     1      -9.512   7.123  -9.950  1.00  0.00     0.014 A 
ATOM     39  C   UNL     1     -12.084   7.983  -9.297  1.00  0.00     0.010 A 
ATOM     40  C   UNL     1      -9.936   8.394 -10.330  1.00  0.00     0.010 A 
ATOM     41  C   UNL     1     -11.220   8.847  -9.990  1.00  0.00    -0.014 A 
BRANCH  41  42
ATOM     42  C   UNL     1     -11.621  10.243 -10.313  1.00  0.00     0.031 A 
ATOM     43  C   UNL     1     -11.683  10.713 -11.739  1.00  0.00     0.074 A 
ATOM     44  C   UNL     1     -11.859  11.110  -9.308  1.00  0.00     0.049 A 
ATOM     45  N   UNL     1     -11.956  11.904 -12.206  1.00  0.00    -0.248 NA
ATOM     46  C   UNL     1     -11.371   9.717 -12.774  1.00  0.00     0.031 C 
ATOM     47  C   UNL     1     -11.794  10.785  -7.881  1.00  0.00     0.029 A 
ATOM     48  N   UNL     1     -12.202  12.439  -9.326  1.00  0.00    -0.354 N 
ATOM     49  C   UNL     1     -11.838  11.806 -13.589  1.00  0.00     0.074 A 
ATOM     50  C   UNL     1     -11.406  10.454 -13.874  1.00  0.00     0.031 C 
ATOM     51  C   UNL     1     -12.132  11.868  -7.166  1.00  0.00     0.029 A 
ATOM     52  C   UNL     1     -12.372  12.984  -8.074  1.00  0.00     0.049 A 
ATOM     53  H   UNL     1     -12.316  12.954 -10.157  1.00  0.00     0.167 HD
ATOM     54  C   UNL     1     -12.088  12.751 -14.531  1.00  0.00     0.034 A 
ATOM     55  C   UNL     1     -12.670  14.243  -7.695  1.00  0.00     0.034 A 
ATOM     56  C   UNL     1     -12.510  14.097 -14.223  1.00  0.00     0.049 A 
ATOM     57  C   UNL     1     -12.872  15.293  -8.756  1.00  0.00     0.074 A 
ATOM     58  C   UNL     1     -12.851  15.113 -15.100  1.00  0.00     0.029 A 
ATOM     59  N   UNL     1     -12.623  14.626 -12.943  1.00  0.00    -0.354 N 
ATOM     60  N   UNL     1     -12.828  15.166 -10.062  1.00  0.00    -0.248 NA
ATOM     61  C   UNL     1     -13.162  16.655  -8.291  1.00  0.00     0.031 C 
ATOM     62  C   UNL     1     -13.069  16.278 -14.357  1.00  0.00     0.029 A 
ATOM     63  C   UNL     1     -12.965  15.970 -13.010  1.00  0.00     0.049 A 
ATOM     64  H   UNL     1     -12.481  14.122 -12.110  1.00  0.00     0.167 HD
ATOM     65  C   UNL     1     -13.105  16.431 -10.575  1.00  0.00     0.074 A 
ATOM     66  C   UNL     1     -13.338  17.297  -9.437  1.00  0.00     0.031 C 
ATOM     67  C   UNL     1     -13.164  16.836 -11.870  1.00  0.00     0.034 A 
BRANCH  54  68
ATOM     68  C   UNL     1     -11.864  12.367 -15.976  1.00  0.00     0.023 A 
ATOM     69  C   UNL     1     -12.567  11.309 -16.580  1.00  0.00     0.031 A 
ATOM     70  C   UNL     1     -10.902  13.039 -16.752  1.00  0.00     0.131 A 
ATOM     71  C   UNL     1     -12.230  10.892 -17.876  1.00  0.00     0.055 A 
ATOM     72  C   UNL     1     -10.643  12.684 -18.077  1.00  0.00     0.041 A 
ATOM     73  F   UNL     1     -10.180  14.042 -16.228  1.00  0.00    -0.206 F 
ATOM     74  C   UNL     1     -11.293  11.590 -18.640  1.00  0.00     0.022 A 
BRANCH  71  75
ATOM     75  S   UNL     1     -12.892   9.311 -18.471  1.00  0.00     0.124 S 
ATOM     76  O   UNL     1     -12.453   8.394 -17.422  1.00  0.00    -0.237 OA
ATOM     77  O   UNL     1     -14.325   9.573 -18.533  1.00  0.00    -0.237 OA
ATOM     78  O   UNL     1     -12.232   9.129 -19.763  1.00  0.00    -0.744 OA
ENDBRANCH  71  75
ENDBRANCH  54  68
BRANCH  55  79
ATOM     79  C   UNL     1     -12.785  14.585  -6.248  1.00  0.00     0.023 A 
ATOM     80  C   UNL     1     -14.005  15.017  -5.705  1.00  0.00     0.031 A 
ATOM     81  C   UNL     1     -11.673  14.505  -5.390  1.00  0.00     0.131 A 
ATOM     82  C   UNL     1     -14.078  15.385  -4.352  1.00  0.00     0.055 A 
ATOM     83  C   UNL     1     -11.765  14.815  -4.032  1.00  0.00     0.041 A 
ATOM     84  F   UNL     1     -10.481  14.101  -5.858  1.00  0.00    -0.206 F 
ATOM     85  C   UNL     1     -12.971  15.267  -3.508  1.00  0.00     0.022 A 
BRANCH  82  86
ATOM     86  S   UNL     1     -15.624  16.096  -3.728  1.00  0.00     0.124 S 
ATOM     87  O   UNL     1     -15.773  17.273  -4.577  1.00  0.00    -0.237 OA
ATOM     88  O   UNL     1     -16.573  15.012  -3.961  1.00  0.00    -0.237 OA
ATOM     89  O   UNL     1     -15.329  16.372  -2.324  1.00  0.00    -0.744 OA
ENDBRANCH  82  86
ENDBRANCH  55  79
BRANCH  67  90
ATOM     90  C   UNL     1     -13.509  18.285 -12.122  1.00  0.00     0.023 A 
ATOM     91  C   UNL     1     -12.657  19.327 -11.714  1.00  0.00     0.031 A 
ATOM     92  C   UNL     1     -14.705  18.631 -12.775  1.00  0.00     0.131 A 
ATOM     93  C   UNL     1     -13.039  20.662 -11.911  1.00  0.00     0.055 A 
ATOM     94  C   UNL     1     -15.045  19.959 -13.035  1.00  0.00     0.041 A 
ATOM     95  F   UNL     1     -15.563  17.681 -13.180  1.00  0.00    -0.206 F 
ATOM     96  C   UNL     1     -14.216  20.985 -12.590  1.00  0.00     0.022 A 
BRANCH  93  97
ATOM     97  S   UNL     1     -12.028  21.974 -11.171  1.00  0.00     0.124 S 
ATOM     98  O   UNL     1     -12.076  21.628  -9.754  1.00  0.00    -0.237 OA
ATOM     99  O   UNL     1     -10.740  21.786 -11.830  1.00  0.00    -0.237 OA
ATOM    100  O   UNL     1     -12.738  23.199 -11.534  1.00  0.00    -0.744 OA
ENDBRANCH  93  97
ENDBRANCH  67  90
ENDBRANCH  41  42
ENDBRANCH  33  36
ENDBRANCH  31  32
ENDBRANCH  30  31
ENDBRANCH   1  30
TORSDOF 18
