REMARK SMILES CCc1n[nH]c(C(=O)N[C@@]2(C(=O)NCCCCNC(=O)c3ccc(-c4c5nc(c(-c6cc(S(=O)(=O)[O-])ccc6F)c6ccc([nH]6)c(-c6cc(S(=O)(=O)[O-])ccc6F)c6nc(c(-c7cc(S(=O)(=O)[O-])ccc7F)c7ccc4[nH]7)C=C6)C=C5)cc3)CCCC[C@H]2C)n1
REMARK SMILES IDX 15 1 14 2 13 3 11 4 12 5 10 7 84 8 88 9 85 10 87 11 89 12
REMARK SMILES IDX 86 13 9 14 7 15 8 16 6 18 3 19 4 20 90 21 5 22 2 24 1 25
REMARK SMILES IDX 16 26 17 27 18 28 19 29 20 31 21 32 22 33 83 34 23 35 82 36
REMARK SMILES IDX 24 37 25 38 26 39 76 40 27 41 81 42 75 43 77 44 28 45 80 46
REMARK SMILES IDX 74 47 73 48 29 50 61 51 41 52 60 53 42 54 45 55 59 56 78 57
REMARK SMILES IDX 43 58 44 59 58 61 79 62 46 63 30 64 31 65 39 66 32 67 38 68
REMARK SMILES IDX 40 69 37 70 33 71 34 72 35 73 36 74 62 75 63 76 71 77 64 78
REMARK SMILES IDX 70 79 72 80 69 81 65 82 66 83 67 84 68 85 47 86 48 87 56 88
REMARK SMILES IDX 49 89 55 90 57 91 54 92 50 93 51 94 52 95 53 96
REMARK H PARENT 13 6 9 17 5 23 18 30 77 49 45 60
REMARK Flexibility Score: inf
ROOT
ATOM      1  C   UNL     1       2.792   4.654   1.670  1.00  0.00     0.023 C 
ENDROOT
BRANCH   1   2
ATOM      2  C   UNL     1       2.163   3.265   1.594  1.00  0.00     0.116 C 
BRANCH   2   3
ATOM      3  N   UNL     1       3.076   2.229   2.028  1.00  0.00    -0.354 N 
ATOM      4  C   UNL     1       3.069   1.373   3.086  1.00  0.00     0.246 C 
ATOM      5  O   UNL     1       4.122   0.741   3.254  1.00  0.00    -0.272 OA
ATOM      6  H   UNL     1       3.859   2.123   1.441  1.00  0.00     0.163 HD
BRANCH   4   7
ATOM      7  C   UNL     1       1.891   1.274   4.129  1.00  0.00     0.122 C 
ATOM      8  C   UNL     1       0.471   1.067   3.524  1.00  0.00     0.039 C 
ATOM      9  C   UNL     1       1.887   2.615   4.964  1.00  0.00     0.021 C 
ATOM     10  C   UNL     1      -0.651   1.145   4.555  1.00  0.00     0.003 C 
ATOM     11  C   UNL     1       0.716   2.695   5.961  1.00  0.00     0.006 C 
ATOM     12  C   UNL     1       3.201   2.915   5.703  1.00  0.00     0.011 C 
ATOM     13  C   UNL     1      -0.628   2.476   5.281  1.00  0.00     0.000 C 
BRANCH   7  14
ATOM     14  N   UNL     1       2.224   0.133   5.038  1.00  0.00    -0.335 N 
ATOM     15  C   UNL     1       2.299  -1.226   4.811  1.00  0.00     0.289 C 
ATOM     16  O   UNL     1       2.544  -1.940   5.788  1.00  0.00    -0.266 OA
ATOM     17  H   UNL     1       2.426   0.399   5.964  1.00  0.00     0.165 HD
BRANCH  15  18
ATOM     18  C   UNL     1       2.022  -1.800   3.515  1.00  0.00     0.214 A 
ATOM     19  C   UNL     1       1.441  -2.141   1.508  1.00  0.00     0.151 A 
ATOM     20  N   UNL     1       1.258  -3.341   2.075  1.00  0.00    -0.158 NA
ATOM     21  N   UNL     1       1.958  -1.193   2.347  1.00  0.00    -0.207 NA
ATOM     22  N   UNL     1       1.696  -3.112   3.328  1.00  0.00    -0.255 N 
ATOM     23  H   UNL     1       1.773  -3.806   4.022  1.00  0.00     0.192 HD
BRANCH  19  24
ATOM     24  C   UNL     1       0.984  -1.818   0.129  1.00  0.00     0.076 C 
ATOM     25  C   UNL     1       1.232  -0.369  -0.272  1.00  0.00     0.012 C 
ENDBRANCH  19  24
ENDBRANCH  15  18
ENDBRANCH   7  14
ENDBRANCH   4   7
ENDBRANCH   2   3
ENDBRANCH   1   2
BRANCH   1  26
ATOM     26  C   UNL     1       3.931   4.911   0.684  1.00  0.00     0.023 C 
BRANCH  26  27
ATOM     27  C   UNL     1       3.624   4.593  -0.776  1.00  0.00     0.116 C 
BRANCH  27  28
ATOM     28  N   UNL     1       2.418   5.244  -1.265  1.00  0.00    -0.352 N 
ATOM     29  C   UNL     1       2.205   5.907  -2.451  1.00  0.00     0.251 C 
ATOM     30  H   UNL     1       1.643   5.205  -0.659  1.00  0.00     0.163 HD
ATOM     31  O   UNL     1       1.143   6.485  -2.641  1.00  0.00    -0.269 OA
BRANCH  29  32
ATOM     32  C   UNL     1       3.278   5.950  -3.469  1.00  0.00     0.039 A 
ATOM     33  C   UNL     1       3.607   7.179  -4.046  1.00  0.00     0.014 A 
ATOM     34  C   UNL     1       3.974   4.794  -3.830  1.00  0.00     0.014 A 
ATOM     35  C   UNL     1       4.688   7.262  -4.928  1.00  0.00     0.010 A 
ATOM     36  C   UNL     1       5.093   4.891  -4.654  1.00  0.00     0.010 A 
ATOM     37  C   UNL     1       5.465   6.126  -5.206  1.00  0.00    -0.014 A 
BRANCH  37  38
ATOM     38  C   UNL     1       6.678   6.211  -6.062  1.00  0.00     0.031 A 
ATOM     39  C   UNL     1       6.731   5.461  -7.366  1.00  0.00     0.074 A 
ATOM     40  C   UNL     1       7.756   6.892  -5.625  1.00  0.00     0.049 A 
ATOM     41  N   UNL     1       7.728   5.325  -8.201  1.00  0.00    -0.248 NA
ATOM     42  C   UNL     1       5.510   4.744  -7.767  1.00  0.00     0.031 C 
ATOM     43  C   UNL     1       7.842   7.615  -4.353  1.00  0.00     0.029 A 
ATOM     44  N   UNL     1       8.995   7.074  -6.189  1.00  0.00    -0.354 N 
ATOM     45  C   UNL     1       7.267   4.486  -9.210  1.00  0.00     0.074 A 
ATOM     46  C   UNL     1       5.913   4.113  -8.860  1.00  0.00     0.031 C 
ATOM     47  C   UNL     1       9.061   8.166  -4.239  1.00  0.00     0.029 A 
ATOM     48  C   UNL     1       9.860   7.804  -5.405  1.00  0.00     0.049 A 
ATOM     49  H   UNL     1       9.242   6.716  -7.072  1.00  0.00     0.167 HD
ATOM     50  C   UNL     1       7.910   4.079 -10.332  1.00  0.00     0.034 A 
ATOM     51  C   UNL     1      11.155   8.129  -5.596  1.00  0.00     0.034 A 
ATOM     52  C   UNL     1       9.246   4.489 -10.684  1.00  0.00     0.049 A 
ATOM     53  C   UNL     1      11.838   7.679  -6.864  1.00  0.00     0.074 A 
ATOM     54  C   UNL     1       9.956   4.208 -11.840  1.00  0.00     0.029 A 
ATOM     55  N   UNL     1      10.078   5.263  -9.886  1.00  0.00    -0.354 N 
ATOM     56  N   UNL     1      11.359   6.948  -7.845  1.00  0.00    -0.248 NA
ATOM     57  C   UNL     1      13.229   8.108  -7.058  1.00  0.00     0.031 C 
ATOM     58  C   UNL     1      11.236   4.758 -11.713  1.00  0.00     0.029 A 
ATOM     59  C   UNL     1      11.303   5.443 -10.511  1.00  0.00     0.049 A 
ATOM     60  H   UNL     1       9.834   5.630  -9.006  1.00  0.00     0.167 HD
ATOM     61  C   UNL     1      12.382   6.861  -8.785  1.00  0.00     0.074 A 
ATOM     62  C   UNL     1      13.495   7.626  -8.263  1.00  0.00     0.031 C 
ATOM     63  C   UNL     1      12.401   6.209  -9.976  1.00  0.00     0.034 A 
BRANCH  50  64
ATOM     64  C   UNL     1       7.188   3.123 -11.248  1.00  0.00     0.023 A 
ATOM     65  C   UNL     1       6.028   3.498 -11.947  1.00  0.00     0.031 A 
ATOM     66  C   UNL     1       7.674   1.816 -11.430  1.00  0.00     0.131 A 
ATOM     67  C   UNL     1       5.363   2.561 -12.752  1.00  0.00     0.055 A 
ATOM     68  C   UNL     1       7.048   0.910 -12.287  1.00  0.00     0.041 A 
ATOM     69  F   UNL     1       8.767   1.396 -10.772  1.00  0.00    -0.206 F 
ATOM     70  C   UNL     1       5.879   1.278 -12.947  1.00  0.00     0.022 A 
BRANCH  67  71
ATOM     71  S   UNL     1       3.756   3.011 -13.462  1.00  0.00     0.124 S 
ATOM     72  O   UNL     1       2.956   3.233 -12.260  1.00  0.00    -0.237 OA
ATOM     73  O   UNL     1       4.077   4.200 -14.244  1.00  0.00    -0.237 OA
ATOM     74  O   UNL     1       3.384   1.833 -14.242  1.00  0.00    -0.744 OA
ENDBRANCH  67  71
ENDBRANCH  50  64
BRANCH  51  75
ATOM     75  C   UNL     1      11.909   8.899  -4.563  1.00  0.00     0.023 A 
ATOM     76  C   UNL     1      12.425  10.174  -4.843  1.00  0.00     0.031 A 
ATOM     77  C   UNL     1      12.184   8.341  -3.302  1.00  0.00     0.131 A 
ATOM     78  C   UNL     1      13.241  10.822  -3.903  1.00  0.00     0.055 A 
ATOM     79  C   UNL     1      12.948   9.014  -2.347  1.00  0.00     0.041 A 
ATOM     80  F   UNL     1      11.710   7.127  -2.978  1.00  0.00    -0.206 F 
ATOM     81  C   UNL     1      13.497  10.255  -2.653  1.00  0.00     0.022 A 
BRANCH  78  82
ATOM     82  S   UNL     1      14.059  12.368  -4.384  1.00  0.00     0.124 S 
ATOM     83  O   UNL     1      14.753  11.972  -5.604  1.00  0.00    -0.237 OA
ATOM     84  O   UNL     1      12.924  13.268  -4.555  1.00  0.00    -0.237 OA
ATOM     85  O   UNL     1      14.922  12.665  -3.243  1.00  0.00    -0.744 OA
ENDBRANCH  78  82
ENDBRANCH  51  75
BRANCH  63  86
ATOM     86  C   UNL     1      13.649   6.346 -10.812  1.00  0.00     0.023 A 
ATOM     87  C   UNL     1      14.872   5.781 -10.413  1.00  0.00     0.031 A 
ATOM     88  C   UNL     1      13.611   7.062 -12.021  1.00  0.00     0.131 A 
ATOM     89  C   UNL     1      16.022   5.987 -11.190  1.00  0.00     0.055 A 
ATOM     90  C   UNL     1      14.745   7.215 -12.819  1.00  0.00     0.041 A 
ATOM     91  F   UNL     1      12.469   7.623 -12.448  1.00  0.00    -0.206 F 
ATOM     92  C   UNL     1      15.963   6.686 -12.399  1.00  0.00     0.022 A 
BRANCH  89  93
ATOM     93  S   UNL     1      17.617   5.400 -10.559  1.00  0.00     0.124 S 
ATOM     94  O   UNL     1      17.724   6.115  -9.291  1.00  0.00    -0.237 OA
ATOM     95  O   UNL     1      17.404   3.959 -10.462  1.00  0.00    -0.237 OA
ATOM     96  O   UNL     1      18.568   5.816 -11.588  1.00  0.00    -0.744 OA
ENDBRANCH  89  93
ENDBRANCH  63  86
ENDBRANCH  37  38
ENDBRANCH  29  32
ENDBRANCH  27  28
ENDBRANCH  26  27
ENDBRANCH   1  26
TORSDOF 17
