REMARK SMILES CC1(C)[C@@H](C(=O)NCCCCNC(=O)c2ccc(-c3c4nc(c(-c5cc(S(=O)(=O)[O-])ccc5F)c5ccc([nH]5)c(-c5cc(S(=O)(=O)[O-])ccc5F)c5nc(c(-c6cc(S(=O)(=O)[O-])ccc6F)c6ccc3[nH]6)C=C5)C=C4)cc2)CC[C@@]1(C)C(N)=O
REMARK SMILES IDX 10 1 9 2 8 3 7 4 5 5 6 6 4 8 1 9 2 10 3 11 80 12 78 13 79 14
REMARK SMILES IDX 81 15 82 16 83 17 84 18 11 21 12 22 13 23 14 25 15 26 16 27
REMARK SMILES IDX 77 28 17 29 76 30 18 31 19 32 20 33 70 34 21 35 75 36 69 37
REMARK SMILES IDX 71 38 22 39 74 40 68 41 67 42 23 44 55 45 35 46 54 47 36 48
REMARK SMILES IDX 39 49 53 50 72 51 37 52 38 53 52 55 73 56 40 57 24 58 25 59
REMARK SMILES IDX 33 60 26 61 32 62 34 63 31 64 27 65 28 66 29 67 30 68 56 69
REMARK SMILES IDX 57 70 65 71 58 72 64 73 66 74 63 75 59 76 60 77 61 78 62 79
REMARK SMILES IDX 41 80 42 81 50 82 43 83 49 84 51 85 48 86 44 87 45 88 46 89
REMARK SMILES IDX 47 90
REMARK H PARENT 7 7 83 19 83 20 12 24 71 43 39 54
REMARK Flexibility Score: inf
ROOT
ATOM      1  C   UNL     1      -2.651   4.667   3.844  1.00  0.00     0.023 C 
ENDROOT
BRANCH   1   2
ATOM      2  C   UNL     1      -2.380   4.521   2.345  1.00  0.00     0.023 C 
BRANCH   2   3
ATOM      3  C   UNL     1      -1.032   3.879   2.014  1.00  0.00     0.116 C 
BRANCH   3   4
ATOM      4  N   UNL     1      -1.122   2.434   2.027  1.00  0.00    -0.356 N 
ATOM      5  C   UNL     1      -1.171   1.470   1.081  1.00  0.00     0.223 C 
ATOM      6  O   UNL     1      -1.476   0.341   1.491  1.00  0.00    -0.275 OA
ATOM      7  H   UNL     1      -1.155   2.067   2.941  1.00  0.00     0.163 HD
BRANCH   5   8
ATOM      8  C   UNL     1      -0.864   1.638  -0.417  1.00  0.00     0.085 C 
ATOM      9  C   UNL     1       1.004  -0.171  -0.174  1.00  0.00     0.013 C 
ATOM     10  C   UNL     1       0.533   1.113  -0.884  1.00  0.00    -0.010 C 
ATOM     11  C   UNL     1       0.413   0.694  -2.386  1.00  0.00     0.013 C 
ATOM     12  C   UNL     1       1.452   2.385  -0.722  1.00  0.00     0.052 C 
ATOM     13  C   UNL     1      -0.943   3.016  -1.063  1.00  0.00     0.015 C 
ATOM     14  C   UNL     1       0.500   3.547  -1.138  1.00  0.00     0.018 C 
ATOM     15  C   UNL     1       2.692   2.369  -1.640  1.00  0.00     0.022 C 
BRANCH  12  16
ATOM     16  C   UNL     1       2.004   2.612   0.712  1.00  0.00     0.223 C 
ATOM     17  N   UNL     1       2.557   3.830   0.979  1.00  0.00    -0.369 N 
ATOM     18  O   UNL     1       2.061   1.761   1.591  1.00  0.00    -0.275 OA
ATOM     19  H   UNL     1       2.533   4.541   0.299  1.00  0.00     0.159 HD
ATOM     20  H   UNL     1       2.980   3.997   1.852  1.00  0.00     0.159 HD
ENDBRANCH  12  16
ENDBRANCH   5   8
ENDBRANCH   3   4
ENDBRANCH   2   3
ENDBRANCH   1   2
BRANCH   1  21
ATOM     21  C   UNL     1      -1.609   5.469   4.620  1.00  0.00     0.116 C 
BRANCH  21  22
ATOM     22  N   UNL     1      -1.341   6.784   4.053  1.00  0.00    -0.352 N 
ATOM     23  C   UNL     1      -1.006   7.941   4.717  1.00  0.00     0.251 C 
ATOM     24  H   UNL     1      -1.407   6.854   3.073  1.00  0.00     0.163 HD
ATOM     25  O   UNL     1      -0.885   8.997   4.104  1.00  0.00    -0.269 OA
BRANCH  23  26
ATOM     26  C   UNL     1      -0.843   7.893   6.184  1.00  0.00     0.039 A 
ATOM     27  C   UNL     1      -1.598   8.758   6.978  1.00  0.00     0.014 A 
ATOM     28  C   UNL     1      -0.012   6.932   6.766  1.00  0.00     0.014 A 
ATOM     29  C   UNL     1      -1.582   8.603   8.366  1.00  0.00     0.010 A 
ATOM     30  C   UNL     1      -0.052   6.736   8.141  1.00  0.00     0.010 A 
ATOM     31  C   UNL     1      -0.844   7.564   8.954  1.00  0.00    -0.014 A 
BRANCH  31  32
ATOM     32  C   UNL     1      -0.878   7.318  10.418  1.00  0.00     0.031 A 
ATOM     33  C   UNL     1       0.381   7.465  11.226  1.00  0.00     0.074 A 
ATOM     34  C   UNL     1      -2.012   6.878  10.998  1.00  0.00     0.049 A 
ATOM     35  N   UNL     1       0.599   7.177  12.482  1.00  0.00    -0.248 NA
ATOM     36  C   UNL     1       1.562   7.968  10.509  1.00  0.00     0.031 C 
ATOM     37  C   UNL     1      -3.285   6.654  10.308  1.00  0.00     0.029 A 
ATOM     38  N   UNL     1      -2.275   6.524  12.298  1.00  0.00    -0.354 N 
ATOM     39  C   UNL     1       1.947   7.441  12.702  1.00  0.00     0.074 A 
ATOM     40  C   UNL     1       2.505   7.855  11.431  1.00  0.00     0.031 C 
ATOM     41  C   UNL     1      -4.195   6.216  11.194  1.00  0.00     0.029 A 
ATOM     42  C   UNL     1      -3.563   6.087  12.503  1.00  0.00     0.049 A 
ATOM     43  H   UNL     1      -1.604   6.578  13.016  1.00  0.00     0.167 HD
ATOM     44  C   UNL     1       2.648   7.368  13.861  1.00  0.00     0.034 A 
ATOM     45  C   UNL     1      -4.162   5.622  13.618  1.00  0.00     0.034 A 
ATOM     46  C   UNL     1       2.069   6.973  15.121  1.00  0.00     0.049 A 
ATOM     47  C   UNL     1      -3.364   5.547  14.895  1.00  0.00     0.074 A 
ATOM     48  C   UNL     1       2.670   6.915  16.367  1.00  0.00     0.029 A 
ATOM     49  N   UNL     1       0.752   6.565  15.297  1.00  0.00    -0.354 N 
ATOM     50  N   UNL     1      -2.100   5.843  15.097  1.00  0.00    -0.248 NA
ATOM     51  C   UNL     1      -4.075   5.087  16.094  1.00  0.00     0.031 C 
ATOM     52  C   UNL     1       1.734   6.421  17.283  1.00  0.00     0.029 A 
ATOM     53  C   UNL     1       0.529   6.235  16.624  1.00  0.00     0.049 A 
ATOM     54  H   UNL     1       0.077   6.517  14.582  1.00  0.00     0.167 HD
ATOM     55  C   UNL     1      -1.876   5.636  16.455  1.00  0.00     0.074 A 
ATOM     56  C   UNL     1      -3.135   5.199  17.022  1.00  0.00     0.031 C 
ATOM     57  C   UNL     1      -0.734   5.798  17.171  1.00  0.00     0.034 A 
BRANCH  44  58
ATOM     58  C   UNL     1       4.119   7.701  13.799  1.00  0.00     0.023 A 
ATOM     59  C   UNL     1       4.569   8.980  13.425  1.00  0.00     0.031 A 
ATOM     60  C   UNL     1       5.086   6.718  14.071  1.00  0.00     0.131 A 
ATOM     61  C   UNL     1       5.940   9.217  13.247  1.00  0.00     0.055 A 
ATOM     62  C   UNL     1       6.454   6.985  13.977  1.00  0.00     0.041 A 
ATOM     63  F   UNL     1       4.719   5.473  14.413  1.00  0.00    -0.206 F 
ATOM     64  C   UNL     1       6.888   8.236  13.546  1.00  0.00     0.022 A 
BRANCH  61  65
ATOM     65  S   UNL     1       6.454  10.773  12.472  1.00  0.00     0.124 S 
ATOM     66  O   UNL     1       5.777  10.695  11.179  1.00  0.00    -0.237 OA
ATOM     67  O   UNL     1       5.943  11.774  13.401  1.00  0.00    -0.237 OA
ATOM     68  O   UNL     1       7.910  10.662  12.412  1.00  0.00    -0.744 OA
ENDBRANCH  61  65
ENDBRANCH  44  58
BRANCH  45  69
ATOM     69  C   UNL     1      -5.586   5.185  13.585  1.00  0.00     0.023 A 
ATOM     70  C   UNL     1      -6.572   5.883  14.300  1.00  0.00     0.031 A 
ATOM     71  C   UNL     1      -5.977   4.039  12.870  1.00  0.00     0.131 A 
ATOM     72  C   UNL     1      -7.891   5.405  14.323  1.00  0.00     0.055 A 
ATOM     73  C   UNL     1      -7.300   3.594  12.857  1.00  0.00     0.041 A 
ATOM     74  F   UNL     1      -5.075   3.340  12.162  1.00  0.00    -0.206 F 
ATOM     75  C   UNL     1      -8.264   4.271  13.598  1.00  0.00     0.022 A 
BRANCH  72  76
ATOM     76  S   UNL     1      -9.101   6.246  15.382  1.00  0.00     0.124 S 
ATOM     77  O   UNL     1      -8.476   6.133  16.695  1.00  0.00    -0.237 OA
ATOM     78  O   UNL     1      -9.134   7.583  14.799  1.00  0.00    -0.237 OA
ATOM     79  O   UNL     1     -10.318   5.459  15.199  1.00  0.00    -0.744 OA
ENDBRANCH  72  76
ENDBRANCH  45  69
BRANCH  57  80
ATOM     80  C   UNL     1      -0.818   5.554  18.657  1.00  0.00     0.023 A 
ATOM     81  C   UNL     1      -1.015   4.269  19.188  1.00  0.00     0.031 A 
ATOM     82  C   UNL     1      -0.700   6.632  19.552  1.00  0.00     0.131 A 
ATOM     83  C   UNL     1      -1.138   4.099  20.575  1.00  0.00     0.055 A 
ATOM     84  C   UNL     1      -0.769   6.450  20.933  1.00  0.00     0.041 A 
ATOM     85  F   UNL     1      -0.511   7.881  19.096  1.00  0.00    -0.206 F 
ATOM     86  C   UNL     1      -1.000   5.179  21.451  1.00  0.00     0.022 A 
BRANCH  83  87
ATOM     87  S   UNL     1      -1.555   2.456  21.219  1.00  0.00     0.124 S 
ATOM     88  O   UNL     1      -2.836   2.191  20.571  1.00  0.00    -0.237 OA
ATOM     89  O   UNL     1      -0.430   1.646  20.763  1.00  0.00    -0.237 OA
ATOM     90  O   UNL     1      -1.623   2.661  22.665  1.00  0.00    -0.744 OA
ENDBRANCH  83  87
ENDBRANCH  57  80
ENDBRANCH  31  32
ENDBRANCH  23  26
ENDBRANCH  21  22
ENDBRANCH   1  21
TORSDOF 15
