REMARK SMILES CSc1ccc(C[C@H]([NH3+])C(=O)NCCCCNC(=O)c2ccc(-c3c4nc(c(-c5cc(S(=O)(=O)[O-])ccc5F)c5ccc([nH]5)c(-c5cc(S(=O)(=O)[O-])ccc5F)c5nc(c(-c6cc(S(=O)(=O)[O-])ccc6F)c6ccc3[nH]6)C=C5)C=C4)cc2)cc1
REMARK SMILES IDX 14 1 13 2 12 3 10 4 11 5 8 7 7 8 6 9 3 10 4 11 84 12 5 13
REMARK SMILES IDX 83 14 2 15 1 16 9 17 15 21 16 22 17 23 18 24 19 26 20 27
REMARK SMILES IDX 21 28 82 29 22 30 81 31 23 32 24 33 25 34 75 35 26 36 80 37
REMARK SMILES IDX 74 38 76 39 27 40 79 41 73 42 72 43 28 45 60 46 40 47 59 48
REMARK SMILES IDX 41 49 44 50 58 51 77 52 42 53 43 54 57 56 78 57 45 58 29 59
REMARK SMILES IDX 30 60 38 61 31 62 37 63 39 64 36 65 32 66 33 67 34 68 35 69
REMARK SMILES IDX 61 70 62 71 70 72 63 73 69 74 71 75 68 76 64 77 65 78 66 79
REMARK SMILES IDX 67 80 46 81 47 82 55 83 48 84 54 85 56 86 53 87 49 88 50 89
REMARK SMILES IDX 51 90 52 91
REMARK H PARENT 12 6 9 18 9 19 9 20 17 25 76 44 44 55
REMARK Flexibility Score: inf
ROOT
ATOM      1  C   UNL     1       4.857   8.415   3.349  1.00  0.00     0.023 C 
ENDROOT
BRANCH   1   2
ATOM      2  C   UNL     1       3.775   7.612   4.051  1.00  0.00     0.116 C 
BRANCH   2   3
ATOM      3  N   UNL     1       2.530   8.312   4.258  1.00  0.00    -0.351 N 
ATOM      4  C   UNL     1       1.250   7.849   4.152  1.00  0.00     0.278 C 
ATOM      5  O   UNL     1       0.353   8.569   4.605  1.00  0.00    -0.268 OA
ATOM      6  H   UNL     1       2.615   9.260   4.513  1.00  0.00     0.163 HD
BRANCH   4   7
ATOM      7  C   UNL     1       0.884   6.519   3.438  1.00  0.00     0.275 C 
BRANCH   7   8
ATOM      8  C   UNL     1       1.125   5.216   4.241  1.00  0.00     0.111 C 
BRANCH   8   9
ATOM      9  C   UNL     1       2.539   4.714   4.427  1.00  0.00    -0.041 A 
ATOM     10  C   UNL     1       5.269   4.041   4.731  1.00  0.00     0.007 A 
ATOM     11  C   UNL     1       4.638   3.903   3.493  1.00  0.00     0.015 A 
ATOM     12  C   UNL     1       4.504   4.444   5.832  1.00  0.00     0.015 A 
ATOM     13  C   UNL     1       3.281   4.219   3.345  1.00  0.00     0.005 A 
ATOM     14  C   UNL     1       3.152   4.774   5.685  1.00  0.00     0.005 A 
BRANCH  10  15
ATOM     15  S   UNL     1       6.998   3.704   5.006  1.00  0.00    -0.130 SA
ATOM     16  C   UNL     1       7.752   4.157   3.419  1.00  0.00     0.091 C 
ENDBRANCH  10  15
ENDBRANCH   8   9
ENDBRANCH   7   8
BRANCH   7  17
ATOM     17  N   UNL     1       1.333   6.522   2.024  1.00  0.00    -0.347 N 
ATOM     18  H   UNL     1       2.352   6.548   1.991  1.00  0.00     0.345 HD
ATOM     19  H   UNL     1       0.957   7.343   1.550  1.00  0.00     0.345 HD
ATOM     20  H   UNL     1       0.999   5.678   1.559  1.00  0.00     0.345 HD
ENDBRANCH   7  17
ENDBRANCH   4   7
ENDBRANCH   2   3
ENDBRANCH   1   2
BRANCH   1  21
ATOM     21  C   UNL     1       5.540   9.468   4.210  1.00  0.00     0.023 C 
BRANCH  21  22
ATOM     22  C   UNL     1       6.090   8.976   5.545  1.00  0.00     0.116 C 
BRANCH  22  23
ATOM     23  N   UNL     1       7.032   7.872   5.422  1.00  0.00    -0.352 N 
ATOM     24  C   UNL     1       8.293   7.746   5.959  1.00  0.00     0.251 C 
ATOM     25  H   UNL     1       6.723   7.110   4.881  1.00  0.00     0.163 HD
ATOM     26  O   UNL     1       9.017   6.819   5.601  1.00  0.00    -0.269 OA
BRANCH  24  27
ATOM     27  C   UNL     1       8.787   8.753   6.926  1.00  0.00     0.039 A 
ATOM     28  C   UNL     1      10.101   9.211   6.817  1.00  0.00     0.014 A 
ATOM     29  C   UNL     1       7.950   9.265   7.921  1.00  0.00     0.014 A 
ATOM     30  C   UNL     1      10.548  10.234   7.656  1.00  0.00     0.010 A 
ATOM     31  C   UNL     1       8.361  10.355   8.680  1.00  0.00     0.010 A 
ATOM     32  C   UNL     1       9.670  10.843   8.569  1.00  0.00    -0.014 A 
BRANCH  32  33
ATOM     33  C   UNL     1      10.123  11.965   9.432  1.00  0.00     0.031 A 
ATOM     34  C   UNL     1      10.117  11.815  10.930  1.00  0.00     0.074 A 
ATOM     35  C   UNL     1      10.495  13.132   8.870  1.00  0.00     0.049 A 
ATOM     36  N   UNL     1      10.465  12.675  11.852  1.00  0.00    -0.248 NA
ATOM     37  C   UNL     1       9.611  10.541  11.459  1.00  0.00     0.031 C 
ATOM     38  C   UNL     1      10.468  13.425   7.435  1.00  0.00     0.029 A 
ATOM     39  N   UNL     1      10.968  14.289   9.435  1.00  0.00    -0.354 N 
ATOM     40  C   UNL     1      10.212  12.048  13.068  1.00  0.00     0.074 A 
ATOM     41  C   UNL     1       9.589  10.779  12.760  1.00  0.00     0.031 C 
ATOM     42  C   UNL     1      10.940  14.665   7.231  1.00  0.00     0.029 A 
ATOM     43  C   UNL     1      11.270  15.269   8.518  1.00  0.00     0.049 A 
ATOM     44  H   UNL     1      11.080  14.408  10.406  1.00  0.00     0.167 HD
ATOM     45  C   UNL     1      10.506  12.472  14.324  1.00  0.00     0.034 A 
ATOM     46  C   UNL     1      11.761  16.511   8.694  1.00  0.00     0.034 A 
ATOM     47  C   UNL     1      11.126  13.744  14.607  1.00  0.00     0.049 A 
ATOM     48  C   UNL     1      12.098  16.964  10.091  1.00  0.00     0.074 A 
ATOM     49  C   UNL     1      11.507  14.270  15.829  1.00  0.00     0.029 A 
ATOM     50  N   UNL     1      11.449  14.700  13.649  1.00  0.00    -0.354 N 
ATOM     51  N   UNL     1      11.918  16.334  11.230  1.00  0.00    -0.248 NA
ATOM     52  C   UNL     1      12.730  18.280  10.221  1.00  0.00     0.031 C 
ATOM     53  C   UNL     1      11.995  15.566  15.617  1.00  0.00     0.029 A 
ATOM     54  C   UNL     1      12.002  15.819  14.255  1.00  0.00     0.049 A 
ATOM     55  H   UNL     1      11.305  14.598  12.681  1.00  0.00     0.167 HD
ATOM     56  C   UNL     1      12.444  17.169  12.212  1.00  0.00     0.074 A 
ATOM     57  C   UNL     1      12.963  18.335  11.524  1.00  0.00     0.031 C 
ATOM     58  C   UNL     1      12.499  16.986  13.558  1.00  0.00     0.034 A 
BRANCH  45  59
ATOM     59  C   UNL     1      10.129  11.549  15.464  1.00  0.00     0.023 A 
ATOM     60  C   UNL     1      10.628  10.234  15.544  1.00  0.00     0.031 A 
ATOM     61  C   UNL     1       9.196  11.950  16.436  1.00  0.00     0.131 A 
ATOM     62  C   UNL     1      10.105   9.338  16.487  1.00  0.00     0.055 A 
ATOM     63  C   UNL     1       8.759  11.082  17.441  1.00  0.00     0.041 A 
ATOM     64  F   UNL     1       8.665  13.182  16.410  1.00  0.00    -0.206 F 
ATOM     65  C   UNL     1       9.193   9.760  17.455  1.00  0.00     0.022 A 
BRANCH  62  66
ATOM     66  S   UNL     1      10.473   7.570  16.294  1.00  0.00     0.124 S 
ATOM     67  O   UNL     1       9.995   7.318  14.936  1.00  0.00    -0.237 OA
ATOM     68  O   UNL     1      11.918   7.527  16.482  1.00  0.00    -0.237 OA
ATOM     69  O   UNL     1       9.684   6.939  17.349  1.00  0.00    -0.744 OA
ENDBRANCH  62  66
ENDBRANCH  45  59
BRANCH  46  70
ATOM     70  C   UNL     1      11.975  17.401   7.517  1.00  0.00     0.023 A 
ATOM     71  C   UNL     1      13.264  17.776   7.107  1.00  0.00     0.031 A 
ATOM     72  C   UNL     1      10.880  17.890   6.781  1.00  0.00     0.131 A 
ATOM     73  C   UNL     1      13.427  18.639   6.011  1.00  0.00     0.055 A 
ATOM     74  C   UNL     1      11.049  18.710   5.665  1.00  0.00     0.041 A 
ATOM     75  F   UNL     1       9.627  17.552   7.124  1.00  0.00    -0.206 F 
ATOM     76  C   UNL     1      12.328  19.097   5.280  1.00  0.00     0.022 A 
BRANCH  73  77
ATOM     77  S   UNL     1      15.098  19.198   5.580  1.00  0.00     0.124 S 
ATOM     78  O   UNL     1      15.505  19.890   6.797  1.00  0.00    -0.237 OA
ATOM     79  O   UNL     1      15.777  17.937   5.300  1.00  0.00    -0.237 OA
ATOM     80  O   UNL     1      14.880  20.055   4.416  1.00  0.00    -0.744 OA
ENDBRANCH  73  77
ENDBRANCH  46  70
BRANCH  58  81
ATOM     81  C   UNL     1      13.190  18.061  14.365  1.00  0.00     0.023 A 
ATOM     82  C   UNL     1      12.693  19.374  14.435  1.00  0.00     0.031 A 
ATOM     83  C   UNL     1      14.386  17.772  15.046  1.00  0.00     0.131 A 
ATOM     84  C   UNL     1      13.428  20.366  15.102  1.00  0.00     0.055 A 
ATOM     85  C   UNL     1      15.075  18.746  15.770  1.00  0.00     0.041 A 
ATOM     86  F   UNL     1      14.912  16.537  15.013  1.00  0.00    -0.206 F 
ATOM     87  C   UNL     1      14.607  20.057  15.785  1.00  0.00     0.022 A 
BRANCH  84  88
ATOM     88  S   UNL     1      12.895  22.094  14.950  1.00  0.00     0.124 S 
ATOM     89  O   UNL     1      12.842  22.268  13.501  1.00  0.00    -0.237 OA
ATOM     90  O   UNL     1      11.609  22.084  15.639  1.00  0.00    -0.237 OA
ATOM     91  O   UNL     1      13.956  22.840  15.624  1.00  0.00    -0.744 OA
ENDBRANCH  84  88
ENDBRANCH  58  81
ENDBRANCH  32  33
ENDBRANCH  24  27
ENDBRANCH  22  23
ENDBRANCH  21  22
ENDBRANCH   1  21
TORSDOF 18
