REMARK SMILES Cc1cccc(CNC(=O)N[C@@H](CC2=c3ccccc3=NC2)C(=O)NCCCCNC(=O)c2ccc(-c3c4nc(c(-c5cc(S(=O)(=O)[O-])ccc5F)c5ccc([nH]5)c(-c5cc(S(=O)(=O)[O-])ccc5F)c5nc(c(-c6cc(S(=O)(=O)[O-])ccc6F)c6ccc3[nH]6)C=C5)C=C4)cc2)c1
REMARK SMILES IDX 27 1 26 2 25 3 23 4 24 5 12 7 11 8 8 9 9 10 10 12 7 14 6 15
REMARK SMILES IDX 1 16 2 17 3 18 96 19 4 20 5 21 13 22 14 23 15 24 22 25 16 26
REMARK SMILES IDX 20 27 21 28 17 29 19 30 18 31 28 32 29 33 30 34 31 35 32 37
REMARK SMILES IDX 33 38 34 39 95 40 35 41 94 42 36 43 37 44 38 45 88 46 39 47
REMARK SMILES IDX 93 48 87 49 89 50 40 51 92 52 86 53 85 54 41 56 73 57 53 58
REMARK SMILES IDX 72 59 54 60 57 61 71 62 90 63 55 64 56 65 70 67 91 68 58 69
REMARK SMILES IDX 42 70 43 71 51 72 44 73 50 74 52 75 49 76 45 77 46 78 47 79
REMARK SMILES IDX 48 80 74 81 75 82 83 83 76 84 82 85 84 86 81 87 77 88 78 89
REMARK SMILES IDX 79 90 80 91 59 92 60 93 68 94 61 95 67 96 69 97 66 98 62 99
REMARK SMILES IDX 63 100 64 101 65 102
REMARK H PARENT 25 6 8 11 11 13 30 36 89 55 57 66
REMARK Flexibility Score: inf
ROOT
ATOM      1  C   UNL     1      -8.590   1.975   0.620  1.00  0.00     0.023 C 
ENDROOT
BRANCH   1   2
ATOM      2  C   UNL     1      -7.328   2.481   1.337  1.00  0.00     0.116 C 
BRANCH   2   3
ATOM      3  N   UNL     1      -6.285   1.465   1.436  1.00  0.00    -0.354 N 
ATOM      4  C   UNL     1      -4.927   1.511   1.454  1.00  0.00     0.242 C 
ATOM      5  O   UNL     1      -4.366   0.442   1.748  1.00  0.00    -0.273 OA
ATOM      6  H   UNL     1      -6.643   0.550   1.502  1.00  0.00     0.163 HD
BRANCH   4   7
ATOM      7  C   UNL     1      -4.053   2.768   1.181  1.00  0.00     0.177 C 
BRANCH   7   8
ATOM      8  N   UNL     1      -4.372   3.361  -0.117  1.00  0.00    -0.326 N 
ATOM      9  N   UNL     1      -2.621   2.610  -1.510  1.00  0.00    -0.334 N 
ATOM     10  C   UNL     1      -3.865   3.075  -1.327  1.00  0.00     0.315 C 
ATOM     11  H   UNL     1      -2.503   2.124  -2.358  1.00  0.00     0.165 HD
ATOM     12  O   UNL     1      -4.569   3.248  -2.323  1.00  0.00    -0.249 OA
ATOM     13  H   UNL     1      -5.055   4.069  -0.102  1.00  0.00     0.166 HD
BRANCH   9  14
ATOM     14  C   UNL     1      -1.413   2.677  -0.707  1.00  0.00     0.153 C 
BRANCH  14  15
ATOM     15  C   UNL     1      -0.795   1.319  -0.457  1.00  0.00    -0.028 A 
ATOM     16  C   UNL     1       2.694  -0.170   0.037  1.00  0.00     0.044 C 
ATOM     17  C   UNL     1       1.204  -0.042  -0.073  1.00  0.00    -0.051 A 
ATOM     18  C   UNL     1       0.399  -1.180   0.046  1.00  0.00     0.003 A 
ATOM     19  C   UNL     1       0.600   1.201  -0.323  1.00  0.00     0.009 A 
ATOM     20  C   UNL     1      -0.985  -1.074  -0.059  1.00  0.00     0.001 A 
ATOM     21  C   UNL     1      -1.577   0.166  -0.303  1.00  0.00     0.005 A 
ENDBRANCH  14  15
ENDBRANCH   9  14
ENDBRANCH   7   8
BRANCH   7  22
ATOM     22  C   UNL     1      -3.839   3.837   2.285  1.00  0.00     0.068 C 
BRANCH  22  23
ATOM     23  C   UNL     1      -4.885   3.942   3.334  1.00  0.00    -0.037 C 
ATOM     24  C   UNL     1      -5.189   3.005   4.227  1.00  0.00     0.001 A 
ATOM     25  C   UNL     1      -5.846   5.094   3.418  1.00  0.00     0.174 C 
ATOM     26  C   UNL     1      -4.645   1.738   4.592  1.00  0.00     0.010 A 
ATOM     27  C   UNL     1      -6.530   3.422   4.635  1.00  0.00     0.065 A 
ATOM     28  N   UNL     1      -6.936   4.601   4.291  1.00  0.00    -0.280 NA
ATOM     29  C   UNL     1      -5.438   0.855   5.219  1.00  0.00     0.001 A 
ATOM     30  C   UNL     1      -7.357   2.369   5.246  1.00  0.00     0.028 A 
ATOM     31  C   UNL     1      -6.827   1.162   5.490  1.00  0.00     0.002 A 
ENDBRANCH  22  23
ENDBRANCH   7  22
ENDBRANCH   4   7
ENDBRANCH   2   3
ENDBRANCH   1   2
BRANCH   1  32
ATOM     32  C   UNL     1      -9.314   0.790   1.280  1.00  0.00     0.023 C 
BRANCH  32  33
ATOM     33  C   UNL     1      -9.997   1.086   2.618  1.00  0.00     0.116 C 
BRANCH  33  34
ATOM     34  N   UNL     1     -11.418   1.401   2.509  1.00  0.00    -0.352 N 
ATOM     35  C   UNL     1     -12.350   1.652   3.506  1.00  0.00     0.251 C 
ATOM     36  H   UNL     1     -11.768   1.441   1.590  1.00  0.00     0.163 HD
ATOM     37  O   UNL     1     -13.516   1.875   3.226  1.00  0.00    -0.269 OA
BRANCH  35  38
ATOM     38  C   UNL     1     -11.912   1.720   4.923  1.00  0.00     0.039 A 
ATOM     39  C   UNL     1     -12.289   2.835   5.683  1.00  0.00     0.014 A 
ATOM     40  C   UNL     1     -11.052   0.773   5.466  1.00  0.00     0.014 A 
ATOM     41  C   UNL     1     -11.624   3.116   6.879  1.00  0.00     0.010 A 
ATOM     42  C   UNL     1     -10.354   1.079   6.624  1.00  0.00     0.010 A 
ATOM     43  C   UNL     1     -10.574   2.293   7.287  1.00  0.00    -0.014 A 
BRANCH  43  44
ATOM     44  C   UNL     1      -9.541   2.737   8.229  1.00  0.00     0.031 A 
ATOM     45  C   UNL     1      -9.310   2.067   9.527  1.00  0.00     0.074 A 
ATOM     46  C   UNL     1      -8.706   3.746   7.881  1.00  0.00     0.049 A 
ATOM     47  N   UNL     1      -8.804   2.657  10.559  1.00  0.00    -0.248 NA
ATOM     48  C   UNL     1      -9.658   0.677   9.785  1.00  0.00     0.031 C 
ATOM     49  C   UNL     1      -7.445   4.117   8.522  1.00  0.00     0.029 A 
ATOM     50  N   UNL     1      -8.913   4.749   6.942  1.00  0.00    -0.354 N 
ATOM     51  C   UNL     1      -8.484   1.695  11.488  1.00  0.00     0.074 A 
ATOM     52  C   UNL     1      -9.108   0.490  10.990  1.00  0.00     0.031 C 
ATOM     53  C   UNL     1      -7.105   5.358   8.139  1.00  0.00     0.029 A 
ATOM     54  C   UNL     1      -8.191   5.882   7.332  1.00  0.00     0.049 A 
ATOM     55  H   UNL     1      -9.473   4.674   6.136  1.00  0.00     0.167 HD
ATOM     56  C   UNL     1      -7.614   1.993  12.497  1.00  0.00     0.034 A 
ATOM     57  C   UNL     1      -8.823   7.075   7.511  1.00  0.00     0.034 A 
ATOM     58  C   UNL     1      -7.139   3.378  12.410  1.00  0.00     0.049 A 
ATOM     59  C   UNL     1      -8.752   7.541   8.952  1.00  0.00     0.074 A 
ATOM     60  C   UNL     1      -5.944   3.930  11.976  1.00  0.00     0.029 A 
ATOM     61  N   UNL     1      -8.027   4.439  12.565  1.00  0.00    -0.354 N 
ATOM     62  N   UNL     1      -8.380   6.785   9.949  1.00  0.00    -0.248 NA
ATOM     63  C   UNL     1      -9.102   8.889   9.386  1.00  0.00     0.031 C 
ATOM     64  C   UNL     1      -6.128   5.329  11.839  1.00  0.00     0.029 A 
ATOM     65  C   UNL     1      -7.426   5.634  12.213  1.00  0.00     0.049 A 
ATOM     66  H   UNL     1      -8.954   4.351  12.882  1.00  0.00     0.167 HD
ATOM     67  C   UNL     1      -8.449   7.488  11.126  1.00  0.00     0.074 A 
ATOM     68  C   UNL     1      -8.890   8.809  10.713  1.00  0.00     0.031 C 
ATOM     69  C   UNL     1      -8.139   6.904  12.326  1.00  0.00     0.034 A 
BRANCH  56  70
ATOM     70  C   UNL     1      -6.944   0.966  13.396  1.00  0.00     0.023 A 
ATOM     71  C   UNL     1      -5.699   1.275  13.991  1.00  0.00     0.031 A 
ATOM     72  C   UNL     1      -7.437  -0.319  13.691  1.00  0.00     0.131 A 
ATOM     73  C   UNL     1      -4.962   0.316  14.712  1.00  0.00     0.055 A 
ATOM     74  C   UNL     1      -6.683  -1.293  14.362  1.00  0.00     0.041 A 
ATOM     75  F   UNL     1      -8.695  -0.675  13.403  1.00  0.00    -0.206 F 
ATOM     76  C   UNL     1      -5.429  -0.984  14.863  1.00  0.00     0.022 A 
BRANCH  73  77
ATOM     77  S   UNL     1      -3.376   0.794  15.454  1.00  0.00     0.124 S 
ATOM     78  O   UNL     1      -2.608   1.228  14.292  1.00  0.00    -0.237 OA
ATOM     79  O   UNL     1      -3.775   1.835  16.394  1.00  0.00    -0.237 OA
ATOM     80  O   UNL     1      -2.905  -0.445  16.073  1.00  0.00    -0.744 OA
ENDBRANCH  73  77
ENDBRANCH  56  70
BRANCH  57  81
ATOM     81  C   UNL     1      -9.979   7.248   6.577  1.00  0.00     0.023 A 
ATOM     82  C   UNL     1      -9.714   7.289   5.183  1.00  0.00     0.031 A 
ATOM     83  C   UNL     1     -11.288   6.955   6.985  1.00  0.00     0.131 A 
ATOM     84  C   UNL     1     -10.712   6.939   4.257  1.00  0.00     0.055 A 
ATOM     85  C   UNL     1     -12.281   6.618   6.058  1.00  0.00     0.041 A 
ATOM     86  F   UNL     1     -11.591   6.856   8.288  1.00  0.00    -0.206 F 
ATOM     87  C   UNL     1     -11.987   6.574   4.694  1.00  0.00     0.022 A 
BRANCH  84  88
ATOM     88  S   UNL     1     -10.312   6.799   2.484  1.00  0.00     0.124 S 
ATOM     89  O   UNL     1     -10.539   8.163   2.018  1.00  0.00    -0.237 OA
ATOM     90  O   UNL     1      -8.923   6.355   2.465  1.00  0.00    -0.237 OA
ATOM     91  O   UNL     1     -11.267   5.804   1.999  1.00  0.00    -0.744 OA
ENDBRANCH  84  88
ENDBRANCH  57  81
BRANCH  69  92
ATOM     92  C   UNL     1      -8.363   7.494  13.709  1.00  0.00     0.023 A 
ATOM     93  C   UNL     1      -9.127   8.644  13.954  1.00  0.00     0.031 A 
ATOM     94  C   UNL     1      -7.847   6.857  14.868  1.00  0.00     0.131 A 
ATOM     95  C   UNL     1      -9.287   9.158  15.256  1.00  0.00     0.055 A 
ATOM     96  C   UNL     1      -8.066   7.327  16.168  1.00  0.00     0.041 A 
ATOM     97  F   UNL     1      -7.113   5.737  14.798  1.00  0.00    -0.206 F 
ATOM     98  C   UNL     1      -8.778   8.496  16.369  1.00  0.00     0.022 A 
BRANCH  95  99
ATOM     99  S   UNL     1     -10.131  10.750  15.454  1.00  0.00     0.124 S 
ATOM    100  O   UNL     1      -9.254  11.650  14.710  1.00  0.00    -0.237 OA
ATOM    101  O   UNL     1     -11.433  10.491  14.849  1.00  0.00    -0.237 OA
ATOM    102  O   UNL     1     -10.148  10.956  16.901  1.00  0.00    -0.744 OA
ENDBRANCH  95  99
ENDBRANCH  69  92
ENDBRANCH  43  44
ENDBRANCH  35  38
ENDBRANCH  33  34
ENDBRANCH  32  33
ENDBRANCH   1  32
TORSDOF 19
