REMARK SMILES COc1ccc(S(=O)(=O)Nc2c(C)cccc2C(=O)NCCCCNC(=O)c2ccc(-c3c4nc(c(-c5cc(S(=O)(=O)[O-])ccc5F)c5ccc([nH]5)c(-c5cc(S(=O)(=O)[O-])ccc5F)c5nc(c(-c6cc(S(=O)(=O)[O-])ccc6F)c6ccc3[nH]6)C=C5)C=C4)cc2)cc1
REMARK SMILES IDX 22 1 21 2 20 3 18 4 19 5 17 7 11 8 12 9 13 10 14 11 16 12
REMARK SMILES IDX 15 13 10 14 7 16 8 17 9 18 6 19 3 20 4 21 92 22 5 23 91 24
REMARK SMILES IDX 2 25 1 26 23 27 24 28 25 29 26 30 27 32 28 33 29 34 90 35
REMARK SMILES IDX 30 36 89 37 31 38 32 39 33 40 83 41 34 42 88 43 82 44 84 45
REMARK SMILES IDX 35 46 87 47 81 48 80 49 36 51 68 52 48 53 67 54 49 55 52 56
REMARK SMILES IDX 66 57 85 58 50 59 51 60 65 62 86 63 53 64 37 65 38 66 46 67
REMARK SMILES IDX 39 68 45 69 47 70 44 71 40 72 41 73 42 74 43 75 69 76 70 77
REMARK SMILES IDX 78 78 71 79 77 80 79 81 76 82 72 83 73 84 74 85 75 86 54 87
REMARK SMILES IDX 55 88 63 89 56 90 62 91 64 92 61 93 57 94 58 95 59 96 60 97
REMARK H PARENT 20 6 10 15 25 31 84 50 52 61
REMARK Flexibility Score: inf
ROOT
ATOM      1  C   UNL     1       3.832   8.545   3.613  1.00  0.00     0.023 C 
ENDROOT
BRANCH   1   2
ATOM      2  C   UNL     1       3.873   7.025   3.678  1.00  0.00     0.116 C 
BRANCH   2   3
ATOM      3  N   UNL     1       3.586   6.352   2.426  1.00  0.00    -0.352 N 
ATOM      4  C   UNL     1       3.839   5.055   2.047  1.00  0.00     0.253 C 
ATOM      5  O   UNL     1       3.517   4.699   0.914  1.00  0.00    -0.269 OA
ATOM      6  H   UNL     1       3.143   6.908   1.744  1.00  0.00     0.163 HD
BRANCH   4   7
ATOM      7  C   UNL     1       4.566   4.086   2.916  1.00  0.00     0.064 A 
ATOM      8  C   UNL     1       4.333   3.886   4.293  1.00  0.00     0.064 A 
ATOM      9  C   UNL     1       5.166   3.010   5.023  1.00  0.00    -0.026 A 
ATOM     10  C   UNL     1       5.089   2.822   6.514  1.00  0.00     0.046 C 
ATOM     11  C   UNL     1       6.132   2.252   4.335  1.00  0.00     0.005 A 
ATOM     12  C   UNL     1       5.529   3.301   2.257  1.00  0.00     0.016 A 
ATOM     13  C   UNL     1       6.297   2.378   2.959  1.00  0.00     0.001 A 
BRANCH   8  14
ATOM     14  N   UNL     1       3.211   4.511   4.925  1.00  0.00    -0.279 N 
ATOM     15  H   UNL     1       3.311   5.410   5.313  1.00  0.00     0.180 HD
BRANCH  14  16
ATOM     16  S   UNL     1       1.714   3.725   5.014  1.00  0.00     0.261 S 
ATOM     17  O   UNL     1       0.757   4.769   5.292  1.00  0.00    -0.201 OA
ATOM     18  O   UNL     1       1.877   2.615   5.936  1.00  0.00    -0.201 OA
BRANCH  16  19
ATOM     19  C   UNL     1       1.362   3.046   3.417  1.00  0.00     0.088 A 
ATOM     20  C   UNL     1       0.679   1.771   1.023  1.00  0.00     0.118 A 
ATOM     21  C   UNL     1      -0.011   2.916   1.437  1.00  0.00     0.048 A 
ATOM     22  C   UNL     1       1.731   1.284   1.800  1.00  0.00     0.048 A 
ATOM     23  C   UNL     1       0.325   3.559   2.634  1.00  0.00     0.026 A 
ATOM     24  C   UNL     1       2.049   1.900   3.010  1.00  0.00     0.026 A 
BRANCH  20  25
ATOM     25  O   UNL     1       0.238   1.206  -0.143  1.00  0.00    -0.497 OA
ATOM     26  C   UNL     1       0.673  -0.127  -0.391  1.00  0.00     0.278 C 
ENDBRANCH  20  25
ENDBRANCH  16  19
ENDBRANCH  14  16
ENDBRANCH   8  14
ENDBRANCH   4   7
ENDBRANCH   2   3
ENDBRANCH   1   2
BRANCH   1  27
ATOM     27  C   UNL     1       2.504   9.151   3.150  1.00  0.00     0.023 C 
BRANCH  27  28
ATOM     28  C   UNL     1       1.224   8.539   3.723  1.00  0.00     0.116 C 
BRANCH  28  29
ATOM     29  N   UNL     1       1.103   8.659   5.169  1.00  0.00    -0.352 N 
ATOM     30  C   UNL     1       0.225   9.397   5.931  1.00  0.00     0.251 C 
ATOM     31  H   UNL     1       1.752   8.128   5.684  1.00  0.00     0.163 HD
ATOM     32  O   UNL     1       0.350   9.425   7.152  1.00  0.00    -0.269 OA
BRANCH  30  33
ATOM     33  C   UNL     1      -0.827  10.203   5.274  1.00  0.00     0.039 A 
ATOM     34  C   UNL     1      -0.931  11.559   5.594  1.00  0.00     0.014 A 
ATOM     35  C   UNL     1      -1.669   9.643   4.311  1.00  0.00     0.014 A 
ATOM     36  C   UNL     1      -1.784  12.380   4.852  1.00  0.00     0.010 A 
ATOM     37  C   UNL     1      -2.463  10.476   3.523  1.00  0.00     0.010 A 
ATOM     38  C   UNL     1      -2.499  11.858   3.761  1.00  0.00    -0.014 A 
BRANCH  38  39
ATOM     39  C   UNL     1      -3.208  12.755   2.807  1.00  0.00     0.031 A 
ATOM     40  C   UNL     1      -4.696  12.662   2.624  1.00  0.00     0.074 A 
ATOM     41  C   UNL     1      -2.486  13.595   2.037  1.00  0.00     0.049 A 
ATOM     42  N   UNL     1      -5.465  13.296   1.776  1.00  0.00    -0.248 NA
ATOM     43  C   UNL     1      -5.409  11.716   3.494  1.00  0.00     0.031 C 
ATOM     44  C   UNL     1      -1.029  13.747   2.090  1.00  0.00     0.029 A 
ATOM     45  N   UNL     1      -2.869  14.470   1.049  1.00  0.00    -0.354 N 
ATOM     46  C   UNL     1      -6.752  12.823   2.002  1.00  0.00     0.074 A 
ATOM     47  C   UNL     1      -6.648  11.810   3.032  1.00  0.00     0.031 C 
ATOM     48  C   UNL     1      -0.647  14.669   1.193  1.00  0.00     0.029 A 
ATOM     49  C   UNL     1      -1.818  15.135   0.459  1.00  0.00     0.049 A 
ATOM     50  H   UNL     1      -3.808  14.608   0.788  1.00  0.00     0.167 HD
ATOM     51  C   UNL     1      -7.913  13.211   1.416  1.00  0.00     0.034 A 
ATOM     52  C   UNL     1      -1.791  16.002  -0.574  1.00  0.00     0.034 A 
ATOM     53  C   UNL     1      -7.998  14.222   0.389  1.00  0.00     0.049 A 
ATOM     54  C   UNL     1      -3.087  16.372  -1.249  1.00  0.00     0.074 A 
ATOM     55  C   UNL     1      -9.130  14.741  -0.217  1.00  0.00     0.029 A 
ATOM     56  N   UNL     1      -6.911  14.854  -0.203  1.00  0.00    -0.354 N 
ATOM     57  N   UNL     1      -4.305  15.965  -0.974  1.00  0.00    -0.248 NA
ATOM     58  C   UNL     1      -3.006  17.315  -2.371  1.00  0.00     0.031 C 
ATOM     59  C   UNL     1      -8.726  15.622  -1.225  1.00  0.00     0.029 A 
ATOM     60  C   UNL     1      -7.344  15.717  -1.199  1.00  0.00     0.049 A 
ATOM     61  H   UNL     1      -5.970  14.710   0.049  1.00  0.00     0.167 HD
ATOM     62  C   UNL     1      -5.136  16.620  -1.879  1.00  0.00     0.074 A 
ATOM     63  C   UNL     1      -4.283  17.462  -2.693  1.00  0.00     0.031 C 
ATOM     64  C   UNL     1      -6.483  16.534  -2.023  1.00  0.00     0.034 A 
BRANCH  51  65
ATOM     65  C   UNL     1      -9.180  12.516   1.853  1.00  0.00     0.023 A 
ATOM     66  C   UNL     1      -9.657  12.610   3.172  1.00  0.00     0.031 A 
ATOM     67  C   UNL     1      -9.918  11.740   0.941  1.00  0.00     0.131 A 
ATOM     68  C   UNL     1     -10.793  11.883   3.560  1.00  0.00     0.055 A 
ATOM     69  C   UNL     1     -11.092  11.084   1.313  1.00  0.00     0.041 A 
ATOM     70  F   UNL     1      -9.503  11.598  -0.328  1.00  0.00    -0.206 F 
ATOM     71  C   UNL     1     -11.529  11.141   2.633  1.00  0.00     0.022 A 
BRANCH  68  72
ATOM     72  S   UNL     1     -11.215  11.812   5.322  1.00  0.00     0.124 S 
ATOM     73  O   UNL     1      -9.992  11.257   5.897  1.00  0.00    -0.237 OA
ATOM     74  O   UNL     1     -11.492  13.209   5.636  1.00  0.00    -0.237 OA
ATOM     75  O   UNL     1     -12.374  10.922   5.362  1.00  0.00    -0.744 OA
ENDBRANCH  68  72
ENDBRANCH  51  65
BRANCH  52  76
ATOM     76  C   UNL     1      -0.495  16.555  -1.063  1.00  0.00     0.023 A 
ATOM     77  C   UNL     1      -0.220  17.929  -0.989  1.00  0.00     0.031 A 
ATOM     78  C   UNL     1       0.473  15.720  -1.651  1.00  0.00     0.131 A 
ATOM     79  C   UNL     1       0.973  18.434  -1.532  1.00  0.00     0.055 A 
ATOM     80  C   UNL     1       1.681  16.220  -2.140  1.00  0.00     0.041 A 
ATOM     81  F   UNL     1       0.262  14.398  -1.747  1.00  0.00    -0.206 F 
ATOM     82  C   UNL     1       1.931  17.587  -2.093  1.00  0.00     0.022 A 
BRANCH  79  83
ATOM     83  S   UNL     1       1.217  20.231  -1.571  1.00  0.00     0.124 S 
ATOM     84  O   UNL     1       0.060  20.671  -2.344  1.00  0.00    -0.237 OA
ATOM     85  O   UNL     1       1.207  20.570  -0.152  1.00  0.00    -0.237 OA
ATOM     86  O   UNL     1       2.508  20.385  -2.237  1.00  0.00    -0.744 OA
ENDBRANCH  79  83
ENDBRANCH  52  76
BRANCH  64  87
ATOM     87  C   UNL     1      -7.117  17.392  -3.090  1.00  0.00     0.023 A 
ATOM     88  C   UNL     1      -6.893  17.154  -4.457  1.00  0.00     0.031 A 
ATOM     89  C   UNL     1      -7.959  18.461  -2.734  1.00  0.00     0.131 A 
ATOM     90  C   UNL     1      -7.469  18.000  -5.418  1.00  0.00     0.055 A 
ATOM     91  C   UNL     1      -8.576  19.262  -3.695  1.00  0.00     0.041 A 
ATOM     92  F   UNL     1      -8.204  18.737  -1.443  1.00  0.00    -0.206 F 
ATOM     93  C   UNL     1      -8.324  19.040  -5.046  1.00  0.00     0.022 A 
BRANCH  90  94
ATOM     94  S   UNL     1      -7.029  17.767  -7.162  1.00  0.00     0.124 S 
ATOM     95  O   UNL     1      -5.588  17.994  -7.144  1.00  0.00    -0.237 OA
ATOM     96  O   UNL     1      -7.455  16.394  -7.413  1.00  0.00    -0.237 OA
ATOM     97  O   UNL     1      -7.810  18.793  -7.853  1.00  0.00    -0.744 OA
ENDBRANCH  90  94
ENDBRANCH  64  87
ENDBRANCH  38  39
ENDBRANCH  30  33
ENDBRANCH  28  29
ENDBRANCH  27  28
ENDBRANCH   1  27
TORSDOF 18
