REMARK SMILES O=C(NCCCCNC(=O)c1nccnc1C(=O)Nc1ccc2c(c1)OCO2)c1ccc(-c2c3nc(c(-c4cc(S(=O)(=O)[O-])ccc4F)c4ccc([nH]4)c(-c4cc(S(=O)(=O)[O-])ccc4F)c4nc(c(-c5cc(S(=O)(=O)[O-])ccc5F)c5ccc2[nH]5)C=C4)C=C3)cc1
REMARK SMILES IDX 5 1 4 2 3 3 1 4 2 5 29 7 30 8 91 9 31 10 90 11 32 12 33 13
REMARK SMILES IDX 34 14 84 15 35 16 89 17 83 18 85 19 36 20 88 21 82 22 81 23
REMARK SMILES IDX 37 25 69 26 49 27 68 28 50 29 53 30 67 31 86 32 51 33 52 34
REMARK SMILES IDX 66 36 87 37 54 38 38 39 39 40 47 41 40 42 46 43 48 44 45 45
REMARK SMILES IDX 41 46 42 47 43 48 44 49 70 50 71 51 79 52 72 53 78 54 80 55
REMARK SMILES IDX 77 56 73 57 74 58 75 59 76 60 55 61 56 62 64 63 57 64 63 65
REMARK SMILES IDX 65 66 62 67 58 68 59 69 60 70 61 71 6 72 7 73 8 74 9 75
REMARK SMILES IDX 10 77 11 78 12 79 16 80 13 81 15 82 14 83 17 84 18 85 19 86
REMARK SMILES IDX 20 88 21 89 25 90 22 91 24 92 23 93 26 94 28 95 27 96
REMARK H PARENT 3 6 85 24 53 35 8 76 19 87
REMARK Flexibility Score: inf
ROOT
ATOM      1  C   UNL     1       4.545   2.628   1.222  1.00  0.00     0.023 C 
ENDROOT
BRANCH   1   2
ATOM      2  C   UNL     1       4.338   1.125   1.075  1.00  0.00     0.116 C 
BRANCH   2   3
ATOM      3  N   UNL     1       2.938   0.764   0.963  1.00  0.00    -0.352 N 
ATOM      4  O   UNL     1       1.096  -0.103   0.019  1.00  0.00    -0.269 OA
ATOM      5  C   UNL     1       2.322  -0.040   0.035  1.00  0.00     0.251 C 
ATOM      6  H   UNL     1       2.346   1.149   1.649  1.00  0.00     0.163 HD
BRANCH   5   7
ATOM      7  C   UNL     1       3.116  -0.816  -0.950  1.00  0.00     0.039 A 
ATOM      8  C   UNL     1       4.251  -1.540  -0.570  1.00  0.00     0.014 A 
ATOM      9  C   UNL     1       2.662  -0.881  -2.272  1.00  0.00     0.014 A 
ATOM     10  C   UNL     1       4.965  -2.271  -1.521  1.00  0.00     0.010 A 
ATOM     11  C   UNL     1       3.347  -1.658  -3.212  1.00  0.00     0.010 A 
ATOM     12  C   UNL     1       4.505  -2.361  -2.844  1.00  0.00    -0.014 A 
BRANCH  12  13
ATOM     13  C   UNL     1       5.159  -3.289  -3.803  1.00  0.00     0.031 A 
ATOM     14  C   UNL     1       5.906  -2.775  -5.001  1.00  0.00     0.074 A 
ATOM     15  C   UNL     1       5.027  -4.617  -3.603  1.00  0.00     0.049 A 
ATOM     16  N   UNL     1       6.481  -3.451  -5.963  1.00  0.00    -0.248 NA
ATOM     17  C   UNL     1       6.016  -1.316  -5.143  1.00  0.00     0.031 C 
ATOM     18  C   UNL     1       4.303  -5.229  -2.485  1.00  0.00     0.029 A 
ATOM     19  N   UNL     1       5.474  -5.690  -4.332  1.00  0.00    -0.354 N 
ATOM     20  C   UNL     1       7.008  -2.505  -6.836  1.00  0.00     0.074 A 
ATOM     21  C   UNL     1       6.668  -1.204  -6.294  1.00  0.00     0.031 C 
ATOM     22  C   UNL     1       4.357  -6.564  -2.602  1.00  0.00     0.029 A 
ATOM     23  C   UNL     1       5.066  -6.905  -3.830  1.00  0.00     0.049 A 
ATOM     24  H   UNL     1       6.034  -5.599  -5.137  1.00  0.00     0.167 HD
ATOM     25  C   UNL     1       7.708  -2.709  -7.979  1.00  0.00     0.034 A 
ATOM     26  C   UNL     1       5.207  -8.152  -4.321  1.00  0.00     0.034 A 
ATOM     27  C   UNL     1       8.048  -4.013  -8.495  1.00  0.00     0.049 A 
ATOM     28  C   UNL     1       5.944  -8.341  -5.620  1.00  0.00     0.074 A 
ATOM     29  C   UNL     1       8.848  -4.327  -9.582  1.00  0.00     0.029 A 
ATOM     30  N   UNL     1       7.588  -5.218  -7.982  1.00  0.00    -0.354 N 
ATOM     31  N   UNL     1       6.506  -7.435  -6.387  1.00  0.00    -0.248 NA
ATOM     32  C   UNL     1       6.065  -9.716  -6.121  1.00  0.00     0.031 C 
ATOM     33  C   UNL     1       8.809  -5.713  -9.770  1.00  0.00     0.029 A 
ATOM     34  C   UNL     1       8.040  -6.272  -8.763  1.00  0.00     0.049 A 
ATOM     35  H   UNL     1       7.024  -5.312  -7.181  1.00  0.00     0.167 HD
ATOM     36  C   UNL     1       7.056  -8.136  -7.455  1.00  0.00     0.074 A 
ATOM     37  C   UNL     1       6.780  -9.538  -7.222  1.00  0.00     0.031 C 
ATOM     38  C   UNL     1       7.730  -7.662  -8.534  1.00  0.00     0.034 A 
BRANCH  25  39
ATOM     39  C   UNL     1       8.124  -1.502  -8.780  1.00  0.00     0.023 A 
ATOM     40  C   UNL     1       9.099  -0.601  -8.320  1.00  0.00     0.031 A 
ATOM     41  C   UNL     1       7.560  -1.275 -10.049  1.00  0.00     0.131 A 
ATOM     42  C   UNL     1       9.453   0.507  -9.107  1.00  0.00     0.055 A 
ATOM     43  C   UNL     1       7.956  -0.203 -10.851  1.00  0.00     0.041 A 
ATOM     44  F   UNL     1       6.614  -2.096 -10.531  1.00  0.00    -0.206 F 
ATOM     45  C   UNL     1       8.904   0.700 -10.378  1.00  0.00     0.022 A 
BRANCH  42  46
ATOM     46  S   UNL     1      10.585   1.743  -8.414  1.00  0.00     0.124 S 
ATOM     47  O   UNL     1       9.843   2.200  -7.242  1.00  0.00    -0.237 OA
ATOM     48  O   UNL     1      11.784   0.957  -8.145  1.00  0.00    -0.237 OA
ATOM     49  O   UNL     1      10.715   2.729  -9.485  1.00  0.00    -0.744 OA
ENDBRANCH  42  46
ENDBRANCH  25  39
BRANCH  26  50
ATOM     50  C   UNL     1       4.583  -9.312  -3.624  1.00  0.00     0.023 A 
ATOM     51  C   UNL     1       5.365 -10.349  -3.094  1.00  0.00     0.031 A 
ATOM     52  C   UNL     1       3.183  -9.422  -3.523  1.00  0.00     0.131 A 
ATOM     53  C   UNL     1       4.743 -11.473  -2.528  1.00  0.00     0.055 A 
ATOM     54  C   UNL     1       2.571 -10.516  -2.910  1.00  0.00     0.041 A 
ATOM     55  F   UNL     1       2.389  -8.458  -4.014  1.00  0.00    -0.206 F 
ATOM     56  C   UNL     1       3.353 -11.557  -2.421  1.00  0.00     0.022 A 
BRANCH  53  57
ATOM     57  S   UNL     1       5.778 -12.874  -2.023  1.00  0.00     0.124 S 
ATOM     58  O   UNL     1       6.520 -13.154  -3.247  1.00  0.00    -0.237 OA
ATOM     59  O   UNL     1       6.547 -12.300  -0.924  1.00  0.00    -0.237 OA
ATOM     60  O   UNL     1       4.805 -13.893  -1.636  1.00  0.00    -0.744 OA
ENDBRANCH  53  57
ENDBRANCH  26  50
BRANCH  38  61
ATOM     61  C   UNL     1       8.220  -8.682  -9.528  1.00  0.00     0.023 A 
ATOM     62  C   UNL     1       7.326  -9.394 -10.346  1.00  0.00     0.031 A 
ATOM     63  C   UNL     1       9.593  -8.958  -9.646  1.00  0.00     0.131 A 
ATOM     64  C   UNL     1       7.811 -10.382 -11.215  1.00  0.00     0.055 A 
ATOM     65  C   UNL     1      10.075  -9.905 -10.550  1.00  0.00     0.041 A 
ATOM     66  F   UNL     1      10.489  -8.309  -8.884  1.00  0.00    -0.206 F 
ATOM     67  C   UNL     1       9.181 -10.631 -11.333  1.00  0.00     0.022 A 
BRANCH  64  68
ATOM     68  S   UNL     1       6.621 -11.388 -12.143  1.00  0.00     0.124 S 
ATOM     69  O   UNL     1       5.902 -12.070 -11.072  1.00  0.00    -0.237 OA
ATOM     70  O   UNL     1       5.864 -10.381 -12.879  1.00  0.00    -0.237 OA
ATOM     71  O   UNL     1       7.469 -12.248 -12.968  1.00  0.00    -0.744 OA
ENDBRANCH  64  68
ENDBRANCH  38  61
ENDBRANCH  12  13
ENDBRANCH   5   7
ENDBRANCH   2   3
ENDBRANCH   1   2
BRANCH   1  72
ATOM     72  C   UNL     1       3.995   3.292   2.487  1.00  0.00     0.023 C 
BRANCH  72  73
ATOM     73  C   UNL     1       4.128   2.525   3.800  1.00  0.00     0.116 C 
BRANCH  73  74
ATOM     74  N   UNL     1       5.484   2.143   4.156  1.00  0.00    -0.351 N 
ATOM     75  C   UNL     1       6.285   2.640   5.165  1.00  0.00     0.272 C 
ATOM     76  H   UNL     1       5.885   1.433   3.604  1.00  0.00     0.163 HD
ATOM     77  O   UNL     1       7.248   1.999   5.572  1.00  0.00    -0.267 OA
BRANCH  75  78
ATOM     78  C   UNL     1       5.918   3.891   5.841  1.00  0.00     0.159 A 
ATOM     79  N   UNL     1       4.855   3.712   6.699  1.00  0.00    -0.247 NA
ATOM     80  C   UNL     1       6.552   5.116   5.671  1.00  0.00     0.159 A 
ATOM     81  C   UNL     1       4.447   4.793   7.385  1.00  0.00     0.132 A 
ATOM     82  N   UNL     1       6.091   6.205   6.380  1.00  0.00    -0.247 NA
ATOM     83  C   UNL     1       5.053   6.018   7.226  1.00  0.00     0.132 A 
BRANCH  80  84
ATOM     84  C   UNL     1       7.739   5.489   4.804  1.00  0.00     0.276 C 
ATOM     85  O   UNL     1       7.865   6.659   4.433  1.00  0.00    -0.267 OA
ATOM     86  N   UNL     1       8.827   4.652   4.715  1.00  0.00    -0.320 N 
ATOM     87  H   UNL     1       9.583   4.861   5.311  1.00  0.00     0.170 HD
BRANCH  86  88
ATOM     88  C   UNL     1       8.989   3.537   3.878  1.00  0.00     0.045 A 
ATOM     89  C   UNL     1       8.161   3.291   2.768  1.00  0.00     0.030 A 
ATOM     90  C   UNL     1       9.990   2.624   4.233  1.00  0.00     0.076 A 
ATOM     91  C   UNL     1       8.255   2.077   2.075  1.00  0.00     0.053 A 
ATOM     92  C   UNL     1      10.011   1.415   3.574  1.00  0.00     0.167 A 
ATOM     93  C   UNL     1       9.152   1.141   2.538  1.00  0.00     0.165 A 
ATOM     94  O   UNL     1      10.801   0.352   3.886  1.00  0.00    -0.454 OA
ATOM     95  O   UNL     1       9.280  -0.132   2.080  1.00  0.00    -0.454 OA
ATOM     96  C   UNL     1      10.227  -0.661   3.031  1.00  0.00     0.468 C 
ENDBRANCH  86  88
ENDBRANCH  80  84
ENDBRANCH  75  78
ENDBRANCH  73  74
ENDBRANCH  72  73
ENDBRANCH   1  72
TORSDOF 16
