REMARK SMILES O=C(NCCCCNC(=O)[C@@H](Cc1ccccc1F)C1CCOCC1)c1ccc(-c2c3nc(c(-c4cc(S(=O)(=O)[O-])ccc4F)c4ccc([nH]4)c(-c4cc(S(=O)(=O)[O-])ccc4F)c4nc(c(-c5cc(S(=O)(=O)[O-])ccc5F)c5ccc2[nH]5)C=C4)C=C3)cc1
REMARK SMILES IDX 5 1 4 2 3 3 1 4 2 5 26 7 27 8 88 9 28 10 87 11 29 12 30 13
REMARK SMILES IDX 31 14 81 15 32 16 86 17 80 18 82 19 33 20 85 21 79 22 78 23
REMARK SMILES IDX 34 25 66 26 46 27 65 28 47 29 50 30 64 31 83 32 48 33 49 34
REMARK SMILES IDX 63 36 84 37 51 38 35 39 36 40 44 41 37 42 43 43 45 44 42 45
REMARK SMILES IDX 38 46 39 47 40 48 41 49 67 50 68 51 76 52 69 53 75 54 77 55
REMARK SMILES IDX 74 56 70 57 71 58 72 59 73 60 52 61 53 62 61 63 54 64 60 65
REMARK SMILES IDX 62 66 59 67 55 68 56 69 57 70 58 71 6 72 7 73 8 74 9 75
REMARK SMILES IDX 10 77 11 78 12 79 13 80 14 81 18 82 15 83 17 84 19 85 16 86
REMARK SMILES IDX 20 87 21 88 25 89 22 90 24 91 23 92
REMARK H PARENT 3 6 82 24 50 35 8 76
REMARK Flexibility Score: inf
ROOT
ATOM      1  C   UNL     1       5.657  -0.425   1.675  1.00  0.00     0.023 C 
ENDROOT
BRANCH   1   2
ATOM      2  C   UNL     1       5.000  -0.523   0.303  1.00  0.00     0.116 C 
BRANCH   2   3
ATOM      3  N   UNL     1       3.553  -0.717   0.355  1.00  0.00    -0.352 N 
ATOM      4  O   UNL     1       1.379  -0.207  -0.011  1.00  0.00    -0.269 OA
ATOM      5  C   UNL     1       2.557   0.029  -0.235  1.00  0.00     0.251 C 
ATOM      6  H   UNL     1       3.247  -1.488   0.885  1.00  0.00     0.163 HD
BRANCH   5   7
ATOM      7  C   UNL     1       2.954   1.146  -1.115  1.00  0.00     0.039 A 
ATOM      8  C   UNL     1       3.917   0.933  -2.102  1.00  0.00     0.014 A 
ATOM      9  C   UNL     1       2.454   2.426  -0.868  1.00  0.00     0.014 A 
ATOM     10  C   UNL     1       4.528   2.025  -2.698  1.00  0.00     0.010 A 
ATOM     11  C   UNL     1       2.994   3.514  -1.556  1.00  0.00     0.010 A 
ATOM     12  C   UNL     1       4.067   3.327  -2.442  1.00  0.00    -0.014 A 
BRANCH  12  13
ATOM     13  C   UNL     1       4.704   4.474  -3.137  1.00  0.00     0.031 A 
ATOM     14  C   UNL     1       5.400   5.560  -2.361  1.00  0.00     0.074 A 
ATOM     15  C   UNL     1       4.688   4.502  -4.484  1.00  0.00     0.049 A 
ATOM     16  N   UNL     1       5.899   6.688  -2.796  1.00  0.00    -0.248 NA
ATOM     17  C   UNL     1       5.557   5.357  -0.911  1.00  0.00     0.031 C 
ATOM     18  C   UNL     1       4.086   3.475  -5.342  1.00  0.00     0.029 A 
ATOM     19  N   UNL     1       5.209   5.406  -5.371  1.00  0.00    -0.354 N 
ATOM     20  C   UNL     1       6.401   7.344  -1.678  1.00  0.00     0.074 A 
ATOM     21  C   UNL     1       6.144   6.489  -0.539  1.00  0.00     0.031 C 
ATOM     22  C   UNL     1       4.324   3.777  -6.625  1.00  0.00     0.029 A 
ATOM     23  C   UNL     1       4.997   5.067  -6.686  1.00  0.00     0.049 A 
ATOM     24  H   UNL     1       5.688   6.220  -5.093  1.00  0.00     0.167 HD
ATOM     25  C   UNL     1       7.015   8.550  -1.616  1.00  0.00     0.034 A 
ATOM     26  C   UNL     1       5.269   5.740  -7.819  1.00  0.00     0.034 A 
ATOM     27  C   UNL     1       7.281   9.378  -2.767  1.00  0.00     0.049 A 
ATOM     28  C   UNL     1       5.891   7.101  -7.712  1.00  0.00     0.074 A 
ATOM     29  C   UNL     1       7.874  10.628  -2.811  1.00  0.00     0.029 A 
ATOM     30  N   UNL     1       6.984   9.033  -4.078  1.00  0.00    -0.354 N 
ATOM     31  N   UNL     1       6.263   7.753  -6.636  1.00  0.00    -0.248 NA
ATOM     32  C   UNL     1       6.106   7.827  -8.969  1.00  0.00     0.031 C 
ATOM     33  C   UNL     1       7.895  11.057  -4.143  1.00  0.00     0.029 A 
ATOM     34  C   UNL     1       7.368  10.051  -4.936  1.00  0.00     0.049 A 
ATOM     35  H   UNL     1       6.562   8.189  -4.358  1.00  0.00     0.167 HD
ATOM     36  C   UNL     1       6.754   8.972  -7.087  1.00  0.00     0.074 A 
ATOM     37  C   UNL     1       6.657   8.951  -8.533  1.00  0.00     0.031 C 
ATOM     38  C   UNL     1       7.234  10.019  -6.371  1.00  0.00     0.034 A 
BRANCH  25  39
ATOM     39  C   UNL     1       7.402   9.079  -0.260  1.00  0.00     0.023 A 
ATOM     40  C   UNL     1       8.493   8.559   0.455  1.00  0.00     0.031 A 
ATOM     41  C   UNL     1       6.696  10.160   0.299  1.00  0.00     0.131 A 
ATOM     42  C   UNL     1       8.835   9.109   1.701  1.00  0.00     0.055 A 
ATOM     43  C   UNL     1       7.071  10.734   1.514  1.00  0.00     0.041 A 
ATOM     44  F   UNL     1       5.635  10.682  -0.337  1.00  0.00    -0.206 F 
ATOM     45  C   UNL     1       8.146  10.207   2.224  1.00  0.00     0.022 A 
BRANCH  42  46
ATOM     46  S   UNL     1      10.175   8.348   2.659  1.00  0.00     0.124 S 
ATOM     47  O   UNL     1       9.575   7.071   3.037  1.00  0.00    -0.237 OA
ATOM     48  O   UNL     1      11.262   8.280   1.689  1.00  0.00    -0.237 OA
ATOM     49  O   UNL     1      10.383   9.286   3.760  1.00  0.00    -0.744 OA
ENDBRANCH  42  46
ENDBRANCH  25  39
BRANCH  26  50
ATOM     50  C   UNL     1       4.882   5.170  -9.137  1.00  0.00     0.023 A 
ATOM     51  C   UNL     1       5.856   4.800 -10.076  1.00  0.00     0.031 A 
ATOM     52  C   UNL     1       3.529   4.995  -9.479  1.00  0.00     0.131 A 
ATOM     53  C   UNL     1       5.461   4.295 -11.324  1.00  0.00     0.055 A 
ATOM     54  C   UNL     1       3.143   4.448 -10.702  1.00  0.00     0.041 A 
ATOM     55  F   UNL     1       2.560   5.328  -8.611  1.00  0.00    -0.206 F 
ATOM     56  C   UNL     1       4.113   4.103 -11.638  1.00  0.00     0.022 A 
BRANCH  53  57
ATOM     57  S   UNL     1       6.740   3.938 -12.558  1.00  0.00     0.124 S 
ATOM     58  O   UNL     1       7.338   5.253 -12.756  1.00  0.00    -0.237 OA
ATOM     59  O   UNL     1       7.565   2.955 -11.864  1.00  0.00    -0.237 OA
ATOM     60  O   UNL     1       5.981   3.418 -13.693  1.00  0.00    -0.744 OA
ENDBRANCH  53  57
ENDBRANCH  26  50
BRANCH  38  61
ATOM     61  C   UNL     1       7.697  11.212  -7.159  1.00  0.00     0.023 A 
ATOM     62  C   UNL     1       6.780  12.047  -7.818  1.00  0.00     0.031 A 
ATOM     63  C   UNL     1       9.067  11.501  -7.272  1.00  0.00     0.131 A 
ATOM     64  C   UNL     1       7.248  13.106  -8.608  1.00  0.00     0.055 A 
ATOM     65  C   UNL     1       9.525  12.586  -8.019  1.00  0.00     0.041 A 
ATOM     66  F   UNL     1       9.980  10.729  -6.661  1.00  0.00    -0.206 F 
ATOM     67  C   UNL     1       8.614  13.389  -8.701  1.00  0.00     0.022 A 
BRANCH  64  68
ATOM     68  S   UNL     1       6.050  14.066  -9.572  1.00  0.00     0.124 S 
ATOM     69  O   UNL     1       5.509  13.055 -10.475  1.00  0.00    -0.237 OA
ATOM     70  O   UNL     1       5.138  14.555  -8.543  1.00  0.00    -0.237 OA
ATOM     71  O   UNL     1       6.869  15.094 -10.211  1.00  0.00    -0.744 OA
ENDBRANCH  64  68
ENDBRANCH  38  61
ENDBRANCH  12  13
ENDBRANCH   5   7
ENDBRANCH   2   3
ENDBRANCH   1   2
BRANCH   1  72
ATOM     72  C   UNL     1       5.311  -1.566   2.617  1.00  0.00     0.023 C 
BRANCH  72  73
ATOM     73  C   UNL     1       5.686  -2.946   2.096  1.00  0.00     0.116 C 
BRANCH  73  74
ATOM     74  N   UNL     1       6.953  -3.387   2.622  1.00  0.00    -0.356 N 
ATOM     75  C   UNL     1       7.274  -4.489   3.337  1.00  0.00     0.223 C 
ATOM     76  H   UNL     1       7.709  -2.788   2.429  1.00  0.00     0.163 HD
ATOM     77  O   UNL     1       8.470  -4.646   3.610  1.00  0.00    -0.275 OA
BRANCH  75  78
ATOM     78  C   UNL     1       6.254  -5.535   3.796  1.00  0.00     0.086 C 
BRANCH  78  79
ATOM     79  C   UNL     1       5.335  -5.103   4.975  1.00  0.00     0.052 C 
BRANCH  79  80
ATOM     80  C   UNL     1       4.162  -4.167   4.792  1.00  0.00    -0.011 A 
ATOM     81  C   UNL     1       3.007  -4.533   4.085  1.00  0.00     0.007 A 
ATOM     82  C   UNL     1       4.170  -2.902   5.401  1.00  0.00     0.126 A 
ATOM     83  C   UNL     1       1.946  -3.634   3.918  1.00  0.00     0.000 A 
ATOM     84  C   UNL     1       3.107  -2.009   5.260  1.00  0.00     0.039 A 
ATOM     85  F   UNL     1       5.234  -2.510   6.115  1.00  0.00    -0.207 F 
ATOM     86  C   UNL     1       1.999  -2.368   4.498  1.00  0.00     0.003 A 
ENDBRANCH  79  80
ENDBRANCH  78  79
BRANCH  78  87
ATOM     87  C   UNL     1       5.617  -6.476   2.727  1.00  0.00     0.006 C 
ATOM     88  C   UNL     1       6.023  -7.942   3.016  1.00  0.00     0.033 C 
ATOM     89  C   UNL     1       5.939  -6.192   1.250  1.00  0.00     0.033 C 
ATOM     90  C   UNL     1       5.398  -8.905   2.016  1.00  0.00     0.160 C 
ATOM     91  C   UNL     1       5.302  -7.242   0.342  1.00  0.00     0.160 C 
ATOM     92  O   UNL     1       5.749  -8.550   0.682  1.00  0.00    -0.381 OA
ENDBRANCH  78  87
ENDBRANCH  75  78
ENDBRANCH  73  74
ENDBRANCH  72  73
ENDBRANCH   1  72
TORSDOF 17
