REMARK SMILES Cc1ccc([C@@H](C)Nc2ccc(N)cc2C(=O)NCCCCNC(=O)c2ccc(-c3c4nc(c(-c5cc(S(=O)(=O)[O-])ccc5F)c5ccc([nH]5)c(-c5cc(S(=O)(=O)[O-])ccc5F)c5nc(c(-c6cc(S(=O)(=O)[O-])ccc6F)c6ccc3[nH]6)C=C5)C=C4)cc2)cc1F
REMARK SMILES IDX 20 1 19 2 18 3 16 4 17 5 15 7 9 8 10 9 11 10 14 11 12 12
REMARK SMILES IDX 8 13 6 15 7 16 5 17 1 18 2 19 3 20 90 21 4 22 89 23 91 24
REMARK SMILES IDX 13 25 21 28 22 29 23 30 24 31 25 33 26 34 27 35 88 36 28 37
REMARK SMILES IDX 87 38 29 39 30 40 31 41 81 42 32 43 86 44 80 45 82 46 33 47
REMARK SMILES IDX 85 48 79 49 78 50 34 52 66 53 46 54 65 55 47 56 50 57 64 58
REMARK SMILES IDX 83 59 48 60 49 61 63 63 84 64 51 65 35 66 36 67 44 68 37 69
REMARK SMILES IDX 43 70 45 71 42 72 38 73 39 74 40 75 41 76 67 77 68 78 76 79
REMARK SMILES IDX 69 80 75 81 77 82 74 83 70 84 71 85 72 86 73 87 52 88 53 89
REMARK SMILES IDX 61 90 54 91 60 92 62 93 59 94 55 95 56 96 57 97 58 98
REMARK H PARENT 18 6 8 14 13 26 13 27 23 32 82 51 50 62
REMARK Flexibility Score: inf
ROOT
ATOM      1  C   UNL     1      -0.190  -1.492   0.545  1.00  0.00     0.023 C 
ENDROOT
BRANCH   1   2
ATOM      2  C   UNL     1      -0.569  -3.166   0.654  1.00  0.00     0.116 C 
BRANCH   2   3
ATOM      3  N   UNL     1      -0.784  -3.951  -0.558  1.00  0.00    -0.352 N 
ATOM      4  C   UNL     1      -1.875  -4.684  -0.957  1.00  0.00     0.253 C 
ATOM      5  O   UNL     1      -1.953  -5.087  -2.116  1.00  0.00    -0.269 OA
ATOM      6  H   UNL     1      -0.028  -3.957  -1.188  1.00  0.00     0.163 HD
BRANCH   4   7
ATOM      7  C   UNL     1      -2.840  -5.155   0.055  1.00  0.00     0.065 A 
ATOM      8  C   UNL     1      -3.445  -4.353   1.026  1.00  0.00     0.048 A 
ATOM      9  C   UNL     1      -3.739  -5.008   2.235  1.00  0.00     0.028 A 
ATOM     10  C   UNL     1      -3.587  -6.396   2.392  1.00  0.00     0.027 A 
ATOM     11  C   UNL     1      -2.853  -6.560   0.144  1.00  0.00     0.041 A 
ATOM     12  C   UNL     1      -3.252  -7.197   1.308  1.00  0.00     0.032 A 
BRANCH   8  13
ATOM     13  N   UNL     1      -3.736  -3.006   0.936  1.00  0.00    -0.378 N 
ATOM     14  H   UNL     1      -4.109  -2.609   1.756  1.00  0.00     0.161 HD
BRANCH  13  15
ATOM     15  C   UNL     1      -3.581  -2.070  -0.184  1.00  0.00     0.106 C 
ATOM     16  C   UNL     1      -4.254  -2.512  -1.476  1.00  0.00     0.036 C 
BRANCH  15  17
ATOM     17  C   UNL     1      -2.181  -1.458  -0.157  1.00  0.00    -0.023 A 
ATOM     18  C   UNL     1       2.037   1.361   0.300  1.00  0.00     0.047 C 
ATOM     19  C   UNL     1       0.992   0.281   0.273  1.00  0.00    -0.015 A 
ATOM     20  C   UNL     1      -0.296   0.419   1.520  1.00  0.00     0.007 A 
ATOM     21  C   UNL     1       0.686  -0.710  -1.214  1.00  0.00     0.126 A 
ATOM     22  C   UNL     1      -1.849  -0.486   1.335  1.00  0.00     0.006 A 
ATOM     23  C   UNL     1      -0.895  -1.586  -1.434  1.00  0.00     0.045 A 
ATOM     24  F   UNL     1       1.595  -0.725  -2.195  1.00  0.00    -0.207 F 
ENDBRANCH  15  17
ENDBRANCH  13  15
ENDBRANCH   8  13
BRANCH  12  25
ATOM     25  N   UNL     1      -3.100  -8.568   1.433  1.00  0.00    -0.399 N 
ATOM     26  H   UNL     1      -3.383  -9.021   2.260  1.00  0.00     0.156 HD
ATOM     27  H   UNL     1      -2.709  -9.089   0.695  1.00  0.00     0.156 HD
ENDBRANCH  12  25
ENDBRANCH   4   7
ENDBRANCH   2   3
ENDBRANCH   1   2
BRANCH   1  28
ATOM     28  C   UNL     1      -1.012   0.263  -0.476  1.00  0.00     0.023 C 
BRANCH  28  29
ATOM     29  C   UNL     1      -2.358   1.129  -0.397  1.00  0.00     0.116 C 
BRANCH  29  30
ATOM     30  N   UNL     1      -2.290   2.177   0.631  1.00  0.00    -0.352 N 
ATOM     31  C   UNL     1      -1.971   3.483   0.343  1.00  0.00     0.251 C 
ATOM     32  H   UNL     1      -2.482   1.934   1.565  1.00  0.00     0.163 HD
ATOM     33  O   UNL     1      -1.115   4.069   0.983  1.00  0.00    -0.269 OA
BRANCH  31  34
ATOM     34  C   UNL     1      -2.825   4.067  -0.700  1.00  0.00     0.039 A 
ATOM     35  C   UNL     1      -2.657   5.332  -1.246  1.00  0.00     0.014 A 
ATOM     36  C   UNL     1      -3.928   3.283  -1.048  1.00  0.00     0.014 A 
ATOM     37  C   UNL     1      -3.719   5.840  -1.978  1.00  0.00     0.010 A 
ATOM     38  C   UNL     1      -4.695   3.607  -2.083  1.00  0.00     0.010 A 
ATOM     39  C   UNL     1      -4.757   4.965  -2.289  1.00  0.00    -0.014 A 
BRANCH  39  40
ATOM     40  C   UNL     1      -6.033   5.267  -2.873  1.00  0.00     0.031 A 
ATOM     41  C   UNL     1      -5.899   5.600  -4.286  1.00  0.00     0.074 A 
ATOM     42  C   UNL     1      -7.069   4.851  -2.094  1.00  0.00     0.049 A 
ATOM     43  N   UNL     1      -6.499   6.559  -4.892  1.00  0.00    -0.248 NA
ATOM     44  C   UNL     1      -4.852   4.968  -5.121  1.00  0.00     0.031 C 
ATOM     45  C   UNL     1      -8.418   4.405  -2.391  1.00  0.00     0.029 A 
ATOM     46  N   UNL     1      -7.030   4.709  -0.705  1.00  0.00    -0.354 N 
ATOM     47  C   UNL     1      -6.353   6.221  -6.220  1.00  0.00     0.074 A 
ATOM     48  C   UNL     1      -5.092   5.531  -6.307  1.00  0.00     0.031 C 
ATOM     49  C   UNL     1      -9.143   4.377  -1.248  1.00  0.00     0.029 A 
ATOM     50  C   UNL     1      -8.298   4.850  -0.157  1.00  0.00     0.049 A 
ATOM     51  H   UNL     1      -6.213   4.533  -0.184  1.00  0.00     0.167 HD
ATOM     52  C   UNL     1      -7.483   6.025  -6.961  1.00  0.00     0.034 A 
ATOM     53  C   UNL     1      -8.506   5.968   0.609  1.00  0.00     0.034 A 
ATOM     54  C   UNL     1      -8.670   6.152  -6.095  1.00  0.00     0.049 A 
ATOM     55  C   UNL     1      -9.160   7.033  -0.251  1.00  0.00     0.074 A 
ATOM     56  C   UNL     1      -9.563   5.233  -5.568  1.00  0.00     0.029 A 
ATOM     57  N   UNL     1      -8.841   7.314  -5.350  1.00  0.00    -0.354 N 
ATOM     58  N   UNL     1      -9.143   7.010  -1.556  1.00  0.00    -0.248 NA
ATOM     59  C   UNL     1      -9.948   8.143   0.271  1.00  0.00     0.031 C 
ATOM     60  C   UNL     1     -10.242   5.852  -4.475  1.00  0.00     0.029 A 
ATOM     61  C   UNL     1      -9.726   7.125  -4.301  1.00  0.00     0.049 A 
ATOM     62  H   UNL     1      -8.388   8.166  -5.544  1.00  0.00     0.167 HD
ATOM     63  C   UNL     1      -9.883   8.034  -2.058  1.00  0.00     0.074 A 
ATOM     64  C   UNL     1     -10.378   8.711  -0.871  1.00  0.00     0.031 C 
ATOM     65  C   UNL     1     -10.025   8.242  -3.400  1.00  0.00     0.034 A 
BRANCH  52  66
ATOM     66  C   UNL     1      -7.507   5.438  -8.357  1.00  0.00     0.023 A 
ATOM     67  C   UNL     1      -6.367   5.255  -9.176  1.00  0.00     0.031 A 
ATOM     68  C   UNL     1      -8.739   5.106  -8.956  1.00  0.00     0.131 A 
ATOM     69  C   UNL     1      -6.470   4.753 -10.488  1.00  0.00     0.055 A 
ATOM     70  C   UNL     1      -8.845   4.639 -10.270  1.00  0.00     0.041 A 
ATOM     71  F   UNL     1      -9.898   5.219  -8.294  1.00  0.00    -0.206 F 
ATOM     72  C   UNL     1      -7.710   4.458 -11.044  1.00  0.00     0.022 A 
BRANCH  69  73
ATOM     73  S   UNL     1      -4.999   4.451 -11.514  1.00  0.00     0.124 S 
ATOM     74  O   UNL     1      -5.178   3.054 -11.909  1.00  0.00    -0.237 OA
ATOM     75  O   UNL     1      -5.160   5.425 -12.589  1.00  0.00    -0.237 OA
ATOM     76  O   UNL     1      -3.880   4.692 -10.607  1.00  0.00    -0.744 OA
ENDBRANCH  69  73
ENDBRANCH  52  66
BRANCH  53  77
ATOM     77  C   UNL     1      -7.345   6.172   1.552  1.00  0.00     0.023 A 
ATOM     78  C   UNL     1      -6.299   7.064   1.265  1.00  0.00     0.031 A 
ATOM     79  C   UNL     1      -7.066   5.101   2.439  1.00  0.00     0.131 A 
ATOM     80  C   UNL     1      -4.994   6.760   1.704  1.00  0.00     0.055 A 
ATOM     81  C   UNL     1      -5.761   4.767   2.808  1.00  0.00     0.041 A 
ATOM     82  F   UNL     1      -8.048   4.259   2.809  1.00  0.00    -0.206 F 
ATOM     83  C   UNL     1      -4.709   5.574   2.394  1.00  0.00     0.022 A 
BRANCH  80  84
ATOM     84  S   UNL     1      -3.620   7.879   1.294  1.00  0.00     0.124 S 
ATOM     85  O   UNL     1      -3.669   8.812   2.415  1.00  0.00    -0.237 OA
ATOM     86  O   UNL     1      -2.457   6.999   1.283  1.00  0.00    -0.237 OA
ATOM     87  O   UNL     1      -4.003   8.421  -0.004  1.00  0.00    -0.744 OA
ENDBRANCH  80  84
ENDBRANCH  53  77
BRANCH  65  88
ATOM     88  C   UNL     1     -10.507   9.527  -4.023  1.00  0.00     0.023 A 
ATOM     89  C   UNL     1     -10.850   9.514  -5.396  1.00  0.00     0.031 A 
ATOM     90  C   UNL     1     -10.464  10.786  -3.408  1.00  0.00     0.131 A 
ATOM     91  C   UNL     1     -11.084  10.694  -6.100  1.00  0.00     0.055 A 
ATOM     92  C   UNL     1     -10.824  11.954  -4.083  1.00  0.00     0.041 A 
ATOM     93  F   UNL     1     -10.009  10.954  -2.159  1.00  0.00    -0.206 F 
ATOM     94  C   UNL     1     -11.115  11.915  -5.440  1.00  0.00     0.022 A 
BRANCH  91  95
ATOM     95  S   UNL     1     -11.167  10.680  -7.911  1.00  0.00     0.124 S 
ATOM     96  O   UNL     1     -12.592  10.896  -8.140  1.00  0.00    -0.237 OA
ATOM     97  O   UNL     1     -10.297  11.800  -8.265  1.00  0.00    -0.237 OA
ATOM     98  O   UNL     1     -10.660   9.363  -8.276  1.00  0.00    -0.744 OA
ENDBRANCH  91  95
ENDBRANCH  65  88
ENDBRANCH  39  40
ENDBRANCH  31  34
ENDBRANCH  29  30
ENDBRANCH  28  29
ENDBRANCH   1  28
TORSDOF 18
