REMARK SMILES Cc1c(C[NH2+]Cc2cccc(F)c2)c(C(=O)NCCCCNC(=O)c2ccc(-c3c4nc(c(-c5cc(S(=O)(=O)[O-])ccc5F)c5ccc([nH]5)c(-c5cc(S(=O)(=O)[O-])ccc5F)c5nc(c(-c6cc(S(=O)(=O)[O-])ccc6F)c6ccc3[nH]6)C=C5)C=C4)cc2)c(C)n1Cc1c(F)cccc1Cl
REMARK SMILES IDX 19 1 18 2 17 3 15 4 16 5 14 7 1 8 2 9 3 10 90 11 88 12 89 13
REMARK SMILES IDX 4 14 5 15 6 18 7 19 8 20 13 21 9 22 11 23 10 24 12 25 91 26
REMARK SMILES IDX 92 27 93 28 98 29 94 30 95 31 97 32 99 33 96 34 20 35 21 36
REMARK SMILES IDX 22 37 23 38 24 40 25 41 26 42 87 43 27 44 86 45 28 46 29 47
REMARK SMILES IDX 30 48 80 49 31 50 85 51 79 52 81 53 32 54 84 55 78 56 77 57
REMARK SMILES IDX 33 59 65 60 45 61 64 62 46 63 49 64 63 65 82 66 47 67 48 68
REMARK SMILES IDX 62 70 83 71 50 72 34 73 35 74 43 75 36 76 42 77 44 78 41 79
REMARK SMILES IDX 37 80 38 81 39 82 40 83 66 84 67 85 75 86 68 87 74 88 76 89
REMARK SMILES IDX 73 90 69 91 70 92 71 93 72 94 51 95 52 96 60 97 53 98 59 99
REMARK SMILES IDX 61 100 58 101 54 102 55 103 56 104 57 105
REMARK H PARENT 17 6 5 16 5 17 22 39 81 58 49 69
REMARK Flexibility Score: inf
ROOT
ATOM      1  C   UNL     1      -2.734  -5.633   4.512  1.00  0.00     0.023 C 
ENDROOT
BRANCH   1   2
ATOM      2  C   UNL     1      -1.448  -4.918   4.117  1.00  0.00     0.116 C 
BRANCH   2   3
ATOM      3  N   UNL     1      -0.608  -5.569   3.144  1.00  0.00    -0.352 N 
ATOM      4  C   UNL     1       0.225  -5.011   2.202  1.00  0.00     0.253 C 
ATOM      5  O   UNL     1       0.846  -5.825   1.494  1.00  0.00    -0.269 OA
ATOM      6  H   UNL     1      -0.633  -6.553   3.155  1.00  0.00     0.163 HD
BRANCH   4   7
ATOM      7  C   UNL     1       0.275  -3.557   1.953  1.00  0.00     0.069 A 
ATOM      8  C   UNL     1       0.869  -0.463  -0.092  1.00  0.00     0.065 C 
ATOM      9  C   UNL     1       0.485  -1.552   0.851  1.00  0.00     0.025 A 
ATOM     10  C   UNL     1       0.733  -2.923   0.732  1.00  0.00     0.040 A 
ATOM     11  N   UNL     1      -0.169  -1.369   2.058  1.00  0.00    -0.343 N 
ATOM     12  C   UNL     1       0.128  -2.480   2.837  1.00  0.00     0.028 A 
ATOM     13  C   UNL     1       0.321  -2.395   4.314  1.00  0.00     0.065 C 
BRANCH  10  14
ATOM     14  C   UNL     1       1.414  -3.614  -0.429  1.00  0.00     0.300 C 
BRANCH  14  15
ATOM     15  N   UNL     1       2.768  -3.971  -0.014  1.00  0.00    -0.339 N 
ATOM     16  H   UNL     1       2.700  -4.673   0.723  1.00  0.00     0.346 HD
ATOM     17  H   UNL     1       3.212  -3.107   0.297  1.00  0.00     0.346 HD
BRANCH  15  18
ATOM     18  C   UNL     1       3.607  -4.508  -1.078  1.00  0.00     0.297 C 
BRANCH  18  19
ATOM     19  C   UNL     1       4.072  -3.511  -2.124  1.00  0.00     0.009 A 
ATOM     20  C   UNL     1       4.093  -2.125  -1.898  1.00  0.00     0.010 A 
ATOM     21  C   UNL     1       4.536  -3.985  -3.362  1.00  0.00     0.048 A 
ATOM     22  C   UNL     1       4.473  -1.232  -2.903  1.00  0.00     0.004 A 
ATOM     23  C   UNL     1       4.932  -3.088  -4.352  1.00  0.00     0.123 A 
ATOM     24  C   UNL     1       4.885  -1.716  -4.139  1.00  0.00     0.039 A 
ATOM     25  F   UNL     1       5.358  -3.554  -5.534  1.00  0.00    -0.207 F 
ENDBRANCH  18  19
ENDBRANCH  15  18
ENDBRANCH  14  15
ENDBRANCH  10  14
BRANCH  11  26
ATOM     26  C   UNL     1      -0.851  -0.153   2.534  1.00  0.00     0.162 C 
BRANCH  26  27
ATOM     27  C   UNL     1      -2.366  -0.220   2.463  1.00  0.00     0.026 A 
ATOM     28  C   UNL     1      -3.076  -1.005   3.385  1.00  0.00     0.129 A 
ATOM     29  C   UNL     1      -3.144   0.528   1.565  1.00  0.00     0.048 A 
ATOM     30  F   UNL     1      -2.430  -1.635   4.369  1.00  0.00    -0.207 F 
ATOM     31  C   UNL     1      -4.467  -1.116   3.382  1.00  0.00     0.040 A 
ATOM     32  C   UNL     1      -4.550   0.445   1.571  1.00  0.00     0.021 A 
ATOM     33  Cl  UNL     1      -2.444   1.644   0.446  1.00  0.00    -0.084 Cl
ATOM     34  C   UNL     1      -5.212  -0.392   2.465  1.00  0.00     0.005 A 
ENDBRANCH  26  27
ENDBRANCH  11  26
ENDBRANCH   4   7
ENDBRANCH   2   3
ENDBRANCH   1   2
BRANCH   1  35
ATOM     35  C   UNL     1      -2.664  -7.057   5.085  1.00  0.00     0.023 C 
BRANCH  35  36
ATOM     36  C   UNL     1      -1.452  -7.466   5.937  1.00  0.00     0.116 C 
BRANCH  36  37
ATOM     37  N   UNL     1      -1.704  -7.504   7.360  1.00  0.00    -0.352 N 
ATOM     38  C   UNL     1      -1.085  -8.308   8.308  1.00  0.00     0.251 C 
ATOM     39  H   UNL     1      -2.393  -6.887   7.697  1.00  0.00     0.163 HD
ATOM     40  O   UNL     1      -1.411  -8.153   9.483  1.00  0.00    -0.269 OA
BRANCH  38  41
ATOM     41  C   UNL     1      -0.128  -9.410   7.908  1.00  0.00     0.039 A 
ATOM     42  C   UNL     1      -0.648 -10.672   7.675  1.00  0.00     0.014 A 
ATOM     43  C   UNL     1       1.276  -9.311   7.917  1.00  0.00     0.014 A 
ATOM     44  C   UNL     1       0.216 -11.777   7.397  1.00  0.00     0.010 A 
ATOM     45  C   UNL     1       2.157 -10.469   7.726  1.00  0.00     0.010 A 
ATOM     46  C   UNL     1       1.664 -11.765   7.467  1.00  0.00    -0.014 A 
BRANCH  46  47
ATOM     47  C   UNL     1       2.373 -13.214   7.809  1.00  0.00     0.031 A 
ATOM     48  C   UNL     1       1.474 -13.700   8.901  1.00  0.00     0.074 A 
ATOM     49  C   UNL     1       3.491 -14.037   7.577  1.00  0.00     0.049 A 
ATOM     50  N   UNL     1       1.272 -12.927   9.935  1.00  0.00    -0.248 NA
ATOM     51  C   UNL     1       0.455 -14.735   8.719  1.00  0.00     0.031 C 
ATOM     52  C   UNL     1       4.713 -13.721   6.814  1.00  0.00     0.029 A 
ATOM     53  N   UNL     1       3.832 -15.387   7.979  1.00  0.00    -0.354 N 
ATOM     54  C   UNL     1       0.353 -13.559  10.722  1.00  0.00     0.074 A 
ATOM     55  C   UNL     1      -0.292 -14.497   9.806  1.00  0.00     0.031 C 
ATOM     56  C   UNL     1       5.530 -14.810   6.659  1.00  0.00     0.029 A 
ATOM     57  C   UNL     1       5.003 -15.992   7.348  1.00  0.00     0.049 A 
ATOM     58  H   UNL     1       3.298 -15.874   8.648  1.00  0.00     0.167 HD
ATOM     59  C   UNL     1       0.766 -13.791  12.002  1.00  0.00     0.034 A 
ATOM     60  C   UNL     1       5.562 -17.285   7.436  1.00  0.00     0.034 A 
ATOM     61  C   UNL     1       1.261 -15.134  12.162  1.00  0.00     0.049 A 
ATOM     62  C   UNL     1       5.259 -17.732   8.796  1.00  0.00     0.074 A 
ATOM     63  C   UNL     1       0.823 -16.366  11.720  1.00  0.00     0.029 A 
ATOM     64  N   UNL     1       2.607 -15.262  12.424  1.00  0.00    -0.354 N 
ATOM     65  N   UNL     1       5.867 -17.249   9.835  1.00  0.00    -0.248 NA
ATOM     66  C   UNL     1       4.286 -18.788   9.053  1.00  0.00     0.031 C 
ATOM     67  C   UNL     1       1.987 -16.988  11.219  1.00  0.00     0.029 A 
ATOM     68  C   UNL     1       3.106 -16.347  11.739  1.00  0.00     0.049 A 
ATOM     69  H   UNL     1       3.132 -14.669  13.009  1.00  0.00     0.167 HD
ATOM     70  C   UNL     1       4.978 -17.516  10.831  1.00  0.00     0.074 A 
ATOM     71  C   UNL     1       4.217 -18.668  10.379  1.00  0.00     0.031 C 
ATOM     72  C   UNL     1       4.540 -16.460  11.560  1.00  0.00     0.034 A 
BRANCH  59  73
ATOM     73  C   UNL     1       1.383 -12.618  12.727  1.00  0.00     0.023 A 
ATOM     74  C   UNL     1       0.811 -12.215  13.938  1.00  0.00     0.031 A 
ATOM     75  C   UNL     1       2.529 -11.914  12.283  1.00  0.00     0.131 A 
ATOM     76  C   UNL     1       1.341 -11.115  14.632  1.00  0.00     0.055 A 
ATOM     77  C   UNL     1       3.008 -10.781  12.938  1.00  0.00     0.041 A 
ATOM     78  F   UNL     1       3.262 -12.351  11.248  1.00  0.00    -0.206 F 
ATOM     79  C   UNL     1       2.411 -10.372  14.122  1.00  0.00     0.022 A 
BRANCH  76  80
ATOM     80  S   UNL     1       0.681 -10.718  16.271  1.00  0.00     0.124 S 
ATOM     81  O   UNL     1      -0.663 -10.224  15.951  1.00  0.00    -0.237 OA
ATOM     82  O   UNL     1       0.716 -12.024  16.942  1.00  0.00    -0.237 OA
ATOM     83  O   UNL     1       1.600  -9.732  16.795  1.00  0.00    -0.744 OA
ENDBRANCH  76  80
ENDBRANCH  59  73
BRANCH  60  84
ATOM     84  C   UNL     1       6.540 -18.337   6.770  1.00  0.00     0.023 A 
ATOM     85  C   UNL     1       7.017 -19.528   7.478  1.00  0.00     0.031 A 
ATOM     86  C   UNL     1       6.745 -18.398   5.387  1.00  0.00     0.131 A 
ATOM     87  C   UNL     1       7.572 -20.671   6.820  1.00  0.00     0.055 A 
ATOM     88  C   UNL     1       7.316 -19.530   4.739  1.00  0.00     0.041 A 
ATOM     89  F   UNL     1       6.323 -17.401   4.598  1.00  0.00    -0.206 F 
ATOM     90  C   UNL     1       7.706 -20.672   5.441  1.00  0.00     0.022 A 
BRANCH  87  91
ATOM     91  S   UNL     1       7.937 -22.265   7.695  1.00  0.00     0.124 S 
ATOM     92  O   UNL     1       9.306 -22.074   8.162  1.00  0.00    -0.237 OA
ATOM     93  O   UNL     1       6.903 -22.325   8.723  1.00  0.00    -0.237 OA
ATOM     94  O   UNL     1       7.790 -23.271   6.640  1.00  0.00    -0.744 OA
ENDBRANCH  87  91
ENDBRANCH  60  84
BRANCH  72  95
ATOM     95  C   UNL     1       5.552 -15.395  11.966  1.00  0.00     0.023 A 
ATOM     96  C   UNL     1       6.482 -14.737  11.120  1.00  0.00     0.031 A 
ATOM     97  C   UNL     1       5.588 -15.046  13.327  1.00  0.00     0.131 A 
ATOM     98  C   UNL     1       7.388 -13.787  11.644  1.00  0.00     0.055 A 
ATOM     99  C   UNL     1       6.450 -14.075  13.837  1.00  0.00     0.041 A 
ATOM    100  F   UNL     1       4.755 -15.643  14.195  1.00  0.00    -0.206 F 
ATOM    101  C   UNL     1       7.359 -13.446  12.997  1.00  0.00     0.022 A 
BRANCH  98 102
ATOM    102  S   UNL     1       8.636 -12.997  10.569  1.00  0.00     0.124 S 
ATOM    103  O   UNL     1       9.425 -14.129  10.093  1.00  0.00    -0.237 OA
ATOM    104  O   UNL     1       7.823 -12.317   9.565  1.00  0.00    -0.237 OA
ATOM    105  O   UNL     1       9.354 -12.101  11.477  1.00  0.00    -0.744 OA
ENDBRANCH  98 102
ENDBRANCH  72  95
ENDBRANCH  46  47
ENDBRANCH  38  41
ENDBRANCH  36  37
ENDBRANCH  35  36
ENDBRANCH   1  35
TORSDOF 20
