REMARK SMILES Cc1c(C(=O)NC(=S)Nc2ccccc2C(=O)NCCCCNC(=O)c2ccc(-c3c4nc(c(-c5cc(S(=O)(=O)[O-])ccc5F)c5ccc([nH]5)c(-c5cc(S(=O)(=O)[O-])ccc5F)c5nc(c(-c6cc(S(=O)(=O)[O-])ccc6F)c6ccc3[nH]6)C=C5)C=C4)cc2)cccc1[N+](=O)[O-]
REMARK SMILES IDX 19 1 18 2 16 3 17 4 15 6 10 7 11 8 12 9 14 10 13 11 9 12
REMARK SMILES IDX 7 14 8 15 6 16 4 17 5 18 3 20 1 21 2 22 92 23 89 24 91 25
REMARK SMILES IDX 90 26 93 27 94 28 95 29 20 30 21 31 22 32 23 33 24 34 25 36
REMARK SMILES IDX 26 37 27 38 88 39 28 40 87 41 29 42 30 43 31 44 81 45 32 46
REMARK SMILES IDX 86 47 80 48 82 49 33 50 85 51 79 52 78 53 34 55 66 56 46 57
REMARK SMILES IDX 65 58 47 59 50 60 64 61 83 62 48 63 49 64 63 66 84 67 51 68
REMARK SMILES IDX 35 69 36 70 44 71 37 72 43 73 45 74 42 75 38 76 39 77 40 78
REMARK SMILES IDX 41 79 67 80 68 81 76 82 69 83 75 84 77 85 74 86 70 87 71 88
REMARK SMILES IDX 72 89 73 90 52 91 53 92 61 93 54 94 60 95 62 96 59 97 55 98
REMARK SMILES IDX 56 99 57 100 58 101
REMARK H PARENT 18 5 9 13 6 19 23 35 82 54 50 65
REMARK Flexibility Score: inf
ROOT
ATOM      1  C   UNL     1      -0.776  -2.743   2.612  1.00  0.00     0.116 C 
ENDROOT
BRANCH   1   2
ATOM      2  N   UNL     1       0.651  -2.396   2.903  1.00  0.00    -0.352 N 
ATOM      3  C   UNL     1       1.412  -1.177   2.854  1.00  0.00     0.253 C 
ATOM      4  O   UNL     1       2.509  -1.162   3.412  1.00  0.00    -0.269 OA
ATOM      5  H   UNL     1       1.185  -3.171   3.192  1.00  0.00     0.163 HD
BRANCH   3   6
ATOM      6  C   UNL     1       0.984   0.066   2.039  1.00  0.00     0.063 A 
ATOM      7  C   UNL     1       2.037   0.792   0.777  1.00  0.00     0.053 A 
ATOM      8  C   UNL     1       1.375   1.429  -0.819  1.00  0.00     0.027 A 
ATOM      9  C   UNL     1      -0.325   0.799  -1.272  1.00  0.00     0.002 A 
ATOM     10  C   UNL     1      -0.604  -0.110   1.861  1.00  0.00     0.016 A 
ATOM     11  C   UNL     1      -1.294  -0.020   0.293  1.00  0.00     0.001 A 
BRANCH   7  12
ATOM     12  N   UNL     1       3.148  -0.134   0.534  1.00  0.00    -0.332 N 
ATOM     13  H   UNL     1       4.008   0.293   0.315  1.00  0.00     0.169 HD
BRANCH  12  14
ATOM     14  C   UNL     1       3.171  -1.533   0.567  1.00  0.00     0.177 C 
ATOM     15  S   UNL     1       4.673  -2.258   0.821  1.00  0.00    -0.040 S 
BRANCH  14  16
ATOM     16  N   UNL     1       2.060  -2.437   0.225  1.00  0.00    -0.299 N 
ATOM     17  C   UNL     1       0.673  -2.705  -0.450  1.00  0.00     0.257 C 
ATOM     18  O   UNL     1       0.409  -3.848  -0.815  1.00  0.00    -0.269 OA
ATOM     19  H   UNL     1       2.318  -3.304   0.613  1.00  0.00     0.172 HD
BRANCH  17  20
ATOM     20  C   UNL     1      -0.245  -1.540  -0.811  1.00  0.00     0.049 A 
ATOM     21  C   UNL     1       1.643  -0.604  -1.681  1.00  0.00     0.053 C 
ATOM     22  C   UNL     1       0.561  -0.289  -0.091  1.00  0.00     0.039 A 
ATOM     23  C   UNL     1      -0.247   1.507   0.417  1.00  0.00     0.273 A 
ATOM     24  C   UNL     1      -1.757  -1.109  -1.544  1.00  0.00     0.014 A 
ATOM     25  C   UNL     1      -1.888   1.837  -0.356  1.00  0.00     0.086 A 
ATOM     26  C   UNL     1      -2.563   0.505  -1.368  1.00  0.00     0.008 A 
BRANCH  23  27
ATOM     27  N   UNL     1       0.248   2.850   0.992  1.00  0.00     0.063 N 
ATOM     28  O   UNL     1      -0.208   3.868   0.446  1.00  0.00    -0.258 OA
ATOM     29  O   UNL     1       1.038   2.878   1.943  1.00  0.00    -0.258 OA
ENDBRANCH  23  27
ENDBRANCH  17  20
ENDBRANCH  14  16
ENDBRANCH  12  14
ENDBRANCH   7  12
ENDBRANCH   3   6
ENDBRANCH   1   2
BRANCH   1  30
ATOM     30  C   UNL     1      -1.216  -4.112   2.078  1.00  0.00     0.023 C 
BRANCH  30  31
ATOM     31  C   UNL     1      -0.960  -5.331   2.916  1.00  0.00     0.023 C 
BRANCH  31  32
ATOM     32  C   UNL     1      -1.642  -5.279   4.255  1.00  0.00     0.116 C 
BRANCH  32  33
ATOM     33  N   UNL     1      -3.019  -5.719   4.305  1.00  0.00    -0.352 N 
ATOM     34  C   UNL     1      -3.666  -6.293   5.389  1.00  0.00     0.251 C 
ATOM     35  H   UNL     1      -3.552  -5.598   3.486  1.00  0.00     0.163 HD
ATOM     36  O   UNL     1      -4.672  -6.979   5.226  1.00  0.00    -0.269 OA
BRANCH  34  37
ATOM     37  C   UNL     1      -3.269  -5.903   6.778  1.00  0.00     0.039 A 
ATOM     38  C   UNL     1      -4.303  -5.862   7.727  1.00  0.00     0.014 A 
ATOM     39  C   UNL     1      -2.115  -5.170   7.009  1.00  0.00     0.014 A 
ATOM     40  C   UNL     1      -4.311  -4.850   8.671  1.00  0.00     0.010 A 
ATOM     41  C   UNL     1      -2.220  -4.038   7.742  1.00  0.00     0.010 A 
ATOM     42  C   UNL     1      -3.347  -3.867   8.534  1.00  0.00    -0.014 A 
BRANCH  42  43
ATOM     43  C   UNL     1      -3.213  -2.686   9.338  1.00  0.00     0.031 A 
ATOM     44  C   UNL     1      -2.410  -2.913  10.549  1.00  0.00     0.074 A 
ATOM     45  C   UNL     1      -3.509  -1.539   8.682  1.00  0.00     0.049 A 
ATOM     46  N   UNL     1      -2.314  -2.097  11.520  1.00  0.00    -0.248 NA
ATOM     47  C   UNL     1      -1.643  -4.149  10.797  1.00  0.00     0.031 C 
ATOM     48  C   UNL     1      -3.127  -0.157   8.930  1.00  0.00     0.029 A 
ATOM     49  N   UNL     1      -4.479  -1.427   7.680  1.00  0.00    -0.354 N 
ATOM     50  C   UNL     1      -1.201  -2.466  12.249  1.00  0.00     0.074 A 
ATOM     51  C   UNL     1      -0.932  -3.825  11.881  1.00  0.00     0.031 C 
ATOM     52  C   UNL     1      -4.077   0.652   8.414  1.00  0.00     0.029 A 
ATOM     53  C   UNL     1      -5.141  -0.205   7.911  1.00  0.00     0.049 A 
ATOM     54  H   UNL     1      -4.663  -2.072   6.959  1.00  0.00     0.167 HD
ATOM     55  C   UNL     1      -0.555  -1.478  12.922  1.00  0.00     0.034 A 
ATOM     56  C   UNL     1      -6.416  -0.262   8.408  1.00  0.00     0.034 A 
ATOM     57  C   UNL     1      -1.295  -0.232  12.722  1.00  0.00     0.049 A 
ATOM     58  C   UNL     1      -6.416   0.183   9.864  1.00  0.00     0.074 A 
ATOM     59  C   UNL     1      -1.144   0.823  11.840  1.00  0.00     0.029 A 
ATOM     60  N   UNL     1      -2.599  -0.183  13.181  1.00  0.00    -0.354 N 
ATOM     61  N   UNL     1      -5.404   0.051  10.688  1.00  0.00    -0.248 NA
ATOM     62  C   UNL     1      -7.501   0.972  10.433  1.00  0.00     0.031 C 
ATOM     63  C   UNL     1      -2.420   1.451  11.711  1.00  0.00     0.029 A 
ATOM     64  C   UNL     1      -3.326   0.774  12.513  1.00  0.00     0.049 A 
ATOM     65  H   UNL     1      -2.960  -0.759  13.893  1.00  0.00     0.167 HD
ATOM     66  C   UNL     1      -5.639   0.786  11.828  1.00  0.00     0.074 A 
ATOM     67  C   UNL     1      -6.970   1.334  11.613  1.00  0.00     0.031 C 
ATOM     68  C   UNL     1      -4.730   0.948  12.845  1.00  0.00     0.034 A 
BRANCH  55  69
ATOM     69  C   UNL     1       0.808  -1.499  13.557  1.00  0.00     0.023 A 
ATOM     70  C   UNL     1       1.338  -0.254  13.954  1.00  0.00     0.031 A 
ATOM     71  C   UNL     1       1.639  -2.609  13.790  1.00  0.00     0.131 A 
ATOM     72  C   UNL     1       2.619  -0.129  14.507  1.00  0.00     0.055 A 
ATOM     73  C   UNL     1       2.922  -2.489  14.351  1.00  0.00     0.041 A 
ATOM     74  F   UNL     1       1.262  -3.860  13.506  1.00  0.00    -0.206 F 
ATOM     75  C   UNL     1       3.421  -1.244  14.710  1.00  0.00     0.022 A 
BRANCH  72  76
ATOM     76  S   UNL     1       3.203   1.529  14.937  1.00  0.00     0.124 S 
ATOM     77  O   UNL     1       3.206   2.198  13.639  1.00  0.00    -0.237 OA
ATOM     78  O   UNL     1       2.194   1.975  15.891  1.00  0.00    -0.237 OA
ATOM     79  O   UNL     1       4.526   1.282  15.508  1.00  0.00    -0.744 OA
ENDBRANCH  72  76
ENDBRANCH  55  69
BRANCH  56  80
ATOM     80  C   UNL     1      -7.170  -1.405   7.766  1.00  0.00     0.023 A 
ATOM     81  C   UNL     1      -7.216  -1.385   6.344  1.00  0.00     0.031 A 
ATOM     82  C   UNL     1      -7.280  -2.653   8.392  1.00  0.00     0.131 A 
ATOM     83  C   UNL     1      -7.054  -2.578   5.613  1.00  0.00     0.055 A 
ATOM     84  C   UNL     1      -7.243  -3.842   7.644  1.00  0.00     0.041 A 
ATOM     85  F   UNL     1      -7.255  -2.754   9.729  1.00  0.00    -0.206 F 
ATOM     86  C   UNL     1      -7.043  -3.810   6.261  1.00  0.00     0.022 A 
BRANCH  83  87
ATOM     87  S   UNL     1      -6.548  -2.453   3.864  1.00  0.00     0.124 S 
ATOM     88  O   UNL     1      -7.778  -2.005   3.219  1.00  0.00    -0.237 OA
ATOM     89  O   UNL     1      -5.465  -1.471   3.914  1.00  0.00    -0.237 OA
ATOM     90  O   UNL     1      -6.109  -3.801   3.511  1.00  0.00    -0.744 OA
ENDBRANCH  83  87
ENDBRANCH  56  80
BRANCH  68  91
ATOM     91  C   UNL     1      -5.071   1.343  14.275  1.00  0.00     0.023 A 
ATOM     92  C   UNL     1      -6.385   1.524  14.702  1.00  0.00     0.031 A 
ATOM     93  C   UNL     1      -4.091   1.461  15.301  1.00  0.00     0.131 A 
ATOM     94  C   UNL     1      -6.684   1.923  16.012  1.00  0.00     0.055 A 
ATOM     95  C   UNL     1      -4.401   1.730  16.636  1.00  0.00     0.041 A 
ATOM     96  F   UNL     1      -2.780   1.304  15.077  1.00  0.00    -0.206 F 
ATOM     97  C   UNL     1      -5.707   1.998  16.996  1.00  0.00     0.022 A 
BRANCH  94  98
ATOM     98  S   UNL     1      -8.380   2.444  16.340  1.00  0.00     0.124 S 
ATOM     99  O   UNL     1      -8.521   3.580  15.433  1.00  0.00    -0.237 OA
ATOM    100  O   UNL     1      -9.147   1.254  15.982  1.00  0.00    -0.237 OA
ATOM    101  O   UNL     1      -8.368   2.777  17.761  1.00  0.00    -0.744 OA
ENDBRANCH  94  98
ENDBRANCH  68  91
ENDBRANCH  42  43
ENDBRANCH  34  37
ENDBRANCH  32  33
ENDBRANCH  31  32
ENDBRANCH  30  31
ENDBRANCH   1  30
TORSDOF 19
