REMARK SMILES O=C(NCCCCNC(=O)[C@H]1CS[C@H](c2cc(F)ccc2F)[NH2+]1)c1ccc(-c2c3nc(c(-c4cc(S(=O)(=O)[O-])ccc4F)c4ccc([nH]4)c(-c4cc(S(=O)(=O)[O-])ccc4F)c4nc(c(-c5cc(S(=O)(=O)[O-])ccc5F)c5ccc2[nH]5)C=C4)C=C3)cc1
REMARK SMILES IDX 4 1 3 2 1 3 2 4 24 6 25 7 86 8 26 9 85 10 27 11 28 12 29 13
REMARK SMILES IDX 79 14 30 15 84 16 78 17 80 18 31 19 83 20 77 21 76 22 32 24
REMARK SMILES IDX 64 25 44 26 63 27 45 28 48 29 62 30 81 31 46 32 47 33 61 35
REMARK SMILES IDX 82 36 49 37 33 38 34 39 42 40 35 41 41 42 43 43 40 44 36 45
REMARK SMILES IDX 37 46 38 47 39 48 65 49 66 50 74 51 67 52 73 53 75 54 72 55
REMARK SMILES IDX 68 56 69 57 70 58 71 59 50 60 51 61 59 62 52 63 58 64 60 65
REMARK SMILES IDX 57 66 53 67 54 68 55 69 56 70 5 71 6 72 7 73 8 74 9 75 10 77
REMARK SMILES IDX 11 78 12 79 23 80 13 81 14 82 15 85 16 86 21 87 17 88 20 89
REMARK SMILES IDX 22 90 18 91 19 92
REMARK H PARENT 3 5 80 23 48 34 8 76 23 83 23 84
REMARK Flexibility Score: inf
ROOT
ATOM      1  C   UNL     1       4.500  -1.044  -0.460  1.00  0.00     0.116 C 
ENDROOT
BRANCH   1   2
ATOM      2  N   UNL     1       3.092  -0.706  -0.624  1.00  0.00    -0.352 N 
ATOM      3  O   UNL     1       1.155   0.362  -0.162  1.00  0.00    -0.269 OA
ATOM      4  C   UNL     1       2.366   0.268   0.021  1.00  0.00     0.251 C 
ATOM      5  H   UNL     1       2.596  -1.245  -1.282  1.00  0.00     0.163 HD
BRANCH   4   6
ATOM      6  C   UNL     1       3.053   1.174   0.967  1.00  0.00     0.039 A 
ATOM      7  C   UNL     1       4.261   1.777   0.615  1.00  0.00     0.014 A 
ATOM      8  C   UNL     1       2.509   1.376   2.239  1.00  0.00     0.014 A 
ATOM      9  C   UNL     1       5.006   2.438   1.583  1.00  0.00     0.010 A 
ATOM     10  C   UNL     1       3.221   2.118   3.186  1.00  0.00     0.010 A 
ATOM     11  C   UNL     1       4.498   2.614   2.881  1.00  0.00    -0.014 A 
BRANCH  11  12
ATOM     12  C   UNL     1       5.327   3.326   3.889  1.00  0.00     0.031 A 
ATOM     13  C   UNL     1       5.848   2.611   5.107  1.00  0.00     0.074 A 
ATOM     14  C   UNL     1       5.657   4.612   3.664  1.00  0.00     0.049 A 
ATOM     15  N   UNL     1       6.623   3.063   6.061  1.00  0.00    -0.248 NA
ATOM     16  C   UNL     1       5.434   1.212   5.285  1.00  0.00     0.031 C 
ATOM     17  C   UNL     1       5.205   5.407   2.518  1.00  0.00     0.029 A 
ATOM     18  N   UNL     1       6.469   5.468   4.361  1.00  0.00    -0.354 N 
ATOM     19  C   UNL     1       6.770   2.015   6.965  1.00  0.00     0.074 A 
ATOM     20  C   UNL     1       5.978   0.914   6.457  1.00  0.00     0.031 C 
ATOM     21  C   UNL     1       5.793   6.611   2.560  1.00  0.00     0.029 A 
ATOM     22  C   UNL     1       6.611   6.699   3.764  1.00  0.00     0.049 A 
ATOM     23  H   UNL     1       6.908   5.226   5.208  1.00  0.00     0.167 HD
ATOM     24  C   UNL     1       7.503   1.976   8.107  1.00  0.00     0.034 A 
ATOM     25  C   UNL     1       7.315   7.782   4.145  1.00  0.00     0.034 A 
ATOM     26  C   UNL     1       8.301   3.080   8.589  1.00  0.00     0.049 A 
ATOM     27  C   UNL     1       8.118   7.712   5.414  1.00  0.00     0.074 A 
ATOM     28  C   UNL     1       9.106   3.138   9.714  1.00  0.00     0.029 A 
ATOM     29  N   UNL     1       8.396   4.323   7.974  1.00  0.00    -0.354 N 
ATOM     30  N   UNL     1       8.253   6.710   6.251  1.00  0.00    -0.248 NA
ATOM     31  C   UNL     1       8.866   8.918   5.785  1.00  0.00     0.031 C 
ATOM     32  C   UNL     1       9.638   4.429   9.811  1.00  0.00     0.029 A 
ATOM     33  C   UNL     1       9.223   5.159   8.709  1.00  0.00     0.049 A 
ATOM     34  H   UNL     1       7.941   4.573   7.137  1.00  0.00     0.167 HD
ATOM     35  C   UNL     1       9.119   7.160   7.242  1.00  0.00     0.074 A 
ATOM     36  C   UNL     1       9.490   8.515   6.883  1.00  0.00     0.031 C 
ATOM     37  C   UNL     1       9.568   6.514   8.348  1.00  0.00     0.034 A 
BRANCH  24  38
ATOM     38  C   UNL     1       7.429   0.716   8.938  1.00  0.00     0.023 A 
ATOM     39  C   UNL     1       7.912  -0.518   8.467  1.00  0.00     0.031 A 
ATOM     40  C   UNL     1       6.842   0.746  10.217  1.00  0.00     0.131 A 
ATOM     41  C   UNL     1       7.736  -1.680   9.236  1.00  0.00     0.055 A 
ATOM     42  C   UNL     1       6.739  -0.399  11.009  1.00  0.00     0.041 A 
ATOM     43  F   UNL     1       6.346   1.890  10.714  1.00  0.00    -0.206 F 
ATOM     44  C   UNL     1       7.173  -1.625  10.514  1.00  0.00     0.022 A 
BRANCH  41  45
ATOM     45  S   UNL     1       8.124  -3.285   8.485  1.00  0.00     0.124 S 
ATOM     46  O   UNL     1       7.266  -3.275   7.302  1.00  0.00    -0.237 OA
ATOM     47  O   UNL     1       9.557  -3.179   8.236  1.00  0.00    -0.237 OA
ATOM     48  O   UNL     1       7.739  -4.248   9.515  1.00  0.00    -0.744 OA
ENDBRANCH  41  45
ENDBRANCH  24  38
BRANCH  25  49
ATOM     49  C   UNL     1       7.278   9.024   3.325  1.00  0.00     0.023 A 
ATOM     50  C   UNL     1       8.428   9.500   2.678  1.00  0.00     0.031 A 
ATOM     51  C   UNL     1       6.089   9.763   3.190  1.00  0.00     0.131 A 
ATOM     52  C   UNL     1       8.375  10.700   1.954  1.00  0.00     0.055 A 
ATOM     53  C   UNL     1       6.029  10.929   2.428  1.00  0.00     0.041 A 
ATOM     54  F   UNL     1       4.959   9.345   3.783  1.00  0.00    -0.206 F 
ATOM     55  C   UNL     1       7.180  11.411   1.813  1.00  0.00     0.022 A 
BRANCH  52  56
ATOM     56  S   UNL     1       9.911  11.358   1.249  1.00  0.00     0.124 S 
ATOM     57  O   UNL     1      10.749  11.493   2.434  1.00  0.00    -0.237 OA
ATOM     58  O   UNL     1      10.288  10.305   0.311  1.00  0.00    -0.237 OA
ATOM     59  O   UNL     1       9.491  12.616   0.634  1.00  0.00    -0.744 OA
ENDBRANCH  52  56
ENDBRANCH  25  49
BRANCH  37  60
ATOM     60  C   UNL     1      10.541   7.268   9.220  1.00  0.00     0.023 A 
ATOM     61  C   UNL     1      10.150   8.406   9.947  1.00  0.00     0.031 A 
ATOM     62  C   UNL     1      11.886   6.866   9.288  1.00  0.00     0.131 A 
ATOM     63  C   UNL     1      11.108   9.143  10.658  1.00  0.00     0.055 A 
ATOM     64  C   UNL     1      12.823   7.570  10.045  1.00  0.00     0.041 A 
ATOM     65  F   UNL     1      12.312   5.788   8.612  1.00  0.00    -0.206 F 
ATOM     66  C   UNL     1      12.440   8.724  10.723  1.00  0.00     0.022 A 
BRANCH  63  67
ATOM     67  S   UNL     1      10.613  10.717  11.412  1.00  0.00     0.124 S 
ATOM     68  O   UNL     1      10.091  11.452  10.265  1.00  0.00    -0.237 OA
ATOM     69  O   UNL     1       9.627  10.292  12.400  1.00  0.00    -0.237 OA
ATOM     70  O   UNL     1      11.861  11.239  11.967  1.00  0.00    -0.744 OA
ENDBRANCH  63  67
ENDBRANCH  37  60
ENDBRANCH  11  12
ENDBRANCH   4   6
ENDBRANCH   1   2
BRANCH   1  71
ATOM     71  C   UNL     1       4.778  -2.538  -0.534  1.00  0.00     0.023 C 
BRANCH  71  72
ATOM     72  C   UNL     1       4.362  -3.217  -1.840  1.00  0.00     0.023 C 
BRANCH  72  73
ATOM     73  C   UNL     1       5.060  -2.691  -3.097  1.00  0.00     0.116 C 
BRANCH  73  74
ATOM     74  N   UNL     1       6.488  -2.944  -3.086  1.00  0.00    -0.351 N 
ATOM     75  C   UNL     1       7.204  -3.957  -3.655  1.00  0.00     0.279 C 
ATOM     76  H   UNL     1       7.024  -2.283  -2.591  1.00  0.00     0.163 HD
ATOM     77  O   UNL     1       8.433  -3.903  -3.545  1.00  0.00    -0.268 OA
BRANCH  75  78
ATOM     78  C   UNL     1       6.523  -5.072  -4.479  1.00  0.00     0.283 C 
ATOM     79  C   UNL     1       7.503  -6.234  -4.683  1.00  0.00     0.151 C 
ATOM     80  N   UNL     1       5.297  -5.593  -3.819  1.00  0.00    -0.320 N 
ATOM     81  S   UNL     1       6.513  -7.748  -4.671  1.00  0.00    -0.087 SA
ATOM     82  C   UNL     1       4.941  -6.872  -4.427  1.00  0.00     0.277 C 
ATOM     83  H   UNL     1       4.532  -4.930  -3.943  1.00  0.00     0.348 HD
ATOM     84  H   UNL     1       5.468  -5.720  -2.821  1.00  0.00     0.348 HD
BRANCH  82  85
ATOM     85  C   UNL     1       4.116  -6.869  -5.701  1.00  0.00     0.059 A 
ATOM     86  C   UNL     1       3.655  -8.117  -6.181  1.00  0.00     0.053 A 
ATOM     87  C   UNL     1       3.788  -5.739  -6.461  1.00  0.00     0.133 A 
ATOM     88  C   UNL     1       2.963  -8.216  -7.385  1.00  0.00     0.123 A 
ATOM     89  C   UNL     1       3.099  -5.845  -7.674  1.00  0.00     0.043 A 
ATOM     90  F   UNL     1       4.120  -4.505  -6.064  1.00  0.00    -0.206 F 
ATOM     91  F   UNL     1       2.565  -9.419  -7.819  1.00  0.00    -0.207 F 
ATOM     92  C   UNL     1       2.693  -7.090  -8.146  1.00  0.00     0.042 A 
ENDBRANCH  82  85
ENDBRANCH  75  78
ENDBRANCH  73  74
ENDBRANCH  72  73
ENDBRANCH  71  72
ENDBRANCH   1  71
TORSDOF 15
