REMARK SMILES Cc1[nH]cnc1C[NH+]1CCC(Oc2cccc(F)c2)(C(=O)NCCCCNC(=O)c2ccc(-c3c4nc(c(-c5cc(S(=O)(=O)[O-])ccc5F)c5ccc([nH]5)c(-c5cc(S(=O)(=O)[O-])ccc5F)c5nc(c(-c6cc(S(=O)(=O)[O-])ccc6F)c6ccc3[nH]6)C=C5)C=C4)cc2)CC1
REMARK SMILES IDX 25 1 24 2 23 3 22 4 20 5 21 6 11 8 8 9 9 10 94 11 10 13
REMARK SMILES IDX 93 14 7 15 6 16 1 17 2 18 3 19 4 20 5 22 12 23 13 24 14 25
REMARK SMILES IDX 19 26 15 27 17 28 16 29 18 30 26 31 27 32 28 33 29 35 30 36
REMARK SMILES IDX 31 37 92 38 32 39 91 40 33 41 34 42 35 43 85 44 36 45 90 46
REMARK SMILES IDX 84 47 86 48 37 49 89 50 83 51 82 52 38 54 70 55 50 56 69 57
REMARK SMILES IDX 51 58 54 59 68 60 87 61 52 62 53 63 67 65 88 66 55 67 39 68
REMARK SMILES IDX 40 69 48 70 41 71 47 72 49 73 46 74 42 75 43 76 44 77 45 78
REMARK SMILES IDX 71 79 72 80 80 81 73 82 79 83 81 84 78 85 74 86 75 87 76 88
REMARK SMILES IDX 77 89 56 90 57 91 65 92 58 93 64 94 66 95 63 96 59 97 60 98
REMARK SMILES IDX 61 99 62 100
REMARK H PARENT 22 7 8 12 3 21 27 34 86 53 54 64
REMARK Flexibility Score: inf
ROOT
ATOM      1  C   UNL     1       0.087   0.068   6.869  1.00  0.00     0.023 C 
ENDROOT
BRANCH   1   2
ATOM      2  C   UNL     1       0.231  -1.383   6.407  1.00  0.00     0.023 C 
BRANCH   2   3
ATOM      3  C   UNL     1      -1.082  -2.156   6.301  1.00  0.00     0.116 C 
BRANCH   3   4
ATOM      4  N   UNL     1      -1.925  -1.639   5.240  1.00  0.00    -0.353 N 
ATOM      5  C   UNL     1      -2.336  -2.213   4.069  1.00  0.00     0.264 C 
ATOM      6  O   UNL     1      -3.181  -1.578   3.430  1.00  0.00    -0.270 OA
ATOM      7  H   UNL     1      -2.256  -0.724   5.388  1.00  0.00     0.163 HD
BRANCH   5   8
ATOM      8  C   UNL     1      -1.784  -3.590   3.590  1.00  0.00     0.197 C 
ATOM      9  N   UNL     1      -0.482  -3.136   1.001  1.00  0.00    -0.330 N 
ATOM     10  C   UNL     1       0.129  -2.627   2.228  1.00  0.00     0.267 C 
ATOM     11  C   UNL     1      -1.949  -3.116   1.079  1.00  0.00     0.267 C 
ATOM     12  H   UNL     1      -0.199  -4.112   0.915  1.00  0.00     0.348 HD
ATOM     13  C   UNL     1      -0.259  -3.540   3.388  1.00  0.00     0.120 C 
ATOM     14  C   UNL     1      -2.450  -3.976   2.249  1.00  0.00     0.120 C 
BRANCH   9  15
ATOM     15  C   UNL     1       0.029  -2.466  -0.215  1.00  0.00     0.321 C 
BRANCH  15  16
ATOM     16  C   UNL     1      -0.133  -0.973  -0.218  1.00  0.00     0.115 A 
ATOM     17  C   UNL     1       2.294  -0.008   0.091  1.00  0.00     0.066 C 
ATOM     18  C   UNL     1       0.824   0.021  -0.073  1.00  0.00     0.040 A 
ATOM     19  N   UNL     1       0.115   1.198  -0.095  1.00  0.00    -0.348 N 
ATOM     20  C   UNL     1      -1.199   0.891  -0.289  1.00  0.00     0.197 A 
ATOM     21  H   UNL     1       0.490   2.102   0.010  1.00  0.00     0.167 HD
ATOM     22  N   UNL     1      -1.376  -0.402  -0.403  1.00  0.00    -0.236 NA
ENDBRANCH  15  16
ENDBRANCH   9  15
BRANCH   8  23
ATOM     23  O   UNL     1      -2.217  -4.448   4.681  1.00  0.00    -0.477 OA
BRANCH  23  24
ATOM     24  C   UNL     1      -2.008  -5.789   4.576  1.00  0.00     0.123 A 
ATOM     25  C   UNL     1      -0.761  -6.350   4.853  1.00  0.00     0.046 A 
ATOM     26  C   UNL     1      -3.109  -6.608   4.344  1.00  0.00     0.085 A 
ATOM     27  C   UNL     1      -0.590  -7.734   4.800  1.00  0.00     0.007 A 
ATOM     28  C   UNL     1      -2.932  -7.986   4.309  1.00  0.00     0.126 A 
ATOM     29  C   UNL     1      -1.680  -8.556   4.519  1.00  0.00     0.039 A 
ATOM     30  F   UNL     1      -3.984  -8.782   4.079  1.00  0.00    -0.207 F 
ENDBRANCH  23  24
ENDBRANCH   8  23
ENDBRANCH   5   8
ENDBRANCH   3   4
ENDBRANCH   2   3
ENDBRANCH   1   2
BRANCH   1  31
ATOM     31  C   UNL     1      -0.632   0.262   8.200  1.00  0.00     0.116 C 
BRANCH  31  32
ATOM     32  N   UNL     1      -0.022  -0.483   9.289  1.00  0.00    -0.352 N 
ATOM     33  C   UNL     1       0.261  -0.076  10.570  1.00  0.00     0.251 C 
ATOM     34  H   UNL     1       0.224  -1.413   9.078  1.00  0.00     0.163 HD
ATOM     35  O   UNL     1       0.907  -0.812  11.311  1.00  0.00    -0.269 OA
BRANCH  33  36
ATOM     36  C   UNL     1      -0.177   1.258  11.036  1.00  0.00     0.039 A 
ATOM     37  C   UNL     1       0.733   2.058  11.730  1.00  0.00     0.014 A 
ATOM     38  C   UNL     1      -1.468   1.727  10.777  1.00  0.00     0.014 A 
ATOM     39  C   UNL     1       0.373   3.357  12.096  1.00  0.00     0.010 A 
ATOM     40  C   UNL     1      -1.802   3.046  11.081  1.00  0.00     0.010 A 
ATOM     41  C   UNL     1      -0.881   3.877  11.735  1.00  0.00    -0.014 A 
BRANCH  41  42
ATOM     42  C   UNL     1      -1.229   5.295  12.016  1.00  0.00     0.031 A 
ATOM     43  C   UNL     1      -2.350   5.631  12.961  1.00  0.00     0.074 A 
ATOM     44  C   UNL     1      -0.554   6.279  11.389  1.00  0.00     0.049 A 
ATOM     45  N   UNL     1      -2.823   6.805  13.291  1.00  0.00    -0.248 NA
ATOM     46  C   UNL     1      -3.044   4.503  13.603  1.00  0.00     0.031 C 
ATOM     47  C   UNL     1       0.534   6.077  10.428  1.00  0.00     0.029 A 
ATOM     48  N   UNL     1      -0.674   7.645  11.467  1.00  0.00    -0.354 N 
ATOM     49  C   UNL     1      -3.866   6.559  14.176  1.00  0.00     0.074 A 
ATOM     50  C   UNL     1      -3.993   5.123  14.290  1.00  0.00     0.031 C 
ATOM     51  C   UNL     1       1.009   7.272  10.043  1.00  0.00     0.029 A 
ATOM     52  C   UNL     1       0.232   8.327  10.687  1.00  0.00     0.049 A 
ATOM     53  H   UNL     1      -1.345   8.095  12.029  1.00  0.00     0.167 HD
ATOM     54  C   UNL     1      -4.631   7.451  14.850  1.00  0.00     0.034 A 
ATOM     55  C   UNL     1       0.417   9.650  10.506  1.00  0.00     0.034 A 
ATOM     56  C   UNL     1      -4.483   8.880  14.747  1.00  0.00     0.049 A 
ATOM     57  C   UNL     1      -0.467  10.620  11.243  1.00  0.00     0.074 A 
ATOM     58  C   UNL     1      -5.184   9.866  15.420  1.00  0.00     0.029 A 
ATOM     59  N   UNL     1      -3.574   9.529  13.924  1.00  0.00    -0.354 N 
ATOM     60  N   UNL     1      -1.446  10.367  12.078  1.00  0.00    -0.248 NA
ATOM     61  C   UNL     1      -0.224  12.052  11.016  1.00  0.00     0.031 C 
ATOM     62  C   UNL     1      -4.739  11.109  14.963  1.00  0.00     0.029 A 
ATOM     63  C   UNL     1      -3.713  10.901  14.056  1.00  0.00     0.049 A 
ATOM     64  H   UNL     1      -2.926   9.081  13.334  1.00  0.00     0.167 HD
ATOM     65  C   UNL     1      -1.917  11.607  12.497  1.00  0.00     0.074 A 
ATOM     66  C   UNL     1      -1.119  12.608  11.821  1.00  0.00     0.031 C 
ATOM     67  C   UNL     1      -2.914  11.887  13.373  1.00  0.00     0.034 A 
BRANCH  54  68
ATOM     68  C   UNL     1      -5.703   6.913  15.760  1.00  0.00     0.023 A 
ATOM     69  C   UNL     1      -5.382   6.234  16.947  1.00  0.00     0.031 A 
ATOM     70  C   UNL     1      -7.061   7.120  15.459  1.00  0.00     0.131 A 
ATOM     71  C   UNL     1      -6.407   5.756  17.776  1.00  0.00     0.055 A 
ATOM     72  C   UNL     1      -8.075   6.695  16.318  1.00  0.00     0.041 A 
ATOM     73  F   UNL     1      -7.421   7.749  14.329  1.00  0.00    -0.206 F 
ATOM     74  C   UNL     1      -7.750   6.004  17.482  1.00  0.00     0.022 A 
BRANCH  71  75
ATOM     75  S   UNL     1      -5.962   4.747  19.215  1.00  0.00     0.124 S 
ATOM     76  O   UNL     1      -5.397   3.561  18.578  1.00  0.00    -0.237 OA
ATOM     77  O   UNL     1      -5.017   5.603  19.923  1.00  0.00    -0.237 OA
ATOM     78  O   UNL     1      -7.239   4.536  19.892  1.00  0.00    -0.744 OA
ENDBRANCH  71  75
ENDBRANCH  54  68
BRANCH  55  79
ATOM     79  C   UNL     1       1.486  10.133   9.588  1.00  0.00     0.023 A 
ATOM     80  C   UNL     1       2.620  10.793  10.085  1.00  0.00     0.031 A 
ATOM     81  C   UNL     1       1.389   9.936   8.199  1.00  0.00     0.131 A 
ATOM     82  C   UNL     1       3.605  11.253   9.197  1.00  0.00     0.055 A 
ATOM     83  C   UNL     1       2.389  10.361   7.324  1.00  0.00     0.041 A 
ATOM     84  F   UNL     1       0.328   9.300   7.676  1.00  0.00    -0.206 F 
ATOM     85  C   UNL     1       3.503  11.030   7.822  1.00  0.00     0.022 A 
BRANCH  82  86
ATOM     86  S   UNL     1       5.015  12.180   9.862  1.00  0.00     0.124 S 
ATOM     87  O   UNL     1       4.360  13.362  10.409  1.00  0.00    -0.237 OA
ATOM     88  O   UNL     1       5.565  11.241  10.835  1.00  0.00    -0.237 OA
ATOM     89  O   UNL     1       5.851  12.415   8.687  1.00  0.00    -0.744 OA
ENDBRANCH  82  86
ENDBRANCH  55  79
BRANCH  67  90
ATOM     90  C   UNL     1      -3.180  13.333  13.691  1.00  0.00     0.023 A 
ATOM     91  C   UNL     1      -3.826  14.181  12.778  1.00  0.00     0.031 A 
ATOM     92  C   UNL     1      -2.847  13.843  14.959  1.00  0.00     0.131 A 
ATOM     93  C   UNL     1      -4.108  15.507  13.142  1.00  0.00     0.055 A 
ATOM     94  C   UNL     1      -3.167  15.149  15.329  1.00  0.00     0.041 A 
ATOM     95  F   UNL     1      -2.232  13.067  15.866  1.00  0.00    -0.206 F 
ATOM     96  C   UNL     1      -3.799  15.989  14.418  1.00  0.00     0.022 A 
BRANCH  93  97
ATOM     97  S   UNL     1      -4.881  16.603  11.922  1.00  0.00     0.124 S 
ATOM     98  O   UNL     1      -3.825  16.733  10.922  1.00  0.00    -0.237 OA
ATOM     99  O   UNL     1      -6.057  15.844  11.511  1.00  0.00    -0.237 OA
ATOM    100  O   UNL     1      -5.166  17.818  12.684  1.00  0.00    -0.744 OA
ENDBRANCH  93  97
ENDBRANCH  67  90
ENDBRANCH  41  42
ENDBRANCH  33  36
ENDBRANCH  31  32
ENDBRANCH   1  31
TORSDOF 18
