REMARK SMILES COC[C@@H](C)[C@@](O)(C(=O)NCCCCNC(=O)c1ccc(-c2c3nc(c(-c4cc(S(=O)(=O)[O-])ccc4F)c4ccc([nH]4)c(-c4cc(S(=O)(=O)[O-])ccc4F)c4nc(c(-c5cc(S(=O)(=O)[O-])ccc5F)c5ccc2[nH]5)C=C4)C=C3)cc1)C(C)C
REMARK SMILES IDX 12 1 11 2 10 3 8 4 9 5 6 7 4 8 5 9 3 10 2 11 1 12 7 13 81 15
REMARK SMILES IDX 82 16 83 17 13 18 14 19 15 20 16 21 17 23 18 24 19 25 80 26
REMARK SMILES IDX 20 27 79 28 21 29 22 30 23 31 73 32 24 33 78 34 72 35 74 36
REMARK SMILES IDX 25 37 77 38 71 39 70 40 26 42 58 43 38 44 57 45 39 46 42 47
REMARK SMILES IDX 56 48 75 49 40 50 41 51 55 53 76 54 43 55 27 56 28 57 36 58
REMARK SMILES IDX 29 59 35 60 37 61 34 62 30 63 31 64 32 65 33 66 59 67 60 68
REMARK SMILES IDX 68 69 61 70 67 71 69 72 66 73 62 74 63 75 64 76 65 77 44 78
REMARK SMILES IDX 45 79 53 80 46 81 52 82 54 83 51 84 47 85 48 86 49 87 50 88
REMARK H PARENT 10 6 7 14 15 22 74 41 42 52
REMARK Flexibility Score: inf
ROOT
ATOM      1  C   UNL     1      -2.624   0.608   3.630  1.00  0.00     0.023 C 
ENDROOT
BRANCH   1   2
ATOM      2  C   UNL     1      -1.864   1.748   4.311  1.00  0.00     0.116 C 
BRANCH   2   3
ATOM      3  N   UNL     1      -0.773   1.249   5.126  1.00  0.00    -0.354 N 
ATOM      4  C   UNL     1       0.579   1.275   4.932  1.00  0.00     0.252 C 
ATOM      5  O   UNL     1       1.260   0.801   5.848  1.00  0.00    -0.272 OA
ATOM      6  H   UNL     1      -1.056   0.817   5.965  1.00  0.00     0.163 HD
BRANCH   4   7
ATOM      7  C   UNL     1       1.232   1.848   3.613  1.00  0.00     0.150 C 
BRANCH   7   8
ATOM      8  C   UNL     1       0.718   1.061   2.359  1.00  0.00     0.053 C 
ATOM      9  C   UNL     1       0.957  -0.452   2.429  1.00  0.00     0.014 C 
BRANCH   8  10
ATOM     10  C   UNL     1       1.139   1.655   1.004  1.00  0.00     0.166 C 
BRANCH  10  11
ATOM     11  O   UNL     1       0.383   1.133  -0.091  1.00  0.00    -0.384 OA
ATOM     12  C   UNL     1       0.967   0.004  -0.726  1.00  0.00     0.194 C 
ENDBRANCH  10  11
ENDBRANCH   8  10
ENDBRANCH   7   8
BRANCH   7  13
ATOM     13  O   UNL     1       0.718   3.202   3.568  1.00  0.00    -0.379 OA
ATOM     14  H   UNL     1      -0.243   3.179   3.436  1.00  0.00     0.212 HD
ENDBRANCH   7  13
BRANCH   7  15
ATOM     15  C   UNL     1       2.791   1.952   3.828  1.00  0.00     0.025 C 
ATOM     16  C   UNL     1       3.545   0.616   3.853  1.00  0.00     0.011 C 
ATOM     17  C   UNL     1       3.549   2.902   2.886  1.00  0.00     0.011 C 
ENDBRANCH   7  15
ENDBRANCH   4   7
ENDBRANCH   2   3
ENDBRANCH   1   2
BRANCH   1  18
ATOM     18  C   UNL     1      -3.412  -0.294   4.579  1.00  0.00     0.023 C 
BRANCH  18  19
ATOM     19  C   UNL     1      -4.434   0.429   5.442  1.00  0.00     0.116 C 
BRANCH  19  20
ATOM     20  N   UNL     1      -5.402   1.177   4.658  1.00  0.00    -0.352 N 
ATOM     21  C   UNL     1      -6.760   1.288   4.837  1.00  0.00     0.251 C 
ATOM     22  H   UNL     1      -5.034   1.674   3.892  1.00  0.00     0.163 HD
ATOM     23  O   UNL     1      -7.442   1.832   3.977  1.00  0.00    -0.269 OA
BRANCH  21  24
ATOM     24  C   UNL     1      -7.388   0.720   6.051  1.00  0.00     0.039 A 
ATOM     25  C   UNL     1      -8.601   0.040   5.924  1.00  0.00     0.014 A 
ATOM     26  C   UNL     1      -6.790   0.858   7.306  1.00  0.00     0.014 A 
ATOM     27  C   UNL     1      -9.192  -0.533   7.051  1.00  0.00     0.010 A 
ATOM     28  C   UNL     1      -7.330   0.205   8.409  1.00  0.00     0.010 A 
ATOM     29  C   UNL     1      -8.550  -0.476   8.300  1.00  0.00    -0.014 A 
BRANCH  29  30
ATOM     30  C   UNL     1      -9.172  -1.083   9.505  1.00  0.00     0.031 A 
ATOM     31  C   UNL     1      -9.572  -0.209  10.665  1.00  0.00     0.074 A 
ATOM     32  C   UNL     1      -9.350  -2.417   9.567  1.00  0.00     0.049 A 
ATOM     33  N   UNL     1     -10.123  -0.544  11.804  1.00  0.00    -0.248 NA
ATOM     34  C   UNL     1      -9.288   1.229  10.540  1.00  0.00     0.031 C 
ATOM     35  C   UNL     1      -8.962  -3.370   8.524  1.00  0.00     0.029 A 
ATOM     36  N   UNL     1      -9.908  -3.205  10.542  1.00  0.00    -0.354 N 
ATOM     37  C   UNL     1     -10.235   0.636  12.533  1.00  0.00     0.074 A 
ATOM     38  C   UNL     1      -9.629   1.679  11.736  1.00  0.00     0.031 C 
ATOM     39  C   UNL     1      -9.339  -4.604   8.894  1.00  0.00     0.029 A 
ATOM     40  C   UNL     1      -9.950  -4.541  10.218  1.00  0.00     0.049 A 
ATOM     41  H   UNL     1     -10.247  -2.847  11.394  1.00  0.00     0.167 HD
ATOM     42  C   UNL     1     -10.815   0.835  13.743  1.00  0.00     0.034 A 
ATOM     43  C   UNL     1     -10.428  -5.595  10.910  1.00  0.00     0.034 A 
ATOM     44  C   UNL     1     -11.428  -0.218  14.516  1.00  0.00     0.049 A 
ATOM     45  C   UNL     1     -11.049  -5.351  12.263  1.00  0.00     0.074 A 
ATOM     46  C   UNL     1     -12.097  -0.123  15.723  1.00  0.00     0.029 A 
ATOM     47  N   UNL     1     -11.437  -1.562  14.163  1.00  0.00    -0.354 N 
ATOM     48  N   UNL     1     -11.206  -4.219  12.912  1.00  0.00    -0.248 NA
ATOM     49  C   UNL     1     -11.573  -6.527  12.968  1.00  0.00     0.031 C 
ATOM     50  C   UNL     1     -12.435  -1.414  16.140  1.00  0.00     0.029 A 
ATOM     51  C   UNL     1     -12.066  -2.309  15.148  1.00  0.00     0.049 A 
ATOM     52  H   UNL     1     -11.053  -1.931  13.335  1.00  0.00     0.167 HD
ATOM     53  C   UNL     1     -11.886  -4.545  14.083  1.00  0.00     0.074 A 
ATOM     54  C   UNL     1     -12.120  -5.974  14.039  1.00  0.00     0.031 C 
ATOM     55  C   UNL     1     -12.287  -3.737  15.098  1.00  0.00     0.034 A 
BRANCH  42  56
ATOM     56  C   UNL     1     -10.779   2.236  14.311  1.00  0.00     0.023 A 
ATOM     57  C   UNL     1     -11.386   3.323  13.654  1.00  0.00     0.031 A 
ATOM     58  C   UNL     1     -10.098   2.498  15.514  1.00  0.00     0.131 A 
ATOM     59  C   UNL     1     -11.227   4.624  14.154  1.00  0.00     0.055 A 
ATOM     60  C   UNL     1     -10.023   3.783  16.055  1.00  0.00     0.041 A 
ATOM     61  F   UNL     1      -9.478   1.510  16.177  1.00  0.00    -0.206 F 
ATOM     62  C   UNL     1     -10.574   4.859  15.366  1.00  0.00     0.022 A 
BRANCH  59  63
ATOM     63  S   UNL     1     -11.740   6.020  13.115  1.00  0.00     0.124 S 
ATOM     64  O   UNL     1     -10.949   5.796  11.908  1.00  0.00    -0.237 OA
ATOM     65  O   UNL     1     -13.177   5.806  12.987  1.00  0.00    -0.237 OA
ATOM     66  O   UNL     1     -11.350   7.191  13.897  1.00  0.00    -0.744 OA
ENDBRANCH  59  63
ENDBRANCH  42  56
BRANCH  43  67
ATOM     67  C   UNL     1     -10.355  -6.973  10.343  1.00  0.00     0.023 A 
ATOM     68  C   UNL     1     -11.523  -7.702  10.064  1.00  0.00     0.031 A 
ATOM     69  C   UNL     1      -9.118  -7.603  10.120  1.00  0.00     0.131 A 
ATOM     70  C   UNL     1     -11.431  -9.034   9.633  1.00  0.00     0.055 A 
ATOM     71  C   UNL     1      -9.032  -8.909   9.632  1.00  0.00     0.041 A 
ATOM     72  F   UNL     1      -7.969  -6.953  10.366  1.00  0.00    -0.206 F 
ATOM     73  C   UNL     1     -10.194  -9.638   9.400  1.00  0.00     0.022 A 
BRANCH  70  74
ATOM     74  S   UNL     1     -12.957 -10.002   9.475  1.00  0.00     0.124 S 
ATOM     75  O   UNL     1     -13.505  -9.914  10.824  1.00  0.00    -0.237 OA
ATOM     76  O   UNL     1     -13.677  -9.267   8.441  1.00  0.00    -0.237 OA
ATOM     77  O   UNL     1     -12.481 -11.326   9.079  1.00  0.00    -0.744 OA
ENDBRANCH  70  74
ENDBRANCH  43  67
BRANCH  55  78
ATOM     78  C   UNL     1     -13.076  -4.379  16.216  1.00  0.00     0.023 A 
ATOM     79  C   UNL     1     -12.520  -5.364  17.051  1.00  0.00     0.031 A 
ATOM     80  C   UNL     1     -14.419  -4.017  16.428  1.00  0.00     0.131 A 
ATOM     81  C   UNL     1     -13.324  -6.006  18.006  1.00  0.00     0.055 A 
ATOM     82  C   UNL     1     -15.191  -4.604  17.432  1.00  0.00     0.041 A 
ATOM     83  F   UNL     1     -15.007  -3.085  15.660  1.00  0.00    -0.206 F 
ATOM     84  C   UNL     1     -14.649  -5.618  18.215  1.00  0.00     0.022 A 
BRANCH  81  85
ATOM     85  S   UNL     1     -12.651  -7.445  18.882  1.00  0.00     0.124 S 
ATOM     86  O   UNL     1     -12.269  -8.320  17.779  1.00  0.00    -0.237 OA
ATOM     87  O   UNL     1     -11.551  -6.860  19.642  1.00  0.00    -0.237 OA
ATOM     88  O   UNL     1     -13.778  -7.915  19.686  1.00  0.00    -0.744 OA
ENDBRANCH  81  85
ENDBRANCH  55  78
ENDBRANCH  29  30
ENDBRANCH  21  24
ENDBRANCH  19  20
ENDBRANCH  18  19
ENDBRANCH   1  18
TORSDOF 19
