REMARK SMILES O=C(NCCCCNC(=O)[C@H]1C[C@H]2CCCC[C@@H]2[N@@H+]1CC[C@@H]1CCCO1)c1ccc(-c2c3nc(c(-c4cc(S(=O)(=O)[O-])ccc4F)c4ccc([nH]4)c(-c4cc(S(=O)(=O)[O-])ccc4F)c4nc(c(-c5cc(S(=O)(=O)[O-])ccc5F)c5ccc2[nH]5)C=C4)C=C3)cc1
REMARK SMILES IDX 5 1 4 2 3 3 1 4 2 5 27 7 28 8 89 9 29 10 88 11 30 12 31 13
REMARK SMILES IDX 32 14 82 15 33 16 87 17 81 18 83 19 34 20 86 21 80 22 79 23
REMARK SMILES IDX 35 25 67 26 47 27 66 28 48 29 51 30 65 31 84 32 49 33 50 34
REMARK SMILES IDX 64 36 85 37 52 38 36 39 37 40 45 41 38 42 44 43 46 44 43 45
REMARK SMILES IDX 39 46 40 47 41 48 42 49 68 50 69 51 77 52 70 53 76 54 78 55
REMARK SMILES IDX 75 56 71 57 72 58 73 59 74 60 53 61 54 62 62 63 55 64 61 65
REMARK SMILES IDX 63 66 60 67 56 68 57 69 58 70 59 71 6 72 7 73 8 74 9 75
REMARK SMILES IDX 10 77 11 78 12 79 19 80 13 81 18 82 14 84 17 85 15 86 16 87
REMARK SMILES IDX 20 88 21 89 22 90 23 91 26 92 24 93 25 94
REMARK H PARENT 3 6 83 24 51 35 8 76 19 83
REMARK Flexibility Score: inf
ROOT
ATOM      1  C   UNL     1       4.732   8.861  -4.517  1.00  0.00     0.023 C 
ENDROOT
BRANCH   1   2
ATOM      2  C   UNL     1       3.379   9.514  -4.697  1.00  0.00     0.116 C 
BRANCH   2   3
ATOM      3  N   UNL     1       3.268  10.880  -4.198  1.00  0.00    -0.352 N 
ATOM      4  O   UNL     1       2.487  13.017  -4.262  1.00  0.00    -0.269 OA
ATOM      5  C   UNL     1       2.488  11.886  -4.737  1.00  0.00     0.251 C 
ATOM      6  H   UNL     1       3.798  11.107  -3.400  1.00  0.00     0.163 HD
BRANCH   5   7
ATOM      7  C   UNL     1       1.693  11.562  -5.941  1.00  0.00     0.039 A 
ATOM      8  C   UNL     1       0.888  10.422  -5.935  1.00  0.00     0.014 A 
ATOM      9  C   UNL     1       1.896  12.286  -7.117  1.00  0.00     0.014 A 
ATOM     10  C   UNL     1       0.462   9.889  -7.141  1.00  0.00     0.010 A 
ATOM     11  C   UNL     1       1.353  11.812  -8.315  1.00  0.00     0.010 A 
ATOM     12  C   UNL     1       0.669  10.586  -8.343  1.00  0.00    -0.014 A 
BRANCH  12  13
ATOM     13  C   UNL     1       0.092  10.035  -9.596  1.00  0.00     0.031 A 
ATOM     14  C   UNL     1       0.960   9.633 -10.757  1.00  0.00     0.074 A 
ATOM     15  C   UNL     1      -1.244   9.862  -9.649  1.00  0.00     0.049 A 
ATOM     16  N   UNL     1       0.604   9.161 -11.925  1.00  0.00    -0.248 NA
ATOM     17  C   UNL     1       2.413   9.790 -10.594  1.00  0.00     0.031 C 
ATOM     18  C   UNL     1      -2.178  10.213  -8.573  1.00  0.00     0.029 A 
ATOM     19  N   UNL     1      -2.049   9.333 -10.622  1.00  0.00    -0.354 N 
ATOM     20  C   UNL     1       1.780   8.990 -12.648  1.00  0.00     0.074 A 
ATOM     21  C   UNL     1       2.862   9.428 -11.789  1.00  0.00     0.031 C 
ATOM     22  C   UNL     1      -3.413   9.833  -8.918  1.00  0.00     0.029 A 
ATOM     23  C   UNL     1      -3.380   9.307 -10.276  1.00  0.00     0.049 A 
ATOM     24  H   UNL     1      -1.708   9.002 -11.484  1.00  0.00     0.167 HD
ATOM     25  C   UNL     1       1.934   8.515 -13.910  1.00  0.00     0.034 A 
ATOM     26  C   UNL     1      -4.464   8.939 -10.982  1.00  0.00     0.034 A 
ATOM     27  C   UNL     1       0.836   8.073 -14.741  1.00  0.00     0.049 A 
ATOM     28  C   UNL     1      -4.265   8.447 -12.386  1.00  0.00     0.074 A 
ATOM     29  C   UNL     1       0.878   7.553 -16.024  1.00  0.00     0.029 A 
ATOM     30  N   UNL     1      -0.504   8.104 -14.373  1.00  0.00    -0.354 N 
ATOM     31  N   UNL     1      -3.146   8.306 -13.058  1.00  0.00    -0.248 NA
ATOM     32  C   UNL     1      -5.472   8.068 -13.127  1.00  0.00     0.031 C 
ATOM     33  C   UNL     1      -0.436   7.330 -16.452  1.00  0.00     0.029 A 
ATOM     34  C   UNL     1      -1.298   7.640 -15.413  1.00  0.00     0.049 A 
ATOM     35  H   UNL     1      -0.842   8.410 -13.500  1.00  0.00     0.167 HD
ATOM     36  C   UNL     1      -3.515   7.809 -14.302  1.00  0.00     0.074 A 
ATOM     37  C   UNL     1      -4.956   7.651 -14.274  1.00  0.00     0.031 C 
ATOM     38  C   UNL     1      -2.735   7.512 -15.372  1.00  0.00     0.034 A 
BRANCH  25  39
ATOM     39  C   UNL     1       3.330   8.498 -14.491  1.00  0.00     0.023 A 
ATOM     40  C   UNL     1       4.346   7.676 -13.973  1.00  0.00     0.031 A 
ATOM     41  C   UNL     1       3.649   9.324 -15.585  1.00  0.00     0.131 A 
ATOM     42  C   UNL     1       5.642   7.740 -14.510  1.00  0.00     0.055 A 
ATOM     43  C   UNL     1       4.921   9.331 -16.160  1.00  0.00     0.041 A 
ATOM     44  F   UNL     1       2.727  10.146 -16.111  1.00  0.00    -0.206 F 
ATOM     45  C   UNL     1       5.931   8.544 -15.616  1.00  0.00     0.022 A 
BRANCH  42  46
ATOM     46  S   UNL     1       6.979   6.848 -13.667  1.00  0.00     0.124 S 
ATOM     47  O   UNL     1       6.931   7.437 -12.331  1.00  0.00    -0.237 OA
ATOM     48  O   UNL     1       6.545   5.460 -13.769  1.00  0.00    -0.237 OA
ATOM     49  O   UNL     1       8.166   7.189 -14.448  1.00  0.00    -0.744 OA
ENDBRANCH  42  46
ENDBRANCH  25  39
BRANCH  26  50
ATOM     50  C   UNL     1      -5.822   9.076 -10.388  1.00  0.00     0.023 A 
ATOM     51  C   UNL     1      -6.624   7.952 -10.147  1.00  0.00     0.031 A 
ATOM     52  C   UNL     1      -6.338  10.342 -10.054  1.00  0.00     0.131 A 
ATOM     53  C   UNL     1      -7.913   8.117  -9.619  1.00  0.00     0.055 A 
ATOM     54  C   UNL     1      -7.598  10.496  -9.477  1.00  0.00     0.041 A 
ATOM     55  F   UNL     1      -5.607  11.450 -10.258  1.00  0.00    -0.206 F 
ATOM     56  C   UNL     1      -8.399   9.379  -9.268  1.00  0.00     0.022 A 
BRANCH  53  57
ATOM     57  S   UNL     1      -8.980   6.660  -9.468  1.00  0.00     0.124 S 
ATOM     58  O   UNL     1      -8.993   6.157 -10.837  1.00  0.00    -0.237 OA
ATOM     59  O   UNL     1      -8.253   5.853  -8.494  1.00  0.00    -0.237 OA
ATOM     60  O   UNL     1     -10.247   7.214  -8.994  1.00  0.00    -0.744 OA
ENDBRANCH  53  57
ENDBRANCH  26  50
BRANCH  38  61
ATOM     61  C   UNL     1      -3.443   6.956 -16.581  1.00  0.00     0.023 A 
ATOM     62  C   UNL     1      -4.319   7.745 -17.346  1.00  0.00     0.031 A 
ATOM     63  C   UNL     1      -3.268   5.610 -16.945  1.00  0.00     0.131 A 
ATOM     64  C   UNL     1      -5.038   7.164 -18.401  1.00  0.00     0.055 A 
ATOM     65  C   UNL     1      -3.942   5.053 -18.032  1.00  0.00     0.041 A 
ATOM     66  F   UNL     1      -2.445   4.814 -16.245  1.00  0.00    -0.206 F 
ATOM     67  C   UNL     1      -4.843   5.827 -18.758  1.00  0.00     0.022 A 
BRANCH  64  68
ATOM     68  S   UNL     1      -6.304   8.155 -19.239  1.00  0.00     0.124 S 
ATOM     69  O   UNL     1      -7.203   8.491 -18.140  1.00  0.00    -0.237 OA
ATOM     70  O   UNL     1      -5.525   9.260 -19.786  1.00  0.00    -0.237 OA
ATOM     71  O   UNL     1      -6.856   7.235 -20.233  1.00  0.00    -0.744 OA
ENDBRANCH  64  68
ENDBRANCH  38  61
ENDBRANCH  12  13
ENDBRANCH   5   7
ENDBRANCH   2   3
ENDBRANCH   1   2
BRANCH   1  72
ATOM     72  C   UNL     1       5.216   8.750  -3.086  1.00  0.00     0.023 C 
BRANCH  72  73
ATOM     73  C   UNL     1       4.314   8.017  -2.085  1.00  0.00     0.116 C 
BRANCH  73  74
ATOM     74  N   UNL     1       4.784   6.697  -1.704  1.00  0.00    -0.351 N 
ATOM     75  C   UNL     1       5.623   6.244  -0.729  1.00  0.00     0.278 C 
ATOM     76  H   UNL     1       4.420   5.977  -2.268  1.00  0.00     0.163 HD
ATOM     77  O   UNL     1       5.563   5.024  -0.514  1.00  0.00    -0.268 OA
BRANCH  75  78
ATOM     78  C   UNL     1       6.652   7.107   0.067  1.00  0.00     0.274 C 
ATOM     79  C   UNL     1       6.897   8.550  -0.345  1.00  0.00     0.085 C 
ATOM     80  N   UNL     1       6.282   7.205   1.512  1.00  0.00    -0.322 N 
ATOM     81  C   UNL     1       6.247   9.415   0.719  1.00  0.00     0.054 C 
ATOM     82  C   UNL     1       5.500   8.437   1.609  1.00  0.00     0.188 C 
ATOM     83  H   UNL     1       5.704   6.427   1.832  1.00  0.00     0.349 HD
ATOM     84  C   UNL     1       5.383  10.618   0.385  1.00  0.00     0.010 C 
ATOM     85  C   UNL     1       5.146   9.067   2.955  1.00  0.00     0.065 C 
ATOM     86  C   UNL     1       5.057  11.329   1.709  1.00  0.00     0.001 C 
ATOM     87  C   UNL     1       4.401  10.396   2.742  1.00  0.00     0.006 C 
BRANCH  80  88
ATOM     88  C   UNL     1       7.387   6.974   2.464  1.00  0.00     0.265 C 
BRANCH  88  89
ATOM     89  C   UNL     1       8.812   7.593   2.315  1.00  0.00     0.093 C 
BRANCH  89  90
ATOM     90  C   UNL     1       8.924   9.087   2.611  1.00  0.00     0.123 C 
ATOM     91  C   UNL     1       9.706   9.884   1.575  1.00  0.00     0.034 C 
ATOM     92  O   UNL     1       9.639   9.417   3.816  1.00  0.00    -0.378 OA
ATOM     93  C   UNL     1       9.804  11.225   2.260  1.00  0.00     0.031 C 
ATOM     94  C   UNL     1       9.859  10.847   3.735  1.00  0.00     0.160 C 
ENDBRANCH  89  90
ENDBRANCH  88  89
ENDBRANCH  80  88
ENDBRANCH  75  78
ENDBRANCH  73  74
ENDBRANCH  72  73
ENDBRANCH   1  72
TORSDOF 17
