REMARK SMILES O=C(NCCCCNC(=O)[C@H]1CCCC[C@H]1C(=O)N1CCN(S(=O)(=O)c2ccc(F)cc2)CC1)c1ccc(-c2c3nc(c(-c4cc(S(=O)(=O)[O-])ccc4F)c4ccc([nH]4)c(-c4cc(S(=O)(=O)[O-])ccc4F)c4nc(c(-c5cc(S(=O)(=O)[O-])ccc5F)c5ccc2[nH]5)C=C4)C=C3)cc1
REMARK SMILES IDX 5 1 4 2 3 3 1 4 2 5 35 7 36 8 97 9 37 10 96 11 38 12 39 13
REMARK SMILES IDX 40 14 90 15 41 16 95 17 89 18 91 19 42 20 94 21 88 22 87 23
REMARK SMILES IDX 43 25 75 26 55 27 74 28 56 29 59 30 73 31 92 32 57 33 58 34
REMARK SMILES IDX 72 36 93 37 60 38 44 39 45 40 53 41 46 42 52 43 54 44 51 45
REMARK SMILES IDX 47 46 48 47 49 48 50 49 76 50 77 51 85 52 78 53 84 54 86 55
REMARK SMILES IDX 83 56 79 57 80 58 81 59 82 60 61 61 62 62 70 63 63 64 69 65
REMARK SMILES IDX 71 66 68 67 64 68 65 69 66 70 67 71 6 72 7 73 8 74 9 75
REMARK SMILES IDX 10 77 11 78 12 79 16 80 13 81 15 82 14 83 17 84 18 85 19 86
REMARK SMILES IDX 20 87 34 88 21 89 33 90 22 91 23 92 24 93 25 94 26 95 27 96
REMARK SMILES IDX 32 97 28 98 31 99 29 100 30 101
REMARK H PARENT 3 6 91 24 59 35 8 76
REMARK Flexibility Score: inf
ROOT
ATOM      1  C   UNL     1      10.725  -5.870  -5.077  1.00  0.00     0.023 C 
ENDROOT
BRANCH   1   2
ATOM      2  C   UNL     1      11.141  -4.721  -5.987  1.00  0.00     0.116 C 
BRANCH   2   3
ATOM      3  N   UNL     1      12.514  -4.309  -5.761  1.00  0.00    -0.352 N 
ATOM      4  O   UNL     1      14.714  -4.120  -6.124  1.00  0.00    -0.269 OA
ATOM      5  C   UNL     1      13.600  -4.323  -6.606  1.00  0.00     0.251 C 
ATOM      6  H   UNL     1      12.699  -3.965  -4.858  1.00  0.00     0.163 HD
BRANCH   5   7
ATOM      7  C   UNL     1      13.470  -4.567  -8.069  1.00  0.00     0.039 A 
ATOM      8  C   UNL     1      12.399  -4.073  -8.817  1.00  0.00     0.014 A 
ATOM      9  C   UNL     1      14.513  -5.229  -8.733  1.00  0.00     0.014 A 
ATOM     10  C   UNL     1      12.320  -4.325 -10.189  1.00  0.00     0.010 A 
ATOM     11  C   UNL     1      14.472  -5.412 -10.122  1.00  0.00     0.010 A 
ATOM     12  C   UNL     1      13.367  -4.973 -10.865  1.00  0.00    -0.014 A 
BRANCH  12  13
ATOM     13  C   UNL     1      13.318  -5.111 -12.348  1.00  0.00     0.031 A 
ATOM     14  C   UNL     1      13.248  -6.466 -13.002  1.00  0.00     0.074 A 
ATOM     15  C   UNL     1      13.313  -3.997 -13.111  1.00  0.00     0.049 A 
ATOM     16  N   UNL     1      13.210  -6.761 -14.277  1.00  0.00    -0.248 NA
ATOM     17  C   UNL     1      13.224  -7.640 -12.116  1.00  0.00     0.031 C 
ATOM     18  C   UNL     1      13.385  -2.627 -12.597  1.00  0.00     0.029 A 
ATOM     19  N   UNL     1      13.222  -3.831 -14.472  1.00  0.00    -0.354 N 
ATOM     20  C   UNL     1      13.177  -8.150 -14.350  1.00  0.00     0.074 A 
ATOM     21  C   UNL     1      13.220  -8.640 -12.989  1.00  0.00     0.031 C 
ATOM     22  C   UNL     1      13.277  -1.764 -13.619  1.00  0.00     0.029 A 
ATOM     23  C   UNL     1      13.197  -2.513 -14.869  1.00  0.00     0.049 A 
ATOM     24  H   UNL     1      13.179  -4.584 -15.104  1.00  0.00     0.167 HD
ATOM     25  C   UNL     1      13.107  -8.938 -15.450  1.00  0.00     0.034 A 
ATOM     26  C   UNL     1      13.135  -1.961 -16.097  1.00  0.00     0.034 A 
ATOM     27  C   UNL     1      13.034  -8.441 -16.802  1.00  0.00     0.049 A 
ATOM     28  C   UNL     1      13.092  -2.862 -17.301  1.00  0.00     0.074 A 
ATOM     29  C   UNL     1      12.911  -9.164 -17.977  1.00  0.00     0.029 A 
ATOM     30  N   UNL     1      13.078  -7.102 -17.163  1.00  0.00    -0.354 N 
ATOM     31  N   UNL     1      13.070  -4.173 -17.344  1.00  0.00    -0.248 NA
ATOM     32  C   UNL     1      13.084  -2.215 -18.620  1.00  0.00     0.031 C 
ATOM     33  C   UNL     1      12.934  -8.268 -19.049  1.00  0.00     0.029 A 
ATOM     34  C   UNL     1      13.014  -6.981 -18.542  1.00  0.00     0.049 A 
ATOM     35  H   UNL     1      13.145  -6.349 -16.532  1.00  0.00     0.167 HD
ATOM     36  C   UNL     1      13.045  -4.506 -18.693  1.00  0.00     0.074 A 
ATOM     37  C   UNL     1      13.035  -3.261 -19.433  1.00  0.00     0.031 C 
ATOM     38  C   UNL     1      13.031  -5.735 -19.266  1.00  0.00     0.034 A 
BRANCH  25  39
ATOM     39  C   UNL     1      13.131 -10.432 -15.254  1.00  0.00     0.023 A 
ATOM     40  C   UNL     1      12.029 -11.126 -14.728  1.00  0.00     0.031 A 
ATOM     41  C   UNL     1      14.252 -11.176 -15.663  1.00  0.00     0.131 A 
ATOM     42  C   UNL     1      12.081 -12.523 -14.602  1.00  0.00     0.055 A 
ATOM     43  C   UNL     1      14.279 -12.569 -15.582  1.00  0.00     0.041 A 
ATOM     44  F   UNL     1      15.334 -10.559 -16.165  1.00  0.00    -0.206 F 
ATOM     45  C   UNL     1      13.189 -13.250 -15.047  1.00  0.00     0.022 A 
BRANCH  42  46
ATOM     46  S   UNL     1      10.687 -13.392 -13.832  1.00  0.00     0.124 S 
ATOM     47  O   UNL     1      10.835 -13.007 -12.432  1.00  0.00    -0.237 OA
ATOM     48  O   UNL     1       9.533 -12.833 -14.529  1.00  0.00    -0.237 OA
ATOM     49  O   UNL     1      10.960 -14.799 -14.119  1.00  0.00    -0.744 OA
ENDBRANCH  42  46
ENDBRANCH  25  39
BRANCH  26  50
ATOM     50  C   UNL     1      13.156  -0.479 -16.254  1.00  0.00     0.023 A 
ATOM     51  C   UNL     1      12.036   0.216 -16.735  1.00  0.00     0.031 A 
ATOM     52  C   UNL     1      14.306   0.261 -15.928  1.00  0.00     0.131 A 
ATOM     53  C   UNL     1      12.097   1.610 -16.896  1.00  0.00     0.055 A 
ATOM     54  C   UNL     1      14.348   1.651 -16.050  1.00  0.00     0.041 A 
ATOM     55  F   UNL     1      15.402  -0.358 -15.462  1.00  0.00    -0.206 F 
ATOM     56  C   UNL     1      13.240   2.332 -16.544  1.00  0.00     0.022 A 
BRANCH  53  57
ATOM     57  S   UNL     1      10.669   2.470 -17.613  1.00  0.00     0.124 S 
ATOM     58  O   UNL     1      10.610   1.885 -18.948  1.00  0.00    -0.237 OA
ATOM     59  O   UNL     1       9.596   2.094 -16.699  1.00  0.00    -0.237 OA
ATOM     60  O   UNL     1      11.060   3.877 -17.564  1.00  0.00    -0.744 OA
ENDBRANCH  53  57
ENDBRANCH  26  50
BRANCH  38  61
ATOM     61  C   UNL     1      12.998  -5.795 -20.769  1.00  0.00     0.023 A 
ATOM     62  C   UNL     1      14.138  -5.502 -21.534  1.00  0.00     0.031 A 
ATOM     63  C   UNL     1      11.827  -6.193 -21.437  1.00  0.00     0.131 A 
ATOM     64  C   UNL     1      14.079  -5.593 -22.932  1.00  0.00     0.055 A 
ATOM     65  C   UNL     1      11.786  -6.321 -22.825  1.00  0.00     0.041 A 
ATOM     66  F   UNL     1      10.713  -6.485 -20.746  1.00  0.00    -0.206 F 
ATOM     67  C   UNL     1      12.915  -6.017 -23.581  1.00  0.00     0.022 A 
BRANCH  64  68
ATOM     68  S   UNL     1      15.542  -5.137 -23.902  1.00  0.00     0.124 S 
ATOM     69  O   UNL     1      15.621  -3.698 -23.669  1.00  0.00    -0.237 OA
ATOM     70  O   UNL     1      16.594  -5.941 -23.289  1.00  0.00    -0.237 OA
ATOM     71  O   UNL     1      15.184  -5.526 -25.265  1.00  0.00    -0.744 OA
ENDBRANCH  64  68
ENDBRANCH  38  61
ENDBRANCH  12  13
ENDBRANCH   5   7
ENDBRANCH   2   3
ENDBRANCH   1   2
BRANCH   1  72
ATOM     72  C   UNL     1      10.475  -5.525  -3.612  1.00  0.00     0.023 C 
BRANCH  72  73
ATOM     73  C   UNL     1       9.309  -4.574  -3.341  1.00  0.00     0.116 C 
BRANCH  73  74
ATOM     74  N   UNL     1       8.124  -4.800  -4.156  1.00  0.00    -0.356 N 
ATOM     75  C   UNL     1       6.938  -5.415  -3.902  1.00  0.00     0.223 C 
ATOM     76  H   UNL     1       8.195  -4.437  -5.068  1.00  0.00     0.163 HD
ATOM     77  O   UNL     1       6.041  -5.256  -4.735  1.00  0.00    -0.275 OA
BRANCH  75  78
ATOM     78  C   UNL     1       6.717  -6.256  -2.652  1.00  0.00     0.091 C 
ATOM     79  C   UNL     1       5.312  -5.935  -2.080  1.00  0.00     0.014 C 
ATOM     80  C   UNL     1       7.005  -7.780  -2.738  1.00  0.00     0.091 C 
ATOM     81  C   UNL     1       4.213  -6.892  -2.532  1.00  0.00     0.001 C 
ATOM     82  C   UNL     1       5.815  -8.748  -2.886  1.00  0.00     0.014 C 
ATOM     83  C   UNL     1       4.570  -8.312  -2.140  1.00  0.00     0.001 C 
BRANCH  80  84
ATOM     84  C   UNL     1       8.162  -8.312  -3.601  1.00  0.00     0.226 C 
ATOM     85  O   UNL     1       9.198  -8.651  -3.016  1.00  0.00    -0.275 OA
ATOM     86  N   UNL     1       7.999  -8.561  -4.961  1.00  0.00    -0.340 N 
ATOM     87  C   UNL     1       9.033  -9.384  -5.615  1.00  0.00     0.136 C 
ATOM     88  C   UNL     1       7.181  -7.732  -5.852  1.00  0.00     0.136 C 
ATOM     89  C   UNL     1       8.595  -9.993  -6.962  1.00  0.00     0.124 C 
ATOM     90  C   UNL     1       6.853  -8.324  -7.223  1.00  0.00     0.124 C 
ATOM     91  N   UNL     1       8.018  -8.955  -7.885  1.00  0.00    -0.194 NA
BRANCH  91  92
ATOM     92  S   UNL     1       9.216  -8.012  -8.647  1.00  0.00     0.243 S 
ATOM     93  O   UNL     1       9.932  -7.291  -7.620  1.00  0.00    -0.207 OA
ATOM     94  O   UNL     1       9.944  -8.878  -9.547  1.00  0.00    -0.207 OA
BRANCH  92  95
ATOM     95  C   UNL     1       8.387  -6.769  -9.608  1.00  0.00     0.082 A 
ATOM     96  C   UNL     1       8.026  -5.567  -8.973  1.00  0.00     0.025 A 
ATOM     97  C   UNL     1       8.303  -6.886 -10.998  1.00  0.00     0.025 A 
ATOM     98  C   UNL     1       7.540  -4.501  -9.726  1.00  0.00     0.040 A 
ATOM     99  C   UNL     1       7.828  -5.806 -11.748  1.00  0.00     0.040 A 
ATOM    100  C   UNL     1       7.448  -4.629 -11.106  1.00  0.00     0.123 A 
ATOM    101  F   UNL     1       7.003  -3.591 -11.826  1.00  0.00    -0.207 F 
ENDBRANCH  92  95
ENDBRANCH  91  92
ENDBRANCH  80  84
ENDBRANCH  75  78
ENDBRANCH  73  74
ENDBRANCH  72  73
ENDBRANCH   1  72
TORSDOF 17
