REMARK SMILES C[C@@H]1CCC[C@H]1NC(=O)c1csc(/C=C/C(=O)NCCCCNC(=O)c2ccc(-c3c4nc(c(-c5cc(S(=O)(=O)[O-])ccc5F)c5ccc([nH]5)c(-c5cc(S(=O)(=O)[O-])ccc5F)c5nc(c(-c6cc(S(=O)(=O)[O-])ccc6F)c6ccc3[nH]6)C=C5)C=C4)cc2)c1
REMARK SMILES IDX 20 1 19 2 18 3 16 4 17 5 15 7 14 8 13 9 10 10 11 11 89 12
REMARK SMILES IDX 12 13 8 14 7 15 9 17 6 18 1 19 2 20 3 21 4 22 5 23 21 24
REMARK SMILES IDX 22 25 23 26 24 27 25 29 26 30 27 31 88 32 28 33 87 34 29 35
REMARK SMILES IDX 30 36 31 37 81 38 32 39 86 40 80 41 82 42 33 43 85 44 79 45
REMARK SMILES IDX 78 46 34 48 66 49 46 50 65 51 47 52 50 53 64 54 83 55 48 56
REMARK SMILES IDX 49 57 63 59 84 60 51 61 35 62 36 63 44 64 37 65 43 66 45 67
REMARK SMILES IDX 42 68 38 69 39 70 40 71 41 72 67 73 68 74 76 75 69 76 75 77
REMARK SMILES IDX 77 78 74 79 70 80 71 81 72 82 73 83 52 84 53 85 61 86 54 87
REMARK SMILES IDX 60 88 62 89 59 90 55 91 56 92 57 93 58 94
REMARK H PARENT 18 6 7 16 23 28 82 47 50 58
REMARK Flexibility Score: inf
ROOT
ATOM      1  C   UNL     1       5.101   6.952   4.649  1.00  0.00     0.023 C 
ENDROOT
BRANCH   1   2
ATOM      2  C   UNL     1       4.026   7.967   4.258  1.00  0.00     0.116 C 
BRANCH   2   3
ATOM      3  N   UNL     1       4.419   8.693   3.063  1.00  0.00    -0.353 N 
ATOM      4  C   UNL     1       3.970   8.611   1.782  1.00  0.00     0.244 C 
ATOM      5  O   UNL     1       4.418   9.372   0.926  1.00  0.00    -0.270 OA
ATOM      6  H   UNL     1       5.131   9.358   3.204  1.00  0.00     0.163 HD
BRANCH   4   7
ATOM      7  C   UNL     1       2.873   7.688   1.419  1.00  0.00     0.072 C 
ATOM      8  C   UNL     1       2.815   6.406   1.804  1.00  0.00     0.024 C 
BRANCH   8   9
ATOM      9  C   UNL     1       1.710   5.552   1.527  1.00  0.00     0.028 A 
ATOM     10  C   UNL     1       0.165   3.784   1.771  1.00  0.00     0.051 A 
ATOM     11  C   UNL     1      -0.207   4.323   0.555  1.00  0.00     0.079 A 
ATOM     12  C   UNL     1       1.232   4.545   2.347  1.00  0.00     0.033 A 
ATOM     13  S   UNL     1       0.794   5.621   0.076  1.00  0.00    -0.144 S 
BRANCH  10  14
ATOM     14  C   UNL     1      -0.464   2.644   2.420  1.00  0.00     0.252 C 
ATOM     15  N   UNL     1      -0.583   1.465   1.730  1.00  0.00    -0.349 N 
ATOM     16  H   UNL     1      -1.071   0.752   2.200  1.00  0.00     0.164 HD
ATOM     17  O   UNL     1      -0.839   2.690   3.588  1.00  0.00    -0.269 OA
BRANCH  15  18
ATOM     18  C   UNL     1      -0.093   1.109   0.402  1.00  0.00     0.085 C 
ATOM     19  C   UNL     1       1.780  -0.147  -0.751  1.00  0.00     0.010 C 
ATOM     20  C   UNL     1       0.840  -0.109   0.456  1.00  0.00     0.008 C 
ATOM     21  C   UNL     1      -0.127  -1.291   0.460  1.00  0.00     0.005 C 
ATOM     22  C   UNL     1      -1.299  -0.860  -0.416  1.00  0.00     0.002 C 
ATOM     23  C   UNL     1      -1.260   0.667  -0.483  1.00  0.00     0.025 C 
ENDBRANCH  15  18
ENDBRANCH  10  14
ENDBRANCH   8   9
ENDBRANCH   4   7
ENDBRANCH   2   3
ENDBRANCH   1   2
BRANCH   1  24
ATOM     24  C   UNL     1       6.312   7.569   5.353  1.00  0.00     0.023 C 
BRANCH  24  25
ATOM     25  C   UNL     1       5.999   8.255   6.678  1.00  0.00     0.116 C 
BRANCH  25  26
ATOM     26  N   UNL     1       5.380   7.366   7.649  1.00  0.00    -0.352 N 
ATOM     27  C   UNL     1       5.548   7.349   9.013  1.00  0.00     0.251 C 
ATOM     28  H   UNL     1       4.763   6.692   7.283  1.00  0.00     0.163 HD
ATOM     29  O   UNL     1       5.058   6.445   9.681  1.00  0.00    -0.269 OA
BRANCH  27  30
ATOM     30  C   UNL     1       6.360   8.407   9.650  1.00  0.00     0.039 A 
ATOM     31  C   UNL     1       7.355   8.044  10.558  1.00  0.00     0.014 A 
ATOM     32  C   UNL     1       6.165   9.749   9.313  1.00  0.00     0.014 A 
ATOM     33  C   UNL     1       8.196   9.026  11.085  1.00  0.00     0.010 A 
ATOM     34  C   UNL     1       7.056  10.712   9.773  1.00  0.00     0.010 A 
ATOM     35  C   UNL     1       8.075  10.363  10.672  1.00  0.00    -0.014 A 
BRANCH  35  36
ATOM     36  C   UNL     1       8.981  11.418  11.195  1.00  0.00     0.031 A 
ATOM     37  C   UNL     1       8.415  12.555  12.002  1.00  0.00     0.074 A 
ATOM     38  C   UNL     1      10.296  11.383  10.902  1.00  0.00     0.049 A 
ATOM     39  N   UNL     1       9.018  13.610  12.486  1.00  0.00    -0.248 NA
ATOM     40  C   UNL     1       6.969  12.515  12.268  1.00  0.00     0.031 C 
ATOM     41  C   UNL     1      10.956  10.351  10.099  1.00  0.00     0.029 A 
ATOM     42  N   UNL     1      11.314  12.238  11.242  1.00  0.00    -0.354 N 
ATOM     43  C   UNL     1       8.024  14.363  13.104  1.00  0.00     0.074 A 
ATOM     44  C   UNL     1       6.771  13.681  12.860  1.00  0.00     0.031 C 
ATOM     45  C   UNL     1      12.272  10.615  10.039  1.00  0.00     0.029 A 
ATOM     46  C   UNL     1      12.543  11.859  10.754  1.00  0.00     0.049 A 
ATOM     47  H   UNL     1      11.177  13.048  11.784  1.00  0.00     0.167 HD
ATOM     48  C   UNL     1       8.148  15.500  13.834  1.00  0.00     0.034 A 
ATOM     49  C   UNL     1      13.750  12.450  10.864  1.00  0.00     0.034 A 
ATOM     50  C   UNL     1       9.408  16.162  14.071  1.00  0.00     0.049 A 
ATOM     51  C   UNL     1      13.860  13.734  11.649  1.00  0.00     0.074 A 
ATOM     52  C   UNL     1       9.658  17.298  14.820  1.00  0.00     0.029 A 
ATOM     53  N   UNL     1      10.632  15.750  13.557  1.00  0.00    -0.354 N 
ATOM     54  N   UNL     1      12.917  14.415  12.260  1.00  0.00    -0.248 NA
ATOM     55  C   UNL     1      15.200  14.321  11.770  1.00  0.00     0.031 C 
ATOM     56  C   UNL     1      11.015  17.614  14.699  1.00  0.00     0.029 A 
ATOM     57  C   UNL     1      11.633  16.625  13.951  1.00  0.00     0.049 A 
ATOM     58  H   UNL     1      10.768  14.953  12.994  1.00  0.00     0.167 HD
ATOM     59  C   UNL     1      13.561  15.486  12.876  1.00  0.00     0.074 A 
ATOM     60  C   UNL     1      14.970  15.353  12.568  1.00  0.00     0.031 C 
ATOM     61  C   UNL     1      13.037  16.482  13.635  1.00  0.00     0.034 A 
BRANCH  48  62
ATOM     62  C   UNL     1       6.881  16.101  14.399  1.00  0.00     0.023 A 
ATOM     63  C   UNL     1       6.066  15.391  15.300  1.00  0.00     0.031 A 
ATOM     64  C   UNL     1       6.454  17.378  13.998  1.00  0.00     0.131 A 
ATOM     65  C   UNL     1       4.828  15.920  15.694  1.00  0.00     0.055 A 
ATOM     66  C   UNL     1       5.265  17.940  14.470  1.00  0.00     0.041 A 
ATOM     67  F   UNL     1       7.174  18.098  13.123  1.00  0.00    -0.206 F 
ATOM     68  C   UNL     1       4.435  17.202  15.308  1.00  0.00     0.022 A 
BRANCH  65  69
ATOM     69  S   UNL     1       3.667  14.838  16.572  1.00  0.00     0.124 S 
ATOM     70  O   UNL     1       3.511  13.740  15.620  1.00  0.00    -0.237 OA
ATOM     71  O   UNL     1       4.393  14.523  17.797  1.00  0.00    -0.237 OA
ATOM     72  O   UNL     1       2.482  15.675  16.745  1.00  0.00    -0.744 OA
ENDBRANCH  65  69
ENDBRANCH  48  62
BRANCH  49  73
ATOM     73  C   UNL     1      14.954  11.841  10.227  1.00  0.00     0.023 A 
ATOM     74  C   UNL     1      16.031  11.386  11.005  1.00  0.00     0.031 A 
ATOM     75  C   UNL     1      15.066  11.746   8.829  1.00  0.00     0.131 A 
ATOM     76  C   UNL     1      17.193  10.907  10.381  1.00  0.00     0.055 A 
ATOM     77  C   UNL     1      16.201  11.214   8.214  1.00  0.00     0.041 A 
ATOM     78  F   UNL     1      14.065  12.162   8.036  1.00  0.00    -0.206 F 
ATOM     79  C   UNL     1      17.279  10.804   8.991  1.00  0.00     0.022 A 
BRANCH  76  80
ATOM     80  S   UNL     1      18.630  10.505  11.413  1.00  0.00     0.124 S 
ATOM     81  O   UNL     1      18.878  11.776  12.082  1.00  0.00    -0.237 OA
ATOM     82  O   UNL     1      18.110   9.428  12.250  1.00  0.00    -0.237 OA
ATOM     83  O   UNL     1      19.643  10.101  10.441  1.00  0.00    -0.744 OA
ENDBRANCH  76  80
ENDBRANCH  49  73
BRANCH  61  84
ATOM     84  C   UNL     1      14.007  17.468  14.244  1.00  0.00     0.023 A 
ATOM     85  C   UNL     1      14.780  18.340  13.458  1.00  0.00     0.031 A 
ATOM     86  C   UNL     1      14.166  17.523  15.641  1.00  0.00     0.131 A 
ATOM     87  C   UNL     1      15.723  19.181  14.069  1.00  0.00     0.055 A 
ATOM     88  C   UNL     1      15.055  18.411  16.247  1.00  0.00     0.041 A 
ATOM     89  F   UNL     1      13.457  16.711  16.443  1.00  0.00    -0.206 F 
ATOM     90  C   UNL     1      15.851  19.236  15.460  1.00  0.00     0.022 A 
BRANCH  87  91
ATOM     91  S   UNL     1      16.861  20.124  13.017  1.00  0.00     0.124 S 
ATOM     92  O   UNL     1      17.489  19.069  12.229  1.00  0.00    -0.237 OA
ATOM     93  O   UNL     1      15.954  21.008  12.291  1.00  0.00    -0.237 OA
ATOM     94  O   UNL     1      17.741  20.791  13.975  1.00  0.00    -0.744 OA
ENDBRANCH  87  91
ENDBRANCH  61  84
ENDBRANCH  35  36
ENDBRANCH  27  30
ENDBRANCH  25  26
ENDBRANCH  24  25
ENDBRANCH   1  24
TORSDOF 17
