REMARK SMILES O=C(NCCCCNC(=O)C1(Cc2cccc(Cl)c2)CCCC1)c1ccc(-c2c3nc(c(-c4cc(S(=O)(=O)[O-])ccc4F)c4ccc([nH]4)c(-c4cc(S(=O)(=O)[O-])ccc4F)c4nc(c(-c5cc(S(=O)(=O)[O-])ccc5F)c5ccc2[nH]5)C=C4)C=C3)cc1
REMARK SMILES IDX 5 1 4 2 3 3 1 4 2 5 24 7 25 8 86 9 26 10 85 11 27 12 28 13
REMARK SMILES IDX 29 14 79 15 30 16 84 17 78 18 80 19 31 20 83 21 77 22 76 23
REMARK SMILES IDX 32 25 64 26 44 27 63 28 45 29 48 30 62 31 81 32 46 33 47 34
REMARK SMILES IDX 61 36 82 37 49 38 33 39 34 40 42 41 35 42 41 43 43 44 40 45
REMARK SMILES IDX 36 46 37 47 38 48 39 49 65 50 66 51 74 52 67 53 73 54 75 55
REMARK SMILES IDX 72 56 68 57 69 58 70 59 71 60 50 61 51 62 59 63 52 64 58 65
REMARK SMILES IDX 60 66 57 67 53 68 54 69 55 70 56 71 6 72 7 73 8 74 9 75
REMARK SMILES IDX 10 77 11 78 20 79 23 80 21 81 22 82 12 83 13 84 14 85 19 86
REMARK SMILES IDX 15 87 17 88 16 89 18 90
REMARK H PARENT 3 6 80 24 48 35 8 76
REMARK Flexibility Score: inf
ROOT
ATOM      1  C   UNL     1       4.634  -2.536  -0.229  1.00  0.00     0.023 C 
ENDROOT
BRANCH   1   2
ATOM      2  C   UNL     1       4.401  -1.066  -0.534  1.00  0.00     0.116 C 
BRANCH   2   3
ATOM      3  N   UNL     1       2.990  -0.748  -0.712  1.00  0.00    -0.352 N 
ATOM      4  O   UNL     1       1.061   0.365  -0.363  1.00  0.00    -0.269 OA
ATOM      5  C   UNL     1       2.276   0.327  -0.233  1.00  0.00     0.251 C 
ATOM      6  H   UNL     1       2.475  -1.392  -1.250  1.00  0.00     0.163 HD
BRANCH   5   7
ATOM      7  C   UNL     1       2.996   1.418   0.457  1.00  0.00     0.039 A 
ATOM      8  C   UNL     1       4.192   1.911  -0.065  1.00  0.00     0.014 A 
ATOM      9  C   UNL     1       2.479   1.931   1.650  1.00  0.00     0.014 A 
ATOM     10  C   UNL     1       4.950   2.800   0.681  1.00  0.00     0.010 A 
ATOM     11  C   UNL     1       3.198   2.903   2.350  1.00  0.00     0.010 A 
ATOM     12  C   UNL     1       4.456   3.319   1.888  1.00  0.00    -0.014 A 
BRANCH  12  13
ATOM     13  C   UNL     1       5.266   4.326   2.618  1.00  0.00     0.031 A 
ATOM     14  C   UNL     1       5.822   4.032   3.983  1.00  0.00     0.074 A 
ATOM     15  C   UNL     1       5.536   5.495   2.004  1.00  0.00     0.049 A 
ATOM     16  N   UNL     1       6.572   4.784   4.747  1.00  0.00    -0.248 NA
ATOM     17  C   UNL     1       5.481   2.730   4.572  1.00  0.00     0.031 C 
ATOM     18  C   UNL     1       5.043   5.878   0.677  1.00  0.00     0.029 A 
ATOM     19  N   UNL     1       6.311   6.556   2.387  1.00  0.00    -0.354 N 
ATOM     20  C   UNL     1       6.769   4.063   5.920  1.00  0.00     0.074 A 
ATOM     21  C   UNL     1       6.034   2.823   5.773  1.00  0.00     0.031 C 
ATOM     22  C   UNL     1       5.585   7.053   0.329  1.00  0.00     0.029 A 
ATOM     23  C   UNL     1       6.397   7.545   1.435  1.00  0.00     0.049 A 
ATOM     24  H   UNL     1       6.764   6.607   3.260  1.00  0.00     0.167 HD
ATOM     25  C   UNL     1       7.496   4.407   7.013  1.00  0.00     0.034 A 
ATOM     26  C   UNL     1       7.046   8.723   1.453  1.00  0.00     0.034 A 
ATOM     27  C   UNL     1       8.230   5.647   7.126  1.00  0.00     0.049 A 
ATOM     28  C   UNL     1       7.835   9.085   2.680  1.00  0.00     0.074 A 
ATOM     29  C   UNL     1       9.020   6.093   8.173  1.00  0.00     0.029 A 
ATOM     30  N   UNL     1       8.261   6.646   6.158  1.00  0.00    -0.354 N 
ATOM     31  N   UNL     1       8.011   8.393   3.782  1.00  0.00    -0.248 NA
ATOM     32  C   UNL     1       8.513  10.385   2.664  1.00  0.00     0.031 C 
ATOM     33  C   UNL     1       9.475   7.381   7.865  1.00  0.00     0.029 A 
ATOM     34  C   UNL     1       9.033   7.713   6.595  1.00  0.00     0.049 A 
ATOM     35  H   UNL     1       7.802   6.602   5.289  1.00  0.00     0.167 HD
ATOM     36  C   UNL     1       8.840   9.167   4.585  1.00  0.00     0.074 A 
ATOM     37  C   UNL     1       9.143  10.367   3.830  1.00  0.00     0.031 C 
ATOM     38  C   UNL     1       9.310   8.910   5.833  1.00  0.00     0.034 A 
BRANCH  25  39
ATOM     39  C   UNL     1       7.478   3.456   8.189  1.00  0.00     0.023 A 
ATOM     40  C   UNL     1       7.990   2.149   8.102  1.00  0.00     0.031 A 
ATOM     41  C   UNL     1       6.897   3.851   9.408  1.00  0.00     0.131 A 
ATOM     42  C   UNL     1       7.841   1.263   9.181  1.00  0.00     0.055 A 
ATOM     43  C   UNL     1       6.825   2.991  10.506  1.00  0.00     0.041 A 
ATOM     44  F   UNL     1       6.370   5.078   9.548  1.00  0.00    -0.206 F 
ATOM     45  C   UNL     1       7.283   1.682  10.391  1.00  0.00     0.022 A 
BRANCH  42  46
ATOM     46  S   UNL     1       8.241  -0.489   8.928  1.00  0.00     0.124 S 
ATOM     47  O   UNL     1       7.388  -0.827   7.790  1.00  0.00    -0.237 OA
ATOM     48  O   UNL     1       9.674  -0.450   8.663  1.00  0.00    -0.237 OA
ATOM     49  O   UNL     1       7.856  -1.116  10.191  1.00  0.00    -0.744 OA
ENDBRANCH  42  46
ENDBRANCH  25  39
BRANCH  26  50
ATOM     50  C   UNL     1       6.961   9.644   0.285  1.00  0.00     0.023 A 
ATOM     51  C   UNL     1       8.098   9.955  -0.476  1.00  0.00     0.031 A 
ATOM     52  C   UNL     1       5.737  10.230  -0.085  1.00  0.00     0.131 A 
ATOM     53  C   UNL     1       7.994  10.853  -1.549  1.00  0.00     0.055 A 
ATOM     54  C   UNL     1       5.629  11.082  -1.184  1.00  0.00     0.041 A 
ATOM     55  F   UNL     1       4.618   9.958   0.606  1.00  0.00    -0.206 F 
ATOM     56  C   UNL     1       6.765  11.407  -1.917  1.00  0.00     0.022 A 
BRANCH  53  57
ATOM     57  S   UNL     1       9.507  11.339  -2.424  1.00  0.00     0.124 S 
ATOM     58  O   UNL     1      10.305  11.909  -1.345  1.00  0.00    -0.237 OA
ATOM     59  O   UNL     1       9.969  10.063  -2.961  1.00  0.00    -0.237 OA
ATOM     60  O   UNL     1       9.030  12.296  -3.421  1.00  0.00    -0.744 OA
ENDBRANCH  53  57
ENDBRANCH  26  50
BRANCH  38  61
ATOM     61  C   UNL     1      10.238   9.941   6.426  1.00  0.00     0.023 A 
ATOM     62  C   UNL     1       9.792  11.231   6.763  1.00  0.00     0.031 A 
ATOM     63  C   UNL     1      11.598   9.639   6.614  1.00  0.00     0.131 A 
ATOM     64  C   UNL     1      10.711  12.193   7.206  1.00  0.00     0.055 A 
ATOM     65  C   UNL     1      12.496  10.582   7.114  1.00  0.00     0.041 A 
ATOM     66  F   UNL     1      12.077   8.423   6.305  1.00  0.00    -0.206 F 
ATOM     67  C   UNL     1      12.058  11.872   7.398  1.00  0.00     0.022 A 
BRANCH  64  68
ATOM     68  S   UNL     1      10.145  13.903   7.420  1.00  0.00     0.124 S 
ATOM     69  O   UNL     1       9.615  14.216   6.097  1.00  0.00    -0.237 OA
ATOM     70  O   UNL     1       9.159  13.773   8.488  1.00  0.00    -0.237 OA
ATOM     71  O   UNL     1      11.363  14.624   7.787  1.00  0.00    -0.744 OA
ENDBRANCH  64  68
ENDBRANCH  38  61
ENDBRANCH  12  13
ENDBRANCH   5   7
ENDBRANCH   2   3
ENDBRANCH   1   2
BRANCH   1  72
ATOM     72  C   UNL     1       4.157  -3.484  -1.328  1.00  0.00     0.023 C 
BRANCH  72  73
ATOM     73  C   UNL     1       4.971  -3.457  -2.623  1.00  0.00     0.116 C 
BRANCH  73  74
ATOM     74  N   UNL     1       6.373  -3.770  -2.428  1.00  0.00    -0.356 N 
ATOM     75  C   UNL     1       7.091  -4.920  -2.497  1.00  0.00     0.226 C 
ATOM     76  H   UNL     1       6.919  -2.984  -2.197  1.00  0.00     0.163 HD
ATOM     77  O   UNL     1       8.299  -4.805  -2.260  1.00  0.00    -0.274 OA
BRANCH  75  78
ATOM     78  C   UNL     1       6.491  -6.285  -2.890  1.00  0.00     0.053 C 
ATOM     79  C   UNL     1       6.230  -6.282  -4.414  1.00  0.00     0.017 C 
ATOM     80  C   UNL     1       7.564  -7.402  -2.807  1.00  0.00     0.017 C 
ATOM     81  C   UNL     1       6.325  -7.738  -4.869  1.00  0.00     0.001 C 
ATOM     82  C   UNL     1       7.114  -8.475  -3.794  1.00  0.00     0.001 C 
BRANCH  78  83
ATOM     83  C   UNL     1       5.223  -6.723  -2.115  1.00  0.00     0.052 C 
BRANCH  83  84
ATOM     84  C   UNL     1       5.189  -6.748  -0.598  1.00  0.00    -0.045 A 
ATOM     85  C   UNL     1       6.182  -6.218   0.235  1.00  0.00     0.004 A 
ATOM     86  C   UNL     1       4.010  -7.229   0.006  1.00  0.00     0.024 A 
ATOM     87  C   UNL     1       5.981  -6.115   1.616  1.00  0.00     0.002 A 
ATOM     88  C   UNL     1       3.820  -7.137   1.386  1.00  0.00     0.041 A 
ATOM     89  C   UNL     1       4.797  -6.567   2.192  1.00  0.00     0.020 A 
ATOM     90  Cl  UNL     1       2.351  -7.703   2.081  1.00  0.00    -0.084 Cl
ENDBRANCH  83  84
ENDBRANCH  78  83
ENDBRANCH  75  78
ENDBRANCH  73  74
ENDBRANCH  72  73
ENDBRANCH   1  72
TORSDOF 16
