REMARK SMILES CCOc1ccc(CC)cc1[C@@H]([NH3+])CC(=O)NCCCCNC(=O)c1ccc(-c2c3nc(c(-c4cc(S(=O)(=O)[O-])ccc4F)c4ccc([nH]4)c(-c4cc(S(=O)(=O)[O-])ccc4F)c4nc(c(-c5cc(S(=O)(=O)[O-])ccc5F)c5ccc2[nH]5)C=C4)C=C3)cc1
REMARK SMILES IDX 19 1 18 2 17 3 15 4 16 5 14 7 12 8 11 9 4 10 5 11 6 12 10 13
REMARK SMILES IDX 7 14 3 15 2 16 1 17 8 18 9 19 13 20 20 24 21 25 22 26 23 27
REMARK SMILES IDX 24 29 25 30 26 31 87 32 27 33 86 34 28 35 29 36 30 37 80 38
REMARK SMILES IDX 31 39 85 40 79 41 81 42 32 43 84 44 78 45 77 46 33 48 65 49
REMARK SMILES IDX 45 50 64 51 46 52 49 53 63 54 82 55 47 56 48 57 62 59 83 60
REMARK SMILES IDX 50 61 34 62 35 63 43 64 36 65 42 66 44 67 41 68 37 69 38 70
REMARK SMILES IDX 39 71 40 72 66 73 67 74 75 75 68 76 74 77 76 78 73 79 69 80
REMARK SMILES IDX 70 81 71 82 72 83 51 84 52 85 60 86 53 87 59 88 61 89 58 90
REMARK SMILES IDX 54 91 55 92 56 93 57 94
REMARK H PARENT 17 6 13 21 13 22 13 23 22 28 81 47 49 58
REMARK Flexibility Score: inf
ROOT
ATOM      1  C   UNL     1       3.768  -0.788   3.210  1.00  0.00     0.023 C 
ENDROOT
BRANCH   1   2
ATOM      2  C   UNL     1       4.540  -1.565   2.147  1.00  0.00     0.116 C 
BRANCH   2   3
ATOM      3  N   UNL     1       3.618  -2.153   1.192  1.00  0.00    -0.356 N 
ATOM      4  C   UNL     1       3.200  -1.694  -0.021  1.00  0.00     0.226 C 
ATOM      5  O   UNL     1       2.240  -2.258  -0.553  1.00  0.00    -0.275 OA
ATOM      6  H   UNL     1       3.235  -3.019   1.462  1.00  0.00     0.163 HD
BRANCH   4   7
ATOM      7  C   UNL     1       3.909  -0.554  -0.729  1.00  0.00     0.170 C 
BRANCH   7   8
ATOM      8  C   UNL     1       3.124   0.770  -0.662  1.00  0.00     0.225 C 
BRANCH   8   9
ATOM      9  C   UNL     1       3.324   1.516   0.644  1.00  0.00     0.052 A 
ATOM     10  C   UNL     1       2.249   1.888   1.462  1.00  0.00     0.128 A 
ATOM     11  C   UNL     1       2.478   2.552   2.672  1.00  0.00     0.047 A 
ATOM     12  C   UNL     1       3.788   2.830   3.093  1.00  0.00     0.007 A 
ATOM     13  C   UNL     1       4.627   1.859   1.059  1.00  0.00     0.017 A 
ATOM     14  C   UNL     1       4.882   2.489   2.287  1.00  0.00    -0.048 A 
BRANCH  10  15
ATOM     15  O   UNL     1       0.960   1.717   1.027  1.00  0.00    -0.493 OA
BRANCH  15  16
ATOM     16  C   UNL     1       0.364   0.498   1.490  1.00  0.00     0.226 C 
ATOM     17  C   UNL     1      -0.511  -0.065   0.381  1.00  0.00     0.049 C 
ENDBRANCH  15  16
ENDBRANCH  10  15
BRANCH  14  18
ATOM     18  C   UNL     1       6.319   2.625   2.740  1.00  0.00     0.032 C 
ATOM     19  C   UNL     1       6.677   3.920   3.449  1.00  0.00     0.009 C 
ENDBRANCH  14  18
ENDBRANCH   8   9
BRANCH   8  20
ATOM     20  N   UNL     1       3.523   1.654  -1.776  1.00  0.00    -0.351 N 
ATOM     21  H   UNL     1       4.511   1.889  -1.686  1.00  0.00     0.345 HD
ATOM     22  H   UNL     1       2.966   2.508  -1.748  1.00  0.00     0.345 HD
ATOM     23  H   UNL     1       3.366   1.175  -2.663  1.00  0.00     0.345 HD
ENDBRANCH   8  20
ENDBRANCH   7   8
ENDBRANCH   4   7
ENDBRANCH   2   3
ENDBRANCH   1   2
BRANCH   1  24
ATOM     24  C   UNL     1       3.591  -1.478   4.553  1.00  0.00     0.023 C 
BRANCH  24  25
ATOM     25  C   UNL     1       4.860  -1.522   5.390  1.00  0.00     0.116 C 
BRANCH  25  26
ATOM     26  N   UNL     1       5.431  -0.209   5.678  1.00  0.00    -0.352 N 
ATOM     27  C   UNL     1       6.074   0.235   6.810  1.00  0.00     0.251 C 
ATOM     28  H   UNL     1       5.343   0.455   4.956  1.00  0.00     0.163 HD
ATOM     29  O   UNL     1       6.448   1.402   6.880  1.00  0.00    -0.269 OA
BRANCH  27  30
ATOM     30  C   UNL     1       6.244  -0.685   7.955  1.00  0.00     0.039 A 
ATOM     31  C   UNL     1       5.940  -0.228   9.240  1.00  0.00     0.014 A 
ATOM     32  C   UNL     1       6.610  -2.016   7.751  1.00  0.00     0.014 A 
ATOM     33  C   UNL     1       5.906  -1.135  10.301  1.00  0.00     0.010 A 
ATOM     34  C   UNL     1       6.459  -2.933   8.781  1.00  0.00     0.010 A 
ATOM     35  C   UNL     1       6.107  -2.505  10.069  1.00  0.00    -0.014 A 
BRANCH  35  36
ATOM     36  C   UNL     1       5.969  -3.511  11.153  1.00  0.00     0.031 A 
ATOM     37  C   UNL     1       7.139  -4.392  11.504  1.00  0.00     0.074 A 
ATOM     38  C   UNL     1       4.775  -3.694  11.751  1.00  0.00     0.049 A 
ATOM     39  N   UNL     1       7.196  -5.407  12.327  1.00  0.00    -0.248 NA
ATOM     40  C   UNL     1       8.398  -4.128  10.790  1.00  0.00     0.031 C 
ATOM     41  C   UNL     1       3.548  -2.953  11.444  1.00  0.00     0.029 A 
ATOM     42  N   UNL     1       4.391  -4.566  12.738  1.00  0.00    -0.354 N 
ATOM     43  C   UNL     1       8.483  -5.920  12.203  1.00  0.00     0.074 A 
ATOM     44  C   UNL     1       9.143  -5.154  11.169  1.00  0.00     0.031 C 
ATOM     45  C   UNL     1       2.562  -3.376  12.251  1.00  0.00     0.029 A 
ATOM     46  C   UNL     1       3.070  -4.445  13.103  1.00  0.00     0.049 A 
ATOM     47  H   UNL     1       5.004  -5.219  13.147  1.00  0.00     0.167 HD
ATOM     48  C   UNL     1       9.073  -6.916  12.910  1.00  0.00     0.034 A 
ATOM     49  C   UNL     1       2.352  -5.122  14.020  1.00  0.00     0.034 A 
ATOM     50  C   UNL     1       8.412  -7.637  13.969  1.00  0.00     0.049 A 
ATOM     51  C   UNL     1       3.037  -6.197  14.823  1.00  0.00     0.074 A 
ATOM     52  C   UNL     1       8.928  -8.610  14.806  1.00  0.00     0.029 A 
ATOM     53  N   UNL     1       7.085  -7.455  14.342  1.00  0.00    -0.354 N 
ATOM     54  N   UNL     1       4.273  -6.632  14.736  1.00  0.00    -0.248 NA
ATOM     55  C   UNL     1       2.234  -6.863  15.856  1.00  0.00     0.031 C 
ATOM     56  C   UNL     1       7.902  -9.052  15.649  1.00  0.00     0.029 A 
ATOM     57  C   UNL     1       6.761  -8.312  15.382  1.00  0.00     0.049 A 
ATOM     58  H   UNL     1       6.466  -6.813  13.927  1.00  0.00     0.167 HD
ATOM     59  C   UNL     1       4.402  -7.607  15.720  1.00  0.00     0.074 A 
ATOM     60  C   UNL     1       3.124  -7.680  16.400  1.00  0.00     0.031 C 
ATOM     61  C   UNL     1       5.476  -8.374  16.037  1.00  0.00     0.034 A 
BRANCH  48  62
ATOM     62  C   UNL     1      10.493  -7.276  12.544  1.00  0.00     0.023 A 
ATOM     63  C   UNL     1      11.541  -6.343  12.652  1.00  0.00     0.031 A 
ATOM     64  C   UNL     1      10.799  -8.547  12.028  1.00  0.00     0.131 A 
ATOM     65  C   UNL     1      12.815  -6.659  12.159  1.00  0.00     0.055 A 
ATOM     66  C   UNL     1      12.092  -8.887  11.625  1.00  0.00     0.041 A 
ATOM     67  F   UNL     1       9.839  -9.475  11.883  1.00  0.00    -0.206 F 
ATOM     68  C   UNL     1      13.106  -7.934  11.670  1.00  0.00     0.022 A 
BRANCH  65  69
ATOM     69  S   UNL     1      14.038  -5.327  12.014  1.00  0.00     0.124 S 
ATOM     70  O   UNL     1      13.362  -4.407  11.103  1.00  0.00    -0.237 OA
ATOM     71  O   UNL     1      14.176  -4.874  13.393  1.00  0.00    -0.237 OA
ATOM     72  O   UNL     1      15.210  -5.997  11.456  1.00  0.00    -0.744 OA
ENDBRANCH  65  69
ENDBRANCH  48  62
BRANCH  49  73
ATOM     73  C   UNL     1       0.913  -4.803  14.243  1.00  0.00     0.023 A 
ATOM     74  C   UNL     1       0.478  -4.248  15.457  1.00  0.00     0.031 A 
ATOM     75  C   UNL     1      -0.054  -5.081  13.261  1.00  0.00     0.131 A 
ATOM     76  C   UNL     1      -0.891  -4.032  15.679  1.00  0.00     0.055 A 
ATOM     77  C   UNL     1      -1.410  -4.821  13.468  1.00  0.00     0.041 A 
ATOM     78  F   UNL     1       0.310  -5.601  12.078  1.00  0.00    -0.206 F 
ATOM     79  C   UNL     1      -1.837  -4.305  14.688  1.00  0.00     0.022 A 
BRANCH  76  80
ATOM     80  S   UNL     1      -1.426  -3.458  17.314  1.00  0.00     0.124 S 
ATOM     81  O   UNL     1      -0.903  -4.506  18.183  1.00  0.00    -0.237 OA
ATOM     82  O   UNL     1      -0.768  -2.159  17.408  1.00  0.00    -0.237 OA
ATOM     83  O   UNL     1      -2.882  -3.411  17.199  1.00  0.00    -0.744 OA
ENDBRANCH  76  80
ENDBRANCH  49  73
BRANCH  61  84
ATOM     84  C   UNL     1       5.313  -9.326  17.193  1.00  0.00     0.023 A 
ATOM     85  C   UNL     1       4.461 -10.441  17.113  1.00  0.00     0.031 A 
ATOM     86  C   UNL     1       6.006  -9.104  18.396  1.00  0.00     0.131 A 
ATOM     87  C   UNL     1       4.280 -11.261  18.236  1.00  0.00     0.055 A 
ATOM     88  C   UNL     1       5.866  -9.957  19.491  1.00  0.00     0.041 A 
ATOM     89  F   UNL     1       6.832  -8.053  18.524  1.00  0.00    -0.206 F 
ATOM     90  C   UNL     1       4.989 -11.036  19.419  1.00  0.00     0.022 A 
BRANCH  87  91
ATOM     91  S   UNL     1       3.037 -12.579  18.157  1.00  0.00     0.124 S 
ATOM     92  O   UNL     1       1.819 -11.830  17.866  1.00  0.00    -0.237 OA
ATOM     93  O   UNL     1       3.541 -13.421  17.077  1.00  0.00    -0.237 OA
ATOM     94  O   UNL     1       3.091 -13.181  19.488  1.00  0.00    -0.744 OA
ENDBRANCH  87  91
ENDBRANCH  61  84
ENDBRANCH  35  36
ENDBRANCH  27  30
ENDBRANCH  25  26
ENDBRANCH  24  25
ENDBRANCH   1  24
TORSDOF 20
