REMARK SMILES O=C(NCCCCNC(=O)[C@@H]1C[C@@H]2CC[C@H]1N2C(=O)c1ccncc1Cl)c1ccc(-c2c3nc(c(-c4cc(S(=O)(=O)[O-])ccc4F)c4ccc([nH]4)c(-c4cc(S(=O)(=O)[O-])ccc4F)c4nc(c(-c5cc(S(=O)(=O)[O-])ccc5F)c5ccc2[nH]5)C=C4)C=C3)cc1
REMARK SMILES IDX 5 1 4 2 3 3 1 4 2 5 27 7 28 8 89 9 29 10 88 11 30 12 31 13
REMARK SMILES IDX 32 14 82 15 33 16 87 17 81 18 83 19 34 20 86 21 80 22 79 23
REMARK SMILES IDX 35 25 67 26 47 27 66 28 48 29 51 30 65 31 84 32 49 33 50 34
REMARK SMILES IDX 64 36 85 37 52 38 36 39 37 40 45 41 38 42 44 43 46 44 43 45
REMARK SMILES IDX 39 46 40 47 41 48 42 49 68 50 69 51 77 52 70 53 76 54 78 55
REMARK SMILES IDX 75 56 71 57 72 58 73 59 74 60 53 61 54 62 62 63 55 64 61 65
REMARK SMILES IDX 63 66 60 67 56 68 57 69 58 70 59 71 6 72 7 73 8 74 9 75
REMARK SMILES IDX 10 77 11 78 12 79 16 80 13 81 15 82 17 83 14 84 18 85 19 86
REMARK SMILES IDX 20 87 21 88 25 89 22 90 24 91 26 92 23 93
REMARK H PARENT 3 6 83 24 51 35 8 76
REMARK Flexibility Score: inf
ROOT
ATOM      1  C   UNL     1       4.843  -2.725   0.239  1.00  0.00     0.023 C 
ENDROOT
BRANCH   1   2
ATOM      2  C   UNL     1       4.548  -1.301  -0.221  1.00  0.00     0.116 C 
BRANCH   2   3
ATOM      3  N   UNL     1       3.129  -1.027  -0.404  1.00  0.00    -0.352 N 
ATOM      4  O   UNL     1       1.172   0.062  -0.146  1.00  0.00    -0.269 OA
ATOM      5  C   UNL     1       2.387   0.048   0.032  1.00  0.00     0.251 C 
ATOM      6  H   UNL     1       2.630  -1.707  -0.911  1.00  0.00     0.163 HD
BRANCH   5   7
ATOM      7  C   UNL     1       3.049   1.163   0.745  1.00  0.00     0.039 A 
ATOM      8  C   UNL     1       4.239   1.714   0.265  1.00  0.00     0.014 A 
ATOM      9  C   UNL     1       2.485   1.643   1.931  1.00  0.00     0.014 A 
ATOM     10  C   UNL     1       4.949   2.615   1.053  1.00  0.00     0.010 A 
ATOM     11  C   UNL     1       3.160   2.611   2.681  1.00  0.00     0.010 A 
ATOM     12  C   UNL     1       4.424   3.068   2.275  1.00  0.00    -0.014 A 
BRANCH  12  13
ATOM     13  C   UNL     1       5.223   4.010   3.106  1.00  0.00     0.031 A 
ATOM     14  C   UNL     1       5.744   3.597   4.458  1.00  0.00     0.074 A 
ATOM     15  C   UNL     1       5.522   5.227   2.612  1.00  0.00     0.049 A 
ATOM     16  N   UNL     1       6.497   4.267   5.294  1.00  0.00    -0.248 NA
ATOM     17  C   UNL     1       5.360   2.262   4.940  1.00  0.00     0.031 C 
ATOM     18  C   UNL     1       5.069   5.743   1.318  1.00  0.00     0.029 A 
ATOM     19  N   UNL     1       6.296   6.238   3.120  1.00  0.00    -0.354 N 
ATOM     20  C   UNL     1       6.659   3.449   6.409  1.00  0.00     0.074 A 
ATOM     21  C   UNL     1       5.894   2.246   6.152  1.00  0.00     0.031 C 
ATOM     22  C   UNL     1       5.617   6.949   1.110  1.00  0.00     0.029 A 
ATOM     23  C   UNL     1       6.412   7.319   2.276  1.00  0.00     0.049 A 
ATOM     24  H   UNL     1       6.728   6.196   4.003  1.00  0.00     0.167 HD
ATOM     25  C   UNL     1       7.383   3.676   7.535  1.00  0.00     0.034 A 
ATOM     26  C   UNL     1       7.077   8.480   2.424  1.00  0.00     0.034 A 
ATOM     27  C   UNL     1       8.153   4.875   7.769  1.00  0.00     0.049 A 
ATOM     28  C   UNL     1       7.866   8.711   3.684  1.00  0.00     0.074 A 
ATOM     29  C   UNL     1       8.951   5.191   8.856  1.00  0.00     0.029 A 
ATOM     30  N   UNL     1       8.220   5.962   6.905  1.00  0.00    -0.354 N 
ATOM     31  N   UNL     1       8.023   7.918   4.718  1.00  0.00    -0.248 NA
ATOM     32  C   UNL     1       8.573   9.993   3.792  1.00  0.00     0.031 C 
ATOM     33  C   UNL     1       9.449   6.488   8.678  1.00  0.00     0.029 A 
ATOM     34  C   UNL     1       9.022   6.956   7.446  1.00  0.00     0.049 A 
ATOM     35  H   UNL     1       7.764   6.018   6.034  1.00  0.00     0.167 HD
ATOM     36  C   UNL     1       8.870   8.596   5.589  1.00  0.00     0.074 A 
ATOM     37  C   UNL     1       9.201   9.854   4.950  1.00  0.00     0.031 C 
ATOM     38  C   UNL     1       9.334   8.213   6.806  1.00  0.00     0.034 A 
BRANCH  25  39
ATOM     39  C   UNL     1       7.333   2.623   8.617  1.00  0.00     0.023 A 
ATOM     40  C   UNL     1       7.837   1.325   8.418  1.00  0.00     0.031 A 
ATOM     41  C   UNL     1       6.744   2.913   9.861  1.00  0.00     0.131 A 
ATOM     42  C   UNL     1       7.675   0.349   9.415  1.00  0.00     0.055 A 
ATOM     43  C   UNL     1       6.657   1.960  10.878  1.00  0.00     0.041 A 
ATOM     44  F   UNL     1       6.227   4.128  10.105  1.00  0.00    -0.206 F 
ATOM     45  C   UNL     1       7.110   0.664  10.652  1.00  0.00     0.022 A 
BRANCH  42  46
ATOM     46  S   UNL     1       8.080  -1.374   9.014  1.00  0.00     0.124 S 
ATOM     47  O   UNL     1       7.232  -1.615   7.848  1.00  0.00    -0.237 OA
ATOM     48  O   UNL     1       9.514  -1.310   8.759  1.00  0.00    -0.237 OA
ATOM     49  O   UNL     1       7.691  -2.106  10.218  1.00  0.00    -0.744 OA
ENDBRANCH  42  46
ENDBRANCH  25  39
BRANCH  26  50
ATOM     50  C   UNL     1       7.020   9.516   1.356  1.00  0.00     0.023 A 
ATOM     51  C   UNL     1       8.168   9.875   0.633  1.00  0.00     0.031 A 
ATOM     52  C   UNL     1       5.816  10.179   1.058  1.00  0.00     0.131 A 
ATOM     53  C   UNL     1       8.098  10.895  -0.327  1.00  0.00     0.055 A 
ATOM     54  C   UNL     1       5.740  11.158   0.068  1.00  0.00     0.041 A 
ATOM     55  F   UNL     1       4.689   9.866   1.716  1.00  0.00    -0.206 F 
ATOM     56  C   UNL     1       6.889  11.530  -0.624  1.00  0.00     0.022 A 
BRANCH  53  57
ATOM     57  S   UNL     1       9.628  11.429  -1.141  1.00  0.00     0.124 S 
ATOM     58  O   UNL     1      10.441  11.845  -0.004  1.00  0.00    -0.237 OA
ATOM     59  O   UNL     1      10.051  10.208  -1.820  1.00  0.00    -0.237 OA
ATOM     60  O   UNL     1       9.186  12.508  -2.022  1.00  0.00    -0.744 OA
ENDBRANCH  53  57
ENDBRANCH  26  50
BRANCH  38  61
ATOM     61  C   UNL     1      10.289   9.156   7.494  1.00  0.00     0.023 A 
ATOM     62  C   UNL     1       9.877  10.416   7.962  1.00  0.00     0.031 A 
ATOM     63  C   UNL     1      11.641   8.802   7.648  1.00  0.00     0.131 A 
ATOM     64  C   UNL     1      10.820  11.303   8.502  1.00  0.00     0.055 A 
ATOM     65  C   UNL     1      12.564   9.666   8.239  1.00  0.00     0.041 A 
ATOM     66  F   UNL     1      12.089   7.612   7.217  1.00  0.00    -0.206 F 
ATOM     67  C   UNL     1      12.158  10.931   8.656  1.00  0.00     0.022 A 
BRANCH  64  68
ATOM     68  S   UNL     1      10.297  12.993   8.905  1.00  0.00     0.124 S 
ATOM     69  O   UNL     1       9.764  13.459   7.628  1.00  0.00    -0.237 OA
ATOM     70  O   UNL     1       9.316  12.771   9.962  1.00  0.00    -0.237 OA
ATOM     71  O   UNL     1      11.534  13.643   9.333  1.00  0.00    -0.744 OA
ENDBRANCH  64  68
ENDBRANCH  38  61
ENDBRANCH  12  13
ENDBRANCH   5   7
ENDBRANCH   2   3
ENDBRANCH   1   2
BRANCH   1  72
ATOM     72  C   UNL     1       4.347  -3.842  -0.680  1.00  0.00     0.023 C 
BRANCH  72  73
ATOM     73  C   UNL     1       4.763  -3.719  -2.142  1.00  0.00     0.116 C 
BRANCH  73  74
ATOM     74  N   UNL     1       6.201  -3.765  -2.331  1.00  0.00    -0.356 N 
ATOM     75  C   UNL     1       6.940  -4.632  -3.086  1.00  0.00     0.225 C 
ATOM     76  H   UNL     1       6.715  -3.077  -1.850  1.00  0.00     0.163 HD
ATOM     77  O   UNL     1       8.114  -4.353  -3.319  1.00  0.00    -0.275 OA
BRANCH  75  78
ATOM     78  C   UNL     1       6.264  -5.869  -3.637  1.00  0.00     0.103 C 
ATOM     79  C   UNL     1       5.815  -6.892  -2.557  1.00  0.00     0.040 C 
ATOM     80  C   UNL     1       7.113  -6.748  -4.581  1.00  0.00     0.098 C 
ATOM     81  C   UNL     1       6.325  -8.233  -3.126  1.00  0.00     0.086 C 
ATOM     82  C   UNL     1       8.387  -7.290  -3.901  1.00  0.00     0.028 C 
ATOM     83  N   UNL     1       6.290  -7.953  -4.544  1.00  0.00    -0.332 N 
ATOM     84  C   UNL     1       7.836  -8.318  -2.890  1.00  0.00     0.027 C 
BRANCH  83  85
ATOM     85  C   UNL     1       5.411  -8.510  -5.431  1.00  0.00     0.256 C 
ATOM     86  O   UNL     1       4.607  -9.388  -5.126  1.00  0.00    -0.269 OA
BRANCH  85  87
ATOM     87  C   UNL     1       5.358  -7.980  -6.803  1.00  0.00     0.061 A 
ATOM     88  C   UNL     1       4.140  -7.428  -7.215  1.00  0.00     0.035 A 
ATOM     89  C   UNL     1       6.416  -8.086  -7.700  1.00  0.00     0.072 A 
ATOM     90  C   UNL     1       4.040  -6.962  -8.512  1.00  0.00     0.112 A 
ATOM     91  C   UNL     1       6.214  -7.576  -8.975  1.00  0.00     0.132 A 
ATOM     92  Cl  UNL     1       7.910  -8.857  -7.339  1.00  0.00    -0.082 Cl
ATOM     93  N   UNL     1       5.056  -7.012  -9.399  1.00  0.00    -0.263 NA
ENDBRANCH  85  87
ENDBRANCH  83  85
ENDBRANCH  75  78
ENDBRANCH  73  74
ENDBRANCH  72  73
ENDBRANCH   1  72
TORSDOF 16
