REMARK SMILES Cc1ccc(-c2nc(NC(=O)[C@H]3[C@@H](C(=O)NCCCCNC(=O)c4ccc(-c5c6nc(c(-c7cc(S(=O)(=O)[O-])ccc7F)c7ccc([nH]7)c(-c7cc(S(=O)(=O)[O-])ccc7F)c7nc(c(-c8cc(S(=O)(=O)[O-])ccc8F)c8ccc5[nH]8)C=C7)C=C6)cc4)[C@@H]4CC[C@H]3O4)sc2C)cc1
REMARK SMILES IDX 18 1 17 2 16 3 14 4 15 5 13 7 12 8 90 9 87 10 89 11 91 12
REMARK SMILES IDX 88 13 10 14 9 15 11 17 8 18 6 19 7 20 93 21 92 22 94 23 5 24
REMARK SMILES IDX 1 25 2 26 3 27 96 28 4 29 95 30 19 31 20 32 21 33 22 34
REMARK SMILES IDX 23 36 24 37 25 38 86 39 26 40 85 41 27 42 28 43 29 44 79 45
REMARK SMILES IDX 30 46 84 47 78 48 80 49 31 50 83 51 77 52 76 53 32 55 64 56
REMARK SMILES IDX 44 57 63 58 45 59 48 60 62 61 81 62 46 63 47 64 61 66 82 67
REMARK SMILES IDX 49 68 33 69 34 70 42 71 35 72 41 73 43 74 40 75 36 76 37 77
REMARK SMILES IDX 38 78 39 79 65 80 66 81 74 82 67 83 73 84 75 85 72 86 68 87
REMARK SMILES IDX 69 88 70 89 71 90 50 91 51 92 59 93 52 94 58 95 60 96 57 97
REMARK SMILES IDX 53 98 54 99 55 100 56 101
REMARK H PARENT 16 6 9 16 21 35 80 54 48 65
REMARK Flexibility Score: inf
ROOT
ATOM      1  C   UNL     1      -5.686  -0.960   0.255  1.00  0.00     0.023 C 
ENDROOT
BRANCH   1   2
ATOM      2  C   UNL     1      -6.370  -0.641   1.583  1.00  0.00     0.116 C 
BRANCH   2   3
ATOM      3  N   UNL     1      -7.248   0.527   1.635  1.00  0.00    -0.356 N 
ATOM      4  C   UNL     1      -8.604   0.498   1.477  1.00  0.00     0.226 C 
ATOM      5  O   UNL     1      -9.316   0.979   2.360  1.00  0.00    -0.275 OA
ATOM      6  H   UNL     1      -6.829   1.403   1.796  1.00  0.00     0.163 HD
BRANCH   4   7
ATOM      7  C   UNL     1      -9.189  -0.214   0.288  1.00  0.00     0.122 C 
ATOM      8  C   UNL     1      -8.720  -0.030  -1.159  1.00  0.00     0.123 C 
ATOM      9  C   UNL     1     -10.019  -0.405  -1.892  1.00  0.00     0.132 C 
ATOM     10  C   UNL     1     -10.735  -0.072   0.129  1.00  0.00     0.132 C 
ATOM     11  C   UNL     1     -10.573  -1.789  -1.455  1.00  0.00     0.035 C 
ATOM     12  O   UNL     1     -10.909   0.496  -1.206  1.00  0.00    -0.373 OA
ATOM     13  C   UNL     1     -11.328  -1.445  -0.163  1.00  0.00     0.035 C 
BRANCH   8  14
ATOM     14  C   UNL     1      -8.041   1.122  -1.948  1.00  0.00     0.232 C 
ATOM     15  N   UNL     1      -7.917   2.459  -1.799  1.00  0.00    -0.302 N 
ATOM     16  H   UNL     1      -7.368   2.842  -2.521  1.00  0.00     0.172 HD
ATOM     17  O   UNL     1      -7.503   0.739  -3.016  1.00  0.00    -0.274 OA
BRANCH  15  18
ATOM     18  C   UNL     1      -8.335   3.433  -0.936  1.00  0.00     0.190 A 
ATOM     19  C   UNL     1      -8.503   5.422   0.081  1.00  0.00     0.086 A 
ATOM     20  N   UNL     1      -7.936   4.695  -0.987  1.00  0.00    -0.220 NA
ATOM     21  C   UNL     1      -9.395   4.674   0.840  1.00  0.00     0.031 A 
ATOM     22  S   UNL     1      -9.508   3.105   0.201  1.00  0.00    -0.101 S 
ATOM     23  C   UNL     1     -10.250   4.974   2.018  1.00  0.00     0.059 C 
BRANCH  19  24
ATOM     24  C   UNL     1      -8.224   6.845   0.356  1.00  0.00     0.001 A 
ATOM     25  C   UNL     1      -7.936  11.078   1.331  1.00  0.00     0.044 C 
ATOM     26  C   UNL     1      -8.006   9.618   0.982  1.00  0.00    -0.051 A 
ATOM     27  C   UNL     1      -8.022   9.178  -0.349  1.00  0.00     0.004 A 
ATOM     28  C   UNL     1      -8.034   8.660   1.995  1.00  0.00     0.004 A 
ATOM     29  C   UNL     1      -8.133   7.805  -0.662  1.00  0.00     0.010 A 
ATOM     30  C   UNL     1      -8.119   7.299   1.682  1.00  0.00     0.010 A 
ENDBRANCH  19  24
ENDBRANCH  15  18
ENDBRANCH   8  14
ENDBRANCH   4   7
ENDBRANCH   2   3
ENDBRANCH   1   2
BRANCH   1  31
ATOM     31  C   UNL     1      -5.010   0.213  -0.437  1.00  0.00     0.023 C 
BRANCH  31  32
ATOM     32  C   UNL     1      -3.737   0.672   0.251  1.00  0.00     0.116 C 
BRANCH  32  33
ATOM     33  N   UNL     1      -2.589  -0.210   0.054  1.00  0.00    -0.352 N 
ATOM     34  C   UNL     1      -1.299  -0.099   0.564  1.00  0.00     0.251 C 
ATOM     35  H   UNL     1      -2.751  -0.993  -0.520  1.00  0.00     0.163 HD
ATOM     36  O   UNL     1      -0.435  -0.899   0.292  1.00  0.00    -0.269 OA
BRANCH  34  37
ATOM     37  C   UNL     1      -1.044   0.964   1.572  1.00  0.00     0.039 A 
ATOM     38  C   UNL     1      -0.529   0.562   2.810  1.00  0.00     0.014 A 
ATOM     39  C   UNL     1      -1.591   2.229   1.405  1.00  0.00     0.014 A 
ATOM     40  C   UNL     1      -0.814   1.324   3.938  1.00  0.00     0.010 A 
ATOM     41  C   UNL     1      -1.994   2.911   2.531  1.00  0.00     0.010 A 
ATOM     42  C   UNL     1      -1.653   2.429   3.798  1.00  0.00    -0.014 A 
BRANCH  42  43
ATOM     43  C   UNL     1      -2.270   3.114   4.922  1.00  0.00     0.031 A 
ATOM     44  C   UNL     1      -1.755   4.430   5.338  1.00  0.00     0.074 A 
ATOM     45  C   UNL     1      -3.336   2.579   5.557  1.00  0.00     0.049 A 
ATOM     46  N   UNL     1      -1.830   4.885   6.540  1.00  0.00    -0.248 NA
ATOM     47  C   UNL     1      -1.068   5.329   4.416  1.00  0.00     0.031 C 
ATOM     48  C   UNL     1      -4.199   3.231   6.537  1.00  0.00     0.029 A 
ATOM     49  N   UNL     1      -3.707   1.237   5.605  1.00  0.00    -0.354 N 
ATOM     50  C   UNL     1      -1.476   6.211   6.496  1.00  0.00     0.074 A 
ATOM     51  C   UNL     1      -0.944   6.423   5.170  1.00  0.00     0.031 C 
ATOM     52  C   UNL     1      -4.804   2.287   7.276  1.00  0.00     0.029 A 
ATOM     53  C   UNL     1      -4.246   1.004   6.887  1.00  0.00     0.049 A 
ATOM     54  H   UNL     1      -3.610   0.576   4.881  1.00  0.00     0.167 HD
ATOM     55  C   UNL     1      -1.798   7.032   7.531  1.00  0.00     0.034 A 
ATOM     56  C   UNL     1      -3.656   0.106   7.730  1.00  0.00     0.034 A 
ATOM     57  C   UNL     1      -2.494   6.323   8.600  1.00  0.00     0.049 A 
ATOM     58  C   UNL     1      -3.084   0.724   8.990  1.00  0.00     0.074 A 
ATOM     59  C   UNL     1      -3.825   6.184   8.955  1.00  0.00     0.029 A 
ATOM     60  N   UNL     1      -1.807   5.364   9.318  1.00  0.00    -0.354 N 
ATOM     61  N   UNL     1      -3.097   2.001   9.260  1.00  0.00    -0.248 NA
ATOM     62  C   UNL     1      -2.370  -0.049  10.008  1.00  0.00     0.031 C 
ATOM     63  C   UNL     1      -3.926   5.099   9.873  1.00  0.00     0.029 A 
ATOM     64  C   UNL     1      -2.656   4.599  10.093  1.00  0.00     0.049 A 
ATOM     65  H   UNL     1      -0.831   5.240   9.282  1.00  0.00     0.167 HD
ATOM     66  C   UNL     1      -2.357   2.236  10.389  1.00  0.00     0.074 A 
ATOM     67  C   UNL     1      -1.930   0.919  10.828  1.00  0.00     0.031 C 
ATOM     68  C   UNL     1      -2.103   3.494  10.860  1.00  0.00     0.034 A 
BRANCH  55  69
ATOM     69  C   UNL     1      -1.727   8.529   7.423  1.00  0.00     0.023 A 
ATOM     70  C   UNL     1      -2.705   9.303   8.071  1.00  0.00     0.031 A 
ATOM     71  C   UNL     1      -0.765   9.243   6.684  1.00  0.00     0.131 A 
ATOM     72  C   UNL     1      -2.771  10.693   7.889  1.00  0.00     0.055 A 
ATOM     73  C   UNL     1      -0.865  10.620   6.450  1.00  0.00     0.041 A 
ATOM     74  F   UNL     1       0.325   8.639   6.186  1.00  0.00    -0.206 F 
ATOM     75  C   UNL     1      -1.883  11.353   7.045  1.00  0.00     0.022 A 
BRANCH  72  76
ATOM     76  S   UNL     1      -4.036  11.623   8.792  1.00  0.00     0.124 S 
ATOM     77  O   UNL     1      -5.271  11.012   8.310  1.00  0.00    -0.237 OA
ATOM     78  O   UNL     1      -3.682  11.354  10.181  1.00  0.00    -0.237 OA
ATOM     79  O   UNL     1      -3.819  13.002   8.354  1.00  0.00    -0.744 OA
ENDBRANCH  72  76
ENDBRANCH  55  69
BRANCH  56  80
ATOM     80  C   UNL     1      -3.087  -1.062   6.996  1.00  0.00     0.023 A 
ATOM     81  C   UNL     1      -3.990  -1.844   6.244  1.00  0.00     0.031 A 
ATOM     82  C   UNL     1      -1.725  -1.141   6.678  1.00  0.00     0.131 A 
ATOM     83  C   UNL     1      -3.549  -2.528   5.103  1.00  0.00     0.055 A 
ATOM     84  C   UNL     1      -1.281  -1.877   5.573  1.00  0.00     0.041 A 
ATOM     85  F   UNL     1      -0.823  -0.402   7.339  1.00  0.00    -0.206 F 
ATOM     86  C   UNL     1      -2.199  -2.530   4.749  1.00  0.00     0.022 A 
BRANCH  83  87
ATOM     87  S   UNL     1      -4.787  -3.160   3.935  1.00  0.00     0.124 S 
ATOM     88  O   UNL     1      -4.954  -4.541   4.370  1.00  0.00    -0.237 OA
ATOM     89  O   UNL     1      -5.931  -2.281   4.162  1.00  0.00    -0.237 OA
ATOM     90  O   UNL     1      -4.149  -2.978   2.633  1.00  0.00    -0.744 OA
ENDBRANCH  83  87
ENDBRANCH  56  80
BRANCH  68  91
ATOM     91  C   UNL     1      -1.287   3.764  12.095  1.00  0.00     0.023 A 
ATOM     92  C   UNL     1      -1.419   2.979  13.250  1.00  0.00     0.031 A 
ATOM     93  C   UNL     1      -0.407   4.866  12.183  1.00  0.00     0.131 A 
ATOM     94  C   UNL     1      -0.647   3.251  14.392  1.00  0.00     0.055 A 
ATOM     95  C   UNL     1       0.285   5.191  13.352  1.00  0.00     0.041 A 
ATOM     96  F   UNL     1      -0.144   5.647  11.124  1.00  0.00    -0.206 F 
ATOM     97  C   UNL     1       0.178   4.372  14.464  1.00  0.00     0.022 A 
BRANCH  94  98
ATOM     98  S   UNL     1      -0.670   2.056  15.751  1.00  0.00     0.124 S 
ATOM     99  O   UNL     1      -2.093   1.933  16.046  1.00  0.00    -0.237 OA
ATOM    100  O   UNL     1      -0.048   0.891  15.127  1.00  0.00    -0.237 OA
ATOM    101  O   UNL     1       0.129   2.701  16.791  1.00  0.00    -0.744 OA
ENDBRANCH  94  98
ENDBRANCH  68  91
ENDBRANCH  42  43
ENDBRANCH  34  37
ENDBRANCH  32  33
ENDBRANCH  31  32
ENDBRANCH   1  31
TORSDOF 17
