REMARK SMILES Cc1cc(C(=O)Nc2nc(CC(=O)NCCCCNC(=O)c3ccc(-c4c5nc(c(-c6cc(S(=O)(=O)[O-])ccc6F)c6ccc([nH]6)c(-c6cc(S(=O)(=O)[O-])ccc6F)c6nc(c(-c7cc(S(=O)(=O)[O-])ccc7F)c7ccc4[nH]7)C=C6)C=C5)cc3)cs2)sc1C
REMARK SMILES IDX 16 1 15 2 14 3 12 4 13 5 11 7 10 8 8 9 9 10 86 11 85 12 7 13
REMARK SMILES IDX 5 14 6 15 4 17 1 18 2 19 3 20 88 21 87 22 89 23 17 24 18 25
REMARK SMILES IDX 19 26 20 27 21 29 22 30 23 31 84 32 24 33 83 34 25 35 26 36
REMARK SMILES IDX 27 37 77 38 28 39 82 40 76 41 78 42 29 43 81 44 75 45 74 46
REMARK SMILES IDX 30 48 62 49 42 50 61 51 43 52 46 53 60 54 79 55 44 56 45 57
REMARK SMILES IDX 59 59 80 60 47 61 31 62 32 63 40 64 33 65 39 66 41 67 38 68
REMARK SMILES IDX 34 69 35 70 36 71 37 72 63 73 64 74 72 75 65 76 71 77 73 78
REMARK SMILES IDX 70 79 66 80 67 81 68 82 69 83 48 84 49 85 57 86 50 87 56 88
REMARK SMILES IDX 58 89 55 90 51 91 52 92 53 93 54 94
REMARK H PARENT 14 6 7 16 19 28 78 47 46 58
REMARK Flexibility Score: inf
ROOT
ATOM      1  C   UNL     1       5.875   0.080   3.072  1.00  0.00     0.023 C 
ENDROOT
BRANCH   1   2
ATOM      2  C   UNL     1       4.848   1.101   3.566  1.00  0.00     0.116 C 
BRANCH   2   3
ATOM      3  N   UNL     1       5.228   2.458   3.214  1.00  0.00    -0.356 N 
ATOM      4  C   UNL     1       4.830   3.198   2.137  1.00  0.00     0.226 C 
ATOM      5  O   UNL     1       5.336   4.308   1.960  1.00  0.00    -0.275 OA
ATOM      6  H   UNL     1       5.853   2.902   3.832  1.00  0.00     0.163 HD
BRANCH   4   7
ATOM      7  C   UNL     1       3.751   2.675   1.213  1.00  0.00     0.157 C 
BRANCH   7   8
ATOM      8  C   UNL     1       4.189   1.496   0.413  1.00  0.00     0.063 A 
ATOM      9  C   UNL     1       3.905  -0.571  -0.302  1.00  0.00     0.189 A 
ATOM     10  N   UNL     1       3.433   0.336   0.510  1.00  0.00    -0.224 NA
ATOM     11  S   UNL     1       5.373  -0.195  -1.081  1.00  0.00    -0.105 S 
ATOM     12  C   UNL     1       5.273   1.400  -0.443  1.00  0.00     0.093 A 
BRANCH   9  13
ATOM     13  N   UNL     1       3.376  -1.785  -0.615  1.00  0.00    -0.297 N 
ATOM     14  C   UNL     1       2.072  -2.192  -0.436  1.00  0.00     0.267 C 
ATOM     15  O   UNL     1       1.890  -3.416  -0.418  1.00  0.00    -0.268 OA
ATOM     16  H   UNL     1       3.991  -2.443  -1.012  1.00  0.00     0.172 HD
BRANCH  14  17
ATOM     17  C   UNL     1       0.938  -1.266  -0.375  1.00  0.00     0.093 A 
ATOM     18  C   UNL     1      -2.703  -0.550   0.342  1.00  0.00     0.045 C 
ATOM     19  C   UNL     1      -1.256  -0.461  -0.010  1.00  0.00    -0.037 A 
ATOM     20  C   UNL     1      -0.350  -1.576   0.038  1.00  0.00     0.029 A 
ATOM     21  C   UNL     1      -0.584   0.686  -0.393  1.00  0.00     0.005 A 
ATOM     22  S   UNL     1       0.939   0.304  -1.058  1.00  0.00    -0.135 S 
ATOM     23  C   UNL     1      -1.032   2.108  -0.374  1.00  0.00     0.056 C 
ENDBRANCH  14  17
ENDBRANCH   9  13
ENDBRANCH   7   8
ENDBRANCH   4   7
ENDBRANCH   2   3
ENDBRANCH   1   2
BRANCH   1  24
ATOM     24  C   UNL     1       7.250   0.176   3.734  1.00  0.00     0.023 C 
BRANCH  24  25
ATOM     25  C   UNL     1       7.248  -0.003   5.245  1.00  0.00     0.116 C 
BRANCH  25  26
ATOM     26  N   UNL     1       6.704  -1.285   5.661  1.00  0.00    -0.352 N 
ATOM     27  C   UNL     1       7.137  -2.115   6.666  1.00  0.00     0.251 C 
ATOM     28  H   UNL     1       5.920  -1.600   5.155  1.00  0.00     0.163 HD
ATOM     29  O   UNL     1       6.640  -3.232   6.791  1.00  0.00    -0.269 OA
BRANCH  27  30
ATOM     30  C   UNL     1       8.226  -1.672   7.563  1.00  0.00     0.039 A 
ATOM     31  C   UNL     1       9.269  -2.556   7.846  1.00  0.00     0.014 A 
ATOM     32  C   UNL     1       8.231  -0.383   8.105  1.00  0.00     0.014 A 
ATOM     33  C   UNL     1      10.348  -2.127   8.621  1.00  0.00     0.010 A 
ATOM     34  C   UNL     1       9.342   0.067   8.811  1.00  0.00     0.010 A 
ATOM     35  C   UNL     1      10.410  -0.802   9.082  1.00  0.00    -0.014 A 
BRANCH  35  36
ATOM     36  C   UNL     1      11.575  -0.311   9.863  1.00  0.00     0.031 A 
ATOM     37  C   UNL     1      11.388   0.141  11.286  1.00  0.00     0.074 A 
ATOM     38  C   UNL     1      12.784  -0.216   9.274  1.00  0.00     0.049 A 
ATOM     39  N   UNL     1      12.257   0.668  12.109  1.00  0.00    -0.248 NA
ATOM     40  C   UNL     1      10.034   0.013  11.843  1.00  0.00     0.031 C 
ATOM     41  C   UNL     1      13.080  -0.582   7.887  1.00  0.00     0.029 A 
ATOM     42  N   UNL     1      13.988   0.225   9.764  1.00  0.00    -0.354 N 
ATOM     43  C   UNL     1      11.553   0.948  13.276  1.00  0.00     0.074 A 
ATOM     44  C   UNL     1      10.172   0.593  13.025  1.00  0.00     0.031 C 
ATOM     45  C   UNL     1      14.385  -0.375   7.647  1.00  0.00     0.029 A 
ATOM     46  C   UNL     1      15.010   0.178   8.844  1.00  0.00     0.049 A 
ATOM     47  H   UNL     1      14.109   0.545  10.687  1.00  0.00     0.167 HD
ATOM     48  C   UNL     1      12.019   1.431  14.455  1.00  0.00     0.034 A 
ATOM     49  C   UNL     1      16.302   0.547   8.951  1.00  0.00     0.034 A 
ATOM     50  C   UNL     1      13.402   1.766  14.692  1.00  0.00     0.049 A 
ATOM     51  C   UNL     1      16.796   1.094  10.266  1.00  0.00     0.074 A 
ATOM     52  C   UNL     1      13.994   2.214  15.860  1.00  0.00     0.029 A 
ATOM     53  N   UNL     1      14.412   1.696  13.739  1.00  0.00    -0.354 N 
ATOM     54  N   UNL     1      16.128   1.306  11.377  1.00  0.00    -0.248 NA
ATOM     55  C   UNL     1      18.221   1.436  10.347  1.00  0.00     0.031 C 
ATOM     56  C   UNL     1      15.343   2.476  15.597  1.00  0.00     0.029 A 
ATOM     57  C   UNL     1      15.615   2.117  14.286  1.00  0.00     0.049 A 
ATOM     58  H   UNL     1      14.291   1.391  12.811  1.00  0.00     0.167 HD
ATOM     59  C   UNL     1      17.061   1.775  12.297  1.00  0.00     0.074 A 
ATOM     60  C   UNL     1      18.339   1.800  11.615  1.00  0.00     0.031 C 
ATOM     61  C   UNL     1      16.881   2.146  13.591  1.00  0.00     0.034 A 
BRANCH  48  62
ATOM     62  C   UNL     1      11.012   1.644  15.562  1.00  0.00     0.023 A 
ATOM     63  C   UNL     1      10.275   0.576  16.106  1.00  0.00     0.031 A 
ATOM     64  C   UNL     1      10.758   2.935  16.057  1.00  0.00     0.131 A 
ATOM     65  C   UNL     1       9.263   0.828  17.044  1.00  0.00     0.055 A 
ATOM     66  C   UNL     1       9.810   3.168  17.056  1.00  0.00     0.041 A 
ATOM     67  F   UNL     1      11.413   3.998  15.564  1.00  0.00    -0.206 F 
ATOM     68  C   UNL     1       9.043   2.114  17.543  1.00  0.00     0.022 A 
BRANCH  65  69
ATOM     69  S   UNL     1       8.136  -0.523  17.484  1.00  0.00     0.124 S 
ATOM     70  O   UNL     1       7.574  -0.873  16.181  1.00  0.00    -0.237 OA
ATOM     71  O   UNL     1       9.037  -1.505  18.076  1.00  0.00    -0.237 OA
ATOM     72  O   UNL     1       7.196   0.102  18.412  1.00  0.00    -0.744 OA
ENDBRANCH  65  69
ENDBRANCH  48  62
BRANCH  49  73
ATOM     73  C   UNL     1      17.224   0.417   7.786  1.00  0.00     0.023 A 
ATOM     74  C   UNL     1      18.315  -0.466   7.823  1.00  0.00     0.031 A 
ATOM     75  C   UNL     1      17.051   1.203   6.634  1.00  0.00     0.131 A 
ATOM     76  C   UNL     1      19.219  -0.507   6.750  1.00  0.00     0.055 A 
ATOM     77  C   UNL     1      17.923   1.121   5.546  1.00  0.00     0.041 A 
ATOM     78  F   UNL     1      16.020   2.059   6.544  1.00  0.00    -0.206 F 
ATOM     79  C   UNL     1      19.023   0.271   5.607  1.00  0.00     0.022 A 
BRANCH  76  80
ATOM     80  S   UNL     1      20.704  -1.536   6.904  1.00  0.00     0.124 S 
ATOM     81  O   UNL     1      21.330  -0.977   8.097  1.00  0.00    -0.237 OA
ATOM     82  O   UNL     1      20.134  -2.872   7.045  1.00  0.00    -0.237 OA
ATOM     83  O   UNL     1      21.418  -1.294   5.652  1.00  0.00    -0.744 OA
ENDBRANCH  76  80
ENDBRANCH  49  73
BRANCH  61  84
ATOM     84  C   UNL     1      18.110   2.560  14.363  1.00  0.00     0.023 A 
ATOM     85  C   UNL     1      18.830   3.725  14.044  1.00  0.00     0.031 A 
ATOM     86  C   UNL     1      18.576   1.765  15.425  1.00  0.00     0.131 A 
ATOM     87  C   UNL     1      20.009   4.029  14.741  1.00  0.00     0.055 A 
ATOM     88  C   UNL     1      19.715   2.106  16.155  1.00  0.00     0.041 A 
ATOM     89  F   UNL     1      17.929   0.640  15.772  1.00  0.00    -0.206 F 
ATOM     90  C   UNL     1      20.447   3.237  15.805  1.00  0.00     0.022 A 
BRANCH  87  91
ATOM     91  S   UNL     1      21.021   5.424  14.173  1.00  0.00     0.124 S 
ATOM     92  O   UNL     1      21.299   5.054  12.789  1.00  0.00    -0.237 OA
ATOM     93  O   UNL     1      20.122   6.558  14.362  1.00  0.00    -0.237 OA
ATOM     94  O   UNL     1      22.177   5.396  15.067  1.00  0.00    -0.744 OA
ENDBRANCH  87  91
ENDBRANCH  61  84
ENDBRANCH  35  36
ENDBRANCH  27  30
ENDBRANCH  25  26
ENDBRANCH  24  25
ENDBRANCH   1  24
TORSDOF 17
