REMARK SMILES O=C(COCC(=O)/[NH+]=C1\S[C@@H]2CS(=O)(=O)C[C@H]2N1c1ccc(Cl)cc1)NCCCCNC(=O)c1ccc(-c2c3nc(c(-c4cc(S(=O)(=O)[O-])ccc4F)c4ccc([nH]4)c(-c4cc(S(=O)(=O)[O-])ccc4F)c4nc(c(-c5cc(S(=O)(=O)[O-])ccc5F)c5ccc2[nH]5)C=C4)C=C3)cc1
REMARK SMILES IDX 28 1 27 2 26 3 2 4 1 5 3 7 4 8 5 9 6 10 7 11 8 12 9 13 10 15
REMARK SMILES IDX 18 16 11 17 17 18 12 19 16 20 13 21 14 22 15 23 19 24 20 25
REMARK SMILES IDX 25 26 21 27 24 28 22 29 23 30 29 31 30 32 31 33 32 34 33 36
REMARK SMILES IDX 34 37 35 38 96 39 36 40 95 41 37 42 38 43 39 44 89 45 40 46
REMARK SMILES IDX 94 47 88 48 90 49 41 50 93 51 87 52 86 53 42 55 74 56 54 57
REMARK SMILES IDX 73 58 55 59 58 60 72 61 91 62 56 63 57 64 71 66 92 67 59 68
REMARK SMILES IDX 43 69 44 70 52 71 45 72 51 73 53 74 50 75 46 76 47 77 48 78
REMARK SMILES IDX 49 79 75 80 76 81 84 82 77 83 83 84 85 85 82 86 78 87 79 88
REMARK SMILES IDX 80 89 81 90 60 91 61 92 69 93 62 94 68 95 70 96 67 97 63 98
REMARK SMILES IDX 64 99 65 100 66 101
REMARK H PARENT 26 6 8 14 31 35 90 54 58 65
REMARK Flexibility Score: inf
ROOT
ATOM      1  C   UNL     1       4.377   3.361  -3.582  1.00  0.00     0.023 C 
ENDROOT
BRANCH   1   2
ATOM      2  C   UNL     1       4.079   4.192  -2.335  1.00  0.00     0.116 C 
BRANCH   2   3
ATOM      3  N   UNL     1       2.663   4.245  -2.020  1.00  0.00    -0.354 N 
ATOM      4  C   UNL     1       2.010   3.708  -0.946  1.00  0.00     0.246 C 
ATOM      5  O   UNL     1       0.802   3.902  -0.814  1.00  0.00    -0.272 OA
ATOM      6  H   UNL     1       2.099   4.731  -2.664  1.00  0.00     0.163 HD
BRANCH   4   7
ATOM      7  C   UNL     1       2.798   2.872   0.065  1.00  0.00     0.260 C 
BRANCH   7   8
ATOM      8  O   UNL     1       3.470   1.766  -0.518  1.00  0.00    -0.359 OA
BRANCH   8   9
ATOM      9  C   UNL     1       2.576   0.739  -0.934  1.00  0.00     0.288 C 
BRANCH   9  10
ATOM     10  C   UNL     1       2.308  -0.406   0.063  1.00  0.00     0.333 C 
ATOM     11  O   UNL     1       1.351  -1.159  -0.119  1.00  0.00    -0.244 OA
ATOM     12  N   UNL     1       3.113  -0.544   1.168  1.00  0.00    -0.202 N 
ATOM     13  C   UNL     1       4.386  -0.741   1.079  1.00  0.00     0.319 C 
ATOM     14  H   UNL     1       2.704  -0.491   2.061  1.00  0.00     0.316 HD
ATOM     15  S   UNL     1       5.338  -0.719  -0.444  1.00  0.00    -0.029 SA
ATOM     16  N   UNL     1       5.266  -0.970   2.151  1.00  0.00    -0.217 N 
ATOM     17  C   UNL     1       6.784  -0.216   0.508  1.00  0.00     0.120 C 
ATOM     18  C   UNL     1       6.655  -1.173   1.699  1.00  0.00     0.212 C 
ATOM     19  C   UNL     1       8.170  -0.354  -0.064  1.00  0.00     0.156 C 
ATOM     20  C   UNL     1       7.825  -0.812   2.581  1.00  0.00     0.188 C 
ATOM     21  S   UNL     1       9.166  -0.659   1.398  1.00  0.00     0.155 S 
ATOM     22  O   UNL     1       9.917   0.535   1.723  1.00  0.00    -0.229 OA
ATOM     23  O   UNL     1       9.792  -1.955   1.256  1.00  0.00    -0.229 OA
BRANCH  16  24
ATOM     24  C   UNL     1       4.862  -1.515   3.383  1.00  0.00     0.128 A 
ATOM     25  C   UNL     1       5.444  -1.100   4.591  1.00  0.00     0.053 A 
ATOM     26  C   UNL     1       3.847  -2.485   3.460  1.00  0.00     0.053 A 
ATOM     27  C   UNL     1       5.065  -1.658   5.819  1.00  0.00     0.025 A 
ATOM     28  C   UNL     1       3.456  -3.042   4.685  1.00  0.00     0.025 A 
ATOM     29  C   UNL     1       4.075  -2.632   5.860  1.00  0.00     0.041 A 
ATOM     30  Cl  UNL     1       3.611  -3.319   7.366  1.00  0.00    -0.084 Cl
ENDBRANCH  16  24
ENDBRANCH   9  10
ENDBRANCH   8   9
ENDBRANCH   7   8
ENDBRANCH   4   7
ENDBRANCH   2   3
ENDBRANCH   1   2
BRANCH   1  31
ATOM     31  C   UNL     1       3.707   3.855  -4.868  1.00  0.00     0.023 C 
BRANCH  31  32
ATOM     32  C   UNL     1       3.930   5.326  -5.205  1.00  0.00     0.116 C 
BRANCH  32  33
ATOM     33  N   UNL     1       5.330   5.658  -5.413  1.00  0.00    -0.352 N 
ATOM     34  C   UNL     1       5.909   6.368  -6.440  1.00  0.00     0.251 C 
ATOM     35  H   UNL     1       5.951   5.329  -4.723  1.00  0.00     0.163 HD
ATOM     36  O   UNL     1       7.132   6.431  -6.521  1.00  0.00    -0.269 OA
BRANCH  34  37
ATOM     37  C   UNL     1       5.054   7.013  -7.463  1.00  0.00     0.039 A 
ATOM     38  C   UNL     1       5.368   6.838  -8.813  1.00  0.00     0.014 A 
ATOM     39  C   UNL     1       3.928   7.756  -7.096  1.00  0.00     0.014 A 
ATOM     40  C   UNL     1       4.505   7.333  -9.794  1.00  0.00     0.010 A 
ATOM     41  C   UNL     1       3.030   8.180  -8.073  1.00  0.00     0.010 A 
ATOM     42  C   UNL     1       3.302   7.964  -9.433  1.00  0.00    -0.014 A 
BRANCH  42  43
ATOM     43  C   UNL     1       2.308   8.377 -10.461  1.00  0.00     0.031 A 
ATOM     44  C   UNL     1       1.937   9.825 -10.621  1.00  0.00     0.074 A 
ATOM     45  C   UNL     1       1.686   7.437 -11.202  1.00  0.00     0.049 A 
ATOM     46  N   UNL     1       1.034  10.368 -11.398  1.00  0.00    -0.248 NA
ATOM     47  C   UNL     1       2.658  10.786  -9.774  1.00  0.00     0.031 C 
ATOM     48  C   UNL     1       1.928   5.995 -11.110  1.00  0.00     0.029 A 
ATOM     49  N   UNL     1       0.715   7.547 -12.167  1.00  0.00    -0.354 N 
ATOM     50  C   UNL     1       1.072  11.732 -11.129  1.00  0.00     0.074 A 
ATOM     51  C   UNL     1       2.040  11.919 -10.068  1.00  0.00     0.031 C 
ATOM     52  C   UNL     1       1.142   5.360 -11.993  1.00  0.00     0.029 A 
ATOM     53  C   UNL     1       0.299   6.337 -12.674  1.00  0.00     0.049 A 
ATOM     54  H   UNL     1       0.350   8.411 -12.467  1.00  0.00     0.167 HD
ATOM     55  C   UNL     1       0.382  12.736 -11.727  1.00  0.00     0.034 A 
ATOM     56  C   UNL     1      -0.668   6.041 -13.566  1.00  0.00     0.034 A 
ATOM     57  C   UNL     1      -0.584  12.528 -12.780  1.00  0.00     0.049 A 
ATOM     58  C   UNL     1      -1.460   7.166 -14.183  1.00  0.00     0.074 A 
ATOM     59  C   UNL     1      -1.300  13.476 -13.491  1.00  0.00     0.029 A 
ATOM     60  N   UNL     1      -0.985  11.288 -13.262  1.00  0.00    -0.354 N 
ATOM     61  N   UNL     1      -1.369   8.458 -13.961  1.00  0.00    -0.248 NA
ATOM     62  C   UNL     1      -2.478   6.797 -15.174  1.00  0.00     0.031 C 
ATOM     63  C   UNL     1      -2.193  12.809 -14.336  1.00  0.00     0.029 A 
ATOM     64  C   UNL     1      -1.970  11.446 -14.227  1.00  0.00     0.049 A 
ATOM     65  H   UNL     1      -0.624  10.423 -12.962  1.00  0.00     0.167 HD
ATOM     66  C   UNL     1      -2.301   9.055 -14.806  1.00  0.00     0.074 A 
ATOM     67  C   UNL     1      -2.929   7.984 -15.552  1.00  0.00     0.031 C 
ATOM     68  C   UNL     1      -2.605  10.370 -14.954  1.00  0.00     0.034 A 
BRANCH  55  69
ATOM     69  C   UNL     1       0.629  14.142 -11.227  1.00  0.00     0.023 A 
ATOM     70  C   UNL     1       1.902  14.736 -11.290  1.00  0.00     0.031 A 
ATOM     71  C   UNL     1      -0.412  14.887 -10.644  1.00  0.00     0.131 A 
ATOM     72  C   UNL     1       2.123  15.989 -10.700  1.00  0.00     0.055 A 
ATOM     73  C   UNL     1      -0.207  16.174 -10.144  1.00  0.00     0.041 A 
ATOM     74  F   UNL     1      -1.646  14.369 -10.534  1.00  0.00    -0.206 F 
ATOM     75  C   UNL     1       1.071  16.726 -10.152  1.00  0.00     0.022 A 
BRANCH  72  76
ATOM     76  S   UNL     1       3.833  16.560 -10.501  1.00  0.00     0.124 S 
ATOM     77  O   UNL     1       4.424  15.460  -9.742  1.00  0.00    -0.237 OA
ATOM     78  O   UNL     1       4.282  16.697 -11.882  1.00  0.00    -0.237 OA
ATOM     79  O   UNL     1       3.692  17.812  -9.762  1.00  0.00    -0.744 OA
ENDBRANCH  72  76
ENDBRANCH  55  69
BRANCH  56  80
ATOM     80  C   UNL     1      -0.967   4.618 -13.905  1.00  0.00     0.023 A 
ATOM     81  C   UNL     1      -0.780   4.122 -15.205  1.00  0.00     0.031 A 
ATOM     82  C   UNL     1      -1.477   3.739 -12.932  1.00  0.00     0.131 A 
ATOM     83  C   UNL     1      -1.139   2.798 -15.506  1.00  0.00     0.055 A 
ATOM     84  C   UNL     1      -1.776   2.407 -13.222  1.00  0.00     0.041 A 
ATOM     85  F   UNL     1      -1.675   4.161 -11.673  1.00  0.00    -0.206 F 
ATOM     86  C   UNL     1      -1.619   1.933 -14.520  1.00  0.00     0.022 A 
BRANCH  83  87
ATOM     87  S   UNL     1      -1.049   2.243 -17.231  1.00  0.00     0.124 S 
ATOM     88  O   UNL     1      -1.937   3.192 -17.894  1.00  0.00    -0.237 OA
ATOM     89  O   UNL     1       0.374   2.385 -17.521  1.00  0.00    -0.237 OA
ATOM     90  O   UNL     1      -1.537   0.867 -17.171  1.00  0.00    -0.744 OA
ENDBRANCH  83  87
ENDBRANCH  56  80
BRANCH  68  91
ATOM     91  C   UNL     1      -3.641  10.726 -15.995  1.00  0.00     0.023 A 
ATOM     92  C   UNL     1      -4.986  10.335 -15.870  1.00  0.00     0.031 A 
ATOM     93  C   UNL     1      -3.274  11.471 -17.131  1.00  0.00     0.131 A 
ATOM     94  C   UNL     1      -5.902  10.645 -16.887  1.00  0.00     0.055 A 
ATOM     95  C   UNL     1      -4.204  11.833 -18.106  1.00  0.00     0.041 A 
ATOM     96  F   UNL     1      -2.003  11.866 -17.308  1.00  0.00    -0.206 F 
ATOM     97  C   UNL     1      -5.524  11.409 -17.994  1.00  0.00     0.022 A 
BRANCH  94  98
ATOM     98  S   UNL     1      -7.576   9.952 -16.794  1.00  0.00     0.124 S 
ATOM     99  O   UNL     1      -7.308   8.518 -16.759  1.00  0.00    -0.237 OA
ATOM    100  O   UNL     1      -8.088  10.536 -15.559  1.00  0.00    -0.237 OA
ATOM    101  O   UNL     1      -8.215  10.434 -18.018  1.00  0.00    -0.744 OA
ENDBRANCH  94  98
ENDBRANCH  68  91
ENDBRANCH  42  43
ENDBRANCH  34  37
ENDBRANCH  32  33
ENDBRANCH  31  32
ENDBRANCH   1  31
TORSDOF 18
