REMARK SMILES Cc1coc2cc3c(cc12)[C@@H](C)[C@H](CCC(=O)N[C@@H](Cc1c[nH]c2ccccc12)C(=O)NCCCCNC(=O)c1ccc(-c2c4nc(c(-c5cc(S(=O)(=O)[O-])ccc5F)c5ccc([nH]5)c(-c5cc(S(=O)(=O)[O-])ccc5F)c5nc(c(-c6cc(S(=O)(=O)[O-])ccc6F)c6ccc2[nH]6)C=C5)C=C4)cc1)C(=O)O3
REMARK SMILES IDX 34 1 33 2 32 3 30 4 31 5 19 7 18 8 16 9 17 10 15 12 14 13
REMARK SMILES IDX 13 14 1 15 2 16 3 17 10 18 4 19 5 20 9 21 6 22 8 23 7 24
REMARK SMILES IDX 11 25 105 26 12 27 103 28 104 29 20 30 21 31 22 32 29 33
REMARK SMILES IDX 23 34 24 35 28 36 25 38 27 39 26 40 35 41 36 42 37 43 38 44
REMARK SMILES IDX 39 46 40 47 41 48 102 49 42 50 101 51 43 52 44 53 45 54
REMARK SMILES IDX 95 55 46 56 100 57 94 58 96 59 47 60 99 61 93 62 92 63 48 65
REMARK SMILES IDX 80 66 60 67 79 68 61 69 64 70 78 71 97 72 62 73 63 74 77 76
REMARK SMILES IDX 98 77 65 78 49 79 50 80 58 81 51 82 57 83 59 84 56 85 52 86
REMARK SMILES IDX 53 87 54 88 55 89 81 90 82 91 90 92 83 93 89 94 91 95 88 96
REMARK SMILES IDX 84 97 85 98 86 99 87 100 66 101 67 102 75 103 68 104 74 105
REMARK SMILES IDX 76 106 73 107 69 108 70 109 71 110 72 111
REMARK H PARENT 32 6 18 11 23 37 37 45 96 64 64 75
REMARK Flexibility Score: inf
ROOT
ATOM      1  C   UNL     1      -4.215  -3.943  -5.030  1.00  0.00     0.023 C 
ENDROOT
BRANCH   1   2
ATOM      2  C   UNL     1      -3.486  -4.981  -4.211  1.00  0.00     0.116 C 
BRANCH   2   3
ATOM      3  N   UNL     1      -3.134  -6.215  -4.859  1.00  0.00    -0.354 N 
ATOM      4  C   UNL     1      -1.951  -6.897  -4.698  1.00  0.00     0.242 C 
ATOM      5  O   UNL     1      -1.775  -7.907  -5.387  1.00  0.00    -0.273 OA
ATOM      6  H   UNL     1      -3.797  -6.605  -5.472  1.00  0.00     0.163 HD
BRANCH   4   7
ATOM      7  C   UNL     1      -0.814  -6.372  -3.747  1.00  0.00     0.175 C 
BRANCH   7   8
ATOM      8  N   UNL     1       0.165  -5.529  -4.500  1.00  0.00    -0.344 N 
ATOM      9  C   UNL     1       1.512  -5.563  -4.789  1.00  0.00     0.220 C 
ATOM     10  O   UNL     1       1.900  -4.708  -5.599  1.00  0.00    -0.275 OA
ATOM     11  H   UNL     1      -0.269  -4.739  -4.895  1.00  0.00     0.164 HD
BRANCH   9  12
ATOM     12  C   UNL     1       2.590  -6.524  -4.190  1.00  0.00     0.101 C 
BRANCH  12  13
ATOM     13  C   UNL     1       3.601  -5.993  -3.048  1.00  0.00     0.026 C 
BRANCH  13  14
ATOM     14  C   UNL     1       3.176  -6.249  -1.539  1.00  0.00     0.107 C 
ATOM     15  C   UNL     1       1.379   0.400   0.785  1.00  0.00     0.048 C 
ATOM     16  C   UNL     1       1.590  -0.208  -0.545  1.00  0.00    -0.005 A 
ATOM     17  C   UNL     1       1.268   0.372  -1.758  1.00  0.00     0.199 A 
ATOM     18  C   UNL     1       2.029  -1.536  -0.844  1.00  0.00     0.024 A 
ATOM     19  O   UNL     1       1.357  -0.531  -2.761  1.00  0.00    -0.464 OA
ATOM     20  C   UNL     1       1.695  -1.708  -2.182  1.00  0.00     0.137 A 
ATOM     21  C   UNL     1       2.584  -2.644  -0.148  1.00  0.00     0.020 A 
ATOM     22  C   UNL     1       1.589  -2.941  -2.790  1.00  0.00     0.095 A 
ATOM     23  C   UNL     1       2.568  -3.891  -0.784  1.00  0.00    -0.001 A 
ATOM     24  C   UNL     1       1.816  -3.999  -1.931  1.00  0.00     0.138 A 
ATOM     25  C   UNL     1       3.234  -5.180  -0.360  1.00  0.00     0.034 C 
ATOM     26  O   UNL     1       1.160  -5.237  -2.119  1.00  0.00    -0.426 OA
ATOM     27  C   UNL     1       2.505  -5.717   0.897  1.00  0.00     0.014 C 
ATOM     28  C   UNL     1       1.731  -6.430  -1.672  1.00  0.00     0.314 C 
ATOM     29  O   UNL     1       1.163  -7.514  -1.556  1.00  0.00    -0.251 OA
ENDBRANCH  13  14
ENDBRANCH  12  13
ENDBRANCH   9  12
ENDBRANCH   7   8
BRANCH   7  30
ATOM     30  C   UNL     1      -1.391  -5.988  -2.324  1.00  0.00     0.072 C 
BRANCH  30  31
ATOM     31  C   UNL     1      -1.742  -4.622  -1.701  1.00  0.00    -0.020 A 
ATOM     32  C   UNL     1      -2.243  -4.588  -0.400  1.00  0.00     0.087 A 
ATOM     33  C   UNL     1      -1.796  -3.239  -2.149  1.00  0.00     0.003 A 
ATOM     34  N   UNL     1      -2.673  -3.330  -0.100  1.00  0.00    -0.361 N 
ATOM     35  C   UNL     1      -2.456  -2.497  -1.163  1.00  0.00     0.046 A 
ATOM     36  C   UNL     1      -1.456  -2.529  -3.326  1.00  0.00     0.010 A 
ATOM     37  H   UNL     1      -3.080  -3.060   0.755  1.00  0.00     0.166 HD
ATOM     38  C   UNL     1      -2.832  -1.153  -1.318  1.00  0.00     0.026 A 
ATOM     39  C   UNL     1      -1.804  -1.182  -3.496  1.00  0.00     0.001 A 
ATOM     40  C   UNL     1      -2.506  -0.510  -2.509  1.00  0.00     0.002 A 
ENDBRANCH  30  31
ENDBRANCH   7  30
ENDBRANCH   4   7
ENDBRANCH   2   3
ENDBRANCH   1   2
BRANCH   1  41
ATOM     41  C   UNL     1      -5.725  -4.071  -5.006  1.00  0.00     0.023 C 
BRANCH  41  42
ATOM     42  C   UNL     1      -6.416  -3.870  -3.640  1.00  0.00     0.116 C 
BRANCH  42  43
ATOM     43  N   UNL     1      -5.944  -2.782  -2.788  1.00  0.00    -0.352 N 
ATOM     44  C   UNL     1      -6.419  -1.516  -2.517  1.00  0.00     0.251 C 
ATOM     45  H   UNL     1      -5.112  -2.997  -2.308  1.00  0.00     0.163 HD
ATOM     46  O   UNL     1      -6.121  -1.026  -1.425  1.00  0.00    -0.269 OA
BRANCH  44  47
ATOM     47  C   UNL     1      -7.181  -0.685  -3.490  1.00  0.00     0.039 A 
ATOM     48  C   UNL     1      -7.484  -1.117  -4.769  1.00  0.00     0.014 A 
ATOM     49  C   UNL     1      -7.514   0.641  -3.146  1.00  0.00     0.014 A 
ATOM     50  C   UNL     1      -7.990  -0.249  -5.718  1.00  0.00     0.010 A 
ATOM     51  C   UNL     1      -8.089   1.513  -4.084  1.00  0.00     0.010 A 
ATOM     52  C   UNL     1      -8.299   1.072  -5.387  1.00  0.00    -0.014 A 
BRANCH  52  53
ATOM     53  C   UNL     1      -8.941   1.830  -6.462  1.00  0.00     0.031 A 
ATOM     54  C   UNL     1     -10.130   1.160  -7.065  1.00  0.00     0.074 A 
ATOM     55  C   UNL     1      -8.573   3.028  -6.945  1.00  0.00     0.049 A 
ATOM     56  N   UNL     1     -10.229   0.609  -8.232  1.00  0.00    -0.248 NA
ATOM     57  C   UNL     1     -11.294   0.955  -6.197  1.00  0.00     0.031 C 
ATOM     58  C   UNL     1      -7.683   4.019  -6.345  1.00  0.00     0.029 A 
ATOM     59  N   UNL     1      -9.019   3.642  -8.082  1.00  0.00    -0.354 N 
ATOM     60  C   UNL     1     -11.535   0.129  -8.320  1.00  0.00     0.074 A 
ATOM     61  C   UNL     1     -12.091   0.244  -6.994  1.00  0.00     0.031 C 
ATOM     62  C   UNL     1      -7.835   5.193  -7.000  1.00  0.00     0.029 A 
ATOM     63  C   UNL     1      -8.700   4.984  -8.152  1.00  0.00     0.049 A 
ATOM     64  H   UNL     1      -9.521   3.171  -8.785  1.00  0.00     0.167 HD
ATOM     65  C   UNL     1     -12.121  -0.166  -9.516  1.00  0.00     0.034 A 
ATOM     66  C   UNL     1      -9.183   5.879  -9.045  1.00  0.00     0.034 A 
ATOM     67  C   UNL     1     -11.155  -0.244 -10.576  1.00  0.00     0.049 A 
ATOM     68  C   UNL     1      -9.687   5.161 -10.238  1.00  0.00     0.074 A 
ATOM     69  C   UNL     1     -10.105  -1.074 -10.904  1.00  0.00     0.029 A 
ATOM     70  N   UNL     1     -11.047   0.857 -11.385  1.00  0.00    -0.354 N 
ATOM     71  N   UNL     1      -8.937   4.571 -11.126  1.00  0.00    -0.248 NA
ATOM     72  C   UNL     1     -11.106   4.843 -10.317  1.00  0.00     0.031 C 
ATOM     73  C   UNL     1      -9.193  -0.262 -11.637  1.00  0.00     0.029 A 
ATOM     74  C   UNL     1      -9.734   1.023 -11.729  1.00  0.00     0.049 A 
ATOM     75  H   UNL     1     -11.792   1.434 -11.671  1.00  0.00     0.167 HD
ATOM     76  C   UNL     1      -9.694   3.499 -11.564  1.00  0.00     0.074 A 
ATOM     77  C   UNL     1     -11.060   3.824 -11.177  1.00  0.00     0.031 C 
ATOM     78  C   UNL     1      -9.110   2.319 -11.929  1.00  0.00     0.034 A 
BRANCH  65  79
ATOM     79  C   UNL     1     -13.603  -0.026  -9.800  1.00  0.00     0.023 A 
ATOM     80  C   UNL     1     -14.495   0.598  -8.911  1.00  0.00     0.031 A 
ATOM     81  C   UNL     1     -14.115  -0.289 -11.091  1.00  0.00     0.131 A 
ATOM     82  C   UNL     1     -15.798   0.945  -9.293  1.00  0.00     0.055 A 
ATOM     83  C   UNL     1     -15.394   0.117 -11.495  1.00  0.00     0.041 A 
ATOM     84  F   UNL     1     -13.362  -0.887 -12.027  1.00  0.00    -0.206 F 
ATOM     85  C   UNL     1     -16.243   0.743 -10.593  1.00  0.00     0.022 A 
BRANCH  82  86
ATOM     86  S   UNL     1     -16.922   1.695  -8.084  1.00  0.00     0.124 S 
ATOM     87  O   UNL     1     -17.169   3.007  -8.684  1.00  0.00    -0.237 OA
ATOM     88  O   UNL     1     -18.053   0.766  -8.118  1.00  0.00    -0.237 OA
ATOM     89  O   UNL     1     -16.156   1.691  -6.852  1.00  0.00    -0.744 OA
ENDBRANCH  82  86
ENDBRANCH  65  79
BRANCH  66  90
ATOM     90  C   UNL     1      -9.586   7.269  -8.748  1.00  0.00     0.023 A 
ATOM     91  C   UNL     1     -10.065   7.596  -7.465  1.00  0.00     0.031 A 
ATOM     92  C   UNL     1      -9.793   8.202  -9.776  1.00  0.00     0.131 A 
ATOM     93  C   UNL     1     -10.763   8.790  -7.250  1.00  0.00     0.055 A 
ATOM     94  C   UNL     1     -10.482   9.400  -9.557  1.00  0.00     0.041 A 
ATOM     95  F   UNL     1      -9.389   7.937 -11.028  1.00  0.00    -0.206 F 
ATOM     96  C   UNL     1     -10.982   9.693  -8.291  1.00  0.00     0.022 A 
BRANCH  93  97
ATOM     97  S   UNL     1     -11.451   9.160  -5.614  1.00  0.00     0.124 S 
ATOM     98  O   UNL     1     -11.105  10.570  -5.442  1.00  0.00    -0.237 OA
ATOM     99  O   UNL     1     -12.868   8.881  -5.817  1.00  0.00    -0.237 OA
ATOM    100  O   UNL     1     -10.741   8.241  -4.729  1.00  0.00    -0.744 OA
ENDBRANCH  93  97
ENDBRANCH  66  90
BRANCH  78 101
ATOM    101  C   UNL     1      -7.648   2.304 -12.303  1.00  0.00     0.023 A 
ATOM    102  C   UNL     1      -7.302   1.630 -13.492  1.00  0.00     0.031 A 
ATOM    103  C   UNL     1      -6.599   2.737 -11.472  1.00  0.00     0.131 A 
ATOM    104  C   UNL     1      -5.961   1.380 -13.803  1.00  0.00     0.055 A 
ATOM    105  C   UNL     1      -5.258   2.554 -11.827  1.00  0.00     0.041 A 
ATOM    106  F   UNL     1      -6.832   3.268 -10.263  1.00  0.00    -0.206 F 
ATOM    107  C   UNL     1      -4.934   1.858 -12.987  1.00  0.00     0.022 A 
BRANCH 104 108
ATOM    108  S   UNL     1      -5.532   0.280 -15.179  1.00  0.00     0.124 S 
ATOM    109  O   UNL     1      -4.932   1.204 -16.137  1.00  0.00    -0.237 OA
ATOM    110  O   UNL     1      -4.605  -0.660 -14.551  1.00  0.00    -0.237 OA
ATOM    111  O   UNL     1      -6.811  -0.297 -15.582  1.00  0.00    -0.744 OA
ENDBRANCH 104 108
ENDBRANCH  78 101
ENDBRANCH  52  53
ENDBRANCH  44  47
ENDBRANCH  42  43
ENDBRANCH  41  42
ENDBRANCH   1  41
TORSDOF 20
