REMARK SMILES C[C@@H]([NH2+]C[C@H]1CCC[C@@H]1C(=O)NCCCCNC(=O)c1ccc(-c2c3nc(c(-c4cc(S(=O)(=O)[O-])ccc4F)c4ccc([nH]4)c(-c4cc(S(=O)(=O)[O-])ccc4F)c4nc(c(-c5cc(S(=O)(=O)[O-])ccc5F)c5ccc2[nH]5)C=C4)C=C3)cc1)c1cc(F)ccc1O
REMARK SMILES IDX 13 1 12 2 10 3 11 4 9 6 5 7 6 8 7 9 8 10 4 11 3 12 2 15 1 16
REMARK SMILES IDX 83 17 84 18 89 19 85 20 88 21 86 22 87 23 90 24 14 26 15 27
REMARK SMILES IDX 16 28 17 29 18 30 19 32 20 33 21 34 82 35 22 36 81 37 23 38
REMARK SMILES IDX 24 39 25 40 75 41 26 42 80 43 74 44 76 45 27 46 79 47 73 48
REMARK SMILES IDX 72 49 28 51 60 52 40 53 59 54 41 55 44 56 58 57 77 58 42 59
REMARK SMILES IDX 43 60 57 62 78 63 45 64 29 65 30 66 38 67 31 68 37 69 39 70
REMARK SMILES IDX 36 71 32 72 33 73 34 74 35 75 61 76 62 77 70 78 63 79 69 80
REMARK SMILES IDX 71 81 68 82 64 83 65 84 66 85 67 86 46 87 47 88 55 89 48 90
REMARK SMILES IDX 54 91 56 92 53 93 49 94 50 95 51 96 52 97
REMARK H PARENT 12 5 3 13 3 14 90 25 17 31 76 50 44 61
REMARK Flexibility Score: inf
ROOT
ATOM      1  C   UNL     1      -1.035  -2.835  -5.690  1.00  0.00     0.116 C 
ENDROOT
BRANCH   1   2
ATOM      2  N   UNL     1      -1.771  -1.655  -5.275  1.00  0.00    -0.356 N 
ATOM      3  C   UNL     1      -1.376  -0.351  -5.228  1.00  0.00     0.223 C 
ATOM      4  O   UNL     1      -2.215   0.502  -4.938  1.00  0.00    -0.275 OA
ATOM      5  H   UNL     1      -2.696  -1.821  -4.982  1.00  0.00     0.163 HD
BRANCH   3   6
ATOM      6  C   UNL     1       0.087  -0.004  -5.485  1.00  0.00     0.087 C 
ATOM      7  C   UNL     1       0.913  -0.151  -4.189  1.00  0.00     0.057 C 
ATOM      8  C   UNL     1       0.690   1.205  -3.509  1.00  0.00     0.010 C 
ATOM      9  C   UNL     1       0.698   2.224  -4.636  1.00  0.00     0.001 C 
ATOM     10  C   UNL     1       0.264   1.469  -5.891  1.00  0.00     0.014 C 
BRANCH   7  11
ATOM     11  C   UNL     1       2.384  -0.473  -4.526  1.00  0.00     0.265 C 
BRANCH  11  12
ATOM     12  N   UNL     1       3.391  -0.254  -3.475  1.00  0.00    -0.340 N 
ATOM     13  H   UNL     1       4.296  -0.558  -3.834  1.00  0.00     0.346 HD
ATOM     14  H   UNL     1       3.360   0.741  -3.252  1.00  0.00     0.346 HD
BRANCH  12  15
ATOM     15  C   UNL     1       3.134  -0.972  -2.209  1.00  0.00     0.214 C 
ATOM     16  C   UNL     1       4.052  -0.372  -1.134  1.00  0.00     0.081 C 
BRANCH  15  17
ATOM     17  C   UNL     1       3.376  -2.468  -2.296  1.00  0.00     0.054 A 
ATOM     18  C   UNL     1       2.618  -3.322  -1.476  1.00  0.00     0.053 A 
ATOM     19  C   UNL     1       4.370  -3.049  -3.101  1.00  0.00     0.124 A 
ATOM     20  C   UNL     1       2.852  -4.694  -1.480  1.00  0.00     0.123 A 
ATOM     21  C   UNL     1       4.598  -4.425  -3.105  1.00  0.00     0.050 A 
ATOM     22  F   UNL     1       2.126  -5.486  -0.680  1.00  0.00    -0.207 F 
ATOM     23  C   UNL     1       3.832  -5.254  -2.289  1.00  0.00     0.043 A 
BRANCH  19  24
ATOM     24  O   UNL     1       5.157  -2.293  -3.925  1.00  0.00    -0.507 OA
ATOM     25  H   UNL     1       5.043  -1.364  -3.959  1.00  0.00     0.293 HD
ENDBRANCH  19  24
ENDBRANCH  15  17
ENDBRANCH  12  15
ENDBRANCH  11  12
ENDBRANCH   7  11
ENDBRANCH   3   6
ENDBRANCH   1   2
BRANCH   1  26
ATOM     26  C   UNL     1      -1.106  -3.965  -4.666  1.00  0.00     0.023 C 
BRANCH  26  27
ATOM     27  C   UNL     1      -2.514  -4.451  -4.310  1.00  0.00     0.023 C 
BRANCH  27  28
ATOM     28  C   UNL     1      -3.396  -4.868  -5.484  1.00  0.00     0.116 C 
BRANCH  28  29
ATOM     29  N   UNL     1      -2.852  -5.986  -6.238  1.00  0.00    -0.352 N 
ATOM     30  C   UNL     1      -3.429  -7.195  -6.556  1.00  0.00     0.251 C 
ATOM     31  H   UNL     1      -1.934  -5.860  -6.571  1.00  0.00     0.163 HD
ATOM     32  O   UNL     1      -2.751  -8.065  -7.097  1.00  0.00    -0.269 OA
BRANCH  30  33
ATOM     33  C   UNL     1      -4.844  -7.462  -6.212  1.00  0.00     0.039 A 
ATOM     34  C   UNL     1      -5.167  -8.664  -5.574  1.00  0.00     0.014 A 
ATOM     35  C   UNL     1      -5.847  -6.532  -6.498  1.00  0.00     0.014 A 
ATOM     36  C   UNL     1      -6.476  -8.888  -5.134  1.00  0.00     0.010 A 
ATOM     37  C   UNL     1      -7.137  -6.732  -6.007  1.00  0.00     0.010 A 
ATOM     38  C   UNL     1      -7.460  -7.901  -5.300  1.00  0.00    -0.014 A 
BRANCH  38  39
ATOM     39  C   UNL     1      -8.813  -8.041  -4.697  1.00  0.00     0.031 A 
ATOM     40  C   UNL     1     -10.033  -8.118  -5.573  1.00  0.00     0.074 A 
ATOM     41  C   UNL     1      -8.947  -8.003  -3.355  1.00  0.00     0.049 A 
ATOM     42  N   UNL     1     -11.297  -8.107  -5.234  1.00  0.00    -0.248 NA
ATOM     43  C   UNL     1      -9.799  -8.194  -7.022  1.00  0.00     0.031 C 
ATOM     44  C   UNL     1      -7.843  -7.908  -2.397  1.00  0.00     0.029 A 
ATOM     45  N   UNL     1     -10.069  -8.020  -2.562  1.00  0.00    -0.354 N 
ATOM     46  C   UNL     1     -12.012  -8.153  -6.426  1.00  0.00     0.074 A 
ATOM     47  C   UNL     1     -11.037  -8.156  -7.497  1.00  0.00     0.031 C 
ATOM     48  C   UNL     1      -8.340  -7.888  -1.150  1.00  0.00     0.029 A 
ATOM     49  C   UNL     1      -9.797  -7.912  -1.216  1.00  0.00     0.049 A 
ATOM     50  H   UNL     1     -10.981  -8.103  -2.922  1.00  0.00     0.167 HD
ATOM     51  C   UNL     1     -13.355  -8.198  -6.607  1.00  0.00     0.034 A 
ATOM     52  C   UNL     1     -10.626  -7.814  -0.157  1.00  0.00     0.034 A 
ATOM     53  C   UNL     1     -14.315  -8.213  -5.529  1.00  0.00     0.049 A 
ATOM     54  C   UNL     1     -12.116  -7.819  -0.392  1.00  0.00     0.074 A 
ATOM     55  C   UNL     1     -15.692  -8.340  -5.604  1.00  0.00     0.029 A 
ATOM     56  N   UNL     1     -14.004  -8.084  -4.182  1.00  0.00    -0.354 N 
ATOM     57  N   UNL     1     -12.774  -7.916  -1.525  1.00  0.00    -0.248 NA
ATOM     58  C   UNL     1     -12.974  -7.702   0.794  1.00  0.00     0.031 C 
ATOM     59  C   UNL     1     -16.217  -8.215  -4.314  1.00  0.00     0.029 A 
ATOM     60  C   UNL     1     -15.165  -8.084  -3.422  1.00  0.00     0.049 A 
ATOM     61  H   UNL     1     -13.093  -8.004  -3.819  1.00  0.00     0.167 HD
ATOM     62  C   UNL     1     -14.123  -7.902  -1.180  1.00  0.00     0.074 A 
ATOM     63  C   UNL     1     -14.183  -7.803   0.263  1.00  0.00     0.031 C 
ATOM     64  C   UNL     1     -15.214  -7.969  -1.984  1.00  0.00     0.034 A 
BRANCH  51  65
ATOM     65  C   UNL     1     -13.871  -8.200  -8.026  1.00  0.00     0.023 A 
ATOM     66  C   UNL     1     -13.624  -9.268  -8.905  1.00  0.00     0.031 A 
ATOM     67  C   UNL     1     -14.625  -7.113  -8.504  1.00  0.00     0.131 A 
ATOM     68  C   UNL     1     -14.074  -9.200 -10.232  1.00  0.00     0.055 A 
ATOM     69  C   UNL     1     -15.132  -7.084  -9.804  1.00  0.00     0.041 A 
ATOM     70  F   UNL     1     -14.877  -6.056  -7.715  1.00  0.00    -0.206 F 
ATOM     71  C   UNL     1     -14.848  -8.126 -10.681  1.00  0.00     0.022 A 
BRANCH  68  72
ATOM     72  S   UNL     1     -13.537 -10.480 -11.399  1.00  0.00     0.124 S 
ATOM     73  O   UNL     1     -12.084 -10.331 -11.351  1.00  0.00    -0.237 OA
ATOM     74  O   UNL     1     -14.075 -11.697 -10.802  1.00  0.00    -0.237 OA
ATOM     75  O   UNL     1     -14.155 -10.077 -12.660  1.00  0.00    -0.744 OA
ENDBRANCH  68  72
ENDBRANCH  51  65
BRANCH  52  76
ATOM     76  C   UNL     1     -10.084  -7.671   1.225  1.00  0.00     0.023 A 
ATOM     77  C   UNL     1     -10.323  -8.656   2.196  1.00  0.00     0.031 A 
ATOM     78  C   UNL     1      -9.376  -6.520   1.614  1.00  0.00     0.131 A 
ATOM     79  C   UNL     1      -9.908  -8.449   3.520  1.00  0.00     0.055 A 
ATOM     80  C   UNL     1      -8.916  -6.343   2.920  1.00  0.00     0.041 A 
ATOM     81  F   UNL     1      -9.119  -5.547   0.725  1.00  0.00    -0.206 F 
ATOM     82  C   UNL     1      -9.195  -7.305   3.886  1.00  0.00     0.022 A 
BRANCH  79  83
ATOM     83  S   UNL     1     -10.403  -9.654   4.782  1.00  0.00     0.124 S 
ATOM     84  O   UNL     1     -11.855  -9.639   4.654  1.00  0.00    -0.237 OA
ATOM     85  O   UNL     1      -9.731 -10.865   4.323  1.00  0.00    -0.237 OA
ATOM     86  O   UNL     1      -9.878  -9.084   6.021  1.00  0.00    -0.744 OA
ENDBRANCH  79  83
ENDBRANCH  52  76
BRANCH  64  87
ATOM     87  C   UNL     1     -16.562  -7.979  -1.306  1.00  0.00     0.023 A 
ATOM     88  C   UNL     1     -17.052  -6.854  -0.621  1.00  0.00     0.031 A 
ATOM     89  C   UNL     1     -17.357  -9.138  -1.330  1.00  0.00     0.131 A 
ATOM     90  C   UNL     1     -18.278  -6.929   0.059  1.00  0.00     0.055 A 
ATOM     91  C   UNL     1     -18.602  -9.188  -0.702  1.00  0.00     0.041 A 
ATOM     92  F   UNL     1     -16.936 -10.243  -1.967  1.00  0.00    -0.206 F 
ATOM     93  C   UNL     1     -19.063  -8.084   0.009  1.00  0.00     0.022 A 
BRANCH  90  94
ATOM     94  S   UNL     1     -18.794  -5.524   1.083  1.00  0.00     0.124 S 
ATOM     95  O   UNL     1     -17.700  -5.430   2.044  1.00  0.00    -0.237 OA
ATOM     96  O   UNL     1     -18.882  -4.441   0.109  1.00  0.00    -0.237 OA
ATOM     97  O   UNL     1     -20.074  -5.958   1.642  1.00  0.00    -0.744 OA
ENDBRANCH  90  94
ENDBRANCH  64  87
ENDBRANCH  38  39
ENDBRANCH  30  33
ENDBRANCH  28  29
ENDBRANCH  27  28
ENDBRANCH  26  27
ENDBRANCH   1  26
TORSDOF 19
