REMARK SMILES C[C@@H]1Cc2ccccc2N1S(=O)(=O)c1cccc(C(=O)NCCCCNC(=O)c2ccc(-c3c4nc(c(-c5cc(S(=O)(=O)[O-])ccc5F)c5ccc([nH]5)c(-c5cc(S(=O)(=O)[O-])ccc5F)c5nc(c(-c6cc(S(=O)(=O)[O-])ccc6F)c6ccc3[nH]6)C=C5)C=C4)cc2)c1
REMARK SMILES IDX 24 1 23 2 22 3 21 4 19 5 20 6 18 8 14 9 15 10 92 11 16 12
REMARK SMILES IDX 17 13 11 14 12 15 13 16 10 17 1 18 2 19 3 20 4 21 9 22 5 23
REMARK SMILES IDX 8 24 6 25 7 26 25 27 26 28 27 29 28 31 29 32 30 33 91 34
REMARK SMILES IDX 31 35 90 36 32 37 33 38 34 39 84 40 35 41 89 42 83 43 85 44
REMARK SMILES IDX 36 45 88 46 82 47 81 48 37 50 69 51 49 52 68 53 50 54 53 55
REMARK SMILES IDX 67 56 86 57 51 58 52 59 66 61 87 62 54 63 38 64 39 65 47 66
REMARK SMILES IDX 40 67 46 68 48 69 45 70 41 71 42 72 43 73 44 74 70 75 71 76
REMARK SMILES IDX 79 77 72 78 78 79 80 80 77 81 73 82 74 83 75 84 76 85 55 86
REMARK SMILES IDX 56 87 64 88 57 89 63 90 65 91 62 92 58 93 59 94 60 95 61 96
REMARK H PARENT 21 7 26 30 85 49 53 60
REMARK Flexibility Score: inf
ROOT
ATOM      1  C   UNL     1       0.599   4.930  -7.629  1.00  0.00     0.023 C 
ENDROOT
BRANCH   1   2
ATOM      2  C   UNL     1       0.241   4.027  -6.457  1.00  0.00     0.023 C 
BRANCH   2   3
ATOM      3  C   UNL     1      -0.108   4.710  -5.141  1.00  0.00     0.116 C 
BRANCH   3   4
ATOM      4  N   UNL     1      -1.170   5.698  -5.208  1.00  0.00    -0.352 N 
ATOM      5  C   UNL     1      -2.086   6.111  -4.267  1.00  0.00     0.251 C 
ATOM      6  O   UNL     1      -2.851   7.028  -4.563  1.00  0.00    -0.269 OA
ATOM      7  H   UNL     1      -1.248   6.152  -6.079  1.00  0.00     0.163 HD
BRANCH   5   8
ATOM      8  C   UNL     1      -2.251   5.439  -2.944  1.00  0.00     0.041 A 
ATOM      9  C   UNL     1      -1.568   3.900  -1.222  1.00  0.00     0.088 A 
ATOM     10  C   UNL     1      -2.836   3.941  -0.635  1.00  0.00     0.022 A 
ATOM     11  C   UNL     1      -1.239   4.735  -2.293  1.00  0.00     0.036 A 
ATOM     12  C   UNL     1      -3.819   4.744  -1.203  1.00  0.00     0.002 A 
ATOM     13  C   UNL     1      -3.537   5.461  -2.370  1.00  0.00     0.014 A 
BRANCH   9  14
ATOM     14  S   UNL     1      -0.408   2.663  -0.698  1.00  0.00     0.264 S 
ATOM     15  O   UNL     1      -0.859   2.150   0.577  1.00  0.00    -0.201 OA
ATOM     16  O   UNL     1       0.919   3.241  -0.824  1.00  0.00    -0.201 OA
BRANCH  14  17
ATOM     17  N   UNL     1      -0.516   1.387  -1.866  1.00  0.00    -0.263 N 
ATOM     18  C   UNL     1       1.559   0.092  -2.338  1.00  0.00     0.032 C 
ATOM     19  C   UNL     1       0.338   0.194  -1.435  1.00  0.00     0.101 C 
ATOM     20  C   UNL     1      -0.560  -1.063  -1.512  1.00  0.00     0.063 C 
ATOM     21  C   UNL     1      -1.880  -0.518  -1.936  1.00  0.00    -0.021 A 
ATOM     22  C   UNL     1      -1.815   0.848  -2.173  1.00  0.00     0.055 A 
ATOM     23  C   UNL     1      -3.050  -1.237  -2.155  1.00  0.00     0.006 A 
ATOM     24  C   UNL     1      -2.883   1.492  -2.776  1.00  0.00     0.027 A 
ATOM     25  C   UNL     1      -4.161  -0.566  -2.667  1.00  0.00     0.000 A 
ATOM     26  C   UNL     1      -4.072   0.789  -2.997  1.00  0.00     0.002 A 
ENDBRANCH  14  17
ENDBRANCH   9  14
ENDBRANCH   5   8
ENDBRANCH   3   4
ENDBRANCH   2   3
ENDBRANCH   1   2
BRANCH   1  27
ATOM     27  C   UNL     1       1.590   6.048  -7.334  1.00  0.00     0.116 C 
BRANCH  27  28
ATOM     28  N   UNL     1       2.898   5.579  -6.895  1.00  0.00    -0.352 N 
ATOM     29  C   UNL     1       4.131   5.674  -7.504  1.00  0.00     0.251 C 
ATOM     30  H   UNL     1       2.902   5.122  -6.023  1.00  0.00     0.163 HD
ATOM     31  O   UNL     1       5.105   5.131  -6.991  1.00  0.00    -0.269 OA
BRANCH  29  32
ATOM     32  C   UNL     1       4.264   6.373  -8.801  1.00  0.00     0.039 A 
ATOM     33  C   UNL     1       3.657   7.610  -9.012  1.00  0.00     0.014 A 
ATOM     34  C   UNL     1       4.958   5.749  -9.841  1.00  0.00     0.014 A 
ATOM     35  C   UNL     1       3.537   8.103 -10.306  1.00  0.00     0.010 A 
ATOM     36  C   UNL     1       4.930   6.305 -11.124  1.00  0.00     0.010 A 
ATOM     37  C   UNL     1       4.159   7.449 -11.382  1.00  0.00    -0.014 A 
BRANCH  37  38
ATOM     38  C   UNL     1       3.982   7.966 -12.766  1.00  0.00     0.031 A 
ATOM     39  C   UNL     1       3.314   7.126 -13.823  1.00  0.00     0.074 A 
ATOM     40  C   UNL     1       4.391   9.216 -13.059  1.00  0.00     0.049 A 
ATOM     41  N   UNL     1       3.106   7.405 -15.085  1.00  0.00    -0.248 NA
ATOM     42  C   UNL     1       2.818   5.800 -13.419  1.00  0.00     0.031 C 
ATOM     43  C   UNL     1       5.035  10.126 -12.111  1.00  0.00     0.029 A 
ATOM     44  N   UNL     1       4.320   9.943 -14.222  1.00  0.00    -0.354 N 
ATOM     45  C   UNL     1       2.486   6.285 -15.629  1.00  0.00     0.074 A 
ATOM     46  C   UNL     1       2.370   5.311 -14.568  1.00  0.00     0.031 C 
ATOM     47  C   UNL     1       5.260  11.300 -12.714  1.00  0.00     0.029 A 
ATOM     48  C   UNL     1       4.861  11.204 -14.115  1.00  0.00     0.049 A 
ATOM     49  H   UNL     1       3.920   9.596 -15.052  1.00  0.00     0.167 HD
ATOM     50  C   UNL     1       2.045   6.097 -16.896  1.00  0.00     0.034 A 
ATOM     51  C   UNL     1       5.049  12.167 -15.041  1.00  0.00     0.034 A 
ATOM     52  C   UNL     1       2.132   7.095 -17.931  1.00  0.00     0.049 A 
ATOM     53  C   UNL     1       4.573  11.923 -16.448  1.00  0.00     0.074 A 
ATOM     54  C   UNL     1       1.671   7.013 -19.233  1.00  0.00     0.029 A 
ATOM     55  N   UNL     1       2.706   8.350 -17.790  1.00  0.00    -0.354 N 
ATOM     56  N   UNL     1       3.956  10.872 -16.935  1.00  0.00    -0.248 NA
ATOM     57  C   UNL     1       4.815  12.985 -17.434  1.00  0.00     0.031 C 
ATOM     58  C   UNL     1       2.022   8.188 -19.896  1.00  0.00     0.029 A 
ATOM     59  C   UNL     1       2.637   9.038 -18.990  1.00  0.00     0.049 A 
ATOM     60  H   UNL     1       3.104   8.700 -16.959  1.00  0.00     0.167 HD
ATOM     61  C   UNL     1       3.723  11.151 -18.278  1.00  0.00     0.074 A 
ATOM     62  C   UNL     1       4.242  12.481 -18.521  1.00  0.00     0.031 C 
ATOM     63  C   UNL     1       3.140  10.371 -19.222  1.00  0.00     0.034 A 
BRANCH  50  64
ATOM     64  C   UNL     1       1.412   4.777 -17.265  1.00  0.00     0.023 A 
ATOM     65  C   UNL     1       2.019   3.960 -18.239  1.00  0.00     0.031 A 
ATOM     66  C   UNL     1       0.146   4.408 -16.781  1.00  0.00     0.131 A 
ATOM     67  C   UNL     1       1.339   2.838 -18.729  1.00  0.00     0.055 A 
ATOM     68  C   UNL     1      -0.511   3.266 -17.245  1.00  0.00     0.041 A 
ATOM     69  F   UNL     1      -0.474   5.154 -15.853  1.00  0.00    -0.206 F 
ATOM     70  C   UNL     1       0.079   2.484 -18.234  1.00  0.00     0.022 A 
BRANCH  67  71
ATOM     71  S   UNL     1       2.027   1.837 -20.076  1.00  0.00     0.124 S 
ATOM     72  O   UNL     1       2.090   0.512 -19.462  1.00  0.00    -0.237 OA
ATOM     73  O   UNL     1       1.018   1.993 -21.119  1.00  0.00    -0.237 OA
ATOM     74  O   UNL     1       3.320   2.455 -20.349  1.00  0.00    -0.744 OA
ENDBRANCH  67  71
ENDBRANCH  50  64
BRANCH  51  75
ATOM     75  C   UNL     1       5.703  13.443 -14.629  1.00  0.00     0.023 A 
ATOM     76  C   UNL     1       7.006  13.441 -14.096  1.00  0.00     0.031 A 
ATOM     77  C   UNL     1       4.994  14.654 -14.632  1.00  0.00     0.131 A 
ATOM     78  C   UNL     1       7.522  14.602 -13.507  1.00  0.00     0.055 A 
ATOM     79  C   UNL     1       5.543  15.830 -14.116  1.00  0.00     0.041 A 
ATOM     80  F   UNL     1       3.744  14.705 -15.119  1.00  0.00    -0.206 F 
ATOM     81  C   UNL     1       6.805  15.801 -13.529  1.00  0.00     0.022 A 
BRANCH  78  82
ATOM     82  S   UNL     1       9.063  14.549 -12.550  1.00  0.00     0.124 S 
ATOM     83  O   UNL     1       9.920  15.459 -13.303  1.00  0.00    -0.237 OA
ATOM     84  O   UNL     1       8.621  15.033 -11.244  1.00  0.00    -0.237 OA
ATOM     85  O   UNL     1       9.445  13.141 -12.590  1.00  0.00    -0.744 OA
ENDBRANCH  78  82
ENDBRANCH  51  75
BRANCH  63  86
ATOM     86  C   UNL     1       3.009  10.906 -20.626  1.00  0.00     0.023 A 
ATOM     87  C   UNL     1       1.731  11.100 -21.186  1.00  0.00     0.031 A 
ATOM     88  C   UNL     1       4.130  11.047 -21.460  1.00  0.00     0.131 A 
ATOM     89  C   UNL     1       1.604  11.369 -22.554  1.00  0.00     0.055 A 
ATOM     90  C   UNL     1       4.001  11.364 -22.813  1.00  0.00     0.041 A 
ATOM     91  F   UNL     1       5.368  10.862 -20.973  1.00  0.00    -0.206 F 
ATOM     92  C   UNL     1       2.732  11.509 -23.369  1.00  0.00     0.022 A 
BRANCH  89  93
ATOM     93  S   UNL     1      -0.027  11.451 -23.344  1.00  0.00     0.124 S 
ATOM     94  O   UNL     1      -0.025  12.801 -23.903  1.00  0.00    -0.237 OA
ATOM     95  O   UNL     1       0.051  10.370 -24.323  1.00  0.00    -0.237 OA
ATOM     96  O   UNL     1      -0.963  11.237 -22.244  1.00  0.00    -0.744 OA
ENDBRANCH  89  93
ENDBRANCH  63  86
ENDBRANCH  37  38
ENDBRANCH  29  32
ENDBRANCH  27  28
ENDBRANCH   1  27
TORSDOF 16
