REMARK SMILES CCN(C(=O)Cc1c(C(=O)NCCCCNC(=O)c2ccc(-c3c4nc(c(-c5cc(S(=O)(=O)[O-])ccc5F)c5ccc([nH]5)c(-c5cc(S(=O)(=O)[O-])ccc5F)c5nc(c(-c6cc(S(=O)(=O)[O-])ccc6F)c6ccc3[nH]6)C=C5)C=C4)cc2)[nH]c2ccc(Cl)cc12)c1ccc(C)c(C)c1
REMARK SMILES IDX 13 1 12 2 11 3 9 4 10 5 8 7 7 8 89 9 82 10 83 11 88 12 84 14
REMARK SMILES IDX 86 15 85 16 87 17 6 18 4 19 5 20 3 21 2 22 1 23 90 24 91 25
REMARK SMILES IDX 97 26 92 27 95 28 93 29 96 30 94 31 14 32 15 33 16 34 17 35
REMARK SMILES IDX 18 37 19 38 20 39 81 40 21 41 80 42 22 43 23 44 24 45 74 46
REMARK SMILES IDX 25 47 79 48 73 49 75 50 26 51 78 52 72 53 71 54 27 56 59 57
REMARK SMILES IDX 39 58 58 59 40 60 43 61 57 62 76 63 41 64 42 65 56 67 77 68
REMARK SMILES IDX 44 69 28 70 29 71 37 72 30 73 36 74 38 75 35 76 31 77 32 78
REMARK SMILES IDX 33 79 34 80 60 81 61 82 69 83 62 84 68 85 70 86 67 87 63 88
REMARK SMILES IDX 64 89 65 90 66 91 45 92 46 93 54 94 47 95 53 96 55 97 52 98
REMARK SMILES IDX 48 99 49 100 50 101 51 102
REMARK H PARENT 11 6 82 13 16 36 75 55 43 66
REMARK Flexibility Score: inf
ROOT
ATOM      1  C   UNL     1      -2.216  -4.020  -2.591  1.00  0.00     0.023 C 
ENDROOT
BRANCH   1   2
ATOM      2  C   UNL     1      -1.903  -3.057  -1.456  1.00  0.00     0.116 C 
BRANCH   2   3
ATOM      3  N   UNL     1      -1.857  -1.660  -1.795  1.00  0.00    -0.351 N 
ATOM      4  C   UNL     1      -1.964  -0.568  -0.966  1.00  0.00     0.268 C 
ATOM      5  O   UNL     1      -1.940   0.536  -1.516  1.00  0.00    -0.268 OA
ATOM      6  H   UNL     1      -1.732  -1.458  -2.750  1.00  0.00     0.163 HD
BRANCH   4   7
ATOM      7  C   UNL     1      -2.121  -0.656   0.488  1.00  0.00     0.109 A 
ATOM      8  C   UNL     1      -1.877  -1.559   1.540  1.00  0.00    -0.000 A 
ATOM      9  C   UNL     1      -2.664  -1.058   2.654  1.00  0.00     0.005 A 
ATOM     10  N   UNL     1      -2.538   0.511   1.120  1.00  0.00    -0.350 N 
ATOM     11  C   UNL     1      -2.975   0.268   2.391  1.00  0.00     0.046 A 
ATOM     12  C   UNL     1      -3.138  -1.618   3.863  1.00  0.00     0.031 A 
ATOM     13  H   UNL     1      -2.521   1.403   0.703  1.00  0.00     0.167 HD
ATOM     14  C   UNL     1      -3.629   1.106   3.302  1.00  0.00     0.028 A 
ATOM     15  C   UNL     1      -3.879  -0.823   4.744  1.00  0.00     0.041 A 
ATOM     16  C   UNL     1      -4.091   0.528   4.488  1.00  0.00     0.022 A 
ATOM     17  Cl  UNL     1      -4.563  -1.534   6.157  1.00  0.00    -0.084 Cl
BRANCH   8  18
ATOM     18  C   UNL     1      -1.161  -2.887   1.619  1.00  0.00     0.139 C 
BRANCH  18  19
ATOM     19  C   UNL     1       0.343  -2.976   1.923  1.00  0.00     0.231 C 
ATOM     20  O   UNL     1       0.664  -3.818   2.779  1.00  0.00    -0.274 OA
BRANCH  19  21
ATOM     21  N   UNL     1       1.316  -2.258   1.227  1.00  0.00    -0.312 N 
BRANCH  21  22
ATOM     22  C   UNL     1       1.082  -1.291   0.149  1.00  0.00     0.122 C 
ATOM     23  C   UNL     1       1.146   0.177   0.547  1.00  0.00     0.028 C 
ENDBRANCH  21  22
BRANCH  21  24
ATOM     24  C   UNL     1       2.700  -2.600   1.383  1.00  0.00     0.044 A 
ATOM     25  C   UNL     1       3.145  -3.910   1.208  1.00  0.00     0.026 A 
ATOM     26  C   UNL     1       3.648  -1.587   1.556  1.00  0.00     0.030 A 
ATOM     27  C   UNL     1       4.516  -4.182   1.176  1.00  0.00     0.006 A 
ATOM     28  C   UNL     1       5.026  -1.834   1.488  1.00  0.00    -0.046 A 
ATOM     29  C   UNL     1       5.469  -3.154   1.307  1.00  0.00    -0.048 A 
ATOM     30  C   UNL     1       5.958  -0.663   1.618  1.00  0.00     0.044 C 
ATOM     31  C   UNL     1       6.924  -3.530   1.277  1.00  0.00     0.044 C 
ENDBRANCH  21  24
ENDBRANCH  19  21
ENDBRANCH  18  19
ENDBRANCH   8  18
ENDBRANCH   4   7
ENDBRANCH   2   3
ENDBRANCH   1   2
BRANCH   1  32
ATOM     32  C   UNL     1      -1.059  -4.318  -3.546  1.00  0.00     0.023 C 
BRANCH  32  33
ATOM     33  C   UNL     1       0.215  -4.894  -2.921  1.00  0.00     0.116 C 
BRANCH  33  34
ATOM     34  N   UNL     1       0.015  -6.168  -2.244  1.00  0.00    -0.352 N 
ATOM     35  C   UNL     1       0.459  -7.434  -2.575  1.00  0.00     0.251 C 
ATOM     36  H   UNL     1      -0.522  -6.119  -1.419  1.00  0.00     0.163 HD
ATOM     37  O   UNL     1       0.068  -8.399  -1.942  1.00  0.00    -0.269 OA
BRANCH  35  38
ATOM     38  C   UNL     1       1.374  -7.613  -3.727  1.00  0.00     0.039 A 
ATOM     39  C   UNL     1       1.070  -8.580  -4.689  1.00  0.00     0.014 A 
ATOM     40  C   UNL     1       2.509  -6.814  -3.871  1.00  0.00     0.014 A 
ATOM     41  C   UNL     1       1.846  -8.668  -5.849  1.00  0.00     0.010 A 
ATOM     42  C   UNL     1       3.227  -6.845  -5.064  1.00  0.00     0.010 A 
ATOM     43  C   UNL     1       2.897  -7.764  -6.073  1.00  0.00    -0.014 A 
BRANCH  43  44
ATOM     44  C   UNL     1       3.650  -7.752  -7.358  1.00  0.00     0.031 A 
ATOM     45  C   UNL     1       5.130  -8.023  -7.371  1.00  0.00     0.074 A 
ATOM     46  C   UNL     1       3.015  -7.429  -8.504  1.00  0.00     0.049 A 
ATOM     47  N   UNL     1       5.973  -7.979  -8.371  1.00  0.00    -0.248 NA
ATOM     48  C   UNL     1       5.749  -8.355  -6.079  1.00  0.00     0.031 C 
ATOM     49  C   UNL     1       1.591  -7.102  -8.618  1.00  0.00     0.029 A 
ATOM     50  N   UNL     1       3.482  -7.314  -9.791  1.00  0.00    -0.354 N 
ATOM     51  C   UNL     1       7.221  -8.265  -7.829  1.00  0.00     0.074 A 
ATOM     52  C   UNL     1       7.032  -8.410  -6.401  1.00  0.00     0.031 C 
ATOM     53  C   UNL     1       1.297  -6.855  -9.905  1.00  0.00     0.029 A 
ATOM     54  C   UNL     1       2.515  -6.955 -10.703  1.00  0.00     0.049 A 
ATOM     55  H   UNL     1       4.421  -7.474 -10.038  1.00  0.00     0.167 HD
ATOM     56  C   UNL     1       8.410  -8.421  -8.464  1.00  0.00     0.034 A 
ATOM     57  C   UNL     1       2.600  -6.720 -12.028  1.00  0.00     0.034 A 
ATOM     58  C   UNL     1       8.580  -8.283  -9.891  1.00  0.00     0.049 A 
ATOM     59  C   UNL     1       3.938  -6.866 -12.709  1.00  0.00     0.074 A 
ATOM     60  C   UNL     1       9.726  -8.470 -10.644  1.00  0.00     0.029 A 
ATOM     61  N   UNL     1       7.579  -7.913 -10.781  1.00  0.00    -0.354 N 
ATOM     62  N   UNL     1       5.099  -7.189 -12.188  1.00  0.00    -0.248 NA
ATOM     63  C   UNL     1       3.974  -6.626 -14.157  1.00  0.00     0.031 C 
ATOM     64  C   UNL     1       9.437  -8.142 -11.973  1.00  0.00     0.029 A 
ATOM     65  C   UNL     1       8.090  -7.834 -12.068  1.00  0.00     0.049 A 
ATOM     66  H   UNL     1       6.643  -7.734 -10.534  1.00  0.00     0.167 HD
ATOM     67  C   UNL     1       5.996  -7.224 -13.254  1.00  0.00     0.074 A 
ATOM     68  C   UNL     1       5.237  -6.904 -14.445  1.00  0.00     0.031 C 
ATOM     69  C   UNL     1       7.325  -7.502 -13.248  1.00  0.00     0.034 A 
BRANCH  56  70
ATOM     70  C   UNL     1       9.617  -8.734  -7.611  1.00  0.00     0.023 A 
ATOM     71  C   UNL     1       9.689  -9.905  -6.834  1.00  0.00     0.031 A 
ATOM     72  C   UNL     1      10.698  -7.837  -7.545  1.00  0.00     0.131 A 
ATOM     73  C   UNL     1      10.770 -10.104  -5.963  1.00  0.00     0.055 A 
ATOM     74  C   UNL     1      11.815  -8.086  -6.743  1.00  0.00     0.041 A 
ATOM     75  F   UNL     1      10.681  -6.692  -8.245  1.00  0.00    -0.206 F 
ATOM     76  C   UNL     1      11.847  -9.217  -5.932  1.00  0.00     0.022 A 
BRANCH  73  77
ATOM     77  S   UNL     1      10.668 -11.454  -4.756  1.00  0.00     0.124 S 
ATOM     78  O   UNL     1       9.447 -11.108  -4.031  1.00  0.00    -0.237 OA
ATOM     79  O   UNL     1      10.594 -12.634  -5.608  1.00  0.00    -0.237 OA
ATOM     80  O   UNL     1      11.901 -11.316  -3.984  1.00  0.00    -0.744 OA
ENDBRANCH  73  77
ENDBRANCH  56  70
BRANCH  57  81
ATOM     81  C   UNL     1       1.392  -6.315 -12.806  1.00  0.00     0.023 A 
ATOM     82  C   UNL     1       0.881  -7.132 -13.827  1.00  0.00     0.031 A 
ATOM     83  C   UNL     1       0.756  -5.082 -12.570  1.00  0.00     0.131 A 
ATOM     84  C   UNL     1      -0.199  -6.687 -14.607  1.00  0.00     0.055 A 
ATOM     85  C   UNL     1      -0.353  -4.670 -13.310  1.00  0.00     0.041 A 
ATOM     86  F   UNL     1       1.200  -4.263 -11.604  1.00  0.00    -0.206 F 
ATOM     87  C   UNL     1      -0.828  -5.468 -14.346  1.00  0.00     0.022 A 
BRANCH  84  88
ATOM     88  S   UNL     1      -0.714  -7.687 -16.030  1.00  0.00     0.124 S 
ATOM     89  O   UNL     1       0.515  -7.742 -16.814  1.00  0.00    -0.237 OA
ATOM     90  O   UNL     1      -1.125  -8.933 -15.391  1.00  0.00    -0.237 OA
ATOM     91  O   UNL     1      -1.798  -6.905 -16.620  1.00  0.00    -0.744 OA
ENDBRANCH  84  88
ENDBRANCH  57  81
BRANCH  69  92
ATOM     92  C   UNL     1       8.030  -7.518 -14.584  1.00  0.00     0.023 A 
ATOM     93  C   UNL     1       8.187  -6.353 -15.355  1.00  0.00     0.031 A 
ATOM     94  C   UNL     1       8.546  -8.723 -15.094  1.00  0.00     0.131 A 
ATOM     95  C   UNL     1       8.792  -6.428 -16.620  1.00  0.00     0.055 A 
ATOM     96  C   UNL     1       9.205  -8.779 -16.323  1.00  0.00     0.041 A 
ATOM     97  F   UNL     1       8.422  -9.867 -14.403  1.00  0.00    -0.206 F 
ATOM     98  C   UNL     1       9.319  -7.630 -17.100  1.00  0.00     0.022 A 
BRANCH  95  99
ATOM     99  S   UNL     1       8.795  -4.952 -17.673  1.00  0.00     0.124 S 
ATOM    100  O   UNL     1       7.370  -4.660 -17.790  1.00  0.00    -0.237 OA
ATOM    101  O   UNL     1       9.577  -4.006 -16.883  1.00  0.00    -0.237 OA
ATOM    102  O   UNL     1       9.437  -5.410 -18.904  1.00  0.00    -0.744 OA
ENDBRANCH  95  99
ENDBRANCH  69  92
ENDBRANCH  43  44
ENDBRANCH  35  38
ENDBRANCH  33  34
ENDBRANCH  32  33
ENDBRANCH   1  32
TORSDOF 19
