REMARK SMILES O=C(NCCCCNC(=O)[C@H]1CCc2[nH]nc(C(F)(F)F)c2C1)c1ccc(-c2c3nc(c(-c4cc(S(=O)(=O)[O-])ccc4F)c4ccc([nH]4)c(-c4cc(S(=O)(=O)[O-])ccc4F)c4nc(c(-c5cc(S(=O)(=O)[O-])ccc5F)c5ccc2[nH]5)C=C4)C=C3)cc1
REMARK SMILES IDX 4 1 3 2 1 3 2 4 24 6 25 7 86 8 26 9 85 10 27 11 28 12 29 13
REMARK SMILES IDX 79 14 30 15 84 16 78 17 80 18 31 19 83 20 77 21 76 22 32 24
REMARK SMILES IDX 64 25 44 26 63 27 45 28 48 29 62 30 81 31 46 32 47 33 61 35
REMARK SMILES IDX 82 36 49 37 33 38 34 39 42 40 35 41 41 42 43 43 40 44 36 45
REMARK SMILES IDX 37 46 38 47 39 48 65 49 66 50 74 51 67 52 73 53 75 54 72 55
REMARK SMILES IDX 68 56 69 57 70 58 71 59 50 60 51 61 59 62 52 63 58 64 60 65
REMARK SMILES IDX 57 66 53 67 54 68 55 69 56 70 5 71 6 72 7 73 8 74 9 75 10 77
REMARK SMILES IDX 11 78 12 79 23 80 13 81 22 82 14 83 17 84 15 85 16 86 18 88
REMARK SMILES IDX 19 89 20 90 21 91
REMARK H PARENT 3 5 80 23 48 34 8 76 15 87
REMARK Flexibility Score: inf
ROOT
ATOM      1  C   UNL     1      10.118  -1.437   7.780  1.00  0.00     0.116 C 
ENDROOT
BRANCH   1   2
ATOM      2  N   UNL     1      10.368  -0.146   7.161  1.00  0.00    -0.352 N 
ATOM      3  O   UNL     1      11.167   1.951   6.991  1.00  0.00    -0.269 OA
ATOM      4  C   UNL     1      11.201   0.866   7.568  1.00  0.00     0.251 C 
ATOM      5  H   UNL     1       9.867   0.028   6.331  1.00  0.00     0.163 HD
BRANCH   4   6
ATOM      6  C   UNL     1      12.119   0.658   8.708  1.00  0.00     0.039 A 
ATOM      7  C   UNL     1      12.908  -0.493   8.797  1.00  0.00     0.014 A 
ATOM      8  C   UNL     1      12.199   1.643   9.695  1.00  0.00     0.014 A 
ATOM      9  C   UNL     1      13.689  -0.713   9.929  1.00  0.00     0.010 A 
ATOM     10  C   UNL     1      13.037   1.452  10.796  1.00  0.00     0.010 A 
ATOM     11  C   UNL     1      13.771   0.262  10.934  1.00  0.00    -0.014 A 
BRANCH  11  12
ATOM     12  C   UNL     1      14.653   0.061  12.112  1.00  0.00     0.031 A 
ATOM     13  C   UNL     1      14.071  -0.039  13.493  1.00  0.00     0.074 A 
ATOM     14  C   UNL     1      15.987   0.012  11.934  1.00  0.00     0.049 A 
ATOM     15  N   UNL     1      14.683  -0.088  14.648  1.00  0.00    -0.248 NA
ATOM     16  C   UNL     1      12.606  -0.071  13.583  1.00  0.00     0.031 C 
ATOM     17  C   UNL     1      16.665   0.089  10.639  1.00  0.00     0.029 A 
ATOM     18  N   UNL     1      17.011  -0.093  12.841  1.00  0.00    -0.354 N 
ATOM     19  C   UNL     1      13.679  -0.134  15.609  1.00  0.00     0.074 A 
ATOM     20  C   UNL     1      12.419  -0.069  14.895  1.00  0.00     0.031 C 
ATOM     21  C   UNL     1      17.990   0.031  10.834  1.00  0.00     0.029 A 
ATOM     22  C   UNL     1      18.258  -0.014  12.268  1.00  0.00     0.049 A 
ATOM     23  H   UNL     1      16.866  -0.212  13.808  1.00  0.00     0.167 HD
ATOM     24  C   UNL     1      13.801  -0.227  16.958  1.00  0.00     0.034 A 
ATOM     25  C   UNL     1      19.480   0.067  12.829  1.00  0.00     0.034 A 
ATOM     26  C   UNL     1      15.072  -0.277  17.645  1.00  0.00     0.049 A 
ATOM     27  C   UNL     1      19.598   0.038  14.328  1.00  0.00     0.074 A 
ATOM     28  C   UNL     1      15.316  -0.406  19.001  1.00  0.00     0.029 A 
ATOM     29  N   UNL     1      16.315  -0.177  17.029  1.00  0.00    -0.354 N 
ATOM     30  N   UNL     1      18.643  -0.022  15.228  1.00  0.00    -0.248 NA
ATOM     31  C   UNL     1      20.953   0.081  14.890  1.00  0.00     0.031 C 
ATOM     32  C   UNL     1      16.695  -0.299  19.213  1.00  0.00     0.029 A 
ATOM     33  C   UNL     1      17.324  -0.200  17.982  1.00  0.00     0.049 A 
ATOM     34  H   UNL     1      16.459  -0.100  16.058  1.00  0.00     0.167 HD
ATOM     35  C   UNL     1      19.284  -0.057  16.462  1.00  0.00     0.074 A 
ATOM     36  C   UNL     1      20.707  -0.006  16.191  1.00  0.00     0.031 C 
ATOM     37  C   UNL     1      18.742  -0.141  17.703  1.00  0.00     0.034 A 
BRANCH  24  38
ATOM     38  C   UNL     1      12.526  -0.214  17.773  1.00  0.00     0.023 A 
ATOM     39  C   UNL     1      11.536  -1.200  17.617  1.00  0.00     0.031 A 
ATOM     40  C   UNL     1      12.270   0.831  18.679  1.00  0.00     0.131 A 
ATOM     41  C   UNL     1      10.301  -1.064  18.270  1.00  0.00     0.055 A 
ATOM     42  C   UNL     1      11.078   0.907  19.402  1.00  0.00     0.041 A 
ATOM     43  F   UNL     1      13.166   1.814  18.861  1.00  0.00    -0.206 F 
ATOM     44  C   UNL     1      10.074  -0.031  19.182  1.00  0.00     0.022 A 
BRANCH  41  45
ATOM     45  S   UNL     1       8.933  -2.141  17.760  1.00  0.00     0.124 S 
ATOM     46  O   UNL     1       8.892  -1.904  16.318  1.00  0.00    -0.237 OA
ATOM     47  O   UNL     1       9.398  -3.458  18.177  1.00  0.00    -0.237 OA
ATOM     48  O   UNL     1       7.789  -1.616  18.502  1.00  0.00    -0.744 OA
ENDBRANCH  41  45
ENDBRANCH  24  38
BRANCH  25  49
ATOM     49  C   UNL     1      20.675   0.235  11.956  1.00  0.00     0.023 A 
ATOM     50  C   UNL     1      21.638  -0.777  11.834  1.00  0.00     0.031 A 
ATOM     51  C   UNL     1      20.851   1.412  11.205  1.00  0.00     0.131 A 
ATOM     52  C   UNL     1      22.745  -0.585  10.993  1.00  0.00     0.055 A 
ATOM     53  C   UNL     1      21.927   1.578  10.334  1.00  0.00     0.041 A 
ATOM     54  F   UNL     1      19.951   2.406  11.281  1.00  0.00    -0.206 F 
ATOM     55  C   UNL     1      22.887   0.577  10.230  1.00  0.00     0.022 A 
BRANCH  52  56
ATOM     56  S   UNL     1      24.029  -1.865  10.941  1.00  0.00     0.124 S 
ATOM     57  O   UNL     1      24.482  -1.887  12.327  1.00  0.00    -0.237 OA
ATOM     58  O   UNL     1      23.277  -3.032  10.492  1.00  0.00    -0.237 OA
ATOM     59  O   UNL     1      24.994  -1.340   9.977  1.00  0.00    -0.744 OA
ENDBRANCH  52  56
ENDBRANCH  25  49
BRANCH  37  60
ATOM     60  C   UNL     1      19.692  -0.254  18.871  1.00  0.00     0.023 A 
ATOM     61  C   UNL     1      20.505   0.815  19.284  1.00  0.00     0.031 A 
ATOM     62  C   UNL     1      19.752  -1.454  19.603  1.00  0.00     0.131 A 
ATOM     63  C   UNL     1      21.364   0.653  20.383  1.00  0.00     0.055 A 
ATOM     64  C   UNL     1      20.568  -1.592  20.726  1.00  0.00     0.041 A 
ATOM     65  F   UNL     1      19.002  -2.509  19.247  1.00  0.00    -0.206 F 
ATOM     66  C   UNL     1      21.385  -0.536  21.118  1.00  0.00     0.022 A 
BRANCH  63  67
ATOM     67  S   UNL     1      22.502   1.998  20.814  1.00  0.00     0.124 S 
ATOM     68  O   UNL     1      23.311   2.110  19.605  1.00  0.00    -0.237 OA
ATOM     69  O   UNL     1      21.592   3.108  21.078  1.00  0.00    -0.237 OA
ATOM     70  O   UNL     1      23.210   1.487  21.987  1.00  0.00    -0.744 OA
ENDBRANCH  63  67
ENDBRANCH  37  60
ENDBRANCH  11  12
ENDBRANCH   4   6
ENDBRANCH   1   2
BRANCH   1  71
ATOM     71  C   UNL     1       8.643  -1.666   8.088  1.00  0.00     0.023 C 
BRANCH  71  72
ATOM     72  C   UNL     1       7.699  -1.607   6.886  1.00  0.00     0.023 C 
BRANCH  72  73
ATOM     73  C   UNL     1       8.109  -2.454   5.683  1.00  0.00     0.116 C 
BRANCH  73  74
ATOM     74  N   UNL     1       8.322  -3.849   6.019  1.00  0.00    -0.356 N 
ATOM     75  C   UNL     1       7.741  -4.972   5.516  1.00  0.00     0.223 C 
ATOM     76  H   UNL     1       8.993  -4.008   6.722  1.00  0.00     0.163 HD
ATOM     77  O   UNL     1       8.262  -6.053   5.793  1.00  0.00    -0.275 OA
BRANCH  75  78
ATOM     78  C   UNL     1       6.504  -4.858   4.625  1.00  0.00     0.083 C 
ATOM     79  C   UNL     1       6.165  -6.221   3.956  1.00  0.00     0.020 C 
ATOM     80  C   UNL     1       5.288  -4.322   5.418  1.00  0.00     0.053 C 
ATOM     81  C   UNL     1       5.695  -7.321   4.937  1.00  0.00     0.057 C 
ATOM     82  C   UNL     1       4.732  -5.381   6.301  1.00  0.00     0.006 A 
ATOM     83  C   UNL     1       4.926  -6.718   6.053  1.00  0.00     0.039 A 
ATOM     84  C   UNL     1       3.989  -5.326   7.514  1.00  0.00     0.169 A 
ATOM     85  N   UNL     1       4.381  -7.387   7.102  1.00  0.00    -0.282 N 
ATOM     86  N   UNL     1       3.752  -6.577   7.971  1.00  0.00    -0.171 NA
ATOM     87  H   UNL     1       4.440  -8.364   7.214  1.00  0.00     0.190 HD
BRANCH  84  88
ATOM     88  C   UNL     1       3.512  -4.096   8.245  1.00  0.00     0.435 C 
ATOM     89  F   UNL     1       2.183  -4.143   8.538  1.00  0.00    -0.164 F 
ATOM     90  F   UNL     1       4.173  -3.892   9.414  1.00  0.00    -0.164 F 
ATOM     91  F   UNL     1       3.690  -2.962   7.505  1.00  0.00    -0.164 F 
ENDBRANCH  84  88
ENDBRANCH  75  78
ENDBRANCH  73  74
ENDBRANCH  72  73
ENDBRANCH  71  72
ENDBRANCH   1  71
TORSDOF 15
