REMARK SMILES CC(C)(C)OC(=O)Nc1ccc(-c2cccc(Cl)c2C(=O)NCCCCNC(=O)c2ccc(-c3c4nc(c(-c5cc(S(=O)(=O)[O-])ccc5F)c5ccc([nH]5)c(-c5cc(S(=O)(=O)[O-])ccc5F)c5nc(c(-c6cc(S(=O)(=O)[O-])ccc6F)c6ccc3[nH]6)C=C5)C=C4)cc2)cc1
REMARK SMILES IDX 24 1 23 2 22 3 20 4 21 5 19 7 13 8 14 9 15 10 17 11 16 12
REMARK SMILES IDX 18 13 12 14 9 15 10 16 94 17 11 18 93 19 8 20 6 21 7 22 5 24
REMARK SMILES IDX 2 25 1 26 3 27 4 28 25 29 26 30 27 31 28 32 29 34 30 35
REMARK SMILES IDX 31 36 92 37 32 38 91 39 33 40 34 41 35 42 85 43 36 44 90 45
REMARK SMILES IDX 84 46 86 47 37 48 89 49 83 50 82 51 38 53 70 54 50 55 69 56
REMARK SMILES IDX 51 57 54 58 68 59 87 60 52 61 53 62 67 64 88 65 55 66 39 67
REMARK SMILES IDX 40 68 48 69 41 70 47 71 49 72 46 73 42 74 43 75 44 76 45 77
REMARK SMILES IDX 71 78 72 79 80 80 73 81 79 82 81 83 78 84 74 85 75 86 76 87
REMARK SMILES IDX 77 88 56 89 57 90 65 91 58 92 64 93 66 94 63 95 59 96 60 97
REMARK SMILES IDX 61 98 62 99
REMARK H PARENT 22 6 8 23 27 33 86 52 54 63
REMARK Flexibility Score: inf
ROOT
ATOM      1  C   UNL     1       4.325   6.923  -0.009  1.00  0.00     0.023 C 
ENDROOT
BRANCH   1   2
ATOM      2  C   UNL     1       4.556   5.957   1.139  1.00  0.00     0.116 C 
BRANCH   2   3
ATOM      3  N   UNL     1       5.894   5.576   1.488  1.00  0.00    -0.352 N 
ATOM      4  C   UNL     1       6.311   4.987   2.668  1.00  0.00     0.253 C 
ATOM      5  O   UNL     1       7.328   4.290   2.602  1.00  0.00    -0.269 OA
ATOM      6  H   UNL     1       6.590   5.754   0.815  1.00  0.00     0.163 HD
BRANCH   4   7
ATOM      7  C   UNL     1       5.675   5.177   4.025  1.00  0.00     0.066 A 
ATOM      8  C   UNL     1       4.319   4.915   4.380  1.00  0.00    -0.004 A 
ATOM      9  C   UNL     1       3.942   4.970   5.748  1.00  0.00     0.009 A 
ATOM     10  C   UNL     1       4.846   5.269   6.758  1.00  0.00     0.002 A 
ATOM     11  C   UNL     1       6.568   5.523   5.076  1.00  0.00     0.054 A 
ATOM     12  C   UNL     1       6.156   5.555   6.419  1.00  0.00     0.021 A 
ATOM     13  Cl  UNL     1       8.219   6.010   4.822  1.00  0.00    -0.083 Cl
BRANCH   8  14
ATOM     14  C   UNL     1       3.206   4.623   3.465  1.00  0.00    -0.017 A 
ATOM     15  C   UNL     1       1.127   4.228   1.575  1.00  0.00     0.044 A 
ATOM     16  C   UNL     1       1.191   5.409   2.317  1.00  0.00     0.027 A 
ATOM     17  C   UNL     1       2.072   3.228   1.835  1.00  0.00     0.027 A 
ATOM     18  C   UNL     1       2.195   5.590   3.271  1.00  0.00     0.011 A 
ATOM     19  C   UNL     1       3.103   3.420   2.769  1.00  0.00     0.011 A 
BRANCH  15  20
ATOM     20  N   UNL     1       0.129   4.165   0.586  1.00  0.00    -0.291 N 
ATOM     21  C   UNL     1      -0.278   3.146  -0.238  1.00  0.00     0.412 C 
ATOM     22  O   UNL     1      -1.210   3.301  -1.011  1.00  0.00    -0.224 OA
ATOM     23  H   UNL     1      -0.369   5.005   0.463  1.00  0.00     0.173 HD
BRANCH  21  24
ATOM     24  O   UNL     1       0.400   1.995  -0.061  1.00  0.00    -0.444 OA
BRANCH  24  25
ATOM     25  C   UNL     1       0.095   0.795  -0.809  1.00  0.00     0.106 C 
ATOM     26  C   UNL     1       0.811  -0.306  -0.016  1.00  0.00     0.056 C 
ATOM     27  C   UNL     1       0.696   0.889  -2.212  1.00  0.00     0.056 C 
ATOM     28  C   UNL     1      -1.404   0.484  -0.847  1.00  0.00     0.056 C 
ENDBRANCH  24  25
ENDBRANCH  21  24
ENDBRANCH  15  20
ENDBRANCH   8  14
ENDBRANCH   4   7
ENDBRANCH   2   3
ENDBRANCH   1   2
BRANCH   1  29
ATOM     29  C   UNL     1       4.591   6.420  -1.424  1.00  0.00     0.023 C 
BRANCH  29  30
ATOM     30  C   UNL     1       3.974   5.076  -1.808  1.00  0.00     0.116 C 
BRANCH  30  31
ATOM     31  N   UNL     1       2.531   5.043  -1.607  1.00  0.00    -0.352 N 
ATOM     32  C   UNL     1       1.508   4.967  -2.524  1.00  0.00     0.251 C 
ATOM     33  H   UNL     1       2.243   5.081  -0.666  1.00  0.00     0.163 HD
ATOM     34  O   UNL     1       0.405   5.406  -2.208  1.00  0.00    -0.269 OA
BRANCH  32  35
ATOM     35  C   UNL     1       1.748   4.418  -3.880  1.00  0.00     0.039 A 
ATOM     36  C   UNL     1       0.990   4.903  -4.949  1.00  0.00     0.014 A 
ATOM     37  C   UNL     1       2.757   3.483  -4.115  1.00  0.00     0.014 A 
ATOM     38  C   UNL     1       1.375   4.603  -6.256  1.00  0.00     0.010 A 
ATOM     39  C   UNL     1       3.215   3.282  -5.410  1.00  0.00     0.010 A 
ATOM     40  C   UNL     1       2.560   3.888  -6.488  1.00  0.00    -0.014 A 
BRANCH  40  41
ATOM     41  C   UNL     1       3.197   3.879  -7.829  1.00  0.00     0.031 A 
ATOM     42  C   UNL     1       3.465   2.587  -8.542  1.00  0.00     0.074 A 
ATOM     43  C   UNL     1       3.622   5.053  -8.343  1.00  0.00     0.049 A 
ATOM     44  N   UNL     1       4.071   2.387  -9.682  1.00  0.00    -0.248 NA
ATOM     45  C   UNL     1       3.030   1.356  -7.866  1.00  0.00     0.031 C 
ATOM     46  C   UNL     1       3.484   6.359  -7.688  1.00  0.00     0.029 A 
ATOM     47  N   UNL     1       4.253   5.349  -9.524  1.00  0.00    -0.354 N 
ATOM     48  C   UNL     1       4.086   1.010  -9.864  1.00  0.00     0.074 A 
ATOM     49  C   UNL     1       3.507   0.423  -8.675  1.00  0.00     0.031 C 
ATOM     50  C   UNL     1       3.960   7.316  -8.498  1.00  0.00     0.029 A 
ATOM     51  C   UNL     1       4.495   6.693  -9.701  1.00  0.00     0.049 A 
ATOM     52  H   UNL     1       4.510   4.664 -10.183  1.00  0.00     0.167 HD
ATOM     53  C   UNL     1       4.513   0.306 -10.942  1.00  0.00     0.034 A 
ATOM     54  C   UNL     1       5.087   7.350 -10.718  1.00  0.00     0.034 A 
ATOM     55  C   UNL     1       5.099   0.921 -12.108  1.00  0.00     0.049 A 
ATOM     56  C   UNL     1       5.580   6.544 -11.890  1.00  0.00     0.074 A 
ATOM     57  C   UNL     1       5.545   0.318 -13.270  1.00  0.00     0.029 A 
ATOM     58  N   UNL     1       5.330   2.285 -12.255  1.00  0.00    -0.354 N 
ATOM     59  N   UNL     1       5.539   5.243 -12.071  1.00  0.00    -0.248 NA
ATOM     60  C   UNL     1       6.188   7.290 -12.996  1.00  0.00     0.031 C 
ATOM     61  C   UNL     1       6.109   1.305 -14.086  1.00  0.00     0.029 A 
ATOM     62  C   UNL     1       5.936   2.538 -13.476  1.00  0.00     0.049 A 
ATOM     63  H   UNL     1       5.096   2.971 -11.588  1.00  0.00     0.167 HD
ATOM     64  C   UNL     1       6.089   5.018 -13.329  1.00  0.00     0.074 A 
ATOM     65  C   UNL     1       6.436   6.320 -13.864  1.00  0.00     0.031 C 
ATOM     66  C   UNL     1       6.286   3.845 -13.984  1.00  0.00     0.034 A 
BRANCH  53  67
ATOM     67  C   UNL     1       4.370  -1.197 -10.887  1.00  0.00     0.023 A 
ATOM     68  C   UNL     1       3.110  -1.808 -10.753  1.00  0.00     0.031 A 
ATOM     69  C   UNL     1       5.500  -2.031 -10.928  1.00  0.00     0.131 A 
ATOM     70  C   UNL     1       3.016  -3.196 -10.578  1.00  0.00     0.055 A 
ATOM     71  C   UNL     1       5.393  -3.422 -10.845  1.00  0.00     0.041 A 
ATOM     72  F   UNL     1       6.733  -1.509 -11.030  1.00  0.00    -0.206 F 
ATOM     73  C   UNL     1       4.147  -4.011 -10.652  1.00  0.00     0.022 A 
BRANCH  70  74
ATOM     74  S   UNL     1       1.416  -3.900 -10.093  1.00  0.00     0.124 S 
ATOM     75  O   UNL     1       1.158  -3.203  -8.835  1.00  0.00    -0.237 OA
ATOM     76  O   UNL     1       0.557  -3.536 -11.213  1.00  0.00    -0.237 OA
ATOM     77  O   UNL     1       1.697  -5.328  -9.958  1.00  0.00    -0.744 OA
ENDBRANCH  70  74
ENDBRANCH  53  67
BRANCH  54  78
ATOM     78  C   UNL     1       5.238   8.834 -10.677  1.00  0.00     0.023 A 
ATOM     79  C   UNL     1       4.592   9.654 -11.616  1.00  0.00     0.031 A 
ATOM     80  C   UNL     1       6.048   9.457  -9.709  1.00  0.00     0.131 A 
ATOM     81  C   UNL     1       4.799  11.043 -11.595  1.00  0.00     0.055 A 
ATOM     82  C   UNL     1       6.205  10.843  -9.657  1.00  0.00     0.041 A 
ATOM     83  F   UNL     1       6.685   8.723  -8.783  1.00  0.00    -0.206 F 
ATOM     84  C   UNL     1       5.588  11.644 -10.612  1.00  0.00     0.022 A 
BRANCH  81  85
ATOM     85  S   UNL     1       4.088  12.049 -12.927  1.00  0.00     0.124 S 
ATOM     86  O   UNL     1       4.685  11.439 -14.110  1.00  0.00    -0.237 OA
ATOM     87  O   UNL     1       2.657  11.828 -12.744  1.00  0.00    -0.237 OA
ATOM     88  O   UNL     1       4.553  13.399 -12.618  1.00  0.00    -0.744 OA
ENDBRANCH  81  85
ENDBRANCH  54  78
BRANCH  66  89
ATOM     89  C   UNL     1       6.866   3.930 -15.374  1.00  0.00     0.023 A 
ATOM     90  C   UNL     1       8.172   4.395 -15.604  1.00  0.00     0.031 A 
ATOM     91  C   UNL     1       6.095   3.543 -16.484  1.00  0.00     0.131 A 
ATOM     92  C   UNL     1       8.647   4.519 -16.917  1.00  0.00     0.055 A 
ATOM     93  C   UNL     1       6.599   3.600 -17.784  1.00  0.00     0.041 A 
ATOM     94  F   UNL     1       4.839   3.097 -16.323  1.00  0.00    -0.206 F 
ATOM     95  C   UNL     1       7.877   4.103 -18.007  1.00  0.00     0.022 A 
BRANCH  92  96
ATOM     96  S   UNL     1      10.244   5.332 -17.190  1.00  0.00     0.124 S 
ATOM     97  O   UNL     1      10.026   6.639 -16.580  1.00  0.00    -0.237 OA
ATOM     98  O   UNL     1      11.169   4.447 -16.488  1.00  0.00    -0.237 OA
ATOM     99  O   UNL     1      10.380   5.341 -18.645  1.00  0.00    -0.744 OA
ENDBRANCH  92  96
ENDBRANCH  66  89
ENDBRANCH  40  41
ENDBRANCH  32  35
ENDBRANCH  30  31
ENDBRANCH  29  30
ENDBRANCH   1  29
TORSDOF 18
