REMARK SMILES O=C(NCCCCNC(=O)[C@H]1CCC(=O)N1Cc1ccco1)c1ccc(-c2c3nc(c(-c4cc(S(=O)(=O)[O-])ccc4F)c4ccc([nH]4)c(-c4cc(S(=O)(=O)[O-])ccc4F)c4nc(c(-c5cc(S(=O)(=O)[O-])ccc5F)c5ccc2[nH]5)C=C4)C=C3)cc1
REMARK SMILES IDX 5 1 4 2 3 3 1 4 2 5 23 7 24 8 85 9 25 10 84 11 26 12 27 13
REMARK SMILES IDX 28 14 78 15 29 16 83 17 77 18 79 19 30 20 82 21 76 22 75 23
REMARK SMILES IDX 31 25 63 26 43 27 62 28 44 29 47 30 61 31 80 32 45 33 46 34
REMARK SMILES IDX 60 36 81 37 48 38 32 39 33 40 41 41 34 42 40 43 42 44 39 45
REMARK SMILES IDX 35 46 36 47 37 48 38 49 64 50 65 51 73 52 66 53 72 54 74 55
REMARK SMILES IDX 71 56 67 57 68 58 69 59 70 60 49 61 50 62 58 63 51 64 57 65
REMARK SMILES IDX 59 66 56 67 52 68 53 69 54 70 55 71 6 72 7 73 8 74 9 75
REMARK SMILES IDX 10 77 11 78 12 79 16 80 13 81 14 82 15 83 17 84 18 85 19 86
REMARK SMILES IDX 22 87 20 88 21 89
REMARK H PARENT 3 6 79 24 47 35 8 76
REMARK Flexibility Score: inf
ROOT
ATOM      1  C   UNL     1       3.440   9.445   5.656  1.00  0.00     0.023 C 
ENDROOT
BRANCH   1   2
ATOM      2  C   UNL     1       4.497  10.123   6.514  1.00  0.00     0.116 C 
BRANCH   2   3
ATOM      3  N   UNL     1       4.772  11.496   6.104  1.00  0.00    -0.352 N 
ATOM      4  O   UNL     1       4.815  13.749   6.367  1.00  0.00    -0.269 OA
ATOM      5  C   UNL     1       4.707  12.637   6.870  1.00  0.00     0.251 C 
ATOM      6  H   UNL     1       5.037  11.621   5.164  1.00  0.00     0.163 HD
BRANCH   5   7
ATOM      7  C   UNL     1       4.482  12.479   8.319  1.00  0.00     0.039 A 
ATOM      8  C   UNL     1       5.270  11.570   9.029  1.00  0.00     0.014 A 
ATOM      9  C   UNL     1       3.430  13.153   8.938  1.00  0.00     0.014 A 
ATOM     10  C   UNL     1       4.900  11.212  10.314  1.00  0.00     0.010 A 
ATOM     11  C   UNL     1       3.134  12.875  10.275  1.00  0.00     0.010 A 
ATOM     12  C   UNL     1       3.852  11.884  10.965  1.00  0.00    -0.014 A 
BRANCH  12  13
ATOM     13  C   UNL     1       3.610  11.600  12.401  1.00  0.00     0.031 A 
ATOM     14  C   UNL     1       2.308  11.025  12.884  1.00  0.00     0.074 A 
ATOM     15  C   UNL     1       4.614  11.852  13.264  1.00  0.00     0.049 A 
ATOM     16  N   UNL     1       1.944  10.739  14.108  1.00  0.00    -0.248 NA
ATOM     17  C   UNL     1       1.280  10.740  11.872  1.00  0.00     0.031 C 
ATOM     18  C   UNL     1       5.920  12.411  12.892  1.00  0.00     0.029 A 
ATOM     19  N   UNL     1       4.715  11.661  14.617  1.00  0.00    -0.354 N 
ATOM     20  C   UNL     1       0.641  10.262  14.021  1.00  0.00     0.074 A 
ATOM     21  C   UNL     1       0.271  10.315  12.622  1.00  0.00     0.031 C 
ATOM     22  C   UNL     1       6.703  12.466  13.976  1.00  0.00     0.029 A 
ATOM     23  C   UNL     1       5.929  12.047  15.136  1.00  0.00     0.049 A 
ATOM     24  H   UNL     1       3.988  11.284  15.164  1.00  0.00     0.167 HD
ATOM     25  C   UNL     1      -0.163   9.825  15.022  1.00  0.00     0.034 A 
ATOM     26  C   UNL     1       6.361  12.102  16.409  1.00  0.00     0.034 A 
ATOM     27  C   UNL     1       0.237   9.779  16.410  1.00  0.00     0.049 A 
ATOM     28  C   UNL     1       5.424  11.660  17.498  1.00  0.00     0.074 A 
ATOM     29  C   UNL     1      -0.484   9.315  17.498  1.00  0.00     0.029 A 
ATOM     30  N   UNL     1       1.456  10.223  16.907  1.00  0.00    -0.354 N 
ATOM     31  N   UNL     1       4.203  11.188  17.393  1.00  0.00    -0.248 NA
ATOM     32  C   UNL     1       5.921  11.756  18.874  1.00  0.00     0.031 C 
ATOM     33  C   UNL     1       0.263   9.553  18.656  1.00  0.00     0.029 A 
ATOM     34  C   UNL     1       1.489  10.083  18.287  1.00  0.00     0.049 A 
ATOM     35  H   UNL     1       2.190  10.585  16.360  1.00  0.00     0.167 HD
ATOM     36  C   UNL     1       3.796  10.909  18.693  1.00  0.00     0.074 A 
ATOM     37  C   UNL     1       4.912  11.237  19.556  1.00  0.00     0.031 C 
ATOM     38  C   UNL     1       2.606  10.429  19.135  1.00  0.00     0.034 A 
BRANCH  25  39
ATOM     39  C   UNL     1      -1.572   9.408  14.674  1.00  0.00     0.023 A 
ATOM     40  C   UNL     1      -1.845   8.279  13.883  1.00  0.00     0.031 A 
ATOM     41  C   UNL     1      -2.666  10.138  15.177  1.00  0.00     0.131 A 
ATOM     42  C   UNL     1      -3.174   7.936  13.586  1.00  0.00     0.055 A 
ATOM     43  C   UNL     1      -3.986   9.753  14.935  1.00  0.00     0.041 A 
ATOM     44  F   UNL     1      -2.467  11.238  15.920  1.00  0.00    -0.206 F 
ATOM     45  C   UNL     1      -4.246   8.650  14.129  1.00  0.00     0.022 A 
BRANCH  42  46
ATOM     46  S   UNL     1      -3.486   6.601  12.399  1.00  0.00     0.124 S 
ATOM     47  O   UNL     1      -2.811   7.103  11.204  1.00  0.00    -0.237 OA
ATOM     48  O   UNL     1      -2.865   5.451  13.046  1.00  0.00    -0.237 OA
ATOM     49  O   UNL     1      -4.944   6.554  12.309  1.00  0.00    -0.744 OA
ENDBRANCH  42  46
ENDBRANCH  25  39
BRANCH  26  50
ATOM     50  C   UNL     1       7.712  12.647  16.725  1.00  0.00     0.023 A 
ATOM     51  C   UNL     1       8.671  11.864  17.384  1.00  0.00     0.031 A 
ATOM     52  C   UNL     1       8.045  13.981  16.422  1.00  0.00     0.131 A 
ATOM     53  C   UNL     1       9.890  12.438  17.775  1.00  0.00     0.055 A 
ATOM     54  C   UNL     1       9.288  14.524  16.747  1.00  0.00     0.041 A 
ATOM     55  F   UNL     1       7.166  14.777  15.792  1.00  0.00    -0.206 F 
ATOM     56  C   UNL     1      10.212  13.756  17.446  1.00  0.00     0.022 A 
BRANCH  53  57
ATOM     57  S   UNL     1      10.995  11.469  18.836  1.00  0.00     0.124 S 
ATOM     58  O   UNL     1      10.112  11.121  19.943  1.00  0.00    -0.237 OA
ATOM     59  O   UNL     1      11.379  10.374  17.952  1.00  0.00    -0.237 OA
ATOM     60  O   UNL     1      12.064  12.412  19.161  1.00  0.00    -0.744 OA
ENDBRANCH  53  57
ENDBRANCH  26  50
BRANCH  38  61
ATOM     61  C   UNL     1       2.482  10.194  20.620  1.00  0.00     0.023 A 
ATOM     62  C   UNL     1       2.520  11.256  21.541  1.00  0.00     0.031 A 
ATOM     63  C   UNL     1       2.357   8.887  21.122  1.00  0.00     0.131 A 
ATOM     64  C   UNL     1       2.503  10.987  22.917  1.00  0.00     0.055 A 
ATOM     65  C   UNL     1       2.269   8.631  22.491  1.00  0.00     0.041 A 
ATOM     66  F   UNL     1       2.321   7.835  20.289  1.00  0.00    -0.206 F 
ATOM     67  C   UNL     1       2.358   9.683  23.398  1.00  0.00     0.022 A 
BRANCH  64  68
ATOM     68  S   UNL     1       2.784  12.356  24.073  1.00  0.00     0.124 S 
ATOM     69  O   UNL     1       4.096  12.840  23.655  1.00  0.00    -0.237 OA
ATOM     70  O   UNL     1       1.659  13.240  23.790  1.00  0.00    -0.237 OA
ATOM     71  O   UNL     1       2.750  11.710  25.384  1.00  0.00    -0.744 OA
ENDBRANCH  64  68
ENDBRANCH  38  61
ENDBRANCH  12  13
ENDBRANCH   5   7
ENDBRANCH   2   3
ENDBRANCH   1   2
BRANCH   1  72
ATOM     72  C   UNL     1       3.791   9.370   4.178  1.00  0.00     0.023 C 
BRANCH  72  73
ATOM     73  C   UNL     1       5.105   8.658   3.898  1.00  0.00     0.116 C 
BRANCH  73  74
ATOM     74  N   UNL     1       4.985   7.221   4.032  1.00  0.00    -0.354 N 
ATOM     75  C   UNL     1       5.576   6.215   3.335  1.00  0.00     0.242 C 
ATOM     76  H   UNL     1       4.374   6.924   4.745  1.00  0.00     0.163 HD
ATOM     77  O   UNL     1       5.291   5.057   3.665  1.00  0.00    -0.273 OA
BRANCH  75  78
ATOM     78  C   UNL     1       6.418   6.445   2.062  1.00  0.00     0.175 C 
ATOM     79  C   UNL     1       5.510   6.472   0.832  1.00  0.00     0.045 C 
ATOM     80  N   UNL     1       7.217   7.649   1.930  1.00  0.00    -0.323 N 
ATOM     81  C   UNL     1       5.427   7.939   0.440  1.00  0.00     0.103 C 
ATOM     82  C   UNL     1       6.732   8.500   0.948  1.00  0.00     0.223 C 
ATOM     83  O   UNL     1       7.229   9.554   0.585  1.00  0.00    -0.275 OA
BRANCH  80  84
ATOM     84  C   UNL     1       8.497   7.853   2.601  1.00  0.00     0.195 C 
BRANCH  84  85
ATOM     85  C   UNL     1       8.463   7.477   4.040  1.00  0.00     0.123 A 
ATOM     86  C   UNL     1       8.471   6.271   4.715  1.00  0.00     0.047 A 
ATOM     87  O   UNL     1       8.427   8.504   4.942  1.00  0.00    -0.467 OA
ATOM     88  C   UNL     1       8.385   6.578   6.095  1.00  0.00     0.042 A 
ATOM     89  C   UNL     1       8.380   7.949   6.181  1.00  0.00     0.195 A 
ENDBRANCH  84  85
ENDBRANCH  80  84
ENDBRANCH  75  78
ENDBRANCH  73  74
ENDBRANCH  72  73
ENDBRANCH   1  72
TORSDOF 16
