REMARK SMILES CC[C@@](O)(C(=O)NCCCCNC(=O)c1ccc(-c2c3nc(c(-c4cc(S(=O)(=O)[O-])ccc4F)c4ccc([nH]4)c(-c4cc(S(=O)(=O)[O-])ccc4F)c4nc(c(-c5cc(S(=O)(=O)[O-])ccc5F)c5ccc2[nH]5)C=C4)C=C3)cc1)[C@@H]1CCOc2ccccc21
REMARK SMILES IDX 10 1 9 2 8 3 7 4 5 5 6 6 3 8 2 9 1 10 4 11 78 13 79 14 87 15
REMARK SMILES IDX 80 16 82 17 86 18 81 19 83 20 85 21 84 22 11 23 12 24 13 25
REMARK SMILES IDX 14 27 15 28 16 29 77 30 17 31 76 32 18 33 19 34 20 35 70 36
REMARK SMILES IDX 21 37 75 38 69 39 71 40 22 41 74 42 68 43 67 44 23 46 55 47
REMARK SMILES IDX 35 48 54 49 36 50 39 51 53 52 72 53 37 54 38 55 52 57 73 58
REMARK SMILES IDX 40 59 24 60 25 61 33 62 26 63 32 64 34 65 31 66 27 67 28 68
REMARK SMILES IDX 29 69 30 70 56 71 57 72 65 73 58 74 64 75 66 76 63 77 59 78
REMARK SMILES IDX 60 79 61 80 62 81 41 82 42 83 50 84 43 85 49 86 51 87 48 88
REMARK SMILES IDX 44 89 45 90 46 91 47 92
REMARK H PARENT 7 7 4 12 12 26 71 45 39 56
REMARK Flexibility Score: inf
ROOT
ATOM      1  C   UNL     1       2.731   4.421   7.204  1.00  0.00     0.023 C 
ENDROOT
BRANCH   1   2
ATOM      2  C   UNL     1       3.684   3.403   6.575  1.00  0.00     0.023 C 
BRANCH   2   3
ATOM      3  C   UNL     1       3.166   1.965   6.600  1.00  0.00     0.116 C 
BRANCH   3   4
ATOM      4  N   UNL     1       2.102   1.797   5.636  1.00  0.00    -0.354 N 
ATOM      5  C   UNL     1       2.104   1.224   4.399  1.00  0.00     0.252 C 
ATOM      6  O   UNL     1       1.034   1.285   3.785  1.00  0.00    -0.272 OA
ATOM      7  H   UNL     1       1.231   2.156   5.920  1.00  0.00     0.163 HD
BRANCH   5   8
ATOM      8  C   UNL     1       3.384   0.534   3.800  1.00  0.00     0.149 C 
BRANCH   8   9
ATOM      9  C   UNL     1       4.547   1.561   3.657  1.00  0.00     0.043 C 
ATOM     10  C   UNL     1       5.836   1.066   3.014  1.00  0.00     0.007 C 
ENDBRANCH   8   9
BRANCH   8  11
ATOM     11  O   UNL     1       3.759  -0.473   4.771  1.00  0.00    -0.379 OA
ATOM     12  H   UNL     1       4.011  -0.042   5.603  1.00  0.00     0.212 HD
ENDBRANCH   8  11
BRANCH   8  13
ATOM     13  C   UNL     1       2.984  -0.217   2.467  1.00  0.00     0.068 C 
ATOM     14  C   UNL     1       3.751  -1.550   2.328  1.00  0.00     0.053 C 
ATOM     15  C   UNL     1       3.078   0.573   1.165  1.00  0.00     0.001 A 
ATOM     16  C   UNL     1       3.467  -2.155   0.971  1.00  0.00     0.230 C 
ATOM     17  C   UNL     1       3.604  -0.023   0.009  1.00  0.00     0.122 A 
ATOM     18  C   UNL     1       2.639   1.905   1.071  1.00  0.00     0.008 A 
ATOM     19  O   UNL     1       3.998  -1.333  -0.067  1.00  0.00    -0.493 OA
ATOM     20  C   UNL     1       3.797   0.722  -1.157  1.00  0.00     0.047 A 
ATOM     21  C   UNL     1       2.832   2.650  -0.095  1.00  0.00     0.001 A 
ATOM     22  C   UNL     1       3.428   2.063  -1.204  1.00  0.00     0.004 A 
ENDBRANCH   8  13
ENDBRANCH   5   8
ENDBRANCH   3   4
ENDBRANCH   2   3
ENDBRANCH   1   2
BRANCH   1  23
ATOM     23  C   UNL     1       2.338   4.114   8.643  1.00  0.00     0.116 C 
BRANCH  23  24
ATOM     24  N   UNL     1       3.491   3.937   9.511  1.00  0.00    -0.352 N 
ATOM     25  C   UNL     1       3.663   4.361  10.804  1.00  0.00     0.251 C 
ATOM     26  H   UNL     1       4.250   3.448   9.118  1.00  0.00     0.163 HD
ATOM     27  O   UNL     1       4.769   4.275  11.330  1.00  0.00    -0.269 OA
BRANCH  25  28
ATOM     28  C   UNL     1       2.520   4.944  11.535  1.00  0.00     0.039 A 
ATOM     29  C   UNL     1       2.723   6.095  12.297  1.00  0.00     0.014 A 
ATOM     30  C   UNL     1       1.251   4.362  11.459  1.00  0.00     0.014 A 
ATOM     31  C   UNL     1       1.643   6.682  12.955  1.00  0.00     0.010 A 
ATOM     32  C   UNL     1       0.160   5.001  12.037  1.00  0.00     0.010 A 
ATOM     33  C   UNL     1       0.348   6.153  12.813  1.00  0.00    -0.014 A 
BRANCH  33  34
ATOM     34  C   UNL     1      -0.807   6.768  13.515  1.00  0.00     0.031 A 
ATOM     35  C   UNL     1      -1.553   5.981  14.561  1.00  0.00     0.074 A 
ATOM     36  C   UNL     1      -1.195   8.017  13.195  1.00  0.00     0.049 A 
ATOM     37  N   UNL     1      -2.584   6.336  15.284  1.00  0.00    -0.248 NA
ATOM     38  C   UNL     1      -1.100   4.603  14.802  1.00  0.00     0.031 C 
ATOM     39  C   UNL     1      -0.575   8.857  12.167  1.00  0.00     0.029 A 
ATOM     40  N   UNL     1      -2.197   8.803  13.704  1.00  0.00    -0.354 N 
ATOM     41  C   UNL     1      -2.909   5.222  16.052  1.00  0.00     0.074 A 
ATOM     42  C   UNL     1      -2.014   4.160  15.650  1.00  0.00     0.031 C 
ATOM     43  C   UNL     1      -1.178  10.057  12.158  1.00  0.00     0.029 A 
ATOM     44  C   UNL     1      -2.256  10.058  13.141  1.00  0.00     0.049 A 
ATOM     45  H   UNL     1      -2.817   8.498  14.406  1.00  0.00     0.167 HD
ATOM     46  C   UNL     1      -3.849   5.105  17.023  1.00  0.00     0.034 A 
ATOM     47  C   UNL     1      -3.085  11.090  13.393  1.00  0.00     0.034 A 
ATOM     48  C   UNL     1      -4.722   6.183  17.418  1.00  0.00     0.049 A 
ATOM     49  C   UNL     1      -4.135  10.929  14.464  1.00  0.00     0.074 A 
ATOM     50  C   UNL     1      -5.669   6.198  18.427  1.00  0.00     0.029 A 
ATOM     51  N   UNL     1      -4.764   7.435  16.817  1.00  0.00    -0.354 N 
ATOM     52  N   UNL     1      -4.389   9.891  15.228  1.00  0.00    -0.248 NA
ATOM     53  C   UNL     1      -4.999  12.088  14.718  1.00  0.00     0.031 C 
ATOM     54  C   UNL     1      -6.339   7.426  18.381  1.00  0.00     0.029 A 
ATOM     55  C   UNL     1      -5.746   8.216  17.408  1.00  0.00     0.049 A 
ATOM     56  H   UNL     1      -4.182   7.725  16.078  1.00  0.00     0.167 HD
ATOM     57  C   UNL     1      -5.415  10.290  16.082  1.00  0.00     0.074 A 
ATOM     58  C   UNL     1      -5.717  11.666  15.747  1.00  0.00     0.031 C 
ATOM     59  C   UNL     1      -6.044   9.586  17.059  1.00  0.00     0.034 A 
BRANCH  46  60
ATOM     60  C   UNL     1      -3.996   3.757  17.692  1.00  0.00     0.023 A 
ATOM     61  C   UNL     1      -2.940   3.161  18.407  1.00  0.00     0.031 A 
ATOM     62  C   UNL     1      -5.200   3.038  17.584  1.00  0.00     0.131 A 
ATOM     63  C   UNL     1      -3.079   1.858  18.908  1.00  0.00     0.055 A 
ATOM     64  C   UNL     1      -5.363   1.779  18.167  1.00  0.00     0.041 A 
ATOM     65  F   UNL     1      -6.237   3.540  16.895  1.00  0.00    -0.206 F 
ATOM     66  C   UNL     1      -4.293   1.174  18.819  1.00  0.00     0.022 A 
BRANCH  63  67
ATOM     67  S   UNL     1      -1.602   1.008  19.531  1.00  0.00     0.124 S 
ATOM     68  O   UNL     1      -0.722   1.055  18.366  1.00  0.00    -0.237 OA
ATOM     69  O   UNL     1      -1.211   1.841  20.661  1.00  0.00    -0.237 OA
ATOM     70  O   UNL     1      -2.093  -0.325  19.877  1.00  0.00    -0.744 OA
ENDBRANCH  63  67
ENDBRANCH  46  60
BRANCH  47  71
ATOM     71  C   UNL     1      -2.956  12.370  12.638  1.00  0.00     0.023 A 
ATOM     72  C   UNL     1      -2.631  13.567  13.297  1.00  0.00     0.031 A 
ATOM     73  C   UNL     1      -3.207  12.428  11.256  1.00  0.00     0.131 A 
ATOM     74  C   UNL     1      -2.619  14.778  12.586  1.00  0.00     0.055 A 
ATOM     75  C   UNL     1      -3.134  13.625  10.541  1.00  0.00     0.041 A 
ATOM     76  F   UNL     1      -3.518  11.313  10.575  1.00  0.00    -0.206 F 
ATOM     77  C   UNL     1      -2.854  14.812  11.210  1.00  0.00     0.022 A 
BRANCH  74  78
ATOM     78  S   UNL     1      -2.390  16.323  13.508  1.00  0.00     0.124 S 
ATOM     79  O   UNL     1      -3.497  16.270  14.456  1.00  0.00    -0.237 OA
ATOM     80  O   UNL     1      -1.054  16.146  14.068  1.00  0.00    -0.237 OA
ATOM     81  O   UNL     1      -2.499  17.353  12.476  1.00  0.00    -0.744 OA
ENDBRANCH  74  78
ENDBRANCH  47  71
BRANCH  59  82
ATOM     82  C   UNL     1      -7.083  10.322  17.873  1.00  0.00     0.023 A 
ATOM     83  C   UNL     1      -8.264  10.823  17.298  1.00  0.00     0.031 A 
ATOM     84  C   UNL     1      -6.871  10.549  19.246  1.00  0.00     0.131 A 
ATOM     85  C   UNL     1      -9.147  11.591  18.072  1.00  0.00     0.055 A 
ATOM     86  C   UNL     1      -7.792  11.246  20.028  1.00  0.00     0.041 A 
ATOM     87  F   UNL     1      -5.760  10.098  19.851  1.00  0.00    -0.206 F 
ATOM     88  C   UNL     1      -8.929  11.788  19.437  1.00  0.00     0.022 A 
BRANCH  85  89
ATOM     89  S   UNL     1     -10.519  12.438  17.240  1.00  0.00     0.124 S 
ATOM     90  O   UNL     1      -9.820  13.222  16.227  1.00  0.00    -0.237 OA
ATOM     91  O   UNL     1     -11.319  11.323  16.744  1.00  0.00    -0.237 OA
ATOM     92  O   UNL     1     -11.138  13.218  18.310  1.00  0.00    -0.744 OA
ENDBRANCH  85  89
ENDBRANCH  59  82
ENDBRANCH  33  34
ENDBRANCH  25  28
ENDBRANCH  23  24
ENDBRANCH   1  23
TORSDOF 17
