REMARK SMILES Cc1ccc(C(=O)NCCCCNC(=O)c2ccc(-c3c4nc(c(-c5cc(S(=O)(=O)[O-])ccc5F)c5ccc([nH]5)c(-c5cc(S(=O)(=O)[O-])ccc5F)c5nc(c(-c6cc(S(=O)(=O)[O-])ccc6F)c6ccc3[nH]6)C=C5)C=C4)cc2)cc1NC(=O)Cc1ccc2ccccc2c1
REMARK SMILES IDX 10 1 9 2 8 3 6 4 7 5 5 7 1 8 2 9 3 10 80 11 4 12 79 13 81 14
REMARK SMILES IDX 82 15 83 17 84 18 85 19 86 20 94 21 87 22 93 23 88 24 92 25
REMARK SMILES IDX 89 26 91 27 90 28 11 29 12 30 13 31 14 32 15 34 16 35 17 36
REMARK SMILES IDX 78 37 18 38 77 39 19 40 20 41 21 42 71 43 22 44 76 45 70 46
REMARK SMILES IDX 72 47 23 48 75 49 69 50 68 51 24 53 56 54 36 55 55 56 37 57
REMARK SMILES IDX 40 58 54 59 73 60 38 61 39 62 53 64 74 65 41 66 25 67 26 68
REMARK SMILES IDX 34 69 27 70 33 71 35 72 32 73 28 74 29 75 30 76 31 77 57 78
REMARK SMILES IDX 58 79 66 80 59 81 65 82 67 83 64 84 60 85 61 86 62 87 63 88
REMARK SMILES IDX 42 89 43 90 51 91 44 92 50 93 52 94 49 95 45 96 46 97 47 98
REMARK SMILES IDX 48 99
REMARK H PARENT 8 6 81 16 13 33 72 52 40 63
REMARK Flexibility Score: inf
ROOT
ATOM      1  C   UNL     1      -4.189   2.781  -2.041  1.00  0.00     0.023 C 
ENDROOT
BRANCH   1   2
ATOM      2  C   UNL     1      -3.872   2.299  -0.619  1.00  0.00     0.116 C 
BRANCH   2   3
ATOM      3  N   UNL     1      -4.013   0.882  -0.366  1.00  0.00    -0.352 N 
ATOM      4  C   UNL     1      -3.114  -0.092   0.009  1.00  0.00     0.251 C 
ATOM      5  O   UNL     1      -3.582  -1.207   0.255  1.00  0.00    -0.269 OA
ATOM      6  H   UNL     1      -4.931   0.548  -0.485  1.00  0.00     0.163 HD
BRANCH   4   7
ATOM      7  C   UNL     1      -1.622   0.075   0.040  1.00  0.00     0.041 A 
ATOM      8  C   UNL     1       2.708   0.111  -0.129  1.00  0.00     0.046 C 
ATOM      9  C   UNL     1       1.205   0.205  -0.073  1.00  0.00    -0.027 A 
ATOM     10  C   UNL     1       0.520  -1.018  -0.225  1.00  0.00     0.006 A 
ATOM     11  C   UNL     1       0.468   1.391   0.149  1.00  0.00     0.044 A 
ATOM     12  C   UNL     1      -0.872  -1.074  -0.210  1.00  0.00     0.014 A 
ATOM     13  C   UNL     1      -0.925   1.261   0.321  1.00  0.00     0.040 A 
BRANCH  11  14
ATOM     14  N   UNL     1       1.153   2.644   0.115  1.00  0.00    -0.326 N 
ATOM     15  C   UNL     1       0.758   3.971  -0.041  1.00  0.00     0.228 C 
ATOM     16  H   UNL     1       2.126   2.549   0.228  1.00  0.00     0.169 HD
ATOM     17  O   UNL     1       1.641   4.785  -0.313  1.00  0.00    -0.274 OA
BRANCH  15  18
ATOM     18  C   UNL     1      -0.703   4.288   0.030  1.00  0.00     0.135 C 
BRANCH  18  19
ATOM     19  C   UNL     1      -1.377   5.609  -0.240  1.00  0.00    -0.038 A 
ATOM     20  C   UNL     1      -2.772   5.575  -0.091  1.00  0.00     0.005 A 
ATOM     21  C   UNL     1      -0.794   6.836  -0.552  1.00  0.00     0.013 A 
ATOM     22  C   UNL     1      -3.574   6.673  -0.340  1.00  0.00     0.009 A 
ATOM     23  C   UNL     1      -1.598   7.998  -0.721  1.00  0.00    -0.018 A 
ATOM     24  C   UNL     1      -3.004   7.894  -0.658  1.00  0.00    -0.018 A 
ATOM     25  C   UNL     1      -1.057   9.284  -0.887  1.00  0.00     0.009 A 
ATOM     26  C   UNL     1      -3.823   9.017  -0.837  1.00  0.00     0.009 A 
ATOM     27  C   UNL     1      -1.881  10.414  -0.990  1.00  0.00     0.001 A 
ATOM     28  C   UNL     1      -3.265  10.279  -0.984  1.00  0.00     0.001 A 
ENDBRANCH  18  19
ENDBRANCH  15  18
ENDBRANCH  11  14
ENDBRANCH   4   7
ENDBRANCH   2   3
ENDBRANCH   1   2
BRANCH   1  29
ATOM     29  C   UNL     1      -5.667   3.013  -2.372  1.00  0.00     0.023 C 
BRANCH  29  30
ATOM     30  C   UNL     1      -6.388   4.013  -1.466  1.00  0.00     0.116 C 
BRANCH  30  31
ATOM     31  N   UNL     1      -6.654   5.344  -2.007  1.00  0.00    -0.352 N 
ATOM     32  C   UNL     1      -7.137   6.473  -1.349  1.00  0.00     0.251 C 
ATOM     33  H   UNL     1      -6.466   5.459  -2.966  1.00  0.00     0.163 HD
ATOM     34  O   UNL     1      -7.352   7.504  -1.982  1.00  0.00    -0.269 OA
BRANCH  32  35
ATOM     35  C   UNL     1      -7.293   6.479   0.136  1.00  0.00     0.039 A 
ATOM     36  C   UNL     1      -6.938   7.621   0.882  1.00  0.00     0.014 A 
ATOM     37  C   UNL     1      -7.646   5.319   0.808  1.00  0.00     0.014 A 
ATOM     38  C   UNL     1      -6.756   7.539   2.269  1.00  0.00     0.010 A 
ATOM     39  C   UNL     1      -7.365   5.201   2.148  1.00  0.00     0.010 A 
ATOM     40  C   UNL     1      -6.920   6.305   2.887  1.00  0.00    -0.014 A 
BRANCH  40  41
ATOM     41  C   UNL     1      -6.806   6.013   4.312  1.00  0.00     0.031 A 
ATOM     42  C   UNL     1      -8.056   5.717   5.064  1.00  0.00     0.074 A 
ATOM     43  C   UNL     1      -5.614   5.573   4.772  1.00  0.00     0.049 A 
ATOM     44  N   UNL     1      -8.111   5.344   6.296  1.00  0.00    -0.248 NA
ATOM     45  C   UNL     1      -9.385   5.854   4.459  1.00  0.00     0.031 C 
ATOM     46  C   UNL     1      -5.399   4.617   5.854  1.00  0.00     0.029 A 
ATOM     47  N   UNL     1      -4.362   6.158   4.560  1.00  0.00    -0.354 N 
ATOM     48  C   UNL     1      -9.384   4.874   6.531  1.00  0.00     0.074 A 
ATOM     49  C   UNL     1     -10.163   5.338   5.415  1.00  0.00     0.031 C 
ATOM     50  C   UNL     1      -4.195   4.837   6.395  1.00  0.00     0.029 A 
ATOM     51  C   UNL     1      -3.681   6.051   5.795  1.00  0.00     0.049 A 
ATOM     52  H   UNL     1      -4.026   6.559   3.727  1.00  0.00     0.167 HD
ATOM     53  C   UNL     1      -9.586   4.016   7.569  1.00  0.00     0.034 A 
ATOM     54  C   UNL     1      -3.320   7.156   6.506  1.00  0.00     0.034 A 
ATOM     55  C   UNL     1      -8.448   4.040   8.489  1.00  0.00     0.049 A 
ATOM     56  C   UNL     1      -3.868   7.239   7.895  1.00  0.00     0.074 A 
ATOM     57  C   UNL     1      -7.421   3.156   8.762  1.00  0.00     0.029 A 
ATOM     58  N   UNL     1      -8.116   5.240   9.115  1.00  0.00    -0.354 N 
ATOM     59  N   UNL     1      -4.886   6.538   8.310  1.00  0.00    -0.248 NA
ATOM     60  C   UNL     1      -3.325   8.116   8.924  1.00  0.00     0.031 C 
ATOM     61  C   UNL     1      -6.408   3.876   9.455  1.00  0.00     0.029 A 
ATOM     62  C   UNL     1      -6.845   5.177   9.648  1.00  0.00     0.049 A 
ATOM     63  H   UNL     1      -8.707   6.025   9.169  1.00  0.00     0.167 HD
ATOM     64  C   UNL     1      -5.166   6.873   9.606  1.00  0.00     0.074 A 
ATOM     65  C   UNL     1      -4.133   7.832   9.959  1.00  0.00     0.031 C 
ATOM     66  C   UNL     1      -6.243   6.352  10.267  1.00  0.00     0.034 A 
BRANCH  53  67
ATOM     67  C   UNL     1     -10.712   3.001   7.686  1.00  0.00     0.023 A 
ATOM     68  C   UNL     1     -10.717   2.124   8.796  1.00  0.00     0.031 A 
ATOM     69  C   UNL     1     -11.704   2.733   6.715  1.00  0.00     0.131 A 
ATOM     70  C   UNL     1     -11.639   1.062   8.897  1.00  0.00     0.055 A 
ATOM     71  C   UNL     1     -12.657   1.712   6.846  1.00  0.00     0.041 A 
ATOM     72  F   UNL     1     -11.779   3.390   5.554  1.00  0.00    -0.206 F 
ATOM     73  C   UNL     1     -12.624   0.864   7.936  1.00  0.00     0.022 A 
BRANCH  70  74
ATOM     74  S   UNL     1     -11.489  -0.120  10.266  1.00  0.00     0.124 S 
ATOM     75  O   UNL     1     -10.174  -0.704  10.024  1.00  0.00    -0.237 OA
ATOM     76  O   UNL     1     -11.614   0.741  11.436  1.00  0.00    -0.237 OA
ATOM     77  O   UNL     1     -12.614  -1.031  10.051  1.00  0.00    -0.744 OA
ENDBRANCH  70  74
ENDBRANCH  53  67
BRANCH  54  78
ATOM     78  C   UNL     1      -2.856   8.277   5.661  1.00  0.00     0.023 A 
ATOM     79  C   UNL     1      -1.577   8.094   5.119  1.00  0.00     0.031 A 
ATOM     80  C   UNL     1      -3.769   9.098   4.978  1.00  0.00     0.131 A 
ATOM     81  C   UNL     1      -1.314   8.526   3.818  1.00  0.00     0.055 A 
ATOM     82  C   UNL     1      -3.473   9.590   3.702  1.00  0.00     0.041 A 
ATOM     83  F   UNL     1      -5.010   9.283   5.454  1.00  0.00    -0.206 F 
ATOM     84  C   UNL     1      -2.256   9.264   3.096  1.00  0.00     0.022 A 
BRANCH  81  85
ATOM     85  S   UNL     1       0.188   7.898   3.021  1.00  0.00     0.124 S 
ATOM     86  O   UNL     1       1.171   7.956   4.108  1.00  0.00    -0.237 OA
ATOM     87  O   UNL     1      -0.233   6.541   2.651  1.00  0.00    -0.237 OA
ATOM     88  O   UNL     1       0.420   8.827   1.938  1.00  0.00    -0.744 OA
ENDBRANCH  81  85
ENDBRANCH  54  78
BRANCH  66  89
ATOM     89  C   UNL     1      -6.760   6.872  11.588  1.00  0.00     0.023 A 
ATOM     90  C   UNL     1      -6.428   8.141  12.086  1.00  0.00     0.031 A 
ATOM     91  C   UNL     1      -7.668   6.126  12.371  1.00  0.00     0.131 A 
ATOM     92  C   UNL     1      -6.856   8.564  13.354  1.00  0.00     0.055 A 
ATOM     93  C   UNL     1      -8.173   6.589  13.592  1.00  0.00     0.041 A 
ATOM     94  F   UNL     1      -8.108   4.921  11.981  1.00  0.00    -0.206 F 
ATOM     95  C   UNL     1      -7.744   7.804  14.107  1.00  0.00     0.022 A 
BRANCH  92  96
ATOM     96  S   UNL     1      -6.137  10.086  14.025  1.00  0.00     0.124 S 
ATOM     97  O   UNL     1      -4.715   9.752  14.065  1.00  0.00    -0.237 OA
ATOM     98  O   UNL     1      -6.525  11.082  13.031  1.00  0.00    -0.237 OA
ATOM     99  O   UNL     1      -6.778  10.224  15.330  1.00  0.00    -0.744 OA
ENDBRANCH  92  96
ENDBRANCH  66  89
ENDBRANCH  40  41
ENDBRANCH  32  35
ENDBRANCH  30  31
ENDBRANCH  29  30
ENDBRANCH   1  29
TORSDOF 17
