REMARK SMILES CCCCCCNC(=O)Oc1cccc(-c2ccc(CC(=O)NCCCCNC(=O)c3ccc(-c4c5nc(c(-c6cc(S(=O)(=O)[O-])ccc6F)c6ccc([nH]6)c(-c6cc(S(=O)(=O)[O-])ccc6F)c6nc(c(-c7cc(S(=O)(=O)[O-])ccc7F)c7ccc4[nH]7)C=C6)C=C5)cc3)cc2F)c1
REMARK SMILES IDX 21 1 22 2 23 3 20 5 19 6 16 7 17 8 95 9 18 10 94 11 96 12
REMARK SMILES IDX 15 13 11 14 12 15 97 16 13 17 14 18 10 19 8 20 7 21 9 23
REMARK SMILES IDX 6 24 5 25 4 26 3 27 2 28 1 29 24 30 25 31 26 32 27 33 28 34
REMARK SMILES IDX 29 35 30 37 31 38 32 39 93 40 33 41 92 42 34 43 35 44 36 45
REMARK SMILES IDX 86 46 37 47 91 48 85 49 87 50 38 51 90 52 84 53 83 54 39 56
REMARK SMILES IDX 71 57 51 58 70 59 52 60 55 61 69 62 88 63 53 64 54 65 68 67
REMARK SMILES IDX 89 68 56 69 40 70 41 71 49 72 42 73 48 74 50 75 47 76 43 77
REMARK SMILES IDX 44 78 45 79 46 80 72 81 73 82 81 83 74 84 80 85 82 86 79 87
REMARK SMILES IDX 75 88 76 89 77 90 78 91 57 92 58 93 66 94 59 95 65 96 67 97
REMARK SMILES IDX 64 98 60 99 61 100 62 101 63 102
REMARK H PARENT 23 4 7 22 28 36 87 55 55 66
REMARK Flexibility Score: inf
ROOT
ATOM      1  C   UNL     1      -5.357  13.037  -6.556  1.00  0.00     0.224 C 
ATOM      2  O   UNL     1      -5.224  14.261  -6.502  1.00  0.00    -0.275 OA
ATOM      3  N   UNL     1      -6.559  12.523  -6.951  1.00  0.00    -0.356 N 
ATOM      4  H   UNL     1      -7.232  13.186  -7.228  1.00  0.00     0.163 HD
ENDROOT
BRANCH   1   5
ATOM      5  C   UNL     1      -4.198  12.108  -6.238  1.00  0.00     0.135 C 
BRANCH   5   6
ATOM      6  C   UNL     1      -4.390  11.280  -4.991  1.00  0.00    -0.036 A 
ATOM      7  C   UNL     1      -4.844   9.695  -2.684  1.00  0.00     0.018 A 
ATOM      8  C   UNL     1      -4.875  11.097  -2.614  1.00  0.00     0.012 A 
ATOM      9  C   UNL     1      -4.564   9.114  -3.929  1.00  0.00     0.131 A 
ATOM     10  C   UNL     1      -4.647  11.882  -3.752  1.00  0.00     0.005 A 
ATOM     11  C   UNL     1      -4.325   9.885  -5.061  1.00  0.00     0.044 A 
ATOM     12  F   UNL     1      -4.531   7.779  -4.064  1.00  0.00    -0.206 F 
BRANCH   7  13
ATOM     13  C   UNL     1      -5.060   8.862  -1.493  1.00  0.00    -0.012 A 
ATOM     14  C   UNL     1      -4.313   7.078  -0.022  1.00  0.00     0.133 A 
ATOM     15  C   UNL     1      -5.461   7.200   0.753  1.00  0.00     0.047 A 
ATOM     16  C   UNL     1      -4.118   7.883  -1.143  1.00  0.00     0.056 A 
ATOM     17  C   UNL     1      -6.407   8.169   0.422  1.00  0.00     0.004 A 
ATOM     18  C   UNL     1      -6.205   8.997  -0.689  1.00  0.00     0.009 A 
BRANCH  14  19
ATOM     19  O   UNL     1      -3.422   6.037   0.288  1.00  0.00    -0.410 OA
BRANCH  19  20
ATOM     20  C   UNL     1      -2.069   6.336   0.331  1.00  0.00     0.412 C 
ATOM     21  N   UNL     1      -1.272   5.232   0.445  1.00  0.00    -0.321 N 
ATOM     22  H   UNL     1      -0.302   5.394   0.494  1.00  0.00     0.167 HD
ATOM     23  O   UNL     1      -1.570   7.458   0.283  1.00  0.00    -0.224 OA
BRANCH  21  24
ATOM     24  C   UNL     1      -1.702   3.851   0.502  1.00  0.00     0.119 C 
BRANCH  24  25
ATOM     25  C   UNL     1      -1.081   3.011  -0.614  1.00  0.00     0.021 C 
BRANCH  25  26
ATOM     26  C   UNL     1       0.449   2.913  -0.578  1.00  0.00     0.002 C 
BRANCH  26  27
ATOM     27  C   UNL     1       1.046   2.349   0.716  1.00  0.00    -0.000 C 
BRANCH  27  28
ATOM     28  C   UNL     1       0.575   0.944   1.098  1.00  0.00    -0.003 C 
ATOM     29  C   UNL     1       0.959  -0.118   0.079  1.00  0.00     0.004 C 
ENDBRANCH  27  28
ENDBRANCH  26  27
ENDBRANCH  25  26
ENDBRANCH  24  25
ENDBRANCH  21  24
ENDBRANCH  19  20
ENDBRANCH  14  19
ENDBRANCH   7  13
ENDBRANCH   5   6
ENDBRANCH   1   5
BRANCH   3  30
ATOM     30  C   UNL     1      -6.982  11.137  -7.021  1.00  0.00     0.116 C 
BRANCH  30  31
ATOM     31  C   UNL     1      -7.849  10.746  -5.823  1.00  0.00     0.023 C 
BRANCH  31  32
ATOM     32  C   UNL     1      -9.230  11.406  -5.794  1.00  0.00     0.023 C 
BRANCH  32  33
ATOM     33  C   UNL     1     -10.103  11.145  -7.017  1.00  0.00     0.116 C 
BRANCH  33  34
ATOM     34  N   UNL     1     -10.363   9.732  -7.241  1.00  0.00    -0.352 N 
ATOM     35  C   UNL     1     -11.526   9.126  -7.654  1.00  0.00     0.251 C 
ATOM     36  H   UNL     1      -9.604   9.127  -7.074  1.00  0.00     0.163 HD
ATOM     37  O   UNL     1     -11.604   7.901  -7.670  1.00  0.00    -0.269 OA
BRANCH  35  38
ATOM     38  C   UNL     1     -12.690   9.957  -8.034  1.00  0.00     0.039 A 
ATOM     39  C   UNL     1     -13.945   9.637  -7.511  1.00  0.00     0.014 A 
ATOM     40  C   UNL     1     -12.542  11.062  -8.877  1.00  0.00     0.014 A 
ATOM     41  C   UNL     1     -15.037  10.468  -7.773  1.00  0.00     0.010 A 
ATOM     42  C   UNL     1     -13.615  11.927  -9.080  1.00  0.00     0.010 A 
ATOM     43  C   UNL     1     -14.872  11.643  -8.524  1.00  0.00    -0.014 A 
BRANCH  43  44
ATOM     44  C   UNL     1     -15.999  12.592  -8.728  1.00  0.00     0.031 A 
ATOM     45  C   UNL     1     -16.530  12.851 -10.111  1.00  0.00     0.074 A 
ATOM     46  C   UNL     1     -16.499  13.268  -7.673  1.00  0.00     0.049 A 
ATOM     47  N   UNL     1     -17.449  13.698 -10.500  1.00  0.00    -0.248 NA
ATOM     48  C   UNL     1     -15.927  12.075 -11.204  1.00  0.00     0.031 C 
ATOM     49  C   UNL     1     -16.038  13.134  -6.289  1.00  0.00     0.029 A 
ATOM     50  N   UNL     1     -17.494  14.211  -7.600  1.00  0.00    -0.354 N 
ATOM     51  C   UNL     1     -17.529  13.564 -11.882  1.00  0.00     0.074 A 
ATOM     52  C   UNL     1     -16.519  12.600 -12.266  1.00  0.00     0.031 C 
ATOM     53  C   UNL     1     -16.763  13.947  -5.504  1.00  0.00     0.029 A 
ATOM     54  C   UNL     1     -17.705  14.696  -6.329  1.00  0.00     0.049 A 
ATOM     55  H   UNL     1     -18.009  14.512  -8.383  1.00  0.00     0.167 HD
ATOM     56  C   UNL     1     -18.380  14.170 -12.747  1.00  0.00     0.034 A 
ATOM     57  C   UNL     1     -18.549  15.646  -5.881  1.00  0.00     0.034 A 
ATOM     58  C   UNL     1     -19.386  15.125 -12.346  1.00  0.00     0.049 A 
ATOM     59  C   UNL     1     -19.466  16.329  -6.865  1.00  0.00     0.074 A 
ATOM     60  C   UNL     1     -20.332  15.761 -13.132  1.00  0.00     0.029 A 
ATOM     61  N   UNL     1     -19.571  15.590 -11.050  1.00  0.00    -0.354 N 
ATOM     62  N   UNL     1     -19.564  16.152  -8.163  1.00  0.00    -0.248 NA
ATOM     63  C   UNL     1     -20.394  17.329  -6.322  1.00  0.00     0.031 C 
ATOM     64  C   UNL     1     -21.041  16.659 -12.326  1.00  0.00     0.029 A 
ATOM     65  C   UNL     1     -20.594  16.527 -11.021  1.00  0.00     0.049 A 
ATOM     66  H   UNL     1     -19.052  15.298 -10.266  1.00  0.00     0.167 HD
ATOM     67  C   UNL     1     -20.585  16.999  -8.584  1.00  0.00     0.074 A 
ATOM     68  C   UNL     1     -21.082  17.671  -7.401  1.00  0.00     0.031 C 
ATOM     69  C   UNL     1     -21.072  17.200  -9.836  1.00  0.00     0.034 A 
BRANCH  56  70
ATOM     70  C   UNL     1     -18.239  13.832 -14.213  1.00  0.00     0.023 A 
ATOM     71  C   UNL     1     -18.444  12.525 -14.691  1.00  0.00     0.031 A 
ATOM     72  C   UNL     1     -17.871  14.820 -15.142  1.00  0.00     0.131 A 
ATOM     73  C   UNL     1     -18.204  12.226 -16.041  1.00  0.00     0.055 A 
ATOM     74  C   UNL     1     -17.716  14.534 -16.500  1.00  0.00     0.041 A 
ATOM     75  F   UNL     1     -17.641  16.082 -14.744  1.00  0.00    -0.206 F 
ATOM     76  C   UNL     1     -17.867  13.227 -16.954  1.00  0.00     0.022 A 
BRANCH  73  77
ATOM     77  S   UNL     1     -18.195  10.487 -16.553  1.00  0.00     0.124 S 
ATOM     78  O   UNL     1     -17.148   9.933 -15.697  1.00  0.00    -0.237 OA
ATOM     79  O   UNL     1     -19.557  10.062 -16.254  1.00  0.00    -0.237 OA
ATOM     80  O   UNL     1     -17.858  10.550 -17.974  1.00  0.00    -0.744 OA
ENDBRANCH  73  77
ENDBRANCH  56  70
BRANCH  57  81
ATOM     81  C   UNL     1     -18.563  16.027  -4.438  1.00  0.00     0.023 A 
ATOM     82  C   UNL     1     -19.701  15.814  -3.643  1.00  0.00     0.031 A 
ATOM     83  C   UNL     1     -17.453  16.653  -3.845  1.00  0.00     0.131 A 
ATOM     84  C   UNL     1     -19.721  16.268  -2.315  1.00  0.00     0.055 A 
ATOM     85  C   UNL     1     -17.457  17.052  -2.507  1.00  0.00     0.041 A 
ATOM     86  F   UNL     1     -16.337  16.877  -4.558  1.00  0.00    -0.206 F 
ATOM     87  C   UNL     1     -18.603  16.873  -1.738  1.00  0.00     0.022 A 
BRANCH  84  88
ATOM     88  S   UNL     1     -21.268  16.137  -1.377  1.00  0.00     0.124 S 
ATOM     89  O   UNL     1     -22.191  16.891  -2.219  1.00  0.00    -0.237 OA
ATOM     90  O   UNL     1     -21.474  14.693  -1.332  1.00  0.00    -0.237 OA
ATOM     91  O   UNL     1     -20.942  16.758  -0.095  1.00  0.00    -0.744 OA
ENDBRANCH  84  88
ENDBRANCH  57  81
BRANCH  69  92
ATOM     92  C   UNL     1     -22.232  18.156  -9.975  1.00  0.00     0.023 A 
ATOM     93  C   UNL     1     -22.095  19.532  -9.719  1.00  0.00     0.031 A 
ATOM     94  C   UNL     1     -23.499  17.679 -10.358  1.00  0.00     0.131 A 
ATOM     95  C   UNL     1     -23.216  20.372  -9.793  1.00  0.00     0.055 A 
ATOM     96  C   UNL     1     -24.597  18.530 -10.491  1.00  0.00     0.041 A 
ATOM     97  F   UNL     1     -23.689  16.374 -10.612  1.00  0.00    -0.206 F 
ATOM     98  C   UNL     1     -24.462  19.883 -10.194  1.00  0.00     0.022 A 
BRANCH  95  99
ATOM     99  S   UNL     1     -23.047  22.100  -9.267  1.00  0.00     0.124 S 
ATOM    100  O   UNL     1     -22.600  21.954  -7.886  1.00  0.00    -0.237 OA
ATOM    101  O   UNL     1     -22.058  22.617 -10.207  1.00  0.00    -0.237 OA
ATOM    102  O   UNL     1     -24.396  22.641  -9.428  1.00  0.00    -0.744 OA
ENDBRANCH  95  99
ENDBRANCH  69  92
ENDBRANCH  43  44
ENDBRANCH  35  38
ENDBRANCH  33  34
ENDBRANCH  32  33
ENDBRANCH  31  32
ENDBRANCH  30  31
ENDBRANCH   3  30
TORSDOF 23
