REMARK SMILES CC(C)c1cc(C(=O)NCCCCNC(=O)c2ccc(-c3c4nc(c(-c5cc(S(=O)(=O)[O-])ccc5F)c5ccc([nH]5)c(-c5cc(S(=O)(=O)[O-])ccc5F)c5nc(c(-c6cc(S(=O)(=O)[O-])ccc6F)c6ccc3[nH]6)C=C5)C=C4)cc2)ccc1[N+](=O)[O-]
REMARK SMILES IDX 12 1 11 2 10 3 9 4 7 5 8 6 6 8 4 9 5 10 82 11 81 12 80 13
REMARK SMILES IDX 2 14 1 15 3 16 83 17 84 18 85 19 13 20 14 21 15 22 16 24
REMARK SMILES IDX 17 25 18 26 79 27 19 28 78 29 20 30 21 31 22 32 72 33 23 34
REMARK SMILES IDX 77 35 71 36 73 37 24 38 76 39 70 40 69 41 25 43 57 44 37 45
REMARK SMILES IDX 56 46 38 47 41 48 55 49 74 50 39 51 40 52 54 54 75 55 42 56
REMARK SMILES IDX 26 57 27 58 35 59 28 60 34 61 36 62 33 63 29 64 30 65 31 66
REMARK SMILES IDX 32 67 58 68 59 69 67 70 60 71 66 72 68 73 65 74 61 75 62 76
REMARK SMILES IDX 63 77 64 78 43 79 44 80 52 81 45 82 51 83 53 84 50 85 46 86
REMARK SMILES IDX 47 87 48 88 49 89
REMARK H PARENT 9 7 14 23 73 42 41 53
REMARK Flexibility Score: inf
ROOT
ATOM      1  C   UNL     1      -7.598   1.853   1.522  1.00  0.00     0.023 C 
ENDROOT
BRANCH   1   2
ATOM      2  C   UNL     1      -6.586   0.738   1.278  1.00  0.00     0.023 C 
BRANCH   2   3
ATOM      3  C   UNL     1      -5.983   0.657  -0.119  1.00  0.00     0.116 C 
BRANCH   3   4
ATOM      4  N   UNL     1      -5.219   1.829  -0.513  1.00  0.00    -0.352 N 
ATOM      5  C   UNL     1      -3.992   1.929  -1.129  1.00  0.00     0.251 C 
ATOM      6  O   UNL     1      -3.513   3.040  -1.347  1.00  0.00    -0.269 OA
ATOM      7  H   UNL     1      -5.648   2.690  -0.305  1.00  0.00     0.163 HD
BRANCH   5   8
ATOM      8  C   UNL     1      -3.197   0.723  -1.478  1.00  0.00     0.040 A 
ATOM      9  C   UNL     1      -0.981  -0.365  -1.458  1.00  0.00     0.033 A 
ATOM     10  C   UNL     1      -1.806   0.768  -1.271  1.00  0.00     0.025 A 
ATOM     11  C   UNL     1      -1.640  -1.556  -1.809  1.00  0.00     0.272 A 
ATOM     12  C   UNL     1      -3.009  -1.592  -2.123  1.00  0.00     0.087 A 
ATOM     13  C   UNL     1      -3.774  -0.434  -2.002  1.00  0.00     0.021 A 
BRANCH   9  14
ATOM     14  C   UNL     1       0.519  -0.162  -1.274  1.00  0.00     0.020 C 
ATOM     15  C   UNL     1       0.901  -0.113   0.206  1.00  0.00     0.013 C 
ATOM     16  C   UNL     1       1.452  -1.110  -2.034  1.00  0.00     0.013 C 
ENDBRANCH   9  14
BRANCH  11  17
ATOM     17  N   UNL     1      -0.974  -2.842  -1.774  1.00  0.00     0.063 N 
ATOM     18  O   UNL     1      -0.730  -3.314  -0.655  1.00  0.00    -0.258 OA
ATOM     19  O   UNL     1      -0.741  -3.388  -2.860  1.00  0.00    -0.258 OA
ENDBRANCH  11  17
ENDBRANCH   5   8
ENDBRANCH   3   4
ENDBRANCH   2   3
ENDBRANCH   1   2
BRANCH   1  20
ATOM     20  C   UNL     1      -8.720   1.983   0.498  1.00  0.00     0.116 C 
BRANCH  20  21
ATOM     21  N   UNL     1      -9.493   0.764   0.317  1.00  0.00    -0.352 N 
ATOM     22  C   UNL     1     -10.850   0.551   0.404  1.00  0.00     0.251 C 
ATOM     23  H   UNL     1      -8.962  -0.035   0.098  1.00  0.00     0.163 HD
ATOM     24  O   UNL     1     -11.284  -0.594   0.296  1.00  0.00    -0.269 OA
BRANCH  22  25
ATOM     25  C   UNL     1     -11.775   1.676   0.674  1.00  0.00     0.039 A 
ATOM     26  C   UNL     1     -12.782   1.501   1.627  1.00  0.00     0.014 A 
ATOM     27  C   UNL     1     -11.646   2.901   0.016  1.00  0.00     0.014 A 
ATOM     28  C   UNL     1     -13.591   2.581   1.990  1.00  0.00     0.010 A 
ATOM     29  C   UNL     1     -12.396   3.998   0.438  1.00  0.00     0.010 A 
ATOM     30  C   UNL     1     -13.369   3.854   1.439  1.00  0.00    -0.014 A 
BRANCH  30  31
ATOM     31  C   UNL     1     -14.123   5.044   1.921  1.00  0.00     0.031 A 
ATOM     32  C   UNL     1     -15.014   5.814   0.985  1.00  0.00     0.074 A 
ATOM     33  C   UNL     1     -13.949   5.469   3.189  1.00  0.00     0.049 A 
ATOM     34  N   UNL     1     -15.699   6.907   1.206  1.00  0.00    -0.248 NA
ATOM     35  C   UNL     1     -15.126   5.304  -0.389  1.00  0.00     0.031 C 
ATOM     36  C   UNL     1     -13.070   4.840   4.179  1.00  0.00     0.029 A 
ATOM     37  N   UNL     1     -14.495   6.532   3.865  1.00  0.00    -0.354 N 
ATOM     38  C   UNL     1     -16.313   7.223  -0.001  1.00  0.00     0.074 A 
ATOM     39  C   UNL     1     -15.866   6.239  -0.965  1.00  0.00     0.031 C 
ATOM     40  C   UNL     1     -13.159   5.510   5.338  1.00  0.00     0.029 A 
ATOM     41  C   UNL     1     -14.064   6.642   5.168  1.00  0.00     0.049 A 
ATOM     42  H   UNL     1     -15.136   7.158   3.456  1.00  0.00     0.167 HD
ATOM     43  C   UNL     1     -17.188   8.224  -0.275  1.00  0.00     0.034 A 
ATOM     44  C   UNL     1     -14.355   7.556   6.115  1.00  0.00     0.034 A 
ATOM     45  C   UNL     1     -17.632   9.191   0.700  1.00  0.00     0.049 A 
ATOM     46  C   UNL     1     -15.318   8.667   5.783  1.00  0.00     0.074 A 
ATOM     47  C   UNL     1     -18.559  10.208   0.545  1.00  0.00     0.029 A 
ATOM     48  N   UNL     1     -17.176   9.270   2.010  1.00  0.00    -0.354 N 
ATOM     49  N   UNL     1     -15.937   8.914   4.652  1.00  0.00    -0.248 NA
ATOM     50  C   UNL     1     -15.630   9.614   6.861  1.00  0.00     0.031 C 
ATOM     51  C   UNL     1     -18.614  10.940   1.736  1.00  0.00     0.029 A 
ATOM     52  C   UNL     1     -17.779  10.336   2.662  1.00  0.00     0.049 A 
ATOM     53  H   UNL     1     -16.521   8.658   2.416  1.00  0.00     0.167 HD
ATOM     54  C   UNL     1     -16.731  10.031   4.891  1.00  0.00     0.074 A 
ATOM     55  C   UNL     1     -16.530  10.393   6.280  1.00  0.00     0.031 C 
ATOM     56  C   UNL     1     -17.554  10.699   4.042  1.00  0.00     0.034 A 
BRANCH  43  57
ATOM     57  C   UNL     1     -17.700   8.330  -1.693  1.00  0.00     0.023 A 
ATOM     58  C   UNL     1     -18.462   7.304  -2.281  1.00  0.00     0.031 A 
ATOM     59  C   UNL     1     -17.404   9.459  -2.477  1.00  0.00     0.131 A 
ATOM     60  C   UNL     1     -18.835   7.393  -3.631  1.00  0.00     0.055 A 
ATOM     61  C   UNL     1     -17.850   9.579  -3.795  1.00  0.00     0.041 A 
ATOM     62  F   UNL     1     -16.664  10.463  -1.979  1.00  0.00    -0.206 F 
ATOM     63  C   UNL     1     -18.556   8.534  -4.385  1.00  0.00     0.022 A 
BRANCH  60  64
ATOM     64  S   UNL     1     -19.562   5.933  -4.425  1.00  0.00     0.124 S 
ATOM     65  O   UNL     1     -18.506   4.941  -4.240  1.00  0.00    -0.237 OA
ATOM     66  O   UNL     1     -20.778   5.724  -3.648  1.00  0.00    -0.237 OA
ATOM     67  O   UNL     1     -19.769   6.362  -5.807  1.00  0.00    -0.744 OA
ENDBRANCH  60  64
ENDBRANCH  43  57
BRANCH  44  68
ATOM     68  C   UNL     1     -13.729   7.472   7.467  1.00  0.00     0.023 A 
ATOM     69  C   UNL     1     -14.508   7.245   8.612  1.00  0.00     0.031 A 
ATOM     70  C   UNL     1     -12.347   7.667   7.639  1.00  0.00     0.131 A 
ATOM     71  C   UNL     1     -13.911   7.268   9.882  1.00  0.00     0.055 A 
ATOM     72  C   UNL     1     -11.748   7.635   8.899  1.00  0.00     0.041 A 
ATOM     73  F   UNL     1     -11.554   7.883   6.577  1.00  0.00    -0.206 F 
ATOM     74  C   UNL     1     -12.534   7.449  10.032  1.00  0.00     0.022 A 
BRANCH  71  75
ATOM     75  S   UNL     1     -14.976   7.145  11.345  1.00  0.00     0.124 S 
ATOM     76  O   UNL     1     -15.875   8.278  11.154  1.00  0.00    -0.237 OA
ATOM     77  O   UNL     1     -15.566   5.821  11.179  1.00  0.00    -0.237 OA
ATOM     78  O   UNL     1     -14.039   7.272  12.459  1.00  0.00    -0.744 OA
ENDBRANCH  71  75
ENDBRANCH  44  68
BRANCH  56  79
ATOM     79  C   UNL     1     -18.319  11.869   4.614  1.00  0.00     0.023 A 
ATOM     80  C   UNL     1     -17.666  13.032   5.059  1.00  0.00     0.031 A 
ATOM     81  C   UNL     1     -19.718  11.806   4.745  1.00  0.00     0.131 A 
ATOM     82  C   UNL     1     -18.402  14.056   5.674  1.00  0.00     0.055 A 
ATOM     83  C   UNL     1     -20.452  12.855   5.298  1.00  0.00     0.041 A 
ATOM     84  F   UNL     1     -20.394  10.719   4.340  1.00  0.00    -0.206 F 
ATOM     85  C   UNL     1     -19.793  13.982   5.781  1.00  0.00     0.022 A 
BRANCH  82  86
ATOM     86  S   UNL     1     -17.504  15.439   6.430  1.00  0.00     0.124 S 
ATOM     87  O   UNL     1     -16.638  14.753   7.383  1.00  0.00    -0.237 OA
ATOM     88  O   UNL     1     -16.836  16.042   5.282  1.00  0.00    -0.237 OA
ATOM     89  O   UNL     1     -18.564  16.250   7.027  1.00  0.00    -0.744 OA
ENDBRANCH  82  86
ENDBRANCH  56  79
ENDBRANCH  30  31
ENDBRANCH  22  25
ENDBRANCH  20  21
ENDBRANCH   1  20
TORSDOF 16
