REMARK SMILES COc1ccc([C@@H]2C(C#N)=C(N)N3C(=O)[C@H](CC(=O)NCCCCNC(=O)c4ccc(-c5c6nc(c(-c7cc(S(=O)(=O)[O-])ccc7F)c7ccc([nH]7)c(-c7cc(S(=O)(=O)[O-])ccc7F)c7nc(c(-c8cc(S(=O)(=O)[O-])ccc8F)c8ccc5[nH]8)C=C7)C=C6)cc4)SC3=C2C#N)cc1
REMARK SMILES IDX 22 1 21 2 20 3 18 4 19 5 17 7 16 8 7 9 8 10 93 11 11 12
REMARK SMILES IDX 92 13 13 14 91 15 14 16 15 17 6 18 3 19 4 20 97 21 5 22
REMARK SMILES IDX 96 23 2 24 1 25 9 26 10 27 94 28 95 29 12 30 23 33 24 34
REMARK SMILES IDX 25 35 26 36 27 38 28 39 29 40 90 41 30 42 89 43 31 44 32 45
REMARK SMILES IDX 33 46 83 47 34 48 88 49 82 50 84 51 35 52 87 53 81 54 80 55
REMARK SMILES IDX 36 57 68 58 48 59 67 60 49 61 52 62 66 63 85 64 50 65 51 66
REMARK SMILES IDX 65 68 86 69 53 70 37 71 38 72 46 73 39 74 45 75 47 76 44 77
REMARK SMILES IDX 40 78 41 79 42 80 43 81 69 82 70 83 78 84 71 85 77 86 79 87
REMARK SMILES IDX 76 88 72 89 73 90 74 91 75 92 54 93 55 94 63 95 56 96 62 97
REMARK SMILES IDX 64 98 61 99 57 100 58 101 59 102 60 103
REMARK H PARENT 20 6 12 31 12 32 25 37 84 56 52 67
REMARK Flexibility Score: inf
ROOT
ATOM      1  C   UNL     1       7.076  10.764   3.977  1.00  0.00     0.023 C 
ENDROOT
BRANCH   1   2
ATOM      2  C   UNL     1       7.778   9.615   4.693  1.00  0.00     0.116 C 
BRANCH   2   3
ATOM      3  N   UNL     1       7.601   9.736   6.126  1.00  0.00    -0.356 N 
ATOM      4  C   UNL     1       6.788   9.028   6.953  1.00  0.00     0.221 C 
ATOM      5  O   UNL     1       6.630   9.407   8.113  1.00  0.00    -0.275 OA
ATOM      6  H   UNL     1       8.147  10.429   6.562  1.00  0.00     0.163 HD
BRANCH   4   7
ATOM      7  C   UNL     1       6.098   7.784   6.450  1.00  0.00     0.125 C 
BRANCH   7   8
ATOM      8  C   UNL     1       4.669   8.096   6.035  1.00  0.00     0.152 C 
ATOM      9  C   UNL     1       2.295   5.943   2.299  1.00  0.00     0.107 C 
ATOM     10  C   UNL     1       3.397   6.717   1.608  1.00  0.00     0.083 C 
ATOM     11  C   UNL     1       2.614   5.736   3.759  1.00  0.00     0.073 C 
ATOM     12  C   UNL     1       4.254   7.485   2.329  1.00  0.00     0.126 C 
ATOM     13  C   UNL     1       3.481   6.515   4.387  1.00  0.00     0.099 C 
ATOM     14  N   UNL     1       4.155   7.505   3.735  1.00  0.00    -0.258 N 
ATOM     15  S   UNL     1       3.714   6.539   6.096  1.00  0.00    -0.093 SA
ATOM     16  C   UNL     1       4.550   8.534   4.574  1.00  0.00     0.247 C 
ATOM     17  O   UNL     1       4.686   9.690   4.204  1.00  0.00    -0.273 OA
BRANCH   9  18
ATOM     18  C   UNL     1       1.874   4.663   1.586  1.00  0.00    -0.034 A 
ATOM     19  C   UNL     1       0.985   2.289   0.355  1.00  0.00     0.118 A 
ATOM     20  C   UNL     1       0.128   3.381   0.477  1.00  0.00     0.047 A 
ATOM     21  C   UNL     1       2.297   2.394   0.818  1.00  0.00     0.047 A 
ATOM     22  C   UNL     1       0.562   4.555   1.092  1.00  0.00     0.008 A 
ATOM     23  C   UNL     1       2.742   3.573   1.429  1.00  0.00     0.008 A 
BRANCH  19  24
ATOM     24  O   UNL     1       0.434   1.193  -0.248  1.00  0.00    -0.497 OA
ATOM     25  C   UNL     1       1.087  -0.046  -0.005  1.00  0.00     0.278 C 
ENDBRANCH  19  24
ENDBRANCH   9  18
BRANCH  10  26
ATOM     26  C   UNL     1       3.392   6.696   0.088  1.00  0.00     0.100 C 
ATOM     27  N   UNL     1       3.388   6.679  -1.173  1.00  0.00    -0.193 NA
ENDBRANCH  10  26
BRANCH  11  28
ATOM     28  C   UNL     1       1.841   4.676   4.526  1.00  0.00     0.098 C 
ATOM     29  N   UNL     1       1.199   3.796   5.163  1.00  0.00    -0.193 NA
ENDBRANCH  11  28
BRANCH  12  30
ATOM     30  N   UNL     1       5.229   8.215   1.711  1.00  0.00    -0.384 N 
ATOM     31  H   UNL     1       5.304   8.205   0.729  1.00  0.00     0.158 HD
ATOM     32  H   UNL     1       5.857   8.751   2.247  1.00  0.00     0.158 HD
ENDBRANCH  12  30
ENDBRANCH   7   8
ENDBRANCH   4   7
ENDBRANCH   2   3
ENDBRANCH   1   2
BRANCH   1  33
ATOM     33  C   UNL     1       7.923  11.947   3.591  1.00  0.00     0.023 C 
BRANCH  33  34
ATOM     34  C   UNL     1       9.143  11.591   2.774  1.00  0.00     0.116 C 
BRANCH  34  35
ATOM     35  N   UNL     1       8.882  10.756   1.605  1.00  0.00    -0.352 N 
ATOM     36  C   UNL     1       9.333  10.933   0.305  1.00  0.00     0.251 C 
ATOM     37  H   UNL     1       8.313   9.967   1.760  1.00  0.00     0.163 HD
ATOM     38  O   UNL     1       8.994  10.182  -0.581  1.00  0.00    -0.269 OA
BRANCH  36  39
ATOM     39  C   UNL     1      10.190  12.112   0.048  1.00  0.00     0.039 A 
ATOM     40  C   UNL     1       9.787  13.047  -0.904  1.00  0.00     0.014 A 
ATOM     41  C   UNL     1      11.254  12.377   0.909  1.00  0.00     0.014 A 
ATOM     42  C   UNL     1      10.380  14.312  -0.904  1.00  0.00     0.010 A 
ATOM     43  C   UNL     1      11.726  13.675   1.005  1.00  0.00     0.010 A 
ATOM     44  C   UNL     1      11.301  14.659   0.098  1.00  0.00    -0.014 A 
BRANCH  44  45
ATOM     45  C   UNL     1      11.865  16.030   0.218  1.00  0.00     0.031 A 
ATOM     46  C   UNL     1      13.362  16.204   0.215  1.00  0.00     0.074 A 
ATOM     47  C   UNL     1      11.059  17.088   0.440  1.00  0.00     0.049 A 
ATOM     48  N   UNL     1      14.077  17.262   0.491  1.00  0.00    -0.248 NA
ATOM     49  C   UNL     1      14.160  14.999  -0.066  1.00  0.00     0.031 C 
ATOM     50  C   UNL     1       9.597  17.043   0.544  1.00  0.00     0.029 A 
ATOM     51  N   UNL     1      11.358  18.414   0.630  1.00  0.00    -0.354 N 
ATOM     52  C   UNL     1      15.401  16.835   0.470  1.00  0.00     0.074 A 
ATOM     53  C   UNL     1      15.379  15.407   0.241  1.00  0.00     0.031 C 
ATOM     54  C   UNL     1       9.129  18.287   0.738  1.00  0.00     0.029 A 
ATOM     55  C   UNL     1      10.253  19.213   0.819  1.00  0.00     0.049 A 
ATOM     56  H   UNL     1      12.279  18.762   0.631  1.00  0.00     0.167 HD
ATOM     57  C   UNL     1      16.534  17.569   0.592  1.00  0.00     0.034 A 
ATOM     58  C   UNL     1      10.162  20.540   1.036  1.00  0.00     0.034 A 
ATOM     59  C   UNL     1      16.536  19.001   0.744  1.00  0.00     0.049 A 
ATOM     60  C   UNL     1      11.431  21.351   1.098  1.00  0.00     0.074 A 
ATOM     61  C   UNL     1      17.615  19.864   0.789  1.00  0.00     0.029 A 
ATOM     62  N   UNL     1      15.394  19.783   0.861  1.00  0.00    -0.354 N 
ATOM     63  N   UNL     1      12.677  20.941   1.029  1.00  0.00    -0.248 NA
ATOM     64  C   UNL     1      11.282  22.803   1.255  1.00  0.00     0.031 C 
ATOM     65  C   UNL     1      17.128  21.163   0.972  1.00  0.00     0.029 A 
ATOM     66  C   UNL     1      15.743  21.117   0.986  1.00  0.00     0.049 A 
ATOM     67  H   UNL     1      14.471  19.440   0.854  1.00  0.00     0.167 HD
ATOM     68  C   UNL     1      13.459  22.089   1.109  1.00  0.00     0.074 A 
ATOM     69  C   UNL     1      12.543  23.207   1.216  1.00  0.00     0.031 C 
ATOM     70  C   UNL     1      14.810  22.212   1.094  1.00  0.00     0.034 A 
BRANCH  57  71
ATOM     71  C   UNL     1      17.845  16.822   0.567  1.00  0.00     0.023 A 
ATOM     72  C   UNL     1      18.241  16.066  -0.552  1.00  0.00     0.031 A 
ATOM     73  C   UNL     1      18.678  16.804   1.698  1.00  0.00     0.131 A 
ATOM     74  C   UNL     1      19.373  15.242  -0.476  1.00  0.00     0.055 A 
ATOM     75  C   UNL     1      19.858  16.057   1.731  1.00  0.00     0.041 A 
ATOM     76  F   UNL     1      18.346  17.489   2.803  1.00  0.00    -0.206 F 
ATOM     77  C   UNL     1      20.200  15.252   0.647  1.00  0.00     0.022 A 
BRANCH  74  78
ATOM     78  S   UNL     1      19.645  14.030  -1.798  1.00  0.00     0.124 S 
ATOM     79  O   UNL     1      18.437  13.213  -1.698  1.00  0.00    -0.237 OA
ATOM     80  O   UNL     1      19.748  14.873  -2.984  1.00  0.00    -0.237 OA
ATOM     81  O   UNL     1      20.879  13.358  -1.399  1.00  0.00    -0.744 OA
ENDBRANCH  74  78
ENDBRANCH  57  71
BRANCH  58  82
ATOM     82  C   UNL     1       8.834  21.194   1.200  1.00  0.00     0.023 A 
ATOM     83  C   UNL     1       8.349  22.090   0.234  1.00  0.00     0.031 A 
ATOM     84  C   UNL     1       8.046  20.964   2.341  1.00  0.00     0.131 A 
ATOM     85  C   UNL     1       7.133  22.759   0.445  1.00  0.00     0.055 A 
ATOM     86  C   UNL     1       6.816  21.599   2.527  1.00  0.00     0.041 A 
ATOM     87  F   UNL     1       8.458  20.108   3.289  1.00  0.00    -0.206 F 
ATOM     88  C   UNL     1       6.359  22.513   1.581  1.00  0.00     0.022 A 
BRANCH  85  89
ATOM     89  S   UNL     1       6.612  24.013  -0.758  1.00  0.00     0.124 S 
ATOM     90  O   UNL     1       7.736  24.942  -0.727  1.00  0.00    -0.237 OA
ATOM     91  O   UNL     1       6.466  23.222  -1.975  1.00  0.00    -0.237 OA
ATOM     92  O   UNL     1       5.363  24.524  -0.197  1.00  0.00    -0.744 OA
ENDBRANCH  85  89
ENDBRANCH  58  82
BRANCH  70  93
ATOM     93  C   UNL     1      15.365  23.610   1.148  1.00  0.00     0.023 A 
ATOM     94  C   UNL     1      15.280  24.391   2.313  1.00  0.00     0.031 A 
ATOM     95  C   UNL     1      15.983  24.167   0.015  1.00  0.00     0.131 A 
ATOM     96  C   UNL     1      15.763  25.707   2.304  1.00  0.00     0.055 A 
ATOM     97  C   UNL     1      16.507  25.459   0.027  1.00  0.00     0.041 A 
ATOM     98  F   UNL     1      16.089  23.460  -1.122  1.00  0.00    -0.206 F 
ATOM     99  C   UNL     1      16.388  26.241   1.173  1.00  0.00     0.022 A 
BRANCH  96 100
ATOM    100  S   UNL     1      15.498  26.740   3.770  1.00  0.00     0.124 S 
ATOM    101  O   UNL     1      14.043  26.746   3.879  1.00  0.00    -0.237 OA
ATOM    102  O   UNL     1      16.212  26.000   4.806  1.00  0.00    -0.237 OA
ATOM    103  O   UNL     1      16.098  28.021   3.401  1.00  0.00    -0.744 OA
ENDBRANCH  96 100
ENDBRANCH  70  93
ENDBRANCH  44  45
ENDBRANCH  36  39
ENDBRANCH  34  35
ENDBRANCH  33  34
ENDBRANCH   1  33
TORSDOF 20
