REMARK SMILES C/C=C/C[N@H+]1CCC[C@H](C(=O)NCCCCNC(=O)c2ccc(-c3c4nc(c(-c5cc(S(=O)(=O)[O-])ccc5F)c5ccc([nH]5)c(-c5cc(S(=O)(=O)[O-])ccc5F)c5nc(c(-c6cc(S(=O)(=O)[O-])ccc6F)c6ccc3[nH]6)C=C5)C=C4)cc2)C1
REMARK SMILES IDX 15 1 14 2 13 3 12 4 10 5 11 6 9 8 5 9 6 10 83 11 7 13 8 14
REMARK SMILES IDX 4 15 3 16 1 17 2 18 16 19 17 20 18 21 19 23 20 24 21 25
REMARK SMILES IDX 82 26 22 27 81 28 23 29 24 30 25 31 75 32 26 33 80 34 74 35
REMARK SMILES IDX 76 36 27 37 79 38 73 39 72 40 28 42 60 43 40 44 59 45 41 46
REMARK SMILES IDX 44 47 58 48 77 49 42 50 43 51 57 53 78 54 45 55 29 56 30 57
REMARK SMILES IDX 38 58 31 59 37 60 39 61 36 62 32 63 33 64 34 65 35 66 61 67
REMARK SMILES IDX 62 68 70 69 63 70 69 71 71 72 68 73 64 74 65 75 66 76 67 77
REMARK SMILES IDX 46 78 47 79 55 80 48 81 54 82 56 83 53 84 49 85 50 86 51 87
REMARK SMILES IDX 52 88
REMARK H PARENT 12 7 5 12 17 22 76 41 44 52
REMARK Flexibility Score: inf
ROOT
ATOM      1  C   UNL     1      -0.983  -3.082   8.897  1.00  0.00     0.023 C 
ENDROOT
BRANCH   1   2
ATOM      2  C   UNL     1      -0.153  -2.261   7.915  1.00  0.00     0.023 C 
BRANCH   2   3
ATOM      3  C   UNL     1      -0.978  -1.446   6.925  1.00  0.00     0.116 C 
BRANCH   3   4
ATOM      4  N   UNL     1      -1.244  -0.106   7.398  1.00  0.00    -0.356 N 
ATOM      5  C   UNL     1      -0.817   1.099   6.947  1.00  0.00     0.228 C 
ATOM      6  O   UNL     1      -1.267   2.096   7.526  1.00  0.00    -0.275 OA
ATOM      7  H   UNL     1      -1.837  -0.061   8.183  1.00  0.00     0.163 HD
BRANCH   5   8
ATOM      8  C   UNL     1       0.182   1.288   5.803  1.00  0.00     0.133 C 
ATOM      9  N   UNL     1       0.157  -0.488   4.024  1.00  0.00    -0.331 N 
ATOM     10  C   UNL     1       1.609  -0.619   4.087  1.00  0.00     0.262 C 
ATOM     11  C   UNL     1      -0.316   0.837   4.424  1.00  0.00     0.276 C 
ATOM     12  H   UNL     1      -0.202  -1.123   4.738  1.00  0.00     0.348 HD
ATOM     13  C   UNL     1       2.099  -0.416   5.520  1.00  0.00     0.062 C 
ATOM     14  C   UNL     1       1.625   0.895   6.135  1.00  0.00     0.025 C 
BRANCH   9  15
ATOM     15  C   UNL     1      -0.435  -0.991   2.787  1.00  0.00     0.290 C 
BRANCH  15  16
ATOM     16  C   UNL     1      -0.047  -0.237   1.550  1.00  0.00     0.029 C 
ATOM     17  C   UNL     1       1.103   0.013  -0.655  1.00  0.00     0.035 C 
ATOM     18  C   UNL     1       0.719  -0.744   0.571  1.00  0.00    -0.029 C 
ENDBRANCH  15  16
ENDBRANCH   9  15
ENDBRANCH   5   8
ENDBRANCH   3   4
ENDBRANCH   2   3
ENDBRANCH   1   2
BRANCH   1  19
ATOM     19  C   UNL     1      -1.935  -4.091   8.260  1.00  0.00     0.116 C 
BRANCH  19  20
ATOM     20  N   UNL     1      -1.293  -5.023   7.341  1.00  0.00    -0.352 N 
ATOM     21  C   UNL     1      -1.619  -6.343   7.114  1.00  0.00     0.251 C 
ATOM     22  H   UNL     1      -0.537  -4.667   6.821  1.00  0.00     0.163 HD
ATOM     23  O   UNL     1      -0.946  -7.033   6.360  1.00  0.00    -0.269 OA
BRANCH  21  24
ATOM     24  C   UNL     1      -2.771  -6.915   7.842  1.00  0.00     0.039 A 
ATOM     25  C   UNL     1      -2.577  -8.049   8.633  1.00  0.00     0.014 A 
ATOM     26  C   UNL     1      -4.005  -6.260   7.826  1.00  0.00     0.014 A 
ATOM     27  C   UNL     1      -3.600  -8.474   9.483  1.00  0.00     0.010 A 
ATOM     28  C   UNL     1      -4.991  -6.638   8.729  1.00  0.00     0.010 A 
ATOM     29  C   UNL     1      -4.796  -7.742   9.574  1.00  0.00    -0.014 A 
BRANCH  29  30
ATOM     30  C   UNL     1      -5.857  -8.108  10.548  1.00  0.00     0.031 A 
ATOM     31  C   UNL     1      -7.217  -8.516  10.052  1.00  0.00     0.074 A 
ATOM     32  C   UNL     1      -5.624  -7.989  11.871  1.00  0.00     0.049 A 
ATOM     33  N   UNL     1      -8.306  -8.768  10.730  1.00  0.00    -0.248 NA
ATOM     34  C   UNL     1      -7.380  -8.612   8.593  1.00  0.00     0.031 C 
ATOM     35  C   UNL     1      -4.364  -7.544  12.473  1.00  0.00     0.029 A 
ATOM     36  N   UNL     1      -6.441  -8.220  12.949  1.00  0.00    -0.354 N 
ATOM     37  C   UNL     1      -9.290  -9.026   9.781  1.00  0.00     0.074 A 
ATOM     38  C   UNL     1      -8.680  -8.837   8.482  1.00  0.00     0.031 C 
ATOM     39  C   UNL     1      -4.487  -7.557  13.811  1.00  0.00     0.029 A 
ATOM     40  C   UNL     1      -5.840  -7.972  14.163  1.00  0.00     0.049 A 
ATOM     41  H   UNL     1      -7.370  -8.533  12.863  1.00  0.00     0.167 HD
ATOM     42  C   UNL     1     -10.577  -9.409   9.975  1.00  0.00     0.034 A 
ATOM     43  C   UNL     1      -6.329  -8.064  15.416  1.00  0.00     0.034 A 
ATOM     44  C   UNL     1     -11.161  -9.621  11.276  1.00  0.00     0.049 A 
ATOM     45  C   UNL     1      -7.753  -8.519  15.608  1.00  0.00     0.074 A 
ATOM     46  C   UNL     1     -12.432 -10.068  11.590  1.00  0.00     0.029 A 
ATOM     47  N   UNL     1     -10.508  -9.404  12.483  1.00  0.00    -0.354 N 
ATOM     48  N   UNL     1      -8.657  -8.810  14.700  1.00  0.00    -0.248 NA
ATOM     49  C   UNL     1      -8.218  -8.672  16.992  1.00  0.00     0.031 C 
ATOM     50  C   UNL     1     -12.565 -10.073  12.984  1.00  0.00     0.029 A 
ATOM     51  C   UNL     1     -11.355  -9.691  13.542  1.00  0.00     0.049 A 
ATOM     52  H   UNL     1      -9.579  -9.091  12.573  1.00  0.00     0.167 HD
ATOM     53  C   UNL     1      -9.787  -9.210  15.407  1.00  0.00     0.074 A 
ATOM     54  C   UNL     1      -9.446  -9.136  16.813  1.00  0.00     0.031 C 
ATOM     55  C   UNL     1     -10.997  -9.607  14.938  1.00  0.00     0.034 A 
BRANCH  42  56
ATOM     56  C   UNL     1     -11.432  -9.601   8.746  1.00  0.00     0.023 A 
ATOM     57  C   UNL     1     -11.128 -10.579   7.783  1.00  0.00     0.031 A 
ATOM     58  C   UNL     1     -12.539  -8.768   8.509  1.00  0.00     0.131 A 
ATOM     59  C   UNL     1     -11.864 -10.643   6.591  1.00  0.00     0.055 A 
ATOM     60  C   UNL     1     -13.322  -8.893   7.359  1.00  0.00     0.041 A 
ATOM     61  F   UNL     1     -12.868  -7.803   9.382  1.00  0.00    -0.206 F 
ATOM     62  C   UNL     1     -12.975  -9.823   6.383  1.00  0.00     0.022 A 
BRANCH  59  63
ATOM     63  S   UNL     1     -11.256 -11.708   5.255  1.00  0.00     0.124 S 
ATOM     64  O   UNL     1      -9.941 -11.126   4.992  1.00  0.00    -0.237 OA
ATOM     65  O   UNL     1     -11.257 -13.027   5.877  1.00  0.00    -0.237 OA
ATOM     66  O   UNL     1     -12.239 -11.519   4.191  1.00  0.00    -0.744 OA
ENDBRANCH  59  63
ENDBRANCH  42  56
BRANCH  43  67
ATOM     67  C   UNL     1      -5.475  -7.727  16.590  1.00  0.00     0.023 A 
ATOM     68  C   UNL     1      -5.091  -8.715  17.510  1.00  0.00     0.031 A 
ATOM     69  C   UNL     1      -5.067  -6.404  16.833  1.00  0.00     0.131 A 
ATOM     70  C   UNL     1      -4.366  -8.359  18.658  1.00  0.00     0.055 A 
ATOM     71  C   UNL     1      -4.305  -6.061  17.952  1.00  0.00     0.041 A 
ATOM     72  F   UNL     1      -5.399  -5.423  15.978  1.00  0.00    -0.206 F 
ATOM     73  C   UNL     1      -3.962  -7.040  18.880  1.00  0.00     0.022 A 
BRANCH  70  74
ATOM     74  S   UNL     1      -4.027  -9.635  19.901  1.00  0.00     0.124 S 
ATOM     75  O   UNL     1      -5.372 -10.093  20.233  1.00  0.00    -0.237 OA
ATOM     76  O   UNL     1      -3.197 -10.573  19.153  1.00  0.00    -0.237 OA
ATOM     77  O   UNL     1      -3.337  -8.903  20.961  1.00  0.00    -0.744 OA
ENDBRANCH  70  74
ENDBRANCH  43  67
BRANCH  55  78
ATOM     78  C   UNL     1     -12.017 -10.040  15.961  1.00  0.00     0.023 A 
ATOM     79  C   UNL     1     -12.605  -9.125  16.851  1.00  0.00     0.031 A 
ATOM     80  C   UNL     1     -12.391 -11.392  16.052  1.00  0.00     0.131 A 
ATOM     81  C   UNL     1     -13.498  -9.583  17.831  1.00  0.00     0.055 A 
ATOM     82  C   UNL     1     -13.321 -11.833  16.994  1.00  0.00     0.041 A 
ATOM     83  F   UNL     1     -11.858 -12.306  15.226  1.00  0.00    -0.206 F 
ATOM     84  C   UNL     1     -13.871 -10.929  17.899  1.00  0.00     0.022 A 
BRANCH  81  85
ATOM     85  S   UNL     1     -14.104  -8.409  19.073  1.00  0.00     0.124 S 
ATOM     86  O   UNL     1     -12.863  -7.941  19.681  1.00  0.00    -0.237 OA
ATOM     87  O   UNL     1     -14.822  -7.435  18.258  1.00  0.00    -0.237 OA
ATOM     88  O   UNL     1     -14.947  -9.231  19.940  1.00  0.00    -0.744 OA
ENDBRANCH  81  85
ENDBRANCH  55  78
ENDBRANCH  29  30
ENDBRANCH  21  24
ENDBRANCH  19  20
ENDBRANCH   1  19
TORSDOF 16
