REMARK SMILES O=C1O[C@@H](c2ccc(O)c(O)c2)[C@H](C(=O)NCCCCNC(=O)c2ccc(-c3c4nc(c(-c5cc(S(=O)(=O)[O-])ccc5F)c5ccc([nH]5)c(-c5cc(S(=O)(=O)[O-])ccc5F)c5nc(c(-c6cc(S(=O)(=O)[O-])ccc6F)c6ccc3[nH]6)C=C5)C=C4)cc2)/C1=C\c1ccc(O)c(O)c1
REMARK SMILES IDX 19 1 18 2 17 3 16 4 14 5 15 6 13 8 1 9 2 10 3 11 87 12 4 13
REMARK SMILES IDX 88 14 5 15 6 16 12 17 7 18 10 19 8 20 11 21 9 23 89 25 90 26
REMARK SMILES IDX 96 27 91 28 94 29 92 30 95 31 93 33 20 35 21 36 22 37 23 39
REMARK SMILES IDX 24 40 25 41 86 42 26 43 85 44 27 45 28 46 29 47 79 48 30 49
REMARK SMILES IDX 84 50 78 51 80 52 31 53 83 54 77 55 76 56 32 58 64 59 44 60
REMARK SMILES IDX 63 61 45 62 48 63 62 64 81 65 46 66 47 67 61 69 82 70 49 71
REMARK SMILES IDX 33 72 34 73 42 74 35 75 41 76 43 77 40 78 36 79 37 80 38 81
REMARK SMILES IDX 39 82 65 83 66 84 74 85 67 86 73 87 75 88 72 89 68 90 69 91
REMARK SMILES IDX 70 92 71 93 50 94 51 95 59 96 52 97 58 98 60 99 57 100
REMARK SMILES IDX 53 101 54 102 55 103 56 104
REMARK H PARENT 16 7 11 22 9 24 95 32 93 34 21 38 80 57 48 68
REMARK Flexibility Score: inf
ROOT
ATOM      1  C   UNL     1       5.842   1.963   2.710  1.00  0.00     0.023 C 
ENDROOT
BRANCH   1   2
ATOM      2  C   UNL     1       5.196   1.632   1.371  1.00  0.00     0.023 C 
BRANCH   2   3
ATOM      3  C   UNL     1       4.075   0.607   1.448  1.00  0.00     0.116 C 
BRANCH   3   4
ATOM      4  N   UNL     1       2.875   1.089   2.103  1.00  0.00    -0.355 N 
ATOM      5  C   UNL     1       1.578   1.141   1.670  1.00  0.00     0.231 C 
ATOM      6  O   UNL     1       0.726   1.436   2.509  1.00  0.00    -0.274 OA
ATOM      7  H   UNL     1       3.017   1.438   3.012  1.00  0.00     0.163 HD
BRANCH   5   8
ATOM      8  C   UNL     1       1.238   0.950   0.186  1.00  0.00     0.161 C 
ATOM      9  O   UNL     1      -1.867  -0.803  -0.131  1.00  0.00    -0.247 OA
ATOM     10  C   UNL     1      -0.709  -0.422  -0.134  1.00  0.00     0.335 C 
ATOM     11  O   UNL     1       0.375  -1.221  -0.267  1.00  0.00    -0.453 OA
ATOM     12  C   UNL     1      -0.237   0.970  -0.044  1.00  0.00     0.054 C 
ATOM     13  C   UNL     1       1.581  -0.441  -0.339  1.00  0.00     0.224 C 
ATOM     14  C   UNL     1      -1.110   1.976  -0.207  1.00  0.00     0.020 C 
BRANCH  13  15
ATOM     15  C   UNL     1       2.181  -0.455  -1.750  1.00  0.00    -0.002 A 
ATOM     16  C   UNL     1       3.229   0.424  -2.112  1.00  0.00     0.012 A 
ATOM     17  C   UNL     1       1.771  -1.405  -2.698  1.00  0.00     0.057 A 
ATOM     18  C   UNL     1       3.862   0.347  -3.357  1.00  0.00     0.050 A 
ATOM     19  C   UNL     1       2.388  -1.460  -3.943  1.00  0.00     0.157 A 
ATOM     20  C   UNL     1       3.434  -0.602  -4.268  1.00  0.00     0.157 A 
BRANCH  19  21
ATOM     21  O   UNL     1       1.965  -2.383  -4.856  1.00  0.00    -0.504 OA
ATOM     22  H   UNL     1       2.373  -2.430  -5.698  1.00  0.00     0.293 HD
ENDBRANCH  19  21
BRANCH  20  23
ATOM     23  O   UNL     1       4.016  -0.733  -5.497  1.00  0.00    -0.504 OA
ATOM     24  H   UNL     1       4.723  -0.169  -5.744  1.00  0.00     0.293 HD
ENDBRANCH  20  23
ENDBRANCH  13  15
BRANCH  14  25
ATOM     25  C   UNL     1      -0.759   3.394  -0.169  1.00  0.00    -0.021 A 
ATOM     26  C   UNL     1       0.112   3.953  -1.118  1.00  0.00     0.012 A 
ATOM     27  C   UNL     1      -1.341   4.212   0.805  1.00  0.00     0.058 A 
ATOM     28  C   UNL     1       0.431   5.313  -1.075  1.00  0.00     0.051 A 
ATOM     29  C   UNL     1      -1.028   5.564   0.832  1.00  0.00     0.157 A 
ATOM     30  C   UNL     1      -0.142   6.111  -0.093  1.00  0.00     0.157 A 
BRANCH  29  31
ATOM     31  O   UNL     1      -1.599   6.360   1.783  1.00  0.00    -0.504 OA
ATOM     32  H   UNL     1      -1.396   7.274   1.812  1.00  0.00     0.293 HD
ENDBRANCH  29  31
BRANCH  30  33
ATOM     33  O   UNL     1       0.131   7.447   0.002  1.00  0.00    -0.504 OA
ATOM     34  H   UNL     1       0.722   7.848  -0.605  1.00  0.00     0.293 HD
ENDBRANCH  30  33
ENDBRANCH  14  25
ENDBRANCH   5   8
ENDBRANCH   3   4
ENDBRANCH   2   3
ENDBRANCH   1   2
BRANCH   1  35
ATOM     35  C   UNL     1       6.312   0.756   3.510  1.00  0.00     0.116 C 
BRANCH  35  36
ATOM     36  N   UNL     1       7.304  -0.051   2.810  1.00  0.00    -0.352 N 
ATOM     37  C   UNL     1       8.495  -0.537   3.304  1.00  0.00     0.251 C 
ATOM     38  H   UNL     1       7.099  -0.274   1.873  1.00  0.00     0.163 HD
ATOM     39  O   UNL     1       9.300  -1.089   2.563  1.00  0.00    -0.269 OA
BRANCH  37  40
ATOM     40  C   UNL     1       8.787  -0.335   4.738  1.00  0.00     0.039 A 
ATOM     41  C   UNL     1       9.964   0.313   5.114  1.00  0.00     0.014 A 
ATOM     42  C   UNL     1       7.824  -0.679   5.690  1.00  0.00     0.014 A 
ATOM     43  C   UNL     1      10.137   0.697   6.447  1.00  0.00     0.010 A 
ATOM     44  C   UNL     1       7.957  -0.213   6.990  1.00  0.00     0.010 A 
ATOM     45  C   UNL     1       9.114   0.480   7.385  1.00  0.00    -0.014 A 
BRANCH  45  46
ATOM     46  C   UNL     1       9.225   0.930   8.797  1.00  0.00     0.031 A 
ATOM     47  C   UNL     1       9.167  -0.096   9.897  1.00  0.00     0.074 A 
ATOM     48  C   UNL     1       9.285   2.244   9.098  1.00  0.00     0.049 A 
ATOM     49  N   UNL     1       9.063   0.076  11.188  1.00  0.00    -0.248 NA
ATOM     50  C   UNL     1       9.188  -1.506   9.476  1.00  0.00     0.031 C 
ATOM     51  C   UNL     1       9.335   3.336   8.124  1.00  0.00     0.029 A 
ATOM     52  N   UNL     1       9.296   2.885  10.313  1.00  0.00    -0.354 N 
ATOM     53  C   UNL     1       8.987  -1.202  11.732  1.00  0.00     0.074 A 
ATOM     54  C   UNL     1       8.982  -2.131  10.623  1.00  0.00     0.031 C 
ATOM     55  C   UNL     1       9.393   4.508   8.780  1.00  0.00     0.029 A 
ATOM     56  C   UNL     1       9.319   4.258  10.217  1.00  0.00     0.049 A 
ATOM     57  H   UNL     1       9.287   2.406  11.173  1.00  0.00     0.167 HD
ATOM     58  C   UNL     1       8.953  -1.568  13.036  1.00  0.00     0.034 A 
ATOM     59  C   UNL     1       9.262   5.206  11.175  1.00  0.00     0.034 A 
ATOM     60  C   UNL     1       8.970  -0.629  14.129  1.00  0.00     0.049 A 
ATOM     61  C   UNL     1       9.159   4.777  12.621  1.00  0.00     0.074 A 
ATOM     62  C   UNL     1       8.967  -0.890  15.488  1.00  0.00     0.029 A 
ATOM     63  N   UNL     1       8.991   0.753  13.989  1.00  0.00    -0.354 N 
ATOM     64  N   UNL     1       9.104   3.563  13.121  1.00  0.00    -0.248 NA
ATOM     65  C   UNL     1       9.115   5.843  13.631  1.00  0.00     0.031 C 
ATOM     66  C   UNL     1       8.908   0.330  16.167  1.00  0.00     0.029 A 
ATOM     67  C   UNL     1       8.974   1.355  15.237  1.00  0.00     0.049 A 
ATOM     68  H   UNL     1       9.014   1.234  13.131  1.00  0.00     0.167 HD
ATOM     69  C   UNL     1       9.073   3.724  14.505  1.00  0.00     0.074 A 
ATOM     70  C   UNL     1       9.113   5.148  14.759  1.00  0.00     0.031 C 
ATOM     71  C   UNL     1       9.030   2.778  15.477  1.00  0.00     0.034 A 
BRANCH  58  72
ATOM     72  C   UNL     1       8.869  -3.044  13.340  1.00  0.00     0.023 A 
ATOM     73  C   UNL     1       9.880  -3.937  12.942  1.00  0.00     0.031 A 
ATOM     74  C   UNL     1       7.751  -3.574  14.008  1.00  0.00     0.131 A 
ATOM     75  C   UNL     1       9.714  -5.315  13.138  1.00  0.00     0.055 A 
ATOM     76  C   UNL     1       7.636  -4.938  14.284  1.00  0.00     0.041 A 
ATOM     77  F   UNL     1       6.741  -2.777  14.390  1.00  0.00    -0.206 F 
ATOM     78  C   UNL     1       8.614  -5.820  13.833  1.00  0.00     0.022 A 
BRANCH  75  79
ATOM     79  S   UNL     1      10.878  -6.446  12.327  1.00  0.00     0.124 S 
ATOM     80  O   UNL     1      10.706  -6.085  10.922  1.00  0.00    -0.237 OA
ATOM     81  O   UNL     1      12.152  -6.074  12.930  1.00  0.00    -0.237 OA
ATOM     82  O   UNL     1      10.377  -7.770  12.689  1.00  0.00    -0.744 OA
ENDBRANCH  75  79
ENDBRANCH  58  72
BRANCH  59  83
ATOM     83  C   UNL     1       9.285   6.656  10.818  1.00  0.00     0.023 A 
ATOM     84  C   UNL     1      10.320   7.492  11.267  1.00  0.00     0.031 A 
ATOM     85  C   UNL     1       8.240   7.244  10.082  1.00  0.00     0.131 A 
ATOM     86  C   UNL     1      10.259   8.874  11.031  1.00  0.00     0.055 A 
ATOM     87  C   UNL     1       8.217   8.610   9.794  1.00  0.00     0.041 A 
ATOM     88  F   UNL     1       7.223   6.495   9.627  1.00  0.00    -0.206 F 
ATOM     89  C   UNL     1       9.222   9.437  10.284  1.00  0.00     0.022 A 
BRANCH  86  90
ATOM     90  S   UNL     1      11.496   9.944  11.817  1.00  0.00     0.124 S 
ATOM     91  O   UNL     1      11.309   9.622  13.227  1.00  0.00    -0.237 OA
ATOM     92  O   UNL     1      12.734   9.471  11.208  1.00  0.00    -0.237 OA
ATOM     93  O   UNL     1      11.082  11.288  11.422  1.00  0.00    -0.744 OA
ENDBRANCH  86  90
ENDBRANCH  59  83
BRANCH  71  94
ATOM     94  C   UNL     1       9.116   3.243  16.911  1.00  0.00     0.023 A 
ATOM     95  C   UNL     1       8.093   3.986  17.524  1.00  0.00     0.031 A 
ATOM     96  C   UNL     1      10.242   2.904  17.684  1.00  0.00     0.131 A 
ATOM     97  C   UNL     1       8.236   4.399  18.859  1.00  0.00     0.055 A 
ATOM     98  C   UNL     1      10.349   3.262  19.028  1.00  0.00     0.041 A 
ATOM     99  F   UNL     1      11.252   2.200  17.148  1.00  0.00    -0.206 F 
ATOM    100  C   UNL     1       9.346   4.023  19.620  1.00  0.00     0.022 A 
BRANCH  97 101
ATOM    101  S   UNL     1       6.984   5.502  19.571  1.00  0.00     0.124 S 
ATOM    102  O   UNL     1       7.047   6.651  18.674  1.00  0.00    -0.237 OA
ATOM    103  O   UNL     1       5.772   4.694  19.488  1.00  0.00    -0.237 OA
ATOM    104  O   UNL     1       7.473   5.746  20.927  1.00  0.00    -0.744 OA
ENDBRANCH  97 101
ENDBRANCH  71  94
ENDBRANCH  45  46
ENDBRANCH  37  40
ENDBRANCH  35  36
ENDBRANCH   1  35
TORSDOF 20
