REMARK SMILES CC1(CNS(=O)(=O)Cc2ccc(C(=O)NCCCCNC(=O)c3ccc(-c4c5nc(c(-c6cc(S(=O)(=O)[O-])ccc6F)c6ccc([nH]6)c(-c6cc(S(=O)(=O)[O-])ccc6F)c6nc(c(-c7cc(S(=O)(=O)[O-])ccc7F)c7ccc4[nH]7)C=C6)C=C5)cc3)cc2)COC1
REMARK SMILES IDX 16 1 15 2 13 3 14 4 12 6 9 7 10 8 87 9 11 10 86 11 8 12 5 13
REMARK SMILES IDX 6 14 7 15 4 16 3 18 2 19 1 20 88 21 90 22 89 23 17 24 18 25
REMARK SMILES IDX 19 26 20 27 21 28 22 30 23 31 24 32 85 33 25 34 84 35 26 36
REMARK SMILES IDX 27 37 28 38 78 39 29 40 83 41 77 42 79 43 30 44 82 45 76 46
REMARK SMILES IDX 75 47 31 49 63 50 43 51 62 52 44 53 47 54 61 55 80 56 45 57
REMARK SMILES IDX 46 58 60 60 81 61 48 62 32 63 33 64 41 65 34 66 40 67 42 68
REMARK SMILES IDX 39 69 35 70 36 71 37 72 38 73 64 74 65 75 73 76 66 77 72 78
REMARK SMILES IDX 74 79 71 80 67 81 68 82 69 83 70 84 49 85 50 86 58 87 51 88
REMARK SMILES IDX 57 89 59 90 56 91 52 92 53 93 54 94 55 95
REMARK H PARENT 15 5 4 17 20 29 79 48 47 59
REMARK Flexibility Score: inf
ROOT
ATOM      1  C   UNL     1       5.642  -0.031   4.073  1.00  0.00     0.116 C 
ENDROOT
BRANCH   1   2
ATOM      2  N   UNL     1       5.339  -1.435   4.280  1.00  0.00    -0.352 N 
ATOM      3  C   UNL     1       4.988  -2.437   3.409  1.00  0.00     0.251 C 
ATOM      4  O   UNL     1       4.806  -3.565   3.868  1.00  0.00    -0.269 OA
ATOM      5  H   UNL     1       5.396  -1.723   5.220  1.00  0.00     0.163 HD
BRANCH   3   6
ATOM      6  C   UNL     1       4.863  -2.230   1.939  1.00  0.00     0.039 A 
ATOM      7  C   UNL     1       4.738  -1.950  -0.891  1.00  0.00    -0.032 A 
ATOM      8  C   UNL     1       4.946  -3.205  -0.291  1.00  0.00     0.005 A 
ATOM      9  C   UNL     1       4.599  -0.854  -0.043  1.00  0.00     0.005 A 
ATOM     10  C   UNL     1       5.023  -3.341   1.102  1.00  0.00     0.014 A 
ATOM     11  C   UNL     1       4.587  -1.006   1.343  1.00  0.00     0.014 A 
BRANCH   7  12
ATOM     12  C   UNL     1       4.674  -1.893  -2.399  1.00  0.00     0.189 C 
BRANCH  12  13
ATOM     13  S   UNL     1       4.288  -0.299  -3.142  1.00  0.00     0.215 S 
ATOM     14  O   UNL     1       3.818  -0.522  -4.490  1.00  0.00    -0.212 OA
ATOM     15  O   UNL     1       5.381   0.620  -2.892  1.00  0.00    -0.212 OA
BRANCH  13  16
ATOM     16  N   UNL     1       2.986   0.324  -2.276  1.00  0.00    -0.214 NA
ATOM     17  H   UNL     1       3.238   0.284  -1.289  1.00  0.00     0.141 HD
BRANCH  16  18
ATOM     18  C   UNL     1       1.669  -0.316  -2.412  1.00  0.00     0.110 C 
BRANCH  18  19
ATOM     19  C   UNL     1       0.660   0.242  -1.401  1.00  0.00     0.028 C 
ATOM     20  C   UNL     1       1.034   0.020   0.058  1.00  0.00     0.018 C 
ATOM     21  C   UNL     1      -0.782  -0.189  -1.736  1.00  0.00     0.170 C 
ATOM     22  C   UNL     1       0.132   1.651  -1.740  1.00  0.00     0.170 C 
ATOM     23  O   UNL     1      -1.030   1.080  -2.397  1.00  0.00    -0.380 OA
ENDBRANCH  18  19
ENDBRANCH  16  18
ENDBRANCH  13  16
ENDBRANCH  12  13
ENDBRANCH   7  12
ENDBRANCH   3   6
ENDBRANCH   1   2
BRANCH   1  24
ATOM     24  C   UNL     1       4.396   0.828   4.312  1.00  0.00     0.023 C 
BRANCH  24  25
ATOM     25  C   UNL     1       4.139   1.141   5.785  1.00  0.00     0.023 C 
BRANCH  25  26
ATOM     26  C   UNL     1       5.233   1.967   6.449  1.00  0.00     0.116 C 
BRANCH  26  27
ATOM     27  N   UNL     1       5.449   3.252   5.801  1.00  0.00    -0.352 N 
ATOM     28  C   UNL     1       5.804   4.444   6.385  1.00  0.00     0.251 C 
ATOM     29  H   UNL     1       5.327   3.269   4.824  1.00  0.00     0.163 HD
ATOM     30  O   UNL     1       5.812   5.477   5.724  1.00  0.00    -0.269 OA
BRANCH  28  31
ATOM     31  C   UNL     1       6.125   4.462   7.827  1.00  0.00     0.039 A 
ATOM     32  C   UNL     1       5.503   5.404   8.646  1.00  0.00     0.014 A 
ATOM     33  C   UNL     1       6.989   3.507   8.372  1.00  0.00     0.014 A 
ATOM     34  C   UNL     1       5.700   5.348  10.026  1.00  0.00     0.010 A 
ATOM     35  C   UNL     1       7.114   3.400   9.752  1.00  0.00     0.010 A 
ATOM     36  C   UNL     1       6.475   4.322  10.594  1.00  0.00    -0.014 A 
BRANCH  36  37
ATOM     37  C   UNL     1       6.629   4.204  12.067  1.00  0.00     0.031 A 
ATOM     38  C   UNL     1       7.990   4.342  12.694  1.00  0.00     0.074 A 
ATOM     39  C   UNL     1       5.554   3.928  12.831  1.00  0.00     0.049 A 
ATOM     40  N   UNL     1       8.338   4.227  13.950  1.00  0.00    -0.248 NA
ATOM     41  C   UNL     1       9.113   4.615  11.783  1.00  0.00     0.031 C 
ATOM     42  C   UNL     1       4.191   3.731  12.331  1.00  0.00     0.029 A 
ATOM     43  N   UNL     1       5.433   3.763  14.188  1.00  0.00    -0.354 N 
ATOM     44  C   UNL     1       9.716   4.407  13.979  1.00  0.00     0.074 A 
ATOM     45  C   UNL     1      10.148   4.565  12.607  1.00  0.00     0.031 C 
ATOM     46  C   UNL     1       3.369   3.509  13.369  1.00  0.00     0.029 A 
ATOM     47  C   UNL     1       4.149   3.494  14.602  1.00  0.00     0.049 A 
ATOM     48  H   UNL     1       6.195   3.831  14.808  1.00  0.00     0.167 HD
ATOM     49  C   UNL     1      10.542   4.464  15.053  1.00  0.00     0.034 A 
ATOM     50  C   UNL     1       3.657   3.250  15.834  1.00  0.00     0.034 A 
ATOM     51  C   UNL     1      10.092   4.309  16.415  1.00  0.00     0.049 A 
ATOM     52  C   UNL     1       4.602   3.279  17.010  1.00  0.00     0.074 A 
ATOM     53  C   UNL     1      10.832   4.397  17.581  1.00  0.00     0.029 A 
ATOM     54  N   UNL     1       8.786   4.023  16.796  1.00  0.00    -0.354 N 
ATOM     55  N   UNL     1       5.895   3.506  17.026  1.00  0.00    -0.248 NA
ATOM     56  C   UNL     1       4.018   3.030  18.334  1.00  0.00     0.031 C 
ATOM     57  C   UNL     1       9.994   4.083  18.657  1.00  0.00     0.029 A 
ATOM     58  C   UNL     1       8.709   3.893  18.174  1.00  0.00     0.049 A 
ATOM     59  H   UNL     1       8.027   3.926  16.177  1.00  0.00     0.167 HD
ATOM     60  C   UNL     1       6.271   3.462  18.366  1.00  0.00     0.074 A 
ATOM     61  C   UNL     1       5.065   3.203  19.126  1.00  0.00     0.031 C 
ATOM     62  C   UNL     1       7.501   3.624  18.920  1.00  0.00     0.034 A 
BRANCH  49  63
ATOM     63  C   UNL     1      12.015   4.675  14.790  1.00  0.00     0.023 A 
ATOM     64  C   UNL     1      12.494   5.837  14.158  1.00  0.00     0.031 A 
ATOM     65  C   UNL     1      12.952   3.692  15.153  1.00  0.00     0.131 A 
ATOM     66  C   UNL     1      13.855   5.951  13.838  1.00  0.00     0.055 A 
ATOM     67  C   UNL     1      14.319   3.853  14.914  1.00  0.00     0.041 A 
ATOM     68  F   UNL     1      12.555   2.551  15.738  1.00  0.00    -0.206 F 
ATOM     69  C   UNL     1      14.776   4.980  14.238  1.00  0.00     0.022 A 
BRANCH  66  70
ATOM     70  S   UNL     1      14.379   7.310  12.758  1.00  0.00     0.124 S 
ATOM     71  O   UNL     1      13.563   7.072  11.569  1.00  0.00    -0.237 OA
ATOM     72  O   UNL     1      14.034   8.489  13.543  1.00  0.00    -0.237 OA
ATOM     73  O   UNL     1      15.810   7.074  12.579  1.00  0.00    -0.744 OA
ENDBRANCH  66  70
ENDBRANCH  49  63
BRANCH  50  74
ATOM     74  C   UNL     1       2.208   2.948  16.026  1.00  0.00     0.023 A 
ATOM     75  C   UNL     1       1.387   3.789  16.796  1.00  0.00     0.031 A 
ATOM     76  C   UNL     1       1.632   1.784  15.484  1.00  0.00     0.131 A 
ATOM     77  C   UNL     1       0.054   3.428  17.046  1.00  0.00     0.055 A 
ATOM     78  C   UNL     1       0.289   1.462  15.685  1.00  0.00     0.041 A 
ATOM     79  F   UNL     1       2.369   0.945  14.739  1.00  0.00    -0.206 F 
ATOM     80  C   UNL     1      -0.505   2.279  16.483  1.00  0.00     0.022 A 
BRANCH  77  81
ATOM     81  S   UNL     1      -0.913   4.432  18.207  1.00  0.00     0.124 S 
ATOM     82  O   UNL     1      -0.098   4.359  19.413  1.00  0.00    -0.237 OA
ATOM     83  O   UNL     1      -0.948   5.725  17.532  1.00  0.00    -0.237 OA
ATOM     84  O   UNL     1      -2.195   3.732  18.275  1.00  0.00    -0.744 OA
ENDBRANCH  77  81
ENDBRANCH  50  74
BRANCH  62  85
ATOM     85  C   UNL     1       7.589   3.578  20.427  1.00  0.00     0.023 A 
ATOM     86  C   UNL     1       7.302   2.409  21.153  1.00  0.00     0.031 A 
ATOM     87  C   UNL     1       7.958   4.728  21.148  1.00  0.00     0.131 A 
ATOM     88  C   UNL     1       7.327   2.433  22.556  1.00  0.00     0.055 A 
ATOM     89  C   UNL     1       8.051   4.726  22.540  1.00  0.00     0.041 A 
ATOM     90  F   UNL     1       8.239   5.875  20.509  1.00  0.00    -0.206 F 
ATOM     91  C   UNL     1       7.720   3.578  23.253  1.00  0.00     0.022 A 
BRANCH  88  92
ATOM     92  S   UNL     1       6.733   0.978  23.463  1.00  0.00     0.124 S 
ATOM     93  O   UNL     1       5.373   0.839  22.953  1.00  0.00    -0.237 OA
ATOM     94  O   UNL     1       7.678  -0.054  23.049  1.00  0.00    -0.237 OA
ATOM     95  O   UNL     1       6.832   1.384  24.864  1.00  0.00    -0.744 OA
ENDBRANCH  88  92
ENDBRANCH  62  85
ENDBRANCH  36  37
ENDBRANCH  28  31
ENDBRANCH  26  27
ENDBRANCH  25  26
ENDBRANCH  24  25
ENDBRANCH   1  24
TORSDOF 19
