REMARK SMILES C[C@H]1Cc2cc(C(=O)[C@H](Br)CC(=O)NCCCCNC(=O)c3ccc(-c4c5nc(c(-c6cc(S(=O)(=O)[O-])ccc6F)c6ccc([nH]6)c(-c6cc(S(=O)(=O)[O-])ccc6F)c6nc(c(-c7cc(S(=O)(=O)[O-])ccc7F)c7ccc4[nH]7)C=C6)C=C5)cc3)ccc2O1
REMARK SMILES IDX 16 1 15 2 14 3 12 4 13 5 11 7 9 8 10 9 7 10 8 11 6 12 1 13
REMARK SMILES IDX 2 14 3 15 88 16 4 17 87 18 5 19 86 20 85 21 17 22 18 23
REMARK SMILES IDX 19 24 20 25 21 27 22 28 23 29 84 30 24 31 83 32 25 33 26 34
REMARK SMILES IDX 27 35 77 36 28 37 82 38 76 39 78 40 29 41 81 42 75 43 74 44
REMARK SMILES IDX 30 46 62 47 42 48 61 49 43 50 46 51 60 52 79 53 44 54 45 55
REMARK SMILES IDX 59 57 80 58 47 59 31 60 32 61 40 62 33 63 39 64 41 65 38 66
REMARK SMILES IDX 34 67 35 68 36 69 37 70 63 71 64 72 72 73 65 74 71 75 73 76
REMARK SMILES IDX 70 77 66 78 67 79 68 80 69 81 48 82 49 83 57 84 50 85 56 86
REMARK SMILES IDX 58 87 55 88 51 89 52 90 53 91 54 92
REMARK H PARENT 14 6 19 26 78 45 46 56
REMARK Flexibility Score: inf
ROOT
ATOM      1  C   UNL     1       4.317   3.154   4.321  1.00  0.00     0.023 C 
ENDROOT
BRANCH   1   2
ATOM      2  C   UNL     1       5.167   1.885   4.372  1.00  0.00     0.116 C 
BRANCH   2   3
ATOM      3  N   UNL     1       6.334   2.053   5.222  1.00  0.00    -0.356 N 
ATOM      4  C   UNL     1       6.638   1.474   6.419  1.00  0.00     0.221 C 
ATOM      5  O   UNL     1       7.644   1.839   7.025  1.00  0.00    -0.275 OA
ATOM      6  H   UNL     1       7.010   2.682   4.881  1.00  0.00     0.163 HD
BRANCH   4   7
ATOM      7  C   UNL     1       5.758   0.380   6.976  1.00  0.00     0.123 C 
BRANCH   7   8
ATOM      8  C   UNL     1       4.892   0.835   8.134  1.00  0.00     0.138 C 
ATOM      9  Br  UNL     1       3.677   2.308   7.769  1.00  0.00    -0.080 Br
BRANCH   8  10
ATOM     10  C   UNL     1       4.072  -0.287   8.753  1.00  0.00     0.176 C 
ATOM     11  O   UNL     1       4.411  -0.764   9.841  1.00  0.00    -0.293 OA
BRANCH  10  12
ATOM     12  C   UNL     1       2.854  -0.875   8.088  1.00  0.00     0.019 A 
ATOM     13  C   UNL     1      -1.070  -4.834   7.550  1.00  0.00     0.053 C 
ATOM     14  C   UNL     1      -1.082  -3.324   7.751  1.00  0.00     0.174 C 
ATOM     15  C   UNL     1      -0.274  -2.889   8.988  1.00  0.00     0.084 C 
ATOM     16  O   UNL     1      -0.539  -2.696   6.562  1.00  0.00    -0.490 OA
ATOM     17  C   UNL     1       0.833  -2.158   8.338  1.00  0.00    -0.001 A 
ATOM     18  C   UNL     1       0.599  -2.066   6.981  1.00  0.00     0.123 A 
ATOM     19  C   UNL     1       1.954  -1.576   8.909  1.00  0.00     0.019 A 
ATOM     20  C   UNL     1       1.450  -1.379   6.146  1.00  0.00     0.047 A 
ATOM     21  C   UNL     1       2.578  -0.772   6.709  1.00  0.00     0.015 A 
ENDBRANCH  10  12
ENDBRANCH   8  10
ENDBRANCH   7   8
ENDBRANCH   4   7
ENDBRANCH   2   3
ENDBRANCH   1   2
BRANCH   1  22
ATOM     22  C   UNL     1       4.825   4.220   3.359  1.00  0.00     0.023 C 
BRANCH  22  23
ATOM     23  C   UNL     1       4.807   3.817   1.893  1.00  0.00     0.116 C 
BRANCH  23  24
ATOM     24  N   UNL     1       3.481   3.478   1.386  1.00  0.00    -0.352 N 
ATOM     25  C   UNL     1       2.931   3.816   0.167  1.00  0.00     0.251 C 
ATOM     26  H   UNL     1       2.910   2.946   1.986  1.00  0.00     0.163 HD
ATOM     27  O   UNL     1       1.775   3.518  -0.108  1.00  0.00    -0.269 OA
BRANCH  25  28
ATOM     28  C   UNL     1       3.762   4.599  -0.769  1.00  0.00     0.039 A 
ATOM     29  C   UNL     1       5.048   4.154  -1.075  1.00  0.00     0.014 A 
ATOM     30  C   UNL     1       3.324   5.862  -1.173  1.00  0.00     0.014 A 
ATOM     31  C   UNL     1       5.968   5.059  -1.584  1.00  0.00     0.010 A 
ATOM     32  C   UNL     1       4.228   6.735  -1.781  1.00  0.00     0.010 A 
ATOM     33  C   UNL     1       5.576   6.367  -1.921  1.00  0.00    -0.014 A 
BRANCH  33  34
ATOM     34  C   UNL     1       6.606   7.338  -2.375  1.00  0.00     0.031 A 
ATOM     35  C   UNL     1       6.925   8.566  -1.563  1.00  0.00     0.074 A 
ATOM     36  C   UNL     1       7.320   7.058  -3.481  1.00  0.00     0.049 A 
ATOM     37  N   UNL     1       7.809   9.501  -1.800  1.00  0.00    -0.248 NA
ATOM     38  C   UNL     1       6.154   8.776  -0.327  1.00  0.00     0.031 C 
ATOM     39  C   UNL     1       7.114   5.881  -4.324  1.00  0.00     0.029 A 
ATOM     40  N   UNL     1       8.380   7.707  -4.062  1.00  0.00    -0.354 N 
ATOM     41  C   UNL     1       7.689  10.418  -0.761  1.00  0.00     0.074 A 
ATOM     42  C   UNL     1       6.623   9.943   0.095  1.00  0.00     0.031 C 
ATOM     43  C   UNL     1       8.066   5.847  -5.265  1.00  0.00     0.029 A 
ATOM     44  C   UNL     1       8.895   7.045  -5.152  1.00  0.00     0.049 A 
ATOM     45  H   UNL     1       8.736   8.562  -3.732  1.00  0.00     0.167 HD
ATOM     46  C   UNL     1       8.408  11.543  -0.535  1.00  0.00     0.034 A 
ATOM     47  C   UNL     1       9.911   7.364  -5.978  1.00  0.00     0.034 A 
ATOM     48  C   UNL     1       9.478  11.996  -1.388  1.00  0.00     0.049 A 
ATOM     49  C   UNL     1      10.680   8.631  -5.723  1.00  0.00     0.074 A 
ATOM     50  C   UNL     1      10.251  13.137  -1.261  1.00  0.00     0.029 A 
ATOM     51  N   UNL     1       9.939  11.325  -2.513  1.00  0.00    -0.354 N 
ATOM     52  N   UNL     1      10.533   9.499  -4.750  1.00  0.00    -0.248 NA
ATOM     53  C   UNL     1      11.742   8.973  -6.678  1.00  0.00     0.031 C 
ATOM     54  C   UNL     1      11.154  13.174  -2.327  1.00  0.00     0.029 A 
ATOM     55  C   UNL     1      10.979  12.032  -3.093  1.00  0.00     0.049 A 
ATOM     56  H   UNL     1       9.579  10.473  -2.848  1.00  0.00     0.167 HD
ATOM     57  C   UNL     1      11.482  10.490  -4.974  1.00  0.00     0.074 A 
ATOM     58  C   UNL     1      12.220  10.096  -6.157  1.00  0.00     0.031 C 
ATOM     59  C   UNL     1      11.708  11.629  -4.272  1.00  0.00     0.034 A 
BRANCH  46  60
ATOM     60  C   UNL     1       8.077  12.371   0.682  1.00  0.00     0.023 A 
ATOM     61  C   UNL     1       7.550  13.668   0.537  1.00  0.00     0.031 A 
ATOM     62  C   UNL     1       8.367  11.912   1.980  1.00  0.00     0.131 A 
ATOM     63  C   UNL     1       7.342  14.466   1.670  1.00  0.00     0.055 A 
ATOM     64  C   UNL     1       8.132  12.700   3.107  1.00  0.00     0.041 A 
ATOM     65  F   UNL     1       8.865  10.679   2.170  1.00  0.00    -0.206 F 
ATOM     66  C   UNL     1       7.626  13.988   2.954  1.00  0.00     0.022 A 
BRANCH  63  67
ATOM     67  S   UNL     1       6.746  16.173   1.521  1.00  0.00     0.124 S 
ATOM     68  O   UNL     1       5.444  16.091   2.179  1.00  0.00    -0.237 OA
ATOM     69  O   UNL     1       7.767  16.921   2.249  1.00  0.00    -0.237 OA
ATOM     70  O   UNL     1       6.704  16.405   0.082  1.00  0.00    -0.744 OA
ENDBRANCH  63  67
ENDBRANCH  46  60
BRANCH  47  71
ATOM     71  C   UNL     1      10.255   6.423  -7.081  1.00  0.00     0.023 A 
ATOM     72  C   UNL     1       9.311   6.109  -8.077  1.00  0.00     0.031 A 
ATOM     73  C   UNL     1      11.458   5.700  -7.057  1.00  0.00     0.131 A 
ATOM     74  C   UNL     1       9.542   5.031  -8.939  1.00  0.00     0.055 A 
ATOM     75  C   UNL     1      11.719   4.678  -7.972  1.00  0.00     0.041 A 
ATOM     76  F   UNL     1      12.382   5.956  -6.118  1.00  0.00    -0.206 F 
ATOM     77  C   UNL     1      10.747   4.323  -8.903  1.00  0.00     0.022 A 
BRANCH  74  78
ATOM     78  S   UNL     1       8.220   4.404 -10.012  1.00  0.00     0.124 S 
ATOM     79  O   UNL     1       8.825   4.508 -11.336  1.00  0.00    -0.237 OA
ATOM     80  O   UNL     1       8.043   3.046  -9.502  1.00  0.00    -0.237 OA
ATOM     81  O   UNL     1       7.107   5.312  -9.754  1.00  0.00    -0.744 OA
ENDBRANCH  74  78
ENDBRANCH  47  71
BRANCH  59  82
ATOM     82  C   UNL     1      12.787  12.562  -4.758  1.00  0.00     0.023 A 
ATOM     83  C   UNL     1      13.938  12.782  -3.978  1.00  0.00     0.031 A 
ATOM     84  C   UNL     1      12.606  13.336  -5.917  1.00  0.00     0.131 A 
ATOM     85  C   UNL     1      14.849  13.777  -4.351  1.00  0.00     0.055 A 
ATOM     86  C   UNL     1      13.536  14.302  -6.303  1.00  0.00     0.041 A 
ATOM     87  F   UNL     1      11.519  13.166  -6.686  1.00  0.00    -0.206 F 
ATOM     88  C   UNL     1      14.657  14.534  -5.512  1.00  0.00     0.022 A 
BRANCH  85  89
ATOM     89  S   UNL     1      16.280  14.176  -3.310  1.00  0.00     0.124 S 
ATOM     90  O   UNL     1      17.395  13.911  -4.215  1.00  0.00    -0.237 OA
ATOM     91  O   UNL     1      16.050  15.584  -2.998  1.00  0.00    -0.237 OA
ATOM     92  O   UNL     1      16.163  13.257  -2.183  1.00  0.00    -0.744 OA
ENDBRANCH  85  89
ENDBRANCH  59  82
ENDBRANCH  33  34
ENDBRANCH  25  28
ENDBRANCH  23  24
ENDBRANCH  22  23
ENDBRANCH   1  22
TORSDOF 17
