REMARK SMILES C#CCN(CC(=O)NCCCCNC(=O)c1ccc(-c2c3nc(c(-c4cc(S(=O)(=O)[O-])ccc4F)c4ccc([nH]4)c(-c4cc(S(=O)(=O)[O-])ccc4F)c4nc(c(-c5cc(S(=O)(=O)[O-])ccc5F)c5ccc2[nH]5)C=C4)C=C3)cc1)C(=O)N(C)[C@H](C)c1cccs1
REMARK SMILES IDX 9 1 8 2 6 3 7 4 5 6 4 7 3 8 2 9 1 10 79 11 80 12 81 13 82 14
REMARK SMILES IDX 83 15 84 16 85 17 86 18 89 19 87 20 88 21 10 22 11 23 12 24
REMARK SMILES IDX 13 25 14 26 15 28 16 29 17 30 78 31 18 32 77 33 19 34 20 35
REMARK SMILES IDX 21 36 71 37 22 38 76 39 70 40 72 41 23 42 75 43 69 44 68 45
REMARK SMILES IDX 24 47 56 48 36 49 55 50 37 51 40 52 54 53 73 54 38 55 39 56
REMARK SMILES IDX 53 58 74 59 41 60 25 61 26 62 34 63 27 64 33 65 35 66 32 67
REMARK SMILES IDX 28 68 29 69 30 70 31 71 57 72 58 73 66 74 59 75 65 76 67 77
REMARK SMILES IDX 64 78 60 79 61 80 62 81 63 82 42 83 43 84 51 85 44 86 50 87
REMARK SMILES IDX 52 88 49 89 45 90 46 91 47 92 48 93
REMARK H PARENT 8 5 13 27 72 46 40 57
REMARK Flexibility Score: inf
ROOT
ATOM      1  C   UNL     1      -1.428   0.651  -6.905  1.00  0.00     0.116 C 
ENDROOT
BRANCH   1   2
ATOM      2  N   UNL     1      -1.397  -0.731  -7.331  1.00  0.00    -0.355 N 
ATOM      3  C   UNL     1      -2.393  -1.663  -7.293  1.00  0.00     0.239 C 
ATOM      4  O   UNL     1      -2.265  -2.675  -7.989  1.00  0.00    -0.273 OA
ATOM      5  H   UNL     1      -0.538  -1.043  -7.699  1.00  0.00     0.163 HD
BRANCH   3   6
ATOM      6  C   UNL     1      -3.706  -1.398  -6.541  1.00  0.00     0.222 C 
BRANCH   6   7
ATOM      7  N   UNL     1      -3.560  -1.002  -5.138  1.00  0.00    -0.304 N 
BRANCH   7   8
ATOM      8  C   UNL     1      -4.045   0.348  -4.813  1.00  0.00     0.211 C 
BRANCH   8   9
ATOM      9  C   UNL     1      -5.185   0.315  -3.808  1.00  0.00    -0.085 C 
ATOM     10  C   UNL     1      -6.162   0.286  -2.946  1.00  0.00     0.006 C 
ENDBRANCH   8   9
ENDBRANCH   7   8
BRANCH   7  11
ATOM     11  C   UNL     1      -2.953  -1.697  -4.100  1.00  0.00     0.321 C 
ATOM     12  O   UNL     1      -2.553  -1.037  -3.132  1.00  0.00    -0.248 OA
BRANCH  11  13
ATOM     13  N   UNL     1      -2.808  -3.076  -4.096  1.00  0.00    -0.320 N 
ATOM     14  C   UNL     1      -3.038  -3.999  -5.202  1.00  0.00     0.149 C 
BRANCH  13  15
ATOM     15  C   UNL     1      -2.189  -3.741  -2.918  1.00  0.00     0.124 C 
ATOM     16  C   UNL     1      -2.609  -3.281  -1.511  1.00  0.00     0.037 C 
BRANCH  15  17
ATOM     17  C   UNL     1      -0.688  -3.848  -3.086  1.00  0.00     0.027 A 
ATOM     18  C   UNL     1       0.266  -2.853  -3.191  1.00  0.00     0.017 A 
ATOM     19  S   UNL     1       0.042  -5.408  -3.146  1.00  0.00    -0.147 S 
ATOM     20  C   UNL     1       1.588  -3.373  -3.323  1.00  0.00     0.012 A 
ATOM     21  C   UNL     1       1.607  -4.749  -3.312  1.00  0.00     0.065 A 
ENDBRANCH  15  17
ENDBRANCH  13  15
ENDBRANCH  11  13
ENDBRANCH   7  11
ENDBRANCH   6   7
ENDBRANCH   3   6
ENDBRANCH   1   2
BRANCH   1  22
ATOM     22  C   UNL     1      -0.692   0.892  -5.591  1.00  0.00     0.023 C 
BRANCH  22  23
ATOM     23  C   UNL     1       0.831   0.803  -5.669  1.00  0.00     0.023 C 
BRANCH  23  24
ATOM     24  C   UNL     1       1.478   1.673  -6.736  1.00  0.00     0.116 C 
BRANCH  24  25
ATOM     25  N   UNL     1       1.101   3.077  -6.651  1.00  0.00    -0.352 N 
ATOM     26  C   UNL     1       1.862   4.181  -6.953  1.00  0.00     0.251 C 
ATOM     27  H   UNL     1       0.186   3.258  -6.336  1.00  0.00     0.163 HD
ATOM     28  O   UNL     1       1.424   5.308  -6.740  1.00  0.00    -0.269 OA
BRANCH  26  29
ATOM     29  C   UNL     1       3.225   3.988  -7.488  1.00  0.00     0.039 A 
ATOM     30  C   UNL     1       4.290   4.654  -6.877  1.00  0.00     0.014 A 
ATOM     31  C   UNL     1       3.455   3.104  -8.546  1.00  0.00     0.014 A 
ATOM     32  C   UNL     1       5.597   4.373  -7.279  1.00  0.00     0.010 A 
ATOM     33  C   UNL     1       4.760   2.771  -8.892  1.00  0.00     0.010 A 
ATOM     34  C   UNL     1       5.844   3.400  -8.261  1.00  0.00    -0.014 A 
BRANCH  34  35
ATOM     35  C   UNL     1       7.228   3.025  -8.646  1.00  0.00     0.031 A 
ATOM     36  C   UNL     1       7.710   3.283 -10.046  1.00  0.00     0.074 A 
ATOM     37  C   UNL     1       8.018   2.386  -7.762  1.00  0.00     0.049 A 
ATOM     38  N   UNL     1       8.843   2.948 -10.608  1.00  0.00    -0.248 NA
ATOM     39  C   UNL     1       6.775   3.978 -10.942  1.00  0.00     0.031 C 
ATOM     40  C   UNL     1       7.645   2.042  -6.388  1.00  0.00     0.029 A 
ATOM     41  N   UNL     1       9.295   1.901  -7.889  1.00  0.00    -0.354 N 
ATOM     42  C   UNL     1       8.752   3.381 -11.927  1.00  0.00     0.074 A 
ATOM     43  C   UNL     1       7.426   3.936 -12.094  1.00  0.00     0.031 C 
ATOM     44  C   UNL     1       8.679   1.425  -5.793  1.00  0.00     0.029 A 
ATOM     45  C   UNL     1       9.770   1.288  -6.753  1.00  0.00     0.049 A 
ATOM     46  H   UNL     1       9.823   1.984  -8.716  1.00  0.00     0.167 HD
ATOM     47  C   UNL     1       9.696   3.341 -12.900  1.00  0.00     0.034 A 
ATOM     48  C   UNL     1      10.946   0.675  -6.515  1.00  0.00     0.034 A 
ATOM     49  C   UNL     1      11.017   2.790 -12.711  1.00  0.00     0.049 A 
ATOM     50  C   UNL     1      11.973   0.618  -7.617  1.00  0.00     0.074 A 
ATOM     51  C   UNL     1      12.070   2.745 -13.607  1.00  0.00     0.029 A 
ATOM     52  N   UNL     1      11.463   2.178 -11.546  1.00  0.00    -0.354 N 
ATOM     53  N   UNL     1      11.892   1.074  -8.846  1.00  0.00    -0.248 NA
ATOM     54  C   UNL     1      13.251  -0.028  -7.296  1.00  0.00     0.031 C 
ATOM     55  C   UNL     1      13.128   2.050 -13.008  1.00  0.00     0.029 A 
ATOM     56  C   UNL     1      12.764   1.726 -11.711  1.00  0.00     0.049 A 
ATOM     57  H   UNL     1      10.932   2.079 -10.722  1.00  0.00     0.167 HD
ATOM     58  C   UNL     1      13.122   0.796  -9.435  1.00  0.00     0.074 A 
ATOM     59  C   UNL     1      13.928   0.143  -8.423  1.00  0.00     0.031 C 
ATOM     60  C   UNL     1      13.550   1.063 -10.696  1.00  0.00     0.034 A 
BRANCH  47  61
ATOM     61  C   UNL     1       9.311   3.886 -14.256  1.00  0.00     0.023 A 
ATOM     62  C   UNL     1       8.934   5.231 -14.429  1.00  0.00     0.031 A 
ATOM     63  C   UNL     1       9.264   3.043 -15.380  1.00  0.00     0.131 A 
ATOM     64  C   UNL     1       8.436   5.666 -15.666  1.00  0.00     0.055 A 
ATOM     65  C   UNL     1       8.855   3.507 -16.632  1.00  0.00     0.041 A 
ATOM     66  F   UNL     1       9.592   1.746 -15.276  1.00  0.00    -0.206 F 
ATOM     67  C   UNL     1       8.418   4.821 -16.776  1.00  0.00     0.022 A 
BRANCH  64  68
ATOM     68  S   UNL     1       7.651   7.300 -15.753  1.00  0.00     0.124 S 
ATOM     69  O   UNL     1       6.596   7.173 -14.749  1.00  0.00    -0.237 OA
ATOM     70  O   UNL     1       8.750   8.196 -15.416  1.00  0.00    -0.237 OA
ATOM     71  O   UNL     1       7.179   7.380 -17.134  1.00  0.00    -0.744 OA
ENDBRANCH  64  68
ENDBRANCH  47  61
BRANCH  48  72
ATOM     72  C   UNL     1      11.222   0.066  -5.184  1.00  0.00     0.023 A 
ATOM     73  C   UNL     1      12.216   0.590  -4.343  1.00  0.00     0.031 A 
ATOM     74  C   UNL     1      10.512  -1.065  -4.743  1.00  0.00     0.131 A 
ATOM     75  C   UNL     1      12.501  -0.038  -3.121  1.00  0.00     0.055 A 
ATOM     76  C   UNL     1      10.767  -1.659  -3.505  1.00  0.00     0.041 A 
ATOM     77  F   UNL     1       9.545  -1.600  -5.506  1.00  0.00    -0.206 F 
ATOM     78  C   UNL     1      11.775  -1.151  -2.691  1.00  0.00     0.022 A 
BRANCH  75  79
ATOM     79  S   UNL     1      13.883   0.585  -2.126  1.00  0.00     0.124 S 
ATOM     80  O   UNL     1      15.006   0.423  -3.043  1.00  0.00    -0.237 OA
ATOM     81  O   UNL     1      13.468   1.958  -1.856  1.00  0.00    -0.237 OA
ATOM     82  O   UNL     1      13.892  -0.300  -0.964  1.00  0.00    -0.744 OA
ENDBRANCH  75  79
ENDBRANCH  48  72
BRANCH  60  83
ATOM     83  C   UNL     1      14.972   0.685 -11.029  1.00  0.00     0.023 A 
ATOM     84  C   UNL     1      15.384  -0.657 -11.108  1.00  0.00     0.031 A 
ATOM     85  C   UNL     1      15.931   1.687 -11.261  1.00  0.00     0.131 A 
ATOM     86  C   UNL     1      16.730  -0.960 -11.361  1.00  0.00     0.055 A 
ATOM     87  C   UNL     1      17.256   1.379 -11.569  1.00  0.00     0.041 A 
ATOM     88  F   UNL     1      15.592   2.985 -11.196  1.00  0.00    -0.206 F 
ATOM     89  C   UNL     1      17.665   0.049 -11.607  1.00  0.00     0.022 A 
BRANCH  86  90
ATOM     90  S   UNL     1      17.265  -2.691 -11.279  1.00  0.00     0.124 S 
ATOM     91  O   UNL     1      16.912  -3.053  -9.910  1.00  0.00    -0.237 OA
ATOM     92  O   UNL     1      16.466  -3.315 -12.329  1.00  0.00    -0.237 OA
ATOM     93  O   UNL     1      18.699  -2.621 -11.552  1.00  0.00    -0.744 OA
ENDBRANCH  86  90
ENDBRANCH  60  83
ENDBRANCH  34  35
ENDBRANCH  26  29
ENDBRANCH  24  25
ENDBRANCH  23  24
ENDBRANCH  22  23
ENDBRANCH   1  22
TORSDOF 21
