REMARK SMILES C[NH2+][C@@]1(C(=O)NCCCCNC(=O)c2ccc(-c3c4nc(c(-c5cc(S(=O)(=O)[O-])ccc5F)c5ccc([nH]5)c(-c5cc(S(=O)(=O)[O-])ccc5F)c5nc(c(-c6cc(S(=O)(=O)[O-])ccc6F)c6ccc3[nH]6)C=C5)C=C4)cc2)CC[C@H](SC2CCOCC2)C1
REMARK SMILES IDX 9 1 8 2 7 3 6 4 4 5 5 6 3 8 77 9 87 10 78 11 79 12 2 13 1 14
REMARK SMILES IDX 80 17 81 18 82 19 86 20 83 21 85 22 84 23 10 24 11 25 12 26
REMARK SMILES IDX 13 28 14 29 15 30 76 31 16 32 75 33 17 34 18 35 19 36 69 37
REMARK SMILES IDX 20 38 74 39 68 40 70 41 21 42 73 43 67 44 66 45 22 47 54 48
REMARK SMILES IDX 34 49 53 50 35 51 38 52 52 53 71 54 36 55 37 56 51 58 72 59
REMARK SMILES IDX 39 60 23 61 24 62 32 63 25 64 31 65 33 66 30 67 26 68 27 69
REMARK SMILES IDX 28 70 29 71 55 72 56 73 64 74 57 75 63 76 65 77 62 78 58 79
REMARK SMILES IDX 59 80 60 81 61 82 40 83 41 84 49 85 42 86 48 87 50 88 47 89
REMARK SMILES IDX 43 90 44 91 45 92 46 93
REMARK H PARENT 6 7 2 15 2 16 11 27 70 46 38 57
REMARK Flexibility Score: inf
ROOT
ATOM      1  C   UNL     1      -5.012  -2.549   4.248  1.00  0.00     0.023 C 
ENDROOT
BRANCH   1   2
ATOM      2  C   UNL     1      -4.175  -2.612   2.975  1.00  0.00     0.023 C 
BRANCH   2   3
ATOM      3  C   UNL     1      -3.525  -1.298   2.554  1.00  0.00     0.116 C 
BRANCH   3   4
ATOM      4  N   UNL     1      -2.135  -1.176   2.929  1.00  0.00    -0.351 N 
ATOM      5  C   UNL     1      -0.989  -1.060   2.206  1.00  0.00     0.281 C 
ATOM      6  O   UNL     1       0.040  -0.939   2.892  1.00  0.00    -0.268 OA
ATOM      7  H   UNL     1      -1.988  -1.178   3.902  1.00  0.00     0.163 HD
BRANCH   5   8
ATOM      8  C   UNL     1      -0.878  -1.089   0.614  1.00  0.00     0.176 C 
ATOM      9  C   UNL     1      -1.430   0.165  -0.078  1.00  0.00     0.080 C 
ATOM     10  C   UNL     1      -1.645  -2.264  -0.021  1.00  0.00     0.093 C 
ATOM     11  C   UNL     1      -2.813  -0.190  -0.605  1.00  0.00     0.022 C 
ATOM     12  C   UNL     1      -2.757  -1.678  -0.934  1.00  0.00     0.054 C 
BRANCH   8  13
ATOM     13  N   UNL     1       0.572  -1.333   0.297  1.00  0.00    -0.336 N 
ATOM     14  C   UNL     1       1.409  -0.137   0.260  1.00  0.00     0.331 C 
ATOM     15  H   UNL     1       0.950  -1.960   1.007  1.00  0.00     0.346 HD
ATOM     16  H   UNL     1       0.595  -1.723  -0.645  1.00  0.00     0.346 HD
ENDBRANCH   8  13
BRANCH  12  17
ATOM     17  S   UNL     1      -4.191  -2.824  -0.760  1.00  0.00    -0.155 SA
BRANCH  17  18
ATOM     18  C   UNL     1      -5.781  -1.933  -0.995  1.00  0.00     0.051 C 
ATOM     19  C   UNL     1      -6.343  -2.228  -2.387  1.00  0.00     0.043 C 
ATOM     20  C   UNL     1      -5.904  -0.453  -0.660  1.00  0.00     0.043 C 
ATOM     21  C   UNL     1      -7.750  -1.649  -2.500  1.00  0.00     0.161 C 
ATOM     22  C   UNL     1      -7.335   0.023  -0.886  1.00  0.00     0.161 C 
ATOM     23  O   UNL     1      -7.732  -0.248  -2.230  1.00  0.00    -0.381 OA
ENDBRANCH  17  18
ENDBRANCH  12  17
ENDBRANCH   5   8
ENDBRANCH   3   4
ENDBRANCH   2   3
ENDBRANCH   1   2
BRANCH   1  24
ATOM     24  C   UNL     1      -6.115  -1.491   4.283  1.00  0.00     0.116 C 
BRANCH  24  25
ATOM     25  N   UNL     1      -7.026  -1.510   3.146  1.00  0.00    -0.352 N 
ATOM     26  C   UNL     1      -8.380  -1.239   3.122  1.00  0.00     0.251 C 
ATOM     27  H   UNL     1      -6.623  -1.748   2.279  1.00  0.00     0.163 HD
ATOM     28  O   UNL     1      -9.003  -1.327   2.071  1.00  0.00    -0.269 OA
BRANCH  26  29
ATOM     29  C   UNL     1      -9.076  -0.917   4.390  1.00  0.00     0.039 A 
ATOM     30  C   UNL     1     -10.218  -1.647   4.733  1.00  0.00     0.014 A 
ATOM     31  C   UNL     1      -8.540   0.010   5.285  1.00  0.00     0.014 A 
ATOM     32  C   UNL     1     -10.738  -1.545   6.026  1.00  0.00     0.010 A 
ATOM     33  C   UNL     1      -9.005   0.043   6.596  1.00  0.00     0.010 A 
ATOM     34  C   UNL     1     -10.088  -0.758   6.990  1.00  0.00    -0.014 A 
BRANCH  34  35
ATOM     35  C   UNL     1     -10.480  -0.799   8.426  1.00  0.00     0.031 A 
ATOM     36  C   UNL     1     -10.925   0.455   9.125  1.00  0.00     0.074 A 
ATOM     37  C   UNL     1     -10.322  -1.943   9.125  1.00  0.00     0.049 A 
ATOM     38  N   UNL     1     -11.170   0.654  10.395  1.00  0.00    -0.248 NA
ATOM     39  C   UNL     1     -11.069   1.655   8.288  1.00  0.00     0.031 C 
ATOM     40  C   UNL     1      -9.829  -3.210   8.578  1.00  0.00     0.029 A 
ATOM     41  N   UNL     1     -10.542  -2.223  10.451  1.00  0.00    -0.354 N 
ATOM     42  C   UNL     1     -11.464   2.008  10.516  1.00  0.00     0.074 A 
ATOM     43  C   UNL     1     -11.311   2.587   9.197  1.00  0.00     0.031 C 
ATOM     44  C   UNL     1      -9.807  -4.134   9.552  1.00  0.00     0.029 A 
ATOM     45  C   UNL     1     -10.241  -3.520  10.802  1.00  0.00     0.049 A 
ATOM     46  H   UNL     1     -10.883  -1.558  11.092  1.00  0.00     0.167 HD
ATOM     47  C   UNL     1     -11.847   2.700  11.619  1.00  0.00     0.034 A 
ATOM     48  C   UNL     1     -10.296  -4.142  11.996  1.00  0.00     0.034 A 
ATOM     49  C   UNL     1     -12.027   2.100  12.918  1.00  0.00     0.049 A 
ATOM     50  C   UNL     1     -10.761  -3.365  13.199  1.00  0.00     0.074 A 
ATOM     51  C   UNL     1     -12.481   2.688  14.086  1.00  0.00     0.029 A 
ATOM     52  N   UNL     1     -11.763   0.770  13.223  1.00  0.00    -0.354 N 
ATOM     53  N   UNL     1     -11.088  -2.096  13.286  1.00  0.00    -0.248 NA
ATOM     54  C   UNL     1     -10.877  -4.106  14.462  1.00  0.00     0.031 C 
ATOM     55  C   UNL     1     -12.445   1.729  15.105  1.00  0.00     0.029 A 
ATOM     56  C   UNL     1     -12.027   0.525  14.562  1.00  0.00     0.049 A 
ATOM     57  H   UNL     1     -11.437   0.099  12.581  1.00  0.00     0.167 HD
ATOM     58  C   UNL     1     -11.471  -1.894  14.608  1.00  0.00     0.074 A 
ATOM     59  C   UNL     1     -11.348  -3.174  15.277  1.00  0.00     0.031 C 
ATOM     60  C   UNL     1     -11.890  -0.755  15.214  1.00  0.00     0.034 A 
BRANCH  47  61
ATOM     61  C   UNL     1     -12.073   4.184  11.458  1.00  0.00     0.023 A 
ATOM     62  C   UNL     1     -13.071   4.689  10.606  1.00  0.00     0.031 A 
ATOM     63  C   UNL     1     -11.250   5.108  12.126  1.00  0.00     0.131 A 
ATOM     64  C   UNL     1     -13.160   6.069  10.372  1.00  0.00     0.055 A 
ATOM     65  C   UNL     1     -11.402   6.486  11.956  1.00  0.00     0.041 A 
ATOM     66  F   UNL     1     -10.268   4.687  12.939  1.00  0.00    -0.206 F 
ATOM     67  C   UNL     1     -12.349   6.973  11.060  1.00  0.00     0.022 A 
BRANCH  64  68
ATOM     68  S   UNL     1     -14.242   6.648   9.037  1.00  0.00     0.124 S 
ATOM     69  O   UNL     1     -13.661   5.976   7.877  1.00  0.00    -0.237 OA
ATOM     70  O   UNL     1     -15.552   6.170   9.462  1.00  0.00    -0.237 OA
ATOM     71  O   UNL     1     -14.068   8.099   9.060  1.00  0.00    -0.744 OA
ENDBRANCH  64  68
ENDBRANCH  47  61
BRANCH  48  72
ATOM     72  C   UNL     1      -9.901  -5.573  12.121  1.00  0.00     0.023 A 
ATOM     73  C   UNL     1     -10.854  -6.560  12.420  1.00  0.00     0.031 A 
ATOM     74  C   UNL     1      -8.561  -5.971  11.972  1.00  0.00     0.131 A 
ATOM     75  C   UNL     1     -10.449  -7.891  12.603  1.00  0.00     0.055 A 
ATOM     76  C   UNL     1      -8.169  -7.304  12.112  1.00  0.00     0.041 A 
ATOM     77  F   UNL     1      -7.614  -5.068  11.674  1.00  0.00    -0.206 F 
ATOM     78  C   UNL     1      -9.115  -8.271  12.441  1.00  0.00     0.022 A 
BRANCH  75  79
ATOM     79  S   UNL     1     -11.686  -9.111  13.122  1.00  0.00     0.124 S 
ATOM     80  O   UNL     1     -12.161  -8.539  14.377  1.00  0.00    -0.237 OA
ATOM     81  O   UNL     1     -12.626  -9.082  12.007  1.00  0.00    -0.237 OA
ATOM     82  O   UNL     1     -10.913 -10.345  13.252  1.00  0.00    -0.744 OA
ENDBRANCH  75  79
ENDBRANCH  48  72
BRANCH  60  83
ATOM     83  C   UNL     1     -12.287  -0.862  16.664  1.00  0.00     0.023 A 
ATOM     84  C   UNL     1     -11.337  -1.094  17.674  1.00  0.00     0.031 A 
ATOM     85  C   UNL     1     -13.637  -0.741  17.035  1.00  0.00     0.131 A 
ATOM     86  C   UNL     1     -11.758  -1.247  19.003  1.00  0.00     0.055 A 
ATOM     87  C   UNL     1     -14.043  -0.844  18.366  1.00  0.00     0.041 A 
ATOM     88  F   UNL     1     -14.583  -0.520  16.108  1.00  0.00    -0.206 F 
ATOM     89  C   UNL     1     -13.103  -1.109  19.357  1.00  0.00     0.022 A 
BRANCH  86  90
ATOM     90  S   UNL     1     -10.530  -1.706  20.258  1.00  0.00     0.124 S 
ATOM     91  O   UNL     1     -10.030  -2.977  19.743  1.00  0.00    -0.237 OA
ATOM     92  O   UNL     1      -9.597  -0.586  20.206  1.00  0.00    -0.237 OA
ATOM     93  O   UNL     1     -11.315  -1.801  21.487  1.00  0.00    -0.744 OA
ENDBRANCH  86  90
ENDBRANCH  60  83
ENDBRANCH  34  35
ENDBRANCH  26  29
ENDBRANCH  24  25
ENDBRANCH   1  24
TORSDOF 17
