REMARK SMILES NS(=O)(=O)c1ccc(C#Cc2cc(Cl)cc3c2O[C@H](C(F)(F)F)C(C(=O)NCCCCNC(=O)c2ccc(-c4c5nc(c(-c6cc(S(=O)(=O)[O-])ccc6F)c6ccc([nH]6)c(-c6cc(S(=O)(=O)[O-])ccc6F)c6nc(c(-c7cc(S(=O)(=O)[O-])ccc7F)c7ccc4[nH]7)C=C6)C=C5)cc2)=C3)cc1
REMARK SMILES IDX 29 1 28 2 27 3 25 4 26 5 24 7 11 8 12 9 17 10 13 11 16 12
REMARK SMILES IDX 18 13 14 14 15 15 98 16 19 17 10 18 9 19 8 20 5 21 6 22
REMARK SMILES IDX 100 23 7 24 99 25 2 26 3 27 4 28 1 29 20 32 21 33 22 34
REMARK SMILES IDX 23 35 30 36 31 37 32 38 33 39 34 41 35 42 36 43 97 44 37 45
REMARK SMILES IDX 96 46 38 47 39 48 40 49 90 50 41 51 95 52 89 53 91 54 42 55
REMARK SMILES IDX 94 56 88 57 87 58 43 60 75 61 55 62 74 63 56 64 59 65 73 66
REMARK SMILES IDX 92 67 57 68 58 69 72 71 93 72 60 73 44 74 45 75 53 76 46 77
REMARK SMILES IDX 52 78 54 79 51 80 47 81 48 82 49 83 50 84 76 85 77 86 85 87
REMARK SMILES IDX 78 88 84 89 86 90 83 91 79 92 80 93 81 94 82 95 61 96 62 97
REMARK SMILES IDX 70 98 63 99 69 100 71 101 68 102 64 103 65 104 66 105 67 106
REMARK H PARENT 27 6 1 30 1 31 32 40 91 59 59 70
REMARK Flexibility Score: inf
ROOT
ATOM      1  C   UNL     1       2.983  -4.716 -10.269  1.00  0.00     0.023 C 
ENDROOT
BRANCH   1   2
ATOM      2  C   UNL     1       1.649  -5.426 -10.079  1.00  0.00     0.116 C 
BRANCH   2   3
ATOM      3  N   UNL     1       1.716  -6.833 -10.440  1.00  0.00    -0.352 N 
ATOM      4  C   UNL     1       1.647  -8.023  -9.795  1.00  0.00     0.251 C 
ATOM      5  O   UNL     1       1.700  -9.030 -10.507  1.00  0.00    -0.270 OA
ATOM      6  H   UNL     1       1.845  -6.952 -11.409  1.00  0.00     0.163 HD
BRANCH   4   7
ATOM      7  C   UNL     1       1.522  -8.175  -8.315  1.00  0.00     0.067 C 
ATOM      8  C   UNL     1       1.519  -8.642  -4.139  1.00  0.00     0.069 A 
ATOM      9  C   UNL     1       1.462  -9.919  -3.584  1.00  0.00     0.041 A 
ATOM     10  C   UNL     1       1.544  -8.498  -5.533  1.00  0.00     0.143 A 
ATOM     11  C   UNL     1       1.441 -11.034  -4.424  1.00  0.00     0.043 A 
ATOM     12  C   UNL     1       1.535  -9.614  -6.377  1.00  0.00     0.020 A 
ATOM     13  O   UNL     1       1.626  -7.225  -6.016  1.00  0.00    -0.474 OA
ATOM     14  Cl  UNL     1       1.376 -12.610  -3.736  1.00  0.00    -0.084 Cl
ATOM     15  C   UNL     1       1.481 -10.890  -5.814  1.00  0.00     0.032 A 
ATOM     16  C   UNL     1       1.633  -9.422  -7.821  1.00  0.00     0.025 C 
ATOM     17  C   UNL     1       1.263  -7.021  -7.398  1.00  0.00     0.314 C 
BRANCH   8  18
ATOM     18  C   UNL     1       1.529  -7.482  -3.296  1.00  0.00    -0.058 C 
ATOM     19  C   UNL     1       1.493  -6.473  -2.639  1.00  0.00    -0.062 C 
BRANCH  19  20
ATOM     20  C   UNL     1       1.367  -5.285  -1.853  1.00  0.00     0.025 A 
ATOM     21  C   UNL     1       0.966  -2.986  -0.319  1.00  0.00     0.082 A 
ATOM     22  C   UNL     1       1.395  -2.865  -1.644  1.00  0.00     0.023 A 
ATOM     23  C   UNL     1       0.766  -4.248   0.250  1.00  0.00     0.023 A 
ATOM     24  C   UNL     1       1.595  -4.021  -2.411  1.00  0.00     0.018 A 
ATOM     25  C   UNL     1       0.965  -5.394  -0.520  1.00  0.00     0.018 A 
BRANCH  21  26
ATOM     26  S   UNL     1       0.650  -1.574   0.697  1.00  0.00     0.238 S 
ATOM     27  O   UNL     1       1.430  -1.701   1.907  1.00  0.00    -0.207 OA
ATOM     28  O   UNL     1      -0.774  -1.338   0.712  1.00  0.00    -0.207 OA
BRANCH  26  29
ATOM     29  N   UNL     1       1.323  -0.275  -0.127  1.00  0.00    -0.225 NA
ATOM     30  H   UNL     1       1.175   0.580   0.408  1.00  0.00     0.137 HD
ATOM     31  H   UNL     1       0.878  -0.186  -1.041  1.00  0.00     0.137 HD
ENDBRANCH  26  29
ENDBRANCH  21  26
ENDBRANCH  19  20
ENDBRANCH   8  18
BRANCH  17  32
ATOM     32  C   UNL     1      -0.195  -6.525  -7.478  1.00  0.00     0.429 C 
ATOM     33  F   UNL     1      -0.300  -5.279  -6.953  1.00  0.00    -0.167 F 
ATOM     34  F   UNL     1      -0.653  -6.445  -8.749  1.00  0.00    -0.167 F 
ATOM     35  F   UNL     1      -1.051  -7.325  -6.803  1.00  0.00    -0.167 F 
ENDBRANCH  17  32
ENDBRANCH   4   7
ENDBRANCH   2   3
ENDBRANCH   1   2
BRANCH   1  36
ATOM     36  C   UNL     1       3.185  -4.198 -11.686  1.00  0.00     0.023 C 
BRANCH  36  37
ATOM     37  C   UNL     1       2.069  -3.295 -12.194  1.00  0.00     0.116 C 
BRANCH  37  38
ATOM     38  N   UNL     1       1.802  -2.141 -11.341  1.00  0.00    -0.352 N 
ATOM     39  C   UNL     1       1.563  -0.841 -11.738  1.00  0.00     0.251 C 
ATOM     40  H   UNL     1       1.791  -2.309 -10.371  1.00  0.00     0.163 HD
ATOM     41  O   UNL     1       1.456   0.060 -10.915  1.00  0.00    -0.269 OA
BRANCH  39  42
ATOM     42  C   UNL     1       1.499  -0.574 -13.188  1.00  0.00     0.039 A 
ATOM     43  C   UNL     1       0.695  -1.384 -13.991  1.00  0.00     0.014 A 
ATOM     44  C   UNL     1       2.389   0.339 -13.753  1.00  0.00     0.014 A 
ATOM     45  C   UNL     1       0.956  -1.450 -15.350  1.00  0.00     0.010 A 
ATOM     46  C   UNL     1       2.552   0.359 -15.139  1.00  0.00     0.010 A 
ATOM     47  C   UNL     1       1.892  -0.585 -15.943  1.00  0.00    -0.014 A 
BRANCH  47  48
ATOM     48  C   UNL     1       2.166  -0.691 -17.402  1.00  0.00     0.031 A 
ATOM     49  C   UNL     1       3.548  -1.004 -17.915  1.00  0.00     0.074 A 
ATOM     50  C   UNL     1       1.143  -0.541 -18.266  1.00  0.00     0.049 A 
ATOM     51  N   UNL     1       3.958  -1.113 -19.153  1.00  0.00    -0.248 NA
ATOM     52  C   UNL     1       4.610  -1.217 -16.918  1.00  0.00     0.031 C 
ATOM     53  C   UNL     1      -0.239  -0.253 -17.880  1.00  0.00     0.029 A 
ATOM     54  N   UNL     1       1.095  -0.624 -19.635  1.00  0.00    -0.354 N 
ATOM     55  C   UNL     1       5.322  -1.379 -19.087  1.00  0.00     0.074 A 
ATOM     56  C   UNL     1       5.680  -1.380 -17.687  1.00  0.00     0.031 C 
ATOM     57  C   UNL     1      -1.007  -0.235 -18.975  1.00  0.00     0.029 A 
ATOM     58  C   UNL     1      -0.162  -0.408 -20.152  1.00  0.00     0.049 A 
ATOM     59  H   UNL     1       1.882  -0.819 -20.192  1.00  0.00     0.167 HD
ATOM     60  C   UNL     1       6.186  -1.615 -20.103  1.00  0.00     0.034 A 
ATOM     61  C   UNL     1      -0.591  -0.325 -21.428  1.00  0.00     0.034 A 
ATOM     62  C   UNL     1       5.800  -1.636 -21.493  1.00  0.00     0.049 A 
ATOM     63  C   UNL     1       0.400  -0.545 -22.538  1.00  0.00     0.074 A 
ATOM     64  C   UNL     1       6.595  -1.905 -22.593  1.00  0.00     0.029 A 
ATOM     65  N   UNL     1       4.524  -1.383 -21.978  1.00  0.00    -0.354 N 
ATOM     66  N   UNL     1       1.675  -0.845 -22.456  1.00  0.00    -0.248 NA
ATOM     67  C   UNL     1      -0.099  -0.424 -23.914  1.00  0.00     0.031 C 
ATOM     68  C   UNL     1       5.827  -1.726 -23.742  1.00  0.00     0.029 A 
ATOM     69  C   UNL     1       4.523  -1.451 -23.363  1.00  0.00     0.049 A 
ATOM     70  H   UNL     1       3.736  -1.185 -21.422  1.00  0.00     0.167 HD
ATOM     71  C   UNL     1       2.123  -0.975 -23.766  1.00  0.00     0.074 A 
ATOM     72  C   UNL     1       0.976  -0.749 -24.620  1.00  0.00     0.031 C 
ATOM     73  C   UNL     1       3.374  -1.249 -24.215  1.00  0.00     0.034 A 
BRANCH  60  74
ATOM     74  C   UNL     1       7.641  -1.883 -19.788  1.00  0.00     0.023 A 
ATOM     75  C   UNL     1       8.638  -1.043 -20.322  1.00  0.00     0.031 A 
ATOM     76  C   UNL     1       8.051  -3.046 -19.112  1.00  0.00     0.131 A 
ATOM     77  C   UNL     1       9.987  -1.406 -20.222  1.00  0.00     0.055 A 
ATOM     78  C   UNL     1       9.400  -3.374 -18.965  1.00  0.00     0.041 A 
ATOM     79  F   UNL     1       7.144  -3.886 -18.587  1.00  0.00    -0.206 F 
ATOM     80  C   UNL     1      10.374  -2.562 -19.538  1.00  0.00     0.022 A 
BRANCH  77  81
ATOM     81  S   UNL     1      11.282  -0.448 -21.058  1.00  0.00     0.124 S 
ATOM     82  O   UNL     1      12.144  -0.071 -19.940  1.00  0.00    -0.237 OA
ATOM     83  O   UNL     1      11.845  -1.434 -21.975  1.00  0.00    -0.237 OA
ATOM     84  O   UNL     1      10.556   0.654 -21.681  1.00  0.00    -0.744 OA
ENDBRANCH  77  81
ENDBRANCH  60  74
BRANCH  61  85
ATOM     85  C   UNL     1      -2.034  -0.049 -21.687  1.00  0.00     0.023 A 
ATOM     86  C   UNL     1      -2.642   1.122 -21.196  1.00  0.00     0.031 A 
ATOM     87  C   UNL     1      -2.852  -1.004 -22.311  1.00  0.00     0.131 A 
ATOM     88  C   UNL     1      -4.034   1.264 -21.254  1.00  0.00     0.055 A 
ATOM     89  C   UNL     1      -4.229  -0.817 -22.448  1.00  0.00     0.041 A 
ATOM     90  F   UNL     1      -2.323  -2.144 -22.782  1.00  0.00    -0.206 F 
ATOM     91  C   UNL     1      -4.829   0.311 -21.897  1.00  0.00     0.022 A 
BRANCH  88  92
ATOM     92  S   UNL     1      -4.867   2.604 -20.359  1.00  0.00     0.124 S 
ATOM     93  O   UNL     1      -5.580   3.290 -21.431  1.00  0.00    -0.237 OA
ATOM     94  O   UNL     1      -5.702   1.858 -19.420  1.00  0.00    -0.237 OA
ATOM     95  O   UNL     1      -3.769   3.349 -19.753  1.00  0.00    -0.744 OA
ENDBRANCH  88  92
ENDBRANCH  61  85
BRANCH  73  96
ATOM     96  C   UNL     1       3.608  -1.349 -25.705  1.00  0.00     0.023 A 
ATOM     97  C   UNL     1       4.110  -2.546 -26.254  1.00  0.00     0.031 A 
ATOM     98  C   UNL     1       3.511  -0.226 -26.544  1.00  0.00     0.131 A 
ATOM     99  C   UNL     1       4.555  -2.574 -27.581  1.00  0.00     0.055 A 
ATOM    100  C   UNL     1       3.893  -0.277 -27.886  1.00  0.00     0.041 A 
ATOM    101  F   UNL     1       3.052   0.943 -26.069  1.00  0.00    -0.206 F 
ATOM    102  C   UNL     1       4.437  -1.449 -28.404  1.00  0.00     0.022 A 
BRANCH  99 103
ATOM    103  S   UNL     1       5.408  -4.029 -28.251  1.00  0.00     0.124 S 
ATOM    104  O   UNL     1       4.555  -4.385 -29.382  1.00  0.00    -0.237 OA
ATOM    105  O   UNL     1       6.715  -3.481 -28.603  1.00  0.00    -0.237 OA
ATOM    106  O   UNL     1       5.402  -4.981 -27.145  1.00  0.00    -0.744 OA
ENDBRANCH  99 103
ENDBRANCH  73  96
ENDBRANCH  47  48
ENDBRANCH  39  42
ENDBRANCH  37  38
ENDBRANCH  36  37
ENDBRANCH   1  36
TORSDOF 19
