REMARK SMILES CC(C)c1nc(N2C[C@H](C)OC(C)(C)C2)sc1C(=O)NCCCCNC(=O)c1ccc(-c2c3nc(c(-c4cc(S(=O)(=O)[O-])ccc4F)c4ccc([nH]4)c(-c4cc(S(=O)(=O)[O-])ccc4F)c4nc(c(-c5cc(S(=O)(=O)[O-])ccc5F)c5ccc2[nH]5)C=C4)C=C3)cc1
REMARK SMILES IDX 23 1 22 2 21 3 20 4 18 5 19 6 17 8 4 9 5 10 6 11 16 12 2 13
REMARK SMILES IDX 1 14 3 15 7 16 8 17 15 18 9 19 12 20 11 21 10 22 13 23 14 24
REMARK SMILES IDX 24 25 25 26 26 27 27 29 28 30 29 31 90 32 30 33 89 34 31 35
REMARK SMILES IDX 32 36 33 37 83 38 34 39 88 40 82 41 84 42 35 43 87 44 81 45
REMARK SMILES IDX 80 46 36 48 68 49 48 50 67 51 49 52 52 53 66 54 85 55 50 56
REMARK SMILES IDX 51 57 65 59 86 60 53 61 37 62 38 63 46 64 39 65 45 66 47 67
REMARK SMILES IDX 44 68 40 69 41 70 42 71 43 72 69 73 70 74 78 75 71 76 77 77
REMARK SMILES IDX 79 78 76 79 72 80 73 81 74 82 75 83 54 84 55 85 63 86 56 87
REMARK SMILES IDX 62 88 64 89 61 90 57 91 58 92 59 93 60 94
REMARK H PARENT 20 7 25 28 84 47 52 58
REMARK Flexibility Score: inf
ROOT
ATOM      1  C   UNL     1       2.921   4.668  -1.623  1.00  0.00     0.023 C 
ENDROOT
BRANCH   1   2
ATOM      2  C   UNL     1       1.916   3.567  -1.288  1.00  0.00     0.023 C 
BRANCH   2   3
ATOM      3  C   UNL     1       1.063   3.844  -0.047  1.00  0.00     0.116 C 
BRANCH   3   4
ATOM      4  N   UNL     1      -0.243   4.303  -0.443  1.00  0.00    -0.351 N 
ATOM      5  C   UNL     1      -1.462   3.722  -0.647  1.00  0.00     0.263 C 
ATOM      6  O   UNL     1      -2.304   4.556  -1.013  1.00  0.00    -0.268 OA
ATOM      7  H   UNL     1      -0.262   5.274  -0.608  1.00  0.00     0.163 HD
BRANCH   5   8
ATOM      8  C   UNL     1      -1.814   2.316  -0.442  1.00  0.00     0.117 A 
ATOM      9  C   UNL     1      -1.219   1.051  -0.417  1.00  0.00     0.069 A 
ATOM     10  N   UNL     1      -2.116  -0.008  -0.214  1.00  0.00    -0.224 NA
ATOM     11  C   UNL     1      -3.360   0.388  -0.231  1.00  0.00     0.186 A 
ATOM     12  S   UNL     1      -3.539   2.081  -0.269  1.00  0.00    -0.091 S 
BRANCH   9  13
ATOM     13  C   UNL     1       0.199   0.598  -0.678  1.00  0.00     0.034 C 
ATOM     14  C   UNL     1       0.496  -0.809  -0.131  1.00  0.00     0.014 C 
ATOM     15  C   UNL     1       0.515   0.621  -2.174  1.00  0.00     0.014 C 
ENDBRANCH   9  13
BRANCH  11  16
ATOM     16  N   UNL     1      -4.430  -0.441  -0.197  1.00  0.00    -0.343 N 
ATOM     17  C   UNL     1      -5.418  -0.415  -1.274  1.00  0.00     0.150 C 
ATOM     18  C   UNL     1      -4.397  -1.668   0.594  1.00  0.00     0.153 C 
ATOM     19  C   UNL     1      -5.248  -1.670  -2.152  1.00  0.00     0.135 C 
ATOM     20  C   UNL     1      -4.407  -2.948  -0.288  1.00  0.00     0.081 C 
ATOM     21  O   UNL     1      -5.375  -2.866  -1.362  1.00  0.00    -0.369 OA
ATOM     22  C   UNL     1      -6.315  -1.725  -3.238  1.00  0.00     0.040 C 
ATOM     23  C   UNL     1      -3.015  -3.273  -0.847  1.00  0.00     0.044 C 
ATOM     24  C   UNL     1      -4.867  -4.132   0.577  1.00  0.00     0.044 C 
ENDBRANCH  11  16
ENDBRANCH   5   8
ENDBRANCH   3   4
ENDBRANCH   2   3
ENDBRANCH   1   2
BRANCH   1  25
ATOM     25  C   UNL     1       4.032   4.841  -0.597  1.00  0.00     0.116 C 
BRANCH  25  26
ATOM     26  N   UNL     1       4.833   3.641  -0.395  1.00  0.00    -0.352 N 
ATOM     27  C   UNL     1       6.177   3.561  -0.109  1.00  0.00     0.251 C 
ATOM     28  H   UNL     1       4.355   2.784  -0.472  1.00  0.00     0.163 HD
ATOM     29  O   UNL     1       6.735   2.469  -0.044  1.00  0.00    -0.269 OA
BRANCH  27  30
ATOM     30  C   UNL     1       6.939   4.815   0.057  1.00  0.00     0.039 A 
ATOM     31  C   UNL     1       8.076   5.025  -0.725  1.00  0.00     0.014 A 
ATOM     32  C   UNL     1       6.457   5.821   0.898  1.00  0.00     0.014 A 
ATOM     33  C   UNL     1       8.680   6.283  -0.730  1.00  0.00     0.010 A 
ATOM     34  C   UNL     1       7.006   7.095   0.824  1.00  0.00     0.010 A 
ATOM     35  C   UNL     1       8.118   7.342   0.003  1.00  0.00    -0.014 A 
BRANCH  35  36
ATOM     36  C   UNL     1       8.672   8.719  -0.071  1.00  0.00     0.031 A 
ATOM     37  C   UNL     1       9.205   9.376   1.172  1.00  0.00     0.074 A 
ATOM     38  C   UNL     1       8.611   9.404  -1.231  1.00  0.00     0.049 A 
ATOM     39  N   UNL     1       9.619  10.604   1.349  1.00  0.00    -0.248 NA
ATOM     40  C   UNL     1       9.229   8.551   2.389  1.00  0.00     0.031 C 
ATOM     41  C   UNL     1       8.059   8.896  -2.490  1.00  0.00     0.029 A 
ATOM     42  N   UNL     1       9.005  10.682  -1.537  1.00  0.00    -0.354 N 
ATOM     43  C   UNL     1       9.926  10.707   2.701  1.00  0.00     0.074 A 
ATOM     44  C   UNL     1       9.585   9.437   3.306  1.00  0.00     0.031 C 
ATOM     45  C   UNL     1       8.176   9.841  -3.436  1.00  0.00     0.029 A 
ATOM     46  C   UNL     1       8.770  11.036  -2.846  1.00  0.00     0.049 A 
ATOM     47  H   UNL     1       9.418  11.290  -0.882  1.00  0.00     0.167 HD
ATOM     48  C   UNL     1      10.469  11.754   3.371  1.00  0.00     0.034 A 
ATOM     49  C   UNL     1       9.000  12.195  -3.494  1.00  0.00     0.034 A 
ATOM     50  C   UNL     1      10.834  13.000   2.744  1.00  0.00     0.049 A 
ATOM     51  C   UNL     1       9.623  13.339  -2.735  1.00  0.00     0.074 A 
ATOM     52  C   UNL     1      11.454  14.101   3.308  1.00  0.00     0.029 A 
ATOM     53  N   UNL     1      10.612  13.310   1.408  1.00  0.00    -0.354 N 
ATOM     54  N   UNL     1       9.958  13.403  -1.467  1.00  0.00    -0.248 NA
ATOM     55  C   UNL     1       9.908  14.561  -3.498  1.00  0.00     0.031 C 
ATOM     56  C   UNL     1      11.559  15.095   2.327  1.00  0.00     0.029 A 
ATOM     57  C   UNL     1      11.063  14.592   1.135  1.00  0.00     0.049 A 
ATOM     58  H   UNL     1      10.195  12.707   0.751  1.00  0.00     0.167 HD
ATOM     59  C   UNL     1      10.518  14.665  -1.288  1.00  0.00     0.074 A 
ATOM     60  C   UNL     1      10.488  15.320  -2.580  1.00  0.00     0.031 C 
ATOM     61  C   UNL     1      11.015  15.231  -0.159  1.00  0.00     0.034 A 
BRANCH  48  62
ATOM     62  C   UNL     1      10.678  11.587   4.857  1.00  0.00     0.023 A 
ATOM     63  C   UNL     1      11.535  10.599   5.374  1.00  0.00     0.031 A 
ATOM     64  C   UNL     1       9.973  12.387   5.773  1.00  0.00     0.131 A 
ATOM     65  C   UNL     1      11.591  10.372   6.756  1.00  0.00     0.055 A 
ATOM     66  C   UNL     1      10.102  12.216   7.153  1.00  0.00     0.041 A 
ATOM     67  F   UNL     1       9.125  13.335   5.342  1.00  0.00    -0.206 F 
ATOM     68  C   UNL     1      10.901  11.191   7.652  1.00  0.00     0.022 A 
BRANCH  65  69
ATOM     69  S   UNL     1      12.450   8.890   7.353  1.00  0.00     0.124 S 
ATOM     70  O   UNL     1      11.695   7.828   6.691  1.00  0.00    -0.237 OA
ATOM     71  O   UNL     1      13.811   9.099   6.874  1.00  0.00    -0.237 OA
ATOM     72  O   UNL     1      12.280   8.955   8.803  1.00  0.00    -0.744 OA
ENDBRANCH  65  69
ENDBRANCH  48  62
BRANCH  49  73
ATOM     73  C   UNL     1       8.646  12.341  -4.934  1.00  0.00     0.023 A 
ATOM     74  C   UNL     1       9.643  12.501  -5.909  1.00  0.00     0.031 A 
ATOM     75  C   UNL     1       7.304  12.360  -5.352  1.00  0.00     0.131 A 
ATOM     76  C   UNL     1       9.285  12.717  -7.248  1.00  0.00     0.055 A 
ATOM     77  C   UNL     1       6.953  12.530  -6.693  1.00  0.00     0.041 A 
ATOM     78  F   UNL     1       6.312  12.201  -4.461  1.00  0.00    -0.206 F 
ATOM     79  C   UNL     1       7.947  12.723  -7.648  1.00  0.00     0.022 A 
BRANCH  76  80
ATOM     80  S   UNL     1      10.596  13.064  -8.452  1.00  0.00     0.124 S 
ATOM     81  O   UNL     1      11.219  14.252  -7.880  1.00  0.00    -0.237 OA
ATOM     82  O   UNL     1      11.384  11.838  -8.402  1.00  0.00    -0.237 OA
ATOM     83  O   UNL     1       9.864  13.281  -9.699  1.00  0.00    -0.744 OA
ENDBRANCH  76  80
ENDBRANCH  49  73
BRANCH  61  84
ATOM     84  C   UNL     1      11.602  16.613  -0.292  1.00  0.00     0.023 A 
ATOM     85  C   UNL     1      10.798  17.734  -0.558  1.00  0.00     0.031 A 
ATOM     86  C   UNL     1      12.989  16.805  -0.162  1.00  0.00     0.131 A 
ATOM     87  C   UNL     1      11.392  18.991  -0.737  1.00  0.00     0.055 A 
ATOM     88  C   UNL     1      13.569  18.068  -0.287  1.00  0.00     0.041 A 
ATOM     89  F   UNL     1      13.802  15.767   0.092  1.00  0.00    -0.206 F 
ATOM     90  C   UNL     1      12.771  19.168  -0.588  1.00  0.00     0.022 A 
BRANCH  87  91
ATOM     91  S   UNL     1      10.348  20.384  -1.247  1.00  0.00     0.124 S 
ATOM     92  O   UNL     1       9.799  19.904  -2.511  1.00  0.00    -0.237 OA
ATOM     93  O   UNL     1       9.402  20.487  -0.140  1.00  0.00    -0.237 OA
ATOM     94  O   UNL     1      11.290  21.495  -1.362  1.00  0.00    -0.744 OA
ENDBRANCH  87  91
ENDBRANCH  61  84
ENDBRANCH  35  36
ENDBRANCH  27  30
ENDBRANCH  25  26
ENDBRANCH   1  25
TORSDOF 16
