REMARK SMILES CCC[C@H]1CCc2c(sc(NC(=O)[C@H]3[C@@H](C(=O)NCCCCNC(=O)c4ccc(-c5c6nc(c(-c7cc(S(=O)(=O)[O-])ccc7F)c7ccc([nH]7)c(-c7cc(S(=O)(=O)[O-])ccc7F)c7nc(c(-c8cc(S(=O)(=O)[O-])ccc8F)c8ccc5[nH]8)C=C7)C=C6)cc4)[C@H]4CC[C@@H]3O4)c2C(N)=O)C1
REMARK SMILES IDX 20 1 19 2 18 3 16 4 17 5 15 7 14 8 92 9 89 10 91 11 93 12
REMARK SMILES IDX 90 13 12 14 11 15 13 17 10 18 4 19 5 20 98 21 6 22 8 23 7 24
REMARK SMILES IDX 9 25 94 26 3 27 2 28 1 29 95 30 96 31 97 32 21 35 22 36
REMARK SMILES IDX 23 37 24 38 25 40 26 41 27 42 88 43 28 44 87 45 29 46 30 47
REMARK SMILES IDX 31 48 81 49 32 50 86 51 80 52 82 53 33 54 85 55 79 56 78 57
REMARK SMILES IDX 34 59 66 60 46 61 65 62 47 63 50 64 64 65 83 66 48 67 49 68
REMARK SMILES IDX 63 70 84 71 51 72 35 73 36 74 44 75 37 76 43 77 45 78 42 79
REMARK SMILES IDX 38 80 39 81 40 82 41 83 67 84 68 85 76 86 69 87 75 88 77 89
REMARK SMILES IDX 74 90 70 91 71 92 72 93 73 94 52 95 53 96 61 97 54 98 60 99
REMARK SMILES IDX 62 100 59 101 55 102 56 103 57 104 58 105
REMARK H PARENT 18 6 11 16 96 33 96 34 23 39 82 58 50 69
REMARK Flexibility Score: inf
ROOT
ATOM      1  C   UNL     1       3.260   4.275  -3.948  1.00  0.00     0.023 C 
ENDROOT
BRANCH   1   2
ATOM      2  C   UNL     1       2.912   3.733  -5.338  1.00  0.00     0.116 C 
BRANCH   2   3
ATOM      3  N   UNL     1       3.462   2.416  -5.594  1.00  0.00    -0.356 N 
ATOM      4  C   UNL     1       2.859   1.219  -5.842  1.00  0.00     0.226 C 
ATOM      5  O   UNL     1       3.582   0.276  -6.164  1.00  0.00    -0.275 OA
ATOM      6  H   UNL     1       4.446   2.380  -5.588  1.00  0.00     0.163 HD
BRANCH   4   7
ATOM      7  C   UNL     1       1.348   1.114  -5.862  1.00  0.00     0.122 C 
ATOM      8  C   UNL     1       0.514   1.376  -4.600  1.00  0.00     0.123 C 
ATOM      9  C   UNL     1      -0.351   0.118  -4.502  1.00  0.00     0.132 C 
ATOM     10  C   UNL     1       0.810  -0.260  -6.298  1.00  0.00     0.132 C 
ATOM     11  C   UNL     1       0.443  -1.130  -4.116  1.00  0.00     0.035 C 
ATOM     12  O   UNL     1      -0.592  -0.137  -5.909  1.00  0.00    -0.373 OA
ATOM     13  C   UNL     1       1.217  -1.423  -5.397  1.00  0.00     0.035 C 
BRANCH   8  14
ATOM     14  C   UNL     1       1.174   1.695  -3.290  1.00  0.00     0.231 C 
ATOM     15  N   UNL     1       0.516   2.377  -2.306  1.00  0.00    -0.317 N 
ATOM     16  H   UNL     1       1.079   2.623  -1.536  1.00  0.00     0.170 HD
ATOM     17  O   UNL     1       2.304   1.280  -3.026  1.00  0.00    -0.274 OA
BRANCH  15  18
ATOM     18  C   UNL     1      -0.795   2.780  -2.203  1.00  0.00     0.108 A 
ATOM     19  C   UNL     1      -5.241   2.015  -0.743  1.00  0.00    -0.006 C 
ATOM     20  C   UNL     1      -5.591   3.045  -1.842  1.00  0.00     0.009 C 
ATOM     21  C   UNL     1      -3.984   2.506   0.015  1.00  0.00     0.050 C 
ATOM     22  C   UNL     1      -4.476   3.123  -2.905  1.00  0.00     0.038 C 
ATOM     23  C   UNL     1      -2.897   2.758  -0.973  1.00  0.00     0.011 A 
ATOM     24  C   UNL     1      -3.095   3.041  -2.307  1.00  0.00    -0.019 A 
ATOM     25  S   UNL     1      -1.262   2.722  -0.554  1.00  0.00    -0.122 S 
ATOM     26  C   UNL     1      -1.843   3.187  -3.018  1.00  0.00     0.077 A 
BRANCH  19  27
ATOM     27  C   UNL     1      -6.400   1.768   0.236  1.00  0.00     0.004 C 
BRANCH  27  28
ATOM     28  C   UNL     1      -6.667   0.284   0.533  1.00  0.00    -0.003 C 
ATOM     29  C   UNL     1      -5.438  -0.565   0.830  1.00  0.00     0.004 C 
ENDBRANCH  27  28
ENDBRANCH  19  27
BRANCH  26  30
ATOM     30  C   UNL     1      -1.790   3.660  -4.394  1.00  0.00     0.251 C 
ATOM     31  N   UNL     1      -0.825   4.589  -4.658  1.00  0.00    -0.365 N 
ATOM     32  O   UNL     1      -2.582   3.318  -5.263  1.00  0.00    -0.269 OA
ATOM     33  H   UNL     1      -0.193   4.856  -3.951  1.00  0.00     0.159 HD
ATOM     34  H   UNL     1      -0.760   4.992  -5.554  1.00  0.00     0.159 HD
ENDBRANCH  26  30
ENDBRANCH  15  18
ENDBRANCH   8  14
ENDBRANCH   4   7
ENDBRANCH   2   3
ENDBRANCH   1   2
BRANCH   1  35
ATOM     35  C   UNL     1       4.749   4.272  -3.598  1.00  0.00     0.023 C 
BRANCH  35  36
ATOM     36  C   UNL     1       5.584   5.227  -4.438  1.00  0.00     0.116 C 
BRANCH  36  37
ATOM     37  N   UNL     1       5.240   6.618  -4.173  1.00  0.00    -0.352 N 
ATOM     38  C   UNL     1       6.056   7.643  -3.759  1.00  0.00     0.251 C 
ATOM     39  H   UNL     1       4.294   6.855  -4.308  1.00  0.00     0.163 HD
ATOM     40  O   UNL     1       5.565   8.699  -3.372  1.00  0.00    -0.269 OA
BRANCH  38  41
ATOM     41  C   UNL     1       7.521   7.448  -3.762  1.00  0.00     0.039 A 
ATOM     42  C   UNL     1       8.261   7.797  -2.631  1.00  0.00     0.014 A 
ATOM     43  C   UNL     1       8.151   6.884  -4.875  1.00  0.00     0.014 A 
ATOM     44  C   UNL     1       9.627   7.505  -2.585  1.00  0.00     0.010 A 
ATOM     45  C   UNL     1       9.494   6.531  -4.799  1.00  0.00     0.010 A 
ATOM     46  C   UNL     1      10.244   6.831  -3.651  1.00  0.00    -0.014 A 
BRANCH  46  47
ATOM     47  C   UNL     1      11.668   6.411  -3.592  1.00  0.00     0.031 A 
ATOM     48  C   UNL     1      12.655   6.981  -4.573  1.00  0.00     0.074 A 
ATOM     49  C   UNL     1      12.041   5.444  -2.731  1.00  0.00     0.049 A 
ATOM     50  N   UNL     1      13.898   6.641  -4.788  1.00  0.00    -0.248 NA
ATOM     51  C   UNL     1      12.163   8.054  -5.453  1.00  0.00     0.031 C 
ATOM     52  C   UNL     1      11.158   4.783  -1.766  1.00  0.00     0.029 A 
ATOM     53  N   UNL     1      13.252   4.825  -2.545  1.00  0.00    -0.354 N 
ATOM     54  C   UNL     1      14.331   7.434  -5.846  1.00  0.00     0.074 A 
ATOM     55  C   UNL     1      13.203   8.244  -6.253  1.00  0.00     0.031 C 
ATOM     56  C   UNL     1      11.857   3.855  -1.091  1.00  0.00     0.029 A 
ATOM     57  C   UNL     1      13.222   3.820  -1.605  1.00  0.00     0.049 A 
ATOM     58  H   UNL     1      14.067   5.078  -3.037  1.00  0.00     0.167 HD
ATOM     59  C   UNL     1      15.561   7.488  -6.413  1.00  0.00     0.034 A 
ATOM     60  C   UNL     1      14.178   2.949  -1.221  1.00  0.00     0.034 A 
ATOM     61  C   UNL     1      16.681   6.695  -5.973  1.00  0.00     0.049 A 
ATOM     62  C   UNL     1      15.539   3.037  -1.866  1.00  0.00     0.074 A 
ATOM     63  C   UNL     1      17.992   6.736  -6.416  1.00  0.00     0.029 A 
ATOM     64  N   UNL     1      16.623   5.711  -4.995  1.00  0.00    -0.354 N 
ATOM     65  N   UNL     1      15.951   3.842  -2.817  1.00  0.00    -0.248 NA
ATOM     66  C   UNL     1      16.564   2.106  -1.379  1.00  0.00     0.031 C 
ATOM     67  C   UNL     1      18.710   5.735  -5.752  1.00  0.00     0.029 A 
ATOM     68  C   UNL     1      17.866   5.115  -4.845  1.00  0.00     0.049 A 
ATOM     69  H   UNL     1      15.817   5.471  -4.483  1.00  0.00     0.167 HD
ATOM     70  C   UNL     1      17.292   3.529  -3.023  1.00  0.00     0.074 A 
ATOM     71  C   UNL     1      17.622   2.478  -2.084  1.00  0.00     0.031 C 
ATOM     72  C   UNL     1      18.173   4.061  -3.908  1.00  0.00     0.034 A 
BRANCH  59  73
ATOM     73  C   UNL     1      15.750   8.416  -7.588  1.00  0.00     0.023 A 
ATOM     74  C   UNL     1      15.645   9.811  -7.456  1.00  0.00     0.031 A 
ATOM     75  C   UNL     1      16.040   7.893  -8.861  1.00  0.00     0.131 A 
ATOM     76  C   UNL     1      15.769  10.632  -8.588  1.00  0.00     0.055 A 
ATOM     77  C   UNL     1      16.233   8.720  -9.969  1.00  0.00     0.041 A 
ATOM     78  F   UNL     1      16.132   6.567  -9.050  1.00  0.00    -0.206 F 
ATOM     79  C   UNL     1      16.087  10.098  -9.839  1.00  0.00     0.022 A 
BRANCH  76  80
ATOM     80  S   UNL     1      15.399  12.399  -8.422  1.00  0.00     0.124 S 
ATOM     81  O   UNL     1      13.997  12.370  -8.012  1.00  0.00    -0.237 OA
ATOM     82  O   UNL     1      16.352  12.829  -7.406  1.00  0.00    -0.237 OA
ATOM     83  O   UNL     1      15.637  12.927  -9.764  1.00  0.00    -0.744 OA
ENDBRANCH  76  80
ENDBRANCH  59  73
BRANCH  60  84
ATOM     84  C   UNL     1      13.886   1.898  -0.204  1.00  0.00     0.023 A 
ATOM     85  C   UNL     1      14.551   1.881   1.032  1.00  0.00     0.031 A 
ATOM     86  C   UNL     1      12.981   0.857  -0.479  1.00  0.00     0.131 A 
ATOM     87  C   UNL     1      14.345   0.817   1.924  1.00  0.00     0.055 A 
ATOM     88  C   UNL     1      12.737  -0.170   0.434  1.00  0.00     0.041 A 
ATOM     89  F   UNL     1      12.314   0.827  -1.644  1.00  0.00    -0.206 F 
ATOM     90  C   UNL     1      13.434  -0.203   1.638  1.00  0.00     0.022 A 
BRANCH  87  91
ATOM     91  S   UNL     1      15.365   0.731   3.422  1.00  0.00     0.124 S 
ATOM     92  O   UNL     1      16.713   0.770   2.867  1.00  0.00    -0.237 OA
ATOM     93  O   UNL     1      14.934   1.921   4.147  1.00  0.00    -0.237 OA
ATOM     94  O   UNL     1      14.975  -0.541   4.026  1.00  0.00    -0.744 OA
ENDBRANCH  87  91
ENDBRANCH  60  84
BRANCH  72  95
ATOM     95  C   UNL     1      19.585   3.535  -3.864  1.00  0.00     0.023 A 
ATOM     96  C   UNL     1      19.894   2.220  -4.252  1.00  0.00     0.031 A 
ATOM     97  C   UNL     1      20.632   4.358  -3.416  1.00  0.00     0.131 A 
ATOM     98  C   UNL     1      21.210   1.748  -4.132  1.00  0.00     0.055 A 
ATOM     99  C   UNL     1      21.949   3.902  -3.354  1.00  0.00     0.041 A 
ATOM    100  F   UNL     1      20.392   5.622  -3.032  1.00  0.00    -0.206 F 
ATOM    101  C   UNL     1      22.242   2.586  -3.702  1.00  0.00     0.022 A 
BRANCH  98 102
ATOM    102  S   UNL     1      21.541  -0.003  -4.468  1.00  0.00     0.124 S 
ATOM    103  O   UNL     1      20.682  -0.666  -3.493  1.00  0.00    -0.237 OA
ATOM    104  O   UNL     1      21.140  -0.135  -5.865  1.00  0.00    -0.237 OA
ATOM    105  O   UNL     1      22.976  -0.133  -4.221  1.00  0.00    -0.744 OA
ENDBRANCH  98 102
ENDBRANCH  72  95
ENDBRANCH  46  47
ENDBRANCH  38  41
ENDBRANCH  36  37
ENDBRANCH  35  36
ENDBRANCH   1  35
TORSDOF 19
