REMARK SMILES CCCN(CC)c1ccnc(C(=O)NCCCCNC(=O)c2ccc(-c3c4nc(c(-c5cc(S(=O)(=O)[O-])ccc5F)c5ccc([nH]5)c(-c5cc(S(=O)(=O)[O-])ccc5F)c5nc(c(-c6cc(S(=O)(=O)[O-])ccc6F)c6ccc3[nH]6)C=C5)C=C4)cc2)c1
REMARK SMILES IDX 16 1 15 2 14 3 12 4 13 5 11 7 7 8 8 9 85 10 9 11 10 12 4 13
REMARK SMILES IDX 3 14 2 15 1 16 5 17 6 18 17 19 18 20 19 21 20 22 21 24 22 25
REMARK SMILES IDX 23 26 84 27 24 28 83 29 25 30 26 31 27 32 77 33 28 34 82 35
REMARK SMILES IDX 76 36 78 37 29 38 81 39 75 40 74 41 30 43 62 44 42 45 61 46
REMARK SMILES IDX 43 47 46 48 60 49 79 50 44 51 45 52 59 54 80 55 47 56 31 57
REMARK SMILES IDX 32 58 40 59 33 60 39 61 41 62 38 63 34 64 35 65 36 66 37 67
REMARK SMILES IDX 63 68 64 69 72 70 65 71 71 72 73 73 70 74 66 75 67 76 68 77
REMARK SMILES IDX 69 78 48 79 49 80 57 81 50 82 56 83 58 84 55 85 51 86 52 87
REMARK SMILES IDX 53 88 54 89
REMARK H PARENT 14 6 19 23 78 42 46 53
REMARK Flexibility Score: inf
ROOT
ATOM      1  C   UNL     1       2.696   6.643   1.708  1.00  0.00     0.023 C 
ENDROOT
BRANCH   1   2
ATOM      2  C   UNL     1       1.649   6.826   0.607  1.00  0.00     0.116 C 
BRANCH   2   3
ATOM      3  N   UNL     1       2.256   6.665  -0.700  1.00  0.00    -0.351 N 
ATOM      4  C   UNL     1       2.241   5.605  -1.582  1.00  0.00     0.269 C 
ATOM      5  O   UNL     1       2.835   5.746  -2.652  1.00  0.00    -0.268 OA
ATOM      6  H   UNL     1       2.766   7.447  -1.011  1.00  0.00     0.163 HD
BRANCH   4   7
ATOM      7  C   UNL     1       1.495   4.332  -1.298  1.00  0.00     0.130 A 
ATOM      8  C   UNL     1       0.626   2.648   0.180  1.00  0.00     0.040 A 
ATOM      9  C   UNL     1      -0.044   2.108  -0.914  1.00  0.00     0.046 A 
ATOM     10  C   UNL     1       1.448   3.753  -0.036  1.00  0.00     0.060 A 
ATOM     11  C   UNL     1       0.123   2.689  -2.158  1.00  0.00     0.114 A 
ATOM     12  N   UNL     1       0.860   3.795  -2.372  1.00  0.00    -0.251 NA
BRANCH   8  13
ATOM     13  N   UNL     1       0.440   2.138   1.449  1.00  0.00    -0.372 N 
BRANCH  13  14
ATOM     14  C   UNL     1       1.275   1.049   1.952  1.00  0.00     0.116 C 
BRANCH  14  15
ATOM     15  C   UNL     1       0.754  -0.318   1.498  1.00  0.00     0.018 C 
ATOM     16  C   UNL     1       1.540  -0.879   0.321  1.00  0.00     0.006 C 
ENDBRANCH  14  15
ENDBRANCH  13  14
BRANCH  13  17
ATOM     17  C   UNL     1      -0.597   2.715   2.305  1.00  0.00     0.113 C 
ATOM     18  C   UNL     1      -0.092   3.949   3.039  1.00  0.00     0.027 C 
ENDBRANCH  13  17
ENDBRANCH   8  13
ENDBRANCH   4   7
ENDBRANCH   2   3
ENDBRANCH   1   2
BRANCH   1  19
ATOM     19  C   UNL     1       3.490   7.915   2.018  1.00  0.00     0.023 C 
BRANCH  19  20
ATOM     20  C   UNL     1       2.674   9.018   2.686  1.00  0.00     0.116 C 
BRANCH  20  21
ATOM     21  N   UNL     1       2.143   8.629   3.984  1.00  0.00    -0.352 N 
ATOM     22  C   UNL     1       1.889   9.435   5.068  1.00  0.00     0.251 C 
ATOM     23  H   UNL     1       1.940   7.672   4.099  1.00  0.00     0.163 HD
ATOM     24  O   UNL     1       1.540   8.943   6.137  1.00  0.00    -0.269 OA
BRANCH  22  25
ATOM     25  C   UNL     1       2.091  10.892   4.934  1.00  0.00     0.039 A 
ATOM     26  C   UNL     1       2.909  11.550   5.856  1.00  0.00     0.014 A 
ATOM     27  C   UNL     1       1.524  11.589   3.864  1.00  0.00     0.014 A 
ATOM     28  C   UNL     1       3.215  12.899   5.665  1.00  0.00     0.010 A 
ATOM     29  C   UNL     1       1.884  12.914   3.639  1.00  0.00     0.010 A 
ATOM     30  C   UNL     1       2.735  13.581   4.535  1.00  0.00    -0.014 A 
BRANCH  30  31
ATOM     31  C   UNL     1       3.089  14.999   4.274  1.00  0.00     0.031 A 
ATOM     32  C   UNL     1       2.010  16.046   4.277  1.00  0.00     0.074 A 
ATOM     33  C   UNL     1       4.356  15.329   3.952  1.00  0.00     0.049 A 
ATOM     34  N   UNL     1       2.076  17.309   3.944  1.00  0.00    -0.248 NA
ATOM     35  C   UNL     1       0.666  15.597   4.673  1.00  0.00     0.031 C 
ATOM     36  C   UNL     1       5.481  14.394   3.881  1.00  0.00     0.029 A 
ATOM     37  N   UNL     1       4.907  16.537   3.607  1.00  0.00    -0.354 N 
ATOM     38  C   UNL     1       0.781  17.801   4.068  1.00  0.00     0.074 A 
ATOM     39  C   UNL     1      -0.056  16.683   4.450  1.00  0.00     0.031 C 
ATOM     40  C   UNL     1       6.589  15.067   3.529  1.00  0.00     0.029 A 
ATOM     41  C   UNL     1       6.248  16.469   3.306  1.00  0.00     0.049 A 
ATOM     42  H   UNL     1       4.391  17.375   3.578  1.00  0.00     0.167 HD
ATOM     43  C   UNL     1       0.337  19.071   3.899  1.00  0.00     0.034 A 
ATOM     44  C   UNL     1       7.099  17.424   2.883  1.00  0.00     0.034 A 
ATOM     45  C   UNL     1       1.191  20.176   3.538  1.00  0.00     0.049 A 
ATOM     46  C   UNL     1       6.583  18.829   2.697  1.00  0.00     0.074 A 
ATOM     47  C   UNL     1       0.859  21.511   3.386  1.00  0.00     0.029 A 
ATOM     48  N   UNL     1       2.551  20.073   3.269  1.00  0.00    -0.354 N 
ATOM     49  N   UNL     1       5.362  19.287   2.852  1.00  0.00    -0.248 NA
ATOM     50  C   UNL     1       7.561  19.846   2.289  1.00  0.00     0.031 C 
ATOM     51  C   UNL     1       2.003  22.204   2.974  1.00  0.00     0.029 A 
ATOM     52  C   UNL     1       3.066  21.316   2.935  1.00  0.00     0.049 A 
ATOM     53  H   UNL     1       3.072  19.239   3.310  1.00  0.00     0.167 HD
ATOM     54  C   UNL     1       5.436  20.654   2.597  1.00  0.00     0.074 A 
ATOM     55  C   UNL     1       6.820  20.944   2.283  1.00  0.00     0.031 C 
ATOM     56  C   UNL     1       4.450  21.587   2.626  1.00  0.00     0.034 A 
BRANCH  43  57
ATOM     57  C   UNL     1      -1.142  19.315   4.080  1.00  0.00     0.023 A 
ATOM     58  C   UNL     1      -1.781  19.092   5.312  1.00  0.00     0.031 A 
ATOM     59  C   UNL     1      -1.935  19.732   2.995  1.00  0.00     0.131 A 
ATOM     60  C   UNL     1      -3.176  19.201   5.409  1.00  0.00     0.055 A 
ATOM     61  C   UNL     1      -3.312  19.923   3.121  1.00  0.00     0.041 A 
ATOM     62  F   UNL     1      -1.386  19.941   1.788  1.00  0.00    -0.206 F 
ATOM     63  C   UNL     1      -3.944  19.640   4.329  1.00  0.00     0.022 A 
BRANCH  60  64
ATOM     64  S   UNL     1      -3.985  18.610   6.921  1.00  0.00     0.124 S 
ATOM     65  O   UNL     1      -3.576  17.207   6.944  1.00  0.00    -0.237 OA
ATOM     66  O   UNL     1      -3.399  19.463   7.948  1.00  0.00    -0.237 OA
ATOM     67  O   UNL     1      -5.405  18.833   6.659  1.00  0.00    -0.744 OA
ENDBRANCH  60  64
ENDBRANCH  43  57
BRANCH  44  68
ATOM     68  C   UNL     1       8.524  17.094   2.598  1.00  0.00     0.023 A 
ATOM     69  C   UNL     1       9.559  17.633   3.378  1.00  0.00     0.031 A 
ATOM     70  C   UNL     1       8.875  16.266   1.517  1.00  0.00     0.131 A 
ATOM     71  C   UNL     1      10.897  17.377   3.039  1.00  0.00     0.055 A 
ATOM     72  C   UNL     1      10.206  15.975   1.213  1.00  0.00     0.041 A 
ATOM     73  F   UNL     1       7.923  15.718   0.745  1.00  0.00    -0.206 F 
ATOM     74  C   UNL     1      11.227  16.543   1.969  1.00  0.00     0.022 A 
BRANCH  71  75
ATOM     75  S   UNL     1      12.205  18.218   3.974  1.00  0.00     0.124 S 
ATOM     76  O   UNL     1      11.867  19.620   3.763  1.00  0.00    -0.237 OA
ATOM     77  O   UNL     1      11.992  17.701   5.322  1.00  0.00    -0.237 OA
ATOM     78  O   UNL     1      13.433  17.766   3.323  1.00  0.00    -0.744 OA
ENDBRANCH  71  75
ENDBRANCH  44  68
BRANCH  56  79
ATOM     79  C   UNL     1       4.852  23.018   2.374  1.00  0.00     0.023 A 
ATOM     80  C   UNL     1       5.278  23.459   1.109  1.00  0.00     0.031 A 
ATOM     81  C   UNL     1       4.805  23.953   3.423  1.00  0.00     0.131 A 
ATOM     82  C   UNL     1       5.685  24.790   0.937  1.00  0.00     0.055 A 
ATOM     83  C   UNL     1       5.160  25.289   3.232  1.00  0.00     0.041 A 
ATOM     84  F   UNL     1       4.406  23.584   4.650  1.00  0.00    -0.206 F 
ATOM     85  C   UNL     1       5.614  25.711   1.986  1.00  0.00     0.022 A 
BRANCH  82  86
ATOM     86  S   UNL     1       6.379  25.290  -0.663  1.00  0.00     0.124 S 
ATOM     87  O   UNL     1       7.529  24.399  -0.786  1.00  0.00    -0.237 OA
ATOM     88  O   UNL     1       5.272  25.033  -1.578  1.00  0.00    -0.237 OA
ATOM     89  O   UNL     1       6.707  26.701  -0.469  1.00  0.00    -0.744 OA
ENDBRANCH  82  86
ENDBRANCH  56  79
ENDBRANCH  30  31
ENDBRANCH  22  25
ENDBRANCH  20  21
ENDBRANCH  19  20
ENDBRANCH   1  19
TORSDOF 18
