REMARK SMILES CCCC[C@H](NC(=O)CC1([NH3+])CCC1)C(=O)NCCCCNC(=O)c1ccc(-c2c3nc(c(-c4cc(S(=O)(=O)[O-])ccc4F)c4ccc([nH]4)c(-c4cc(S(=O)(=O)[O-])ccc4F)c4nc(c(-c5cc(S(=O)(=O)[O-])ccc5F)c5ccc2[nH]5)C=C4)C=C3)cc1
REMARK SMILES IDX 19 1 18 2 17 3 15 4 16 5 5 7 4 8 3 9 2 10 1 11 6 12 7 13
REMARK SMILES IDX 8 15 9 16 10 17 12 18 14 19 13 20 11 21 20 25 21 26 22 27
REMARK SMILES IDX 23 28 24 30 25 31 26 32 87 33 27 34 86 35 28 36 29 37 30 38
REMARK SMILES IDX 80 39 31 40 85 41 79 42 81 43 32 44 84 45 78 46 77 47 33 49
REMARK SMILES IDX 65 50 45 51 64 52 46 53 49 54 63 55 82 56 47 57 48 58 62 60
REMARK SMILES IDX 83 61 50 62 34 63 35 64 43 65 36 66 42 67 44 68 41 69 37 70
REMARK SMILES IDX 38 71 39 72 40 73 66 74 67 75 75 76 68 77 74 78 76 79 73 80
REMARK SMILES IDX 69 81 70 82 71 83 72 84 51 85 52 86 60 87 53 88 59 89 61 90
REMARK SMILES IDX 58 91 54 92 55 93 56 94 57 95
REMARK H PARENT 17 6 6 14 11 22 11 23 11 24 22 29 81 48 49 59
REMARK Flexibility Score: inf
ROOT
ATOM      1  C   UNL     1       1.289  -6.368   1.281  1.00  0.00     0.023 C 
ENDROOT
BRANCH   1   2
ATOM      2  C   UNL     1       0.216  -5.916   0.307  1.00  0.00     0.116 C 
BRANCH   2   3
ATOM      3  N   UNL     1      -0.942  -5.308   0.912  1.00  0.00    -0.354 N 
ATOM      4  C   UNL     1      -1.615  -4.202   0.487  1.00  0.00     0.242 C 
ATOM      5  O   UNL     1      -2.788  -4.070   0.851  1.00  0.00    -0.273 OA
ATOM      6  H   UNL     1      -1.287  -5.742   1.725  1.00  0.00     0.163 HD
BRANCH   4   7
ATOM      7  C   UNL     1      -0.986  -3.175  -0.488  1.00  0.00     0.171 C 
BRANCH   7   8
ATOM      8  C   UNL     1      -1.507  -3.367  -1.936  1.00  0.00     0.035 C 
BRANCH   8   9
ATOM      9  C   UNL     1      -0.642  -4.019  -3.030  1.00  0.00     0.002 C 
BRANCH   9  10
ATOM     10  C   UNL     1      -0.389  -5.527  -3.007  1.00  0.00    -0.003 C 
ATOM     11  C   UNL     1      -1.607  -6.388  -2.720  1.00  0.00     0.004 C 
ENDBRANCH   9  10
ENDBRANCH   8   9
ENDBRANCH   7   8
BRANCH   7  12
ATOM     12  N   UNL     1       0.452  -2.965  -0.382  1.00  0.00    -0.344 N 
ATOM     13  C   UNL     1       1.182  -2.484   0.662  1.00  0.00     0.226 C 
ATOM     14  H   UNL     1       0.972  -3.206  -1.183  1.00  0.00     0.164 HD
ATOM     15  O   UNL     1       2.397  -2.359   0.482  1.00  0.00    -0.275 OA
BRANCH  13  16
ATOM     16  C   UNL     1       0.557  -2.186   2.008  1.00  0.00     0.168 C 
BRANCH  16  17
ATOM     17  C   UNL     1      -0.360  -0.976   2.132  1.00  0.00     0.103 C 
ATOM     18  C   UNL     1      -1.894  -1.188   2.309  1.00  0.00     0.069 C 
ATOM     19  C   UNL     1      -0.387  -0.313   3.546  1.00  0.00     0.069 C 
ATOM     20  C   UNL     1      -1.900  -0.079   3.378  1.00  0.00     0.013 C 
BRANCH  17  21
ATOM     21  N   UNL     1      -0.124   0.103   1.158  1.00  0.00    -0.352 N 
ATOM     22  H   UNL     1      -0.099  -0.289   0.216  1.00  0.00     0.344 HD
ATOM     23  H   UNL     1       0.767   0.556   1.361  1.00  0.00     0.344 HD
ATOM     24  H   UNL     1      -0.876   0.788   1.220  1.00  0.00     0.344 HD
ENDBRANCH  17  21
ENDBRANCH  16  17
ENDBRANCH  13  16
ENDBRANCH   7  12
ENDBRANCH   4   7
ENDBRANCH   2   3
ENDBRANCH   1   2
BRANCH   1  25
ATOM     25  C   UNL     1       0.932  -7.581   2.131  1.00  0.00     0.023 C 
BRANCH  25  26
ATOM     26  C   UNL     1       0.227  -8.723   1.409  1.00  0.00     0.116 C 
BRANCH  26  27
ATOM     27  N   UNL     1       0.904  -9.181   0.203  1.00  0.00    -0.352 N 
ATOM     28  C   UNL     1       1.015 -10.465  -0.277  1.00  0.00     0.251 C 
ATOM     29  H   UNL     1       1.337  -8.481  -0.337  1.00  0.00     0.163 HD
ATOM     30  O   UNL     1       1.655 -10.686  -1.301  1.00  0.00    -0.269 OA
BRANCH  28  31
ATOM     31  C   UNL     1       0.407 -11.572   0.489  1.00  0.00     0.039 A 
ATOM     32  C   UNL     1       1.200 -12.671   0.825  1.00  0.00     0.014 A 
ATOM     33  C   UNL     1      -0.913 -11.487   0.940  1.00  0.00     0.014 A 
ATOM     34  C   UNL     1       0.689 -13.654   1.674  1.00  0.00     0.010 A 
ATOM     35  C   UNL     1      -1.387 -12.420   1.855  1.00  0.00     0.010 A 
ATOM     36  C   UNL     1      -0.596 -13.519   2.225  1.00  0.00    -0.014 A 
BRANCH  36  37
ATOM     37  C   UNL     1      -1.141 -14.540   3.158  1.00  0.00     0.031 A 
ATOM     38  C   UNL     1      -2.361 -15.331   2.766  1.00  0.00     0.074 A 
ATOM     39  C   UNL     1      -0.574 -14.722   4.367  1.00  0.00     0.049 A 
ATOM     40  N   UNL     1      -3.019 -16.234   3.447  1.00  0.00    -0.248 NA
ATOM     41  C   UNL     1      -2.939 -15.037   1.446  1.00  0.00     0.031 C 
ATOM     42  C   UNL     1       0.575 -13.975   4.886  1.00  0.00     0.029 A 
ATOM     43  N   UNL     1      -0.887 -15.590   5.383  1.00  0.00    -0.354 N 
ATOM     44  C   UNL     1      -4.095 -16.602   2.646  1.00  0.00     0.074 A 
ATOM     45  C   UNL     1      -4.042 -15.768   1.465  1.00  0.00     0.031 C 
ATOM     46  C   UNL     1       0.889 -14.441   6.106  1.00  0.00     0.029 A 
ATOM     47  C   UNL     1      -0.053 -15.494   6.473  1.00  0.00     0.049 A 
ATOM     48  H   UNL     1      -1.639 -16.224   5.335  1.00  0.00     0.167 HD
ATOM     49  C   UNL     1      -5.022 -17.569   2.857  1.00  0.00     0.034 A 
ATOM     50  C   UNL     1      -0.047 -16.180   7.633  1.00  0.00     0.034 A 
ATOM     51  C   UNL     1      -5.046 -18.408   4.030  1.00  0.00     0.049 A 
ATOM     52  C   UNL     1      -1.073 -17.267   7.838  1.00  0.00     0.074 A 
ATOM     53  C   UNL     1      -5.911 -19.445   4.333  1.00  0.00     0.029 A 
ATOM     54  N   UNL     1      -4.161 -18.308   5.096  1.00  0.00    -0.354 N 
ATOM     55  N   UNL     1      -2.053 -17.641   7.046  1.00  0.00    -0.248 NA
ATOM     56  C   UNL     1      -0.976 -18.041   9.082  1.00  0.00     0.031 C 
ATOM     57  C   UNL     1      -5.584 -19.934   5.603  1.00  0.00     0.029 A 
ATOM     58  C   UNL     1      -4.467 -19.254   6.062  1.00  0.00     0.049 A 
ATOM     59  H   UNL     1      -3.423 -17.659   5.157  1.00  0.00     0.167 HD
ATOM     60  C   UNL     1      -2.660 -18.723   7.680  1.00  0.00     0.074 A 
ATOM     61  C   UNL     1      -1.926 -18.947   8.908  1.00  0.00     0.031 C 
ATOM     62  C   UNL     1      -3.724 -19.467   7.282  1.00  0.00     0.034 A 
BRANCH  49  63
ATOM     63  C   UNL     1      -6.087 -17.748   1.801  1.00  0.00     0.023 A 
ATOM     64  C   UNL     1      -5.763 -18.115   0.482  1.00  0.00     0.031 A 
ATOM     65  C   UNL     1      -7.439 -17.506   2.100  1.00  0.00     0.131 A 
ATOM     66  C   UNL     1      -6.760 -18.142  -0.505  1.00  0.00     0.055 A 
ATOM     67  C   UNL     1      -8.440 -17.623   1.133  1.00  0.00     0.041 A 
ATOM     68  F   UNL     1      -7.810 -17.132   3.335  1.00  0.00    -0.206 F 
ATOM     69  C   UNL     1      -8.101 -17.926  -0.183  1.00  0.00     0.022 A 
BRANCH  66  70
ATOM     70  S   UNL     1      -6.256 -18.308  -2.239  1.00  0.00     0.124 S 
ATOM     71  O   UNL     1      -5.406 -17.133  -2.412  1.00  0.00    -0.237 OA
ATOM     72  O   UNL     1      -5.574 -19.597  -2.248  1.00  0.00    -0.237 OA
ATOM     73  O   UNL     1      -7.521 -18.266  -2.969  1.00  0.00    -0.744 OA
ENDBRANCH  66  70
ENDBRANCH  49  63
BRANCH  50  74
ATOM     74  C   UNL     1       0.966 -15.884   8.688  1.00  0.00     0.023 A 
ATOM     75  C   UNL     1       1.924 -16.841   9.059  1.00  0.00     0.031 A 
ATOM     76  C   UNL     1       0.956 -14.660   9.379  1.00  0.00     0.131 A 
ATOM     77  C   UNL     1       2.794 -16.583  10.130  1.00  0.00     0.055 A 
ATOM     78  C   UNL     1       1.860 -14.386  10.408  1.00  0.00     0.041 A 
ATOM     79  F   UNL     1       0.068 -13.706   9.058  1.00  0.00    -0.206 F 
ATOM     80  C   UNL     1       2.776 -15.358  10.800  1.00  0.00     0.022 A 
BRANCH  77  81
ATOM     81  S   UNL     1       3.891 -17.913  10.698  1.00  0.00     0.124 S 
ATOM     82  O   UNL     1       2.937 -18.969  11.017  1.00  0.00    -0.237 OA
ATOM     83  O   UNL     1       4.728 -18.135   9.524  1.00  0.00    -0.237 OA
ATOM     84  O   UNL     1       4.576 -17.321  11.846  1.00  0.00    -0.744 OA
ENDBRANCH  77  81
ENDBRANCH  50  74
BRANCH  62  85
ATOM     85  C   UNL     1      -4.108 -20.635   8.158  1.00  0.00     0.023 A 
ATOM     86  C   UNL     1      -4.591 -20.457   9.466  1.00  0.00     0.031 A 
ATOM     87  C   UNL     1      -3.958 -21.950   7.682  1.00  0.00     0.131 A 
ATOM     88  C   UNL     1      -4.836 -21.575  10.278  1.00  0.00     0.055 A 
ATOM     89  C   UNL     1      -4.268 -23.058   8.472  1.00  0.00     0.041 A 
ATOM     90  F   UNL     1      -3.502 -22.180   6.441  1.00  0.00    -0.206 F 
ATOM     91  C   UNL     1      -4.693 -22.874   9.784  1.00  0.00     0.022 A 
BRANCH  88  92
ATOM     92  S   UNL     1      -5.230 -21.308  12.029  1.00  0.00     0.124 S 
ATOM     93  O   UNL     1      -4.102 -20.495  12.474  1.00  0.00    -0.237 OA
ATOM     94  O   UNL     1      -6.518 -20.626  11.957  1.00  0.00    -0.237 OA
ATOM     95  O   UNL     1      -5.275 -22.661  12.581  1.00  0.00    -0.744 OA
ENDBRANCH  88  92
ENDBRANCH  62  85
ENDBRANCH  36  37
ENDBRANCH  28  31
ENDBRANCH  26  27
ENDBRANCH  25  26
ENDBRANCH   1  25
TORSDOF 21
