REMARK SMILES O=C(NCCCCNC(=O)c1cncc(OCCCc2ccccc2)n1)c1ccc(-c2c3nc(c(-c4cc(S(=O)(=O)[O-])ccc4F)c4ccc([nH]4)c(-c4cc(S(=O)(=O)[O-])ccc4F)c4nc(c(-c5cc(S(=O)(=O)[O-])ccc5F)c5ccc2[nH]5)C=C4)C=C3)cc1
REMARK SMILES IDX 6 1 5 2 4 3 3 4 1 5 2 6 27 8 28 9 89 10 29 11 88 12 30 13
REMARK SMILES IDX 31 14 32 15 82 16 33 17 87 18 81 19 83 20 34 21 86 22 80 23
REMARK SMILES IDX 79 24 35 26 67 27 47 28 66 29 48 30 51 31 65 32 84 33 49 34
REMARK SMILES IDX 50 35 64 37 85 38 52 39 36 40 37 41 45 42 38 43 44 44 46 45
REMARK SMILES IDX 43 46 39 47 40 48 41 49 42 50 68 51 69 52 77 53 70 54 76 55
REMARK SMILES IDX 78 56 75 57 71 58 72 59 73 60 74 61 53 62 54 63 62 64 55 65
REMARK SMILES IDX 61 66 63 67 60 68 56 69 57 70 58 71 59 72 7 73 8 74 9 75
REMARK SMILES IDX 10 77 11 78 12 79 26 80 13 81 15 82 14 83 16 84 17 85 18 86
REMARK SMILES IDX 19 87 20 88 21 89 25 90 22 91 24 92 23 93
REMARK H PARENT 3 7 83 25 51 36 8 76
REMARK Flexibility Score: inf
ROOT
ATOM      1  C   UNL     1       4.360  -2.565   2.871  1.00  0.00     0.023 C 
ENDROOT
BRANCH   1   2
ATOM      2  C   UNL     1       4.931  -1.316   2.199  1.00  0.00     0.023 C 
BRANCH   2   3
ATOM      3  C   UNL     1       4.559  -1.103   0.735  1.00  0.00     0.116 C 
BRANCH   3   4
ATOM      4  N   UNL     1       3.123  -1.066   0.503  1.00  0.00    -0.352 N 
ATOM      5  O   UNL     1       1.125  -0.230  -0.097  1.00  0.00    -0.269 OA
ATOM      6  C   UNL     1       2.348  -0.101  -0.092  1.00  0.00     0.251 C 
ATOM      7  H   UNL     1       2.631  -1.856   0.824  1.00  0.00     0.163 HD
BRANCH   6   8
ATOM      8  C   UNL     1       2.967   1.100  -0.695  1.00  0.00     0.039 A 
ATOM      9  C   UNL     1       4.085   1.005  -1.527  1.00  0.00     0.014 A 
ATOM     10  C   UNL     1       2.400   2.350  -0.430  1.00  0.00     0.014 A 
ATOM     11  C   UNL     1       4.716   2.163  -1.979  1.00  0.00     0.010 A 
ATOM     12  C   UNL     1       2.993   3.507  -0.942  1.00  0.00     0.010 A 
ATOM     13  C   UNL     1       4.177   3.426  -1.692  1.00  0.00    -0.014 A 
BRANCH  13  14
ATOM     14  C   UNL     1       4.844   4.657  -2.191  1.00  0.00     0.031 A 
ATOM     15  C   UNL     1       5.439   5.649  -1.229  1.00  0.00     0.074 A 
ATOM     16  C   UNL     1       4.903   4.885  -3.517  1.00  0.00     0.049 A 
ATOM     17  N   UNL     1       5.995   6.808  -1.471  1.00  0.00    -0.248 NA
ATOM     18  C   UNL     1       5.389   5.292   0.196  1.00  0.00     0.031 C 
ATOM     19  C   UNL     1       4.366   3.994  -4.548  1.00  0.00     0.029 A 
ATOM     20  N   UNL     1       5.433   5.933  -4.225  1.00  0.00    -0.354 N 
ATOM     21  C   UNL     1       6.346   7.331  -0.231  1.00  0.00     0.074 A 
ATOM     22  C   UNL     1       5.903   6.373   0.763  1.00  0.00     0.031 C 
ATOM     23  C   UNL     1       4.607   4.526  -5.755  1.00  0.00     0.029 A 
ATOM     24  C   UNL     1       5.256   5.821  -5.584  1.00  0.00     0.049 A 
ATOM     25  H   UNL     1       5.896   6.691  -3.802  1.00  0.00     0.167 HD
ATOM     26  C   UNL     1       6.985   8.496   0.051  1.00  0.00     0.034 A 
ATOM     27  C   UNL     1       5.550   6.678  -6.581  1.00  0.00     0.034 A 
ATOM     28  C   UNL     1       7.415   9.439  -0.956  1.00  0.00     0.049 A 
ATOM     29  C   UNL     1       6.207   7.989  -6.246  1.00  0.00     0.074 A 
ATOM     30  C   UNL     1       8.093  10.635  -0.787  1.00  0.00     0.029 A 
ATOM     31  N   UNL     1       7.196   9.302  -2.322  1.00  0.00    -0.354 N 
ATOM     32  N   UNL     1       6.541   8.467  -5.069  1.00  0.00    -0.248 NA
ATOM     33  C   UNL     1       6.532   8.873  -7.371  1.00  0.00     0.031 C 
ATOM     34  C   UNL     1       8.222  11.250  -2.038  1.00  0.00     0.029 A 
ATOM     35  C   UNL     1       7.697  10.404  -3.001  1.00  0.00     0.049 A 
ATOM     36  H   UNL     1       6.750   8.534  -2.747  1.00  0.00     0.167 HD
ATOM     37  C   UNL     1       7.141   9.698  -5.316  1.00  0.00     0.074 A 
ATOM     38  C   UNL     1       7.127   9.884  -6.754  1.00  0.00     0.031 C 
ATOM     39  C   UNL     1       7.664  10.586  -4.434  1.00  0.00     0.034 A 
BRANCH  26  40
ATOM     40  C   UNL     1       7.205   8.830   1.509  1.00  0.00     0.023 A 
ATOM     41  C   UNL     1       7.999   8.024   2.344  1.00  0.00     0.031 A 
ATOM     42  C   UNL     1       6.576   9.949   2.085  1.00  0.00     0.131 A 
ATOM     43  C   UNL     1       8.071   8.294   3.719  1.00  0.00     0.055 A 
ATOM     44  C   UNL     1       6.723  10.263   3.438  1.00  0.00     0.041 A 
ATOM     45  F   UNL     1       5.790  10.748   1.346  1.00  0.00    -0.206 F 
ATOM     46  C   UNL     1       7.459   9.423   4.268  1.00  0.00     0.022 A 
BRANCH  43  47
ATOM     47  S   UNL     1       8.835   7.058   4.806  1.00  0.00     0.124 S 
ATOM     48  O   UNL     1       8.062   5.860   4.483  1.00  0.00    -0.237 OA
ATOM     49  O   UNL     1      10.223   7.061   4.359  1.00  0.00    -0.237 OA
ATOM     50  O   UNL     1       8.608   7.592   6.147  1.00  0.00    -0.744 OA
ENDBRANCH  43  47
ENDBRANCH  26  40
BRANCH  27  51
ATOM     51  C   UNL     1       5.184   6.333  -7.982  1.00  0.00     0.023 A 
ATOM     52  C   UNL     1       6.168   6.083  -8.950  1.00  0.00     0.031 A 
ATOM     53  C   UNL     1       3.834   6.243  -8.369  1.00  0.00     0.131 A 
ATOM     54  C   UNL     1       5.787   5.778 -10.266  1.00  0.00     0.055 A 
ATOM     55  C   UNL     1       3.461   5.894  -9.667  1.00  0.00     0.041 A 
ATOM     56  F   UNL     1       2.856   6.466  -7.477  1.00  0.00    -0.206 F 
ATOM     57  C   UNL     1       4.442   5.667 -10.627  1.00  0.00     0.022 A 
BRANCH  54  58
ATOM     58  S   UNL     1       7.082   5.572 -11.519  1.00  0.00     0.124 S 
ATOM     59  O   UNL     1       7.729   6.879 -11.495  1.00  0.00    -0.237 OA
ATOM     60  O   UNL     1       7.857   4.462 -10.976  1.00  0.00    -0.237 OA
ATOM     61  O   UNL     1       6.333   5.269 -12.736  1.00  0.00    -0.744 OA
ENDBRANCH  54  58
ENDBRANCH  27  51
BRANCH  39  62
ATOM     62  C   UNL     1       8.315  11.820  -5.010  1.00  0.00     0.023 A 
ATOM     63  C   UNL     1       7.568  12.829  -5.642  1.00  0.00     0.031 A 
ATOM     64  C   UNL     1       9.709  11.981  -4.925  1.00  0.00     0.131 A 
ATOM     65  C   UNL     1       8.225  13.935  -6.205  1.00  0.00     0.055 A 
ATOM     66  C   UNL     1      10.352  13.108  -5.440  1.00  0.00     0.041 A 
ATOM     67  F   UNL     1      10.470  11.045  -4.335  1.00  0.00    -0.206 F 
ATOM     68  C   UNL     1       9.610  14.088  -6.093  1.00  0.00     0.022 A 
BRANCH  65  69
ATOM     69  S   UNL     1       7.255  15.139  -7.153  1.00  0.00     0.124 S 
ATOM     70  O   UNL     1       6.697  14.310  -8.215  1.00  0.00    -0.237 OA
ATOM     71  O   UNL     1       6.305  15.628  -6.159  1.00  0.00    -0.237 OA
ATOM     72  O   UNL     1       8.252  16.116  -7.588  1.00  0.00    -0.744 OA
ENDBRANCH  65  69
ENDBRANCH  39  62
ENDBRANCH  13  14
ENDBRANCH   6   8
ENDBRANCH   3   4
ENDBRANCH   2   3
ENDBRANCH   1   2
BRANCH   1  73
ATOM     73  C   UNL     1       4.489  -3.871   2.094  1.00  0.00     0.116 C 
BRANCH  73  74
ATOM     74  N   UNL     1       5.854  -4.203   1.736  1.00  0.00    -0.351 N 
ATOM     75  C   UNL     1       6.525  -5.391   1.900  1.00  0.00     0.271 C 
ATOM     76  H   UNL     1       6.371  -3.477   1.319  1.00  0.00     0.163 HD
ATOM     77  O   UNL     1       7.652  -5.531   1.431  1.00  0.00    -0.267 OA
BRANCH  75  78
ATOM     78  C   UNL     1       5.888  -6.518   2.613  1.00  0.00     0.150 A 
ATOM     79  C   UNL     1       4.836  -7.210   2.034  1.00  0.00     0.145 A 
ATOM     80  N   UNL     1       6.457  -6.898   3.783  1.00  0.00    -0.205 NA
ATOM     81  N   UNL     1       4.287  -8.308   2.615  1.00  0.00    -0.257 NA
ATOM     82  C   UNL     1       5.945  -8.007   4.343  1.00  0.00     0.233 A 
ATOM     83  C   UNL     1       4.884  -8.698   3.772  1.00  0.00     0.179 A 
BRANCH  82  84
ATOM     84  O   UNL     1       6.558  -8.547   5.449  1.00  0.00    -0.477 OA
BRANCH  84  85
ATOM     85  C   UNL     1       7.215  -7.580   6.277  1.00  0.00     0.232 C 
BRANCH  85  86
ATOM     86  C   UNL     1       8.734  -7.530   6.069  1.00  0.00     0.046 C 
BRANCH  86  87
ATOM     87  C   UNL     1       9.255  -6.577   4.980  1.00  0.00     0.039 C 
BRANCH  87  88
ATOM     88  C   UNL     1       8.953  -5.097   5.097  1.00  0.00    -0.048 A 
ATOM     89  C   UNL     1       9.226  -4.280   3.987  1.00  0.00     0.004 A 
ATOM     90  C   UNL     1       8.441  -4.488   6.249  1.00  0.00     0.004 A 
ATOM     91  C   UNL     1       8.949  -2.911   4.009  1.00  0.00     0.000 A 
ATOM     92  C   UNL     1       8.146  -3.121   6.266  1.00  0.00     0.000 A 
ATOM     93  C   UNL     1       8.396  -2.333   5.146  1.00  0.00     0.000 A 
ENDBRANCH  87  88
ENDBRANCH  86  87
ENDBRANCH  85  86
ENDBRANCH  84  85
ENDBRANCH  82  84
ENDBRANCH  75  78
ENDBRANCH  73  74
ENDBRANCH   1  73
TORSDOF 19
