REMARK SMILES O=C(NCCCCNC(=O)c1c(F)cccc1N1CC[C@@H]([NH+]2CCCCC2)C1)c1ccc(-c2c3nc(c(-c4cc(S(=O)(=O)[O-])ccc4F)c4ccc([nH]4)c(-c4cc(S(=O)(=O)[O-])ccc4F)c4nc(c(-c5cc(S(=O)(=O)[O-])ccc5F)c5ccc2[nH]5)C=C4)C=C3)cc1
REMARK SMILES IDX 5 1 4 2 3 3 1 4 2 5 29 7 30 8 91 9 31 10 90 11 32 12 33 13
REMARK SMILES IDX 34 14 84 15 35 16 89 17 83 18 85 19 36 20 88 21 82 22 81 23
REMARK SMILES IDX 37 25 69 26 49 27 68 28 50 29 53 30 67 31 86 32 51 33 52 34
REMARK SMILES IDX 66 36 87 37 54 38 38 39 39 40 47 41 40 42 46 43 48 44 45 45
REMARK SMILES IDX 41 46 42 47 43 48 44 49 70 50 71 51 79 52 72 53 78 54 80 55
REMARK SMILES IDX 77 56 73 57 74 58 75 59 76 60 55 61 56 62 64 63 57 64 63 65
REMARK SMILES IDX 65 66 62 67 58 68 59 69 60 70 61 71 6 72 7 73 8 74 9 75
REMARK SMILES IDX 10 77 11 78 12 79 17 80 13 81 14 82 16 83 15 84 18 85 19 86
REMARK SMILES IDX 28 87 20 88 21 89 22 90 23 91 27 92 24 94 26 95 25 96
REMARK H PARENT 3 6 85 24 53 35 8 76 22 93
REMARK Flexibility Score: inf
ROOT
ATOM      1  C   UNL     1       5.034  -0.298  -2.655  1.00  0.00     0.023 C 
ENDROOT
BRANCH   1   2
ATOM      2  C   UNL     1       4.649   0.285  -1.302  1.00  0.00     0.116 C 
BRANCH   2   3
ATOM      3  N   UNL     1       3.212   0.352  -1.075  1.00  0.00    -0.352 N 
ATOM      4  O   UNL     1       1.260   0.023   0.007  1.00  0.00    -0.269 OA
ATOM      5  C   UNL     1       2.487  -0.044   0.027  1.00  0.00     0.251 C 
ATOM      6  H   UNL     1       2.685   0.734  -1.813  1.00  0.00     0.163 HD
BRANCH   5   7
ATOM      7  C   UNL     1       3.184  -0.586   1.215  1.00  0.00     0.039 A 
ATOM      8  C   UNL     1       4.333   0.030   1.710  1.00  0.00     0.014 A 
ATOM      9  C   UNL     1       2.696  -1.747   1.825  1.00  0.00     0.014 A 
ATOM     10  C   UNL     1       5.089  -0.607   2.686  1.00  0.00     0.010 A 
ATOM     11  C   UNL     1       3.407  -2.334   2.878  1.00  0.00     0.010 A 
ATOM     12  C   UNL     1       4.633  -1.792   3.289  1.00  0.00    -0.014 A 
BRANCH  12  13
ATOM     13  C   UNL     1       5.448  -2.400   4.374  1.00  0.00     0.031 A 
ATOM     14  C   UNL     1       6.087  -3.753   4.215  1.00  0.00     0.074 A 
ATOM     15  C   UNL     1       5.673  -1.674   5.488  1.00  0.00     0.049 A 
ATOM     16  N   UNL     1       6.899  -4.378   5.030  1.00  0.00    -0.248 NA
ATOM     17  C   UNL     1       5.770  -4.507   2.994  1.00  0.00     0.031 C 
ATOM     18  C   UNL     1       5.098  -0.352   5.755  1.00  0.00     0.029 A 
ATOM     19  N   UNL     1       6.474  -1.912   6.574  1.00  0.00    -0.354 N 
ATOM     20  C   UNL     1       7.175  -5.604   4.435  1.00  0.00     0.074 A 
ATOM     21  C   UNL     1       6.422  -5.644   3.199  1.00  0.00     0.031 C 
ATOM     22  C   UNL     1       5.631   0.139   6.881  1.00  0.00     0.029 A 
ATOM     23  C   UNL     1       6.528  -0.858   7.455  1.00  0.00     0.049 A 
ATOM     24  H   UNL     1       6.962  -2.756   6.711  1.00  0.00     0.167 HD
ATOM     25  C   UNL     1       7.985  -6.597   4.877  1.00  0.00     0.034 A 
ATOM     26  C   UNL     1       7.217  -0.703   8.601  1.00  0.00     0.034 A 
ATOM     27  C   UNL     1       8.746  -6.532   6.101  1.00  0.00     0.049 A 
ATOM     28  C   UNL     1       8.092  -1.822   9.081  1.00  0.00     0.074 A 
ATOM     29  C   UNL     1       9.635  -7.463   6.613  1.00  0.00     0.029 A 
ATOM     30  N   UNL     1       8.707  -5.482   7.010  1.00  0.00    -0.354 N 
ATOM     31  N   UNL     1       8.332  -2.977   8.507  1.00  0.00    -0.248 NA
ATOM     32  C   UNL     1       8.774  -1.628  10.366  1.00  0.00     0.031 C 
ATOM     33  C   UNL     1      10.083  -7.006   7.857  1.00  0.00     0.029 A 
ATOM     34  C   UNL     1       9.526  -5.759   8.094  1.00  0.00     0.049 A 
ATOM     35  H   UNL     1       8.174  -4.661   6.901  1.00  0.00     0.167 HD
ATOM     36  C   UNL     1       9.194  -3.651   9.363  1.00  0.00     0.074 A 
ATOM     37  C   UNL     1       9.441  -2.769  10.487  1.00  0.00     0.031 C 
ATOM     38  C   UNL     1       9.734  -4.887   9.224  1.00  0.00     0.034 A 
BRANCH  25  39
ATOM     39  C   UNL     1       8.059  -7.861   4.057  1.00  0.00     0.023 A 
ATOM     40  C   UNL     1       8.656  -7.888   2.785  1.00  0.00     0.031 A 
ATOM     41  C   UNL     1       7.536  -9.063   4.567  1.00  0.00     0.131 A 
ATOM     42  C   UNL     1       8.672  -9.082   2.046  1.00  0.00     0.055 A 
ATOM     43  C   UNL     1       7.612 -10.261   3.854  1.00  0.00     0.041 A 
ATOM     44  F   UNL     1       6.941  -9.091   5.770  1.00  0.00    -0.206 F 
ATOM     45  C   UNL     1       8.175 -10.273   2.582  1.00  0.00     0.022 A 
BRANCH  42  46
ATOM     46  S   UNL     1       9.271  -9.039   0.334  1.00  0.00     0.124 S 
ATOM     47  O   UNL     1       8.316  -8.126  -0.290  1.00  0.00    -0.237 OA
ATOM     48  O   UNL     1      10.630  -8.534   0.486  1.00  0.00    -0.237 OA
ATOM     49  O   UNL     1       9.168 -10.430  -0.101  1.00  0.00    -0.744 OA
ENDBRANCH  42  46
ENDBRANCH  25  39
BRANCH  26  50
ATOM     50  C   UNL     1       7.069   0.561   9.370  1.00  0.00     0.023 A 
ATOM     51  C   UNL     1       8.097   1.514   9.402  1.00  0.00     0.031 A 
ATOM     52  C   UNL     1       5.858   0.861  10.021  1.00  0.00     0.131 A 
ATOM     53  C   UNL     1       7.893   2.730  10.074  1.00  0.00     0.055 A 
ATOM     54  C   UNL     1       5.650   2.083  10.658  1.00  0.00     0.041 A 
ATOM     55  F   UNL     1       4.842  -0.016   9.997  1.00  0.00    -0.206 F 
ATOM     56  C   UNL     1       6.672   3.027  10.687  1.00  0.00     0.022 A 
BRANCH  53  57
ATOM     57  S   UNL     1       9.244   3.940  10.123  1.00  0.00     0.124 S 
ATOM     58  O   UNL     1      10.215   3.265  10.976  1.00  0.00    -0.237 OA
ATOM     59  O   UNL     1       9.601   4.061   8.713  1.00  0.00    -0.237 OA
ATOM     60  O   UNL     1       8.617   5.125  10.705  1.00  0.00    -0.744 OA
ENDBRANCH  53  57
ENDBRANCH  26  50
BRANCH  38  61
ATOM     61  C   UNL     1      10.654  -5.360  10.316  1.00  0.00     0.023 A 
ATOM     62  C   UNL     1      10.156  -5.779  11.560  1.00  0.00     0.031 A 
ATOM     63  C   UNL     1      12.039  -5.431  10.091  1.00  0.00     0.131 A 
ATOM     64  C   UNL     1      11.044  -6.233  12.547  1.00  0.00     0.055 A 
ATOM     65  C   UNL     1      12.914  -5.920  11.061  1.00  0.00     0.041 A 
ATOM     66  F   UNL     1      12.560  -5.043   8.915  1.00  0.00    -0.206 F 
ATOM     67  C   UNL     1      12.417  -6.321  12.299  1.00  0.00     0.022 A 
BRANCH  64  68
ATOM     68  S   UNL     1      10.386  -6.696  14.172  1.00  0.00     0.124 S 
ATOM     69  O   UNL     1       9.957  -5.405  14.701  1.00  0.00    -0.237 OA
ATOM     70  O   UNL     1       9.320  -7.631  13.831  1.00  0.00    -0.237 OA
ATOM     71  O   UNL     1      11.537  -7.292  14.849  1.00  0.00    -0.744 OA
ENDBRANCH  64  68
ENDBRANCH  38  61
ENDBRANCH  12  13
ENDBRANCH   5   7
ENDBRANCH   2   3
ENDBRANCH   1   2
BRANCH   1  72
ATOM     72  C   UNL     1       4.506   0.444  -3.879  1.00  0.00     0.023 C 
BRANCH  72  73
ATOM     73  C   UNL     1       4.691   1.959  -3.870  1.00  0.00     0.116 C 
BRANCH  73  74
ATOM     74  N   UNL     1       6.079   2.373  -3.751  1.00  0.00    -0.352 N 
ATOM     75  C   UNL     1       6.851   3.072  -4.651  1.00  0.00     0.256 C 
ATOM     76  H   UNL     1       6.528   2.118  -2.913  1.00  0.00     0.163 HD
ATOM     77  O   UNL     1       8.008   3.373  -4.371  1.00  0.00    -0.269 OA
BRANCH  75  78
ATOM     78  C   UNL     1       6.289   3.433  -5.963  1.00  0.00     0.098 A 
ATOM     79  C   UNL     1       5.296   4.422  -5.956  1.00  0.00     0.138 A 
ATOM     80  C   UNL     1       6.780   2.901  -7.175  1.00  0.00     0.053 A 
ATOM     81  F   UNL     1       4.855   4.944  -4.800  1.00  0.00    -0.206 F 
ATOM     82  C   UNL     1       4.718   4.869  -7.135  1.00  0.00     0.040 A 
ATOM     83  C   UNL     1       6.194   3.402  -8.356  1.00  0.00     0.027 A 
ATOM     84  C   UNL     1       5.167   4.356  -8.342  1.00  0.00     0.005 A 
BRANCH  80  85
ATOM     85  N   UNL     1       7.760   1.940  -7.288  1.00  0.00    -0.365 N 
ATOM     86  C   UNL     1       7.918   0.783  -6.423  1.00  0.00     0.123 C 
ATOM     87  C   UNL     1       8.930   2.114  -8.158  1.00  0.00     0.181 C 
ATOM     88  C   UNL     1       9.422   0.580  -6.359  1.00  0.00     0.088 C 
ATOM     89  C   UNL     1       9.945   1.002  -7.735  1.00  0.00     0.205 C 
BRANCH  89  90
ATOM     90  N   UNL     1      10.178  -0.037  -8.759  1.00  0.00    -0.331 N 
ATOM     91  C   UNL     1       9.051  -0.875  -9.163  1.00  0.00     0.262 C 
ATOM     92  C   UNL     1      11.411  -0.811  -8.577  1.00  0.00     0.262 C 
ATOM     93  H   UNL     1      10.311   0.562  -9.573  1.00  0.00     0.348 HD
ATOM     94  C   UNL     1       8.839  -2.138  -8.323  1.00  0.00     0.062 C 
ATOM     95  C   UNL     1      11.279  -2.057  -7.702  1.00  0.00     0.062 C 
ATOM     96  C   UNL     1      10.122  -2.941  -8.151  1.00  0.00     0.012 C 
ENDBRANCH  89  90
ENDBRANCH  80  85
ENDBRANCH  75  78
ENDBRANCH  73  74
ENDBRANCH  72  73
ENDBRANCH   1  72
TORSDOF 16
