REMARK SMILES O=C(NCCCCNC(=O)[C@@H]1CC=CC[C@@H]1C(=O)N1CCN(C(=O)c2sc3cc([N+](=O)[O-])ccc3c2Cl)CC1)c1ccc(-c2c3nc(c(-c4cc(S(=O)(=O)[O-])ccc4F)c4ccc([nH]4)c(-c4cc(S(=O)(=O)[O-])ccc4F)c4nc(c(-c5cc(S(=O)(=O)[O-])ccc5F)c5ccc2[nH]5)C=C4)C=C3)cc1
REMARK SMILES IDX 5 1 4 2 3 3 1 4 2 5 40 7 41 8 102 9 42 10 101 11 43 12 44 13
REMARK SMILES IDX 45 14 95 15 46 16 100 17 94 18 96 19 47 20 99 21 93 22 92 23
REMARK SMILES IDX 48 25 80 26 60 27 79 28 61 29 64 30 78 31 97 32 62 33 63 34
REMARK SMILES IDX 77 36 98 37 65 38 49 39 50 40 58 41 51 42 57 43 59 44 56 45
REMARK SMILES IDX 52 46 53 47 54 48 55 49 81 50 82 51 90 52 83 53 89 54 91 55
REMARK SMILES IDX 88 56 84 57 85 58 86 59 87 60 66 61 67 62 75 63 68 64 74 65
REMARK SMILES IDX 76 66 73 67 69 68 70 69 71 70 72 71 6 72 7 73 8 74 9 75
REMARK SMILES IDX 10 77 11 78 12 79 16 80 13 81 15 82 14 83 17 84 18 85 19 86
REMARK SMILES IDX 20 87 39 88 21 89 38 90 22 91 23 92 24 93 25 94 26 95 36 96
REMARK SMILES IDX 27 97 35 98 37 99 28 100 34 101 29 102 33 103 30 104 31 105
REMARK SMILES IDX 32 106
REMARK H PARENT 3 6 96 24 64 35 8 76
REMARK Flexibility Score: inf
ROOT
ATOM      1  C   UNL     1      11.364   1.715   6.554  1.00  0.00     0.023 C 
ENDROOT
BRANCH   1   2
ATOM      2  C   UNL     1      11.954   0.452   7.162  1.00  0.00     0.116 C 
BRANCH   2   3
ATOM      3  N   UNL     1      12.417  -0.517   6.158  1.00  0.00    -0.352 N 
ATOM      4  O   UNL     1      13.589  -2.364   5.540  1.00  0.00    -0.269 OA
ATOM      5  C   UNL     1      12.869  -1.817   6.358  1.00  0.00     0.251 C 
ATOM      6  H   UNL     1      12.406  -0.205   5.224  1.00  0.00     0.163 HD
BRANCH   5   7
ATOM      7  C   UNL     1      12.426  -2.529   7.573  1.00  0.00     0.039 A 
ATOM      8  C   UNL     1      13.222  -3.433   8.278  1.00  0.00     0.014 A 
ATOM      9  C   UNL     1      11.147  -2.229   8.018  1.00  0.00     0.014 A 
ATOM     10  C   UNL     1      12.705  -3.985   9.452  1.00  0.00     0.010 A 
ATOM     11  C   UNL     1      10.790  -2.513   9.299  1.00  0.00     0.010 A 
ATOM     12  C   UNL     1      11.477  -3.511   9.952  1.00  0.00    -0.014 A 
BRANCH  12  13
ATOM     13  C   UNL     1      10.880  -3.998  11.185  1.00  0.00     0.031 A 
ATOM     14  C   UNL     1      11.789  -3.907  12.345  1.00  0.00     0.074 A 
ATOM     15  C   UNL     1       9.570  -4.321  11.301  1.00  0.00     0.049 A 
ATOM     16  N   UNL     1      12.480  -4.869  12.855  1.00  0.00    -0.248 NA
ATOM     17  C   UNL     1      12.158  -2.573  12.841  1.00  0.00     0.031 C 
ATOM     18  C   UNL     1       8.479  -4.126  10.331  1.00  0.00     0.029 A 
ATOM     19  N   UNL     1       8.907  -4.830  12.373  1.00  0.00    -0.354 N 
ATOM     20  C   UNL     1      13.169  -4.305  13.922  1.00  0.00     0.074 A 
ATOM     21  C   UNL     1      13.130  -2.881  13.703  1.00  0.00     0.031 C 
ATOM     22  C   UNL     1       7.284  -4.286  10.942  1.00  0.00     0.029 A 
ATOM     23  C   UNL     1       7.519  -4.788  12.281  1.00  0.00     0.049 A 
ATOM     24  H   UNL     1       9.374  -5.201  13.156  1.00  0.00     0.167 HD
ATOM     25  C   UNL     1      13.457  -5.047  15.028  1.00  0.00     0.034 A 
ATOM     26  C   UNL     1       6.626  -5.136  13.242  1.00  0.00     0.034 A 
ATOM     27  C   UNL     1      13.191  -6.444  14.777  1.00  0.00     0.049 A 
ATOM     28  C   UNL     1       7.342  -5.979  14.226  1.00  0.00     0.074 A 
ATOM     29  C   UNL     1      13.700  -7.395  13.918  1.00  0.00     0.029 A 
ATOM     30  N   UNL     1      11.965  -6.910  15.191  1.00  0.00    -0.354 N 
ATOM     31  N   UNL     1       7.777  -7.180  13.970  1.00  0.00    -0.248 NA
ATOM     32  C   UNL     1       7.978  -5.304  15.345  1.00  0.00     0.031 C 
ATOM     33  C   UNL     1      12.580  -8.185  13.532  1.00  0.00     0.029 A 
ATOM     34  C   UNL     1      11.454  -7.745  14.234  1.00  0.00     0.049 A 
ATOM     35  H   UNL     1      11.525  -6.679  16.041  1.00  0.00     0.167 HD
ATOM     36  C   UNL     1       9.032  -7.218  14.558  1.00  0.00     0.074 A 
ATOM     37  C   UNL     1       9.049  -6.088  15.487  1.00  0.00     0.031 C 
ATOM     38  C   UNL     1      10.035  -7.970  14.017  1.00  0.00     0.034 A 
BRANCH  25  39
ATOM     39  C   UNL     1      13.565  -4.489  16.430  1.00  0.00     0.023 A 
ATOM     40  C   UNL     1      13.258  -3.158  16.765  1.00  0.00     0.031 A 
ATOM     41  C   UNL     1      13.773  -5.360  17.520  1.00  0.00     0.131 A 
ATOM     42  C   UNL     1      13.156  -2.736  18.097  1.00  0.00     0.055 A 
ATOM     43  C   UNL     1      13.608  -4.956  18.850  1.00  0.00     0.041 A 
ATOM     44  F   UNL     1      14.083  -6.651  17.324  1.00  0.00    -0.206 F 
ATOM     45  C   UNL     1      13.293  -3.638  19.145  1.00  0.00     0.022 A 
BRANCH  42  46
ATOM     46  S   UNL     1      12.817  -0.995  18.480  1.00  0.00     0.124 S 
ATOM     47  O   UNL     1      11.602  -1.093  19.282  1.00  0.00    -0.237 OA
ATOM     48  O   UNL     1      14.026  -0.615  19.204  1.00  0.00    -0.237 OA
ATOM     49  O   UNL     1      12.663  -0.379  17.165  1.00  0.00    -0.744 OA
ENDBRANCH  42  46
ENDBRANCH  25  39
BRANCH  26  50
ATOM     50  C   UNL     1       5.380  -4.425  13.616  1.00  0.00     0.023 A 
ATOM     51  C   UNL     1       5.290  -3.038  13.410  1.00  0.00     0.031 A 
ATOM     52  C   UNL     1       4.446  -5.011  14.490  1.00  0.00     0.131 A 
ATOM     53  C   UNL     1       4.354  -2.275  14.123  1.00  0.00     0.055 A 
ATOM     54  C   UNL     1       3.495  -4.250  15.182  1.00  0.00     0.041 A 
ATOM     55  F   UNL     1       4.494  -6.326  14.754  1.00  0.00    -0.206 F 
ATOM     56  C   UNL     1       3.461  -2.869  15.016  1.00  0.00     0.022 A 
BRANCH  53  57
ATOM     57  S   UNL     1       4.360  -0.467  13.988  1.00  0.00     0.124 S 
ATOM     58  O   UNL     1       2.948  -0.177  13.751  1.00  0.00    -0.237 OA
ATOM     59  O   UNL     1       4.876  -0.078  15.295  1.00  0.00    -0.237 OA
ATOM     60  O   UNL     1       5.243  -0.223  12.851  1.00  0.00    -0.744 OA
ENDBRANCH  53  57
ENDBRANCH  26  50
BRANCH  38  61
ATOM     61  C   UNL     1       9.684  -8.995  12.958  1.00  0.00     0.023 A 
ATOM     62  C   UNL     1      10.193 -10.290  13.155  1.00  0.00     0.031 A 
ATOM     63  C   UNL     1       9.097  -8.713  11.709  1.00  0.00     0.131 A 
ATOM     64  C   UNL     1      10.174 -11.227  12.119  1.00  0.00     0.055 A 
ATOM     65  C   UNL     1       9.008  -9.681  10.700  1.00  0.00     0.041 A 
ATOM     66  F   UNL     1       8.668  -7.485  11.393  1.00  0.00    -0.206 F 
ATOM     67  C   UNL     1       9.569 -10.939  10.895  1.00  0.00     0.022 A 
BRANCH  64  68
ATOM     68  S   UNL     1      11.098 -12.775  12.288  1.00  0.00     0.124 S 
ATOM     69  O   UNL     1      10.033 -13.773  12.258  1.00  0.00    -0.237 OA
ATOM     70  O   UNL     1      11.966 -12.748  11.113  1.00  0.00    -0.237 OA
ATOM     71  O   UNL     1      11.789 -12.637  13.567  1.00  0.00    -0.744 OA
ENDBRANCH  64  68
ENDBRANCH  38  61
ENDBRANCH  12  13
ENDBRANCH   5   7
ENDBRANCH   2   3
ENDBRANCH   1   2
BRANCH   1  72
ATOM     72  C   UNL     1      10.100   1.500   5.702  1.00  0.00     0.023 C 
BRANCH  72  73
ATOM     73  C   UNL     1       8.897   0.862   6.416  1.00  0.00     0.116 C 
BRANCH  73  74
ATOM     74  N   UNL     1       8.422   1.693   7.505  1.00  0.00    -0.356 N 
ATOM     75  C   UNL     1       7.531   2.731   7.443  1.00  0.00     0.224 C 
ATOM     76  H   UNL     1       8.784   1.486   8.397  1.00  0.00     0.163 HD
ATOM     77  O   UNL     1       7.663   3.659   8.237  1.00  0.00    -0.275 OA
BRANCH  75  78
ATOM     78  C   UNL     1       6.474   2.710   6.348  1.00  0.00     0.095 C 
ATOM     79  C   UNL     1       5.901   4.107   6.042  1.00  0.00     0.041 C 
ATOM     80  C   UNL     1       5.317   1.693   6.602  1.00  0.00     0.095 C 
ATOM     81  C   UNL     1       4.798   4.034   5.013  1.00  0.00    -0.030 C 
ATOM     82  C   UNL     1       4.611   1.549   5.235  1.00  0.00     0.041 C 
ATOM     83  C   UNL     1       4.238   2.876   4.623  1.00  0.00    -0.030 C 
BRANCH  80  84
ATOM     84  C   UNL     1       4.411   2.225   7.736  1.00  0.00     0.226 C 
ATOM     85  O   UNL     1       4.885   2.879   8.664  1.00  0.00    -0.275 OA
ATOM     86  N   UNL     1       3.046   2.077   7.635  1.00  0.00    -0.339 N 
ATOM     87  C   UNL     1       2.205   3.170   8.117  1.00  0.00     0.141 C 
ATOM     88  C   UNL     1       2.343   0.810   7.448  1.00  0.00     0.141 C 
ATOM     89  C   UNL     1       1.053   3.397   7.133  1.00  0.00     0.141 C 
ATOM     90  C   UNL     1       1.137   0.997   6.506  1.00  0.00     0.141 C 
ATOM     91  N   UNL     1       0.304   2.155   6.890  1.00  0.00    -0.334 N 
ATOM     92  C   UNL     1      -1.089   2.209   6.895  1.00  0.00     0.265 C 
ATOM     93  O   UNL     1      -1.684   3.278   7.037  1.00  0.00    -0.268 OA
BRANCH  92  94
ATOM     94  C   UNL     1      -1.817   0.978   6.682  1.00  0.00     0.112 A 
ATOM     95  S   UNL     1      -2.861   0.888   5.337  1.00  0.00    -0.128 S 
ATOM     96  C   UNL     1      -1.866  -0.166   7.446  1.00  0.00     0.072 A 
ATOM     97  C   UNL     1      -3.331  -0.723   5.709  1.00  0.00     0.043 A 
ATOM     98  C   UNL     1      -2.698  -1.189   6.865  1.00  0.00     0.012 A 
ATOM     99  Cl  UNL     1      -1.037  -0.398   8.933  1.00  0.00    -0.082 Cl
ATOM    100  C   UNL     1      -4.237  -1.516   4.978  1.00  0.00     0.105 A 
ATOM    101  C   UNL     1      -2.969  -2.521   7.277  1.00  0.00     0.018 A 
ATOM    102  C   UNL     1      -4.488  -2.821   5.424  1.00  0.00     0.270 A 
ATOM    103  C   UNL     1      -3.853  -3.330   6.555  1.00  0.00     0.086 A 
BRANCH 102 104
ATOM    104  N   UNL     1      -5.441  -3.658   4.685  1.00  0.00     0.062 N 
ATOM    105  O   UNL     1      -6.000  -3.160   3.696  1.00  0.00    -0.258 OA
ATOM    106  O   UNL     1      -5.637  -4.811   5.093  1.00  0.00    -0.258 OA
ENDBRANCH 102 104
ENDBRANCH  92  94
ENDBRANCH  80  84
ENDBRANCH  75  78
ENDBRANCH  73  74
ENDBRANCH  72  73
ENDBRANCH   1  72
TORSDOF 17
