REMARK SMILES O=C(NCCCCNC(=O)c1nn(Cc2ccc(F)cc2)c2c1CN(C(=O)[C@H]1CC1(F)F)CC2)c1ccc(-c2c3nc(c(-c4cc(S(=O)(=O)[O-])ccc4F)c4ccc([nH]4)c(-c4cc(S(=O)(=O)[O-])ccc4F)c4nc(c(-c5cc(S(=O)(=O)[O-])ccc5F)c5ccc2[nH]5)C=C4)C=C3)cc1
REMARK SMILES IDX 5 1 4 2 3 3 1 4 2 5 35 7 36 8 97 9 37 10 96 11 38 12 39 13
REMARK SMILES IDX 40 14 90 15 41 16 95 17 89 18 91 19 42 20 94 21 88 22 87 23
REMARK SMILES IDX 43 25 75 26 55 27 74 28 56 29 59 30 73 31 92 32 57 33 58 34
REMARK SMILES IDX 72 36 93 37 60 38 44 39 45 40 53 41 46 42 52 43 54 44 51 45
REMARK SMILES IDX 47 46 48 47 49 48 50 49 76 50 77 51 85 52 78 53 84 54 86 55
REMARK SMILES IDX 83 56 79 57 80 58 81 59 82 60 61 61 62 62 70 63 63 64 69 65
REMARK SMILES IDX 71 66 68 67 64 68 65 69 66 70 67 71 6 72 7 73 8 74 9 75
REMARK SMILES IDX 10 77 11 78 12 79 23 80 13 81 22 82 24 83 34 84 25 85 33 86
REMARK SMILES IDX 14 87 15 88 16 89 21 90 17 91 20 92 18 93 19 94 26 95 27 96
REMARK SMILES IDX 28 97 29 98 30 99 31 100 32 101
REMARK H PARENT 3 6 91 24 59 35 8 76
REMARK Flexibility Score: inf
ROOT
ATOM      1  C   UNL     1      18.912  -0.985  11.451  1.00  0.00     0.023 C 
ENDROOT
BRANCH   1   2
ATOM      2  C   UNL     1      20.055  -1.403  12.377  1.00  0.00     0.116 C 
BRANCH   2   3
ATOM      3  N   UNL     1      20.190  -2.831  12.588  1.00  0.00    -0.352 N 
ATOM      4  O   UNL     1      21.000  -4.868  12.723  1.00  0.00    -0.269 OA
ATOM      5  C   UNL     1      20.957  -3.831  12.050  1.00  0.00     0.251 C 
ATOM      6  H   UNL     1      19.582  -3.163  13.287  1.00  0.00     0.163 HD
BRANCH   5   7
ATOM      7  C   UNL     1      21.671  -3.805  10.737  1.00  0.00     0.039 A 
ATOM      8  C   UNL     1      21.858  -2.696   9.914  1.00  0.00     0.014 A 
ATOM      9  C   UNL     1      22.159  -5.052  10.286  1.00  0.00     0.014 A 
ATOM     10  C   UNL     1      22.466  -2.847   8.656  1.00  0.00     0.010 A 
ATOM     11  C   UNL     1      22.752  -5.207   9.030  1.00  0.00     0.010 A 
ATOM     12  C   UNL     1      22.887  -4.106   8.195  1.00  0.00    -0.014 A 
BRANCH  12  13
ATOM     13  C   UNL     1      23.654  -4.193   6.943  1.00  0.00     0.031 A 
ATOM     14  C   UNL     1      24.969  -3.497   7.000  1.00  0.00     0.074 A 
ATOM     15  C   UNL     1      23.348  -4.917   5.841  1.00  0.00     0.049 A 
ATOM     16  N   UNL     1      25.306  -2.403   6.400  1.00  0.00    -0.248 NA
ATOM     17  C   UNL     1      25.987  -4.002   7.931  1.00  0.00     0.031 C 
ATOM     18  C   UNL     1      22.248  -5.862   5.650  1.00  0.00     0.029 A 
ATOM     19  N   UNL     1      24.020  -4.993   4.647  1.00  0.00    -0.354 N 
ATOM     20  C   UNL     1      26.650  -2.196   6.695  1.00  0.00     0.074 A 
ATOM     21  C   UNL     1      26.962  -3.105   7.766  1.00  0.00     0.031 C 
ATOM     22  C   UNL     1      22.431  -6.547   4.494  1.00  0.00     0.029 A 
ATOM     23  C   UNL     1      23.582  -6.002   3.787  1.00  0.00     0.049 A 
ATOM     24  H   UNL     1      24.756  -4.382   4.414  1.00  0.00     0.167 HD
ATOM     25  C   UNL     1      27.443  -1.442   5.882  1.00  0.00     0.034 A 
ATOM     26  C   UNL     1      24.108  -6.355   2.578  1.00  0.00     0.034 A 
ATOM     27  C   UNL     1      26.650  -0.597   5.017  1.00  0.00     0.049 A 
ATOM     28  C   UNL     1      24.777  -5.143   2.050  1.00  0.00     0.074 A 
ATOM     29  C   UNL     1      25.692   0.379   5.221  1.00  0.00     0.029 A 
ATOM     30  N   UNL     1      26.512  -0.965   3.698  1.00  0.00    -0.354 N 
ATOM     31  N   UNL     1      24.140  -4.048   1.739  1.00  0.00    -0.248 NA
ATOM     32  C   UNL     1      26.205  -4.996   2.275  1.00  0.00     0.031 C 
ATOM     33  C   UNL     1      24.719   0.157   4.202  1.00  0.00     0.029 A 
ATOM     34  C   UNL     1      25.176  -0.889   3.399  1.00  0.00     0.049 A 
ATOM     35  H   UNL     1      27.236  -1.231   3.086  1.00  0.00     0.167 HD
ATOM     36  C   UNL     1      24.978  -3.026   2.151  1.00  0.00     0.074 A 
ATOM     37  C   UNL     1      26.271  -3.667   2.384  1.00  0.00     0.031 C 
ATOM     38  C   UNL     1      24.484  -1.810   2.521  1.00  0.00     0.034 A 
BRANCH  25  39
ATOM     39  C   UNL     1      28.905  -1.723   5.603  1.00  0.00     0.023 A 
ATOM     40  C   UNL     1      29.574  -0.860   4.711  1.00  0.00     0.031 A 
ATOM     41  C   UNL     1      29.581  -2.926   5.910  1.00  0.00     0.131 A 
ATOM     42  C   UNL     1      30.776  -1.245   4.092  1.00  0.00     0.055 A 
ATOM     43  C   UNL     1      30.808  -3.277   5.339  1.00  0.00     0.041 A 
ATOM     44  F   UNL     1      29.060  -3.869   6.703  1.00  0.00    -0.206 F 
ATOM     45  C   UNL     1      31.397  -2.452   4.397  1.00  0.00     0.022 A 
BRANCH  42  46
ATOM     46  S   UNL     1      31.427  -0.212   2.753  1.00  0.00     0.124 S 
ATOM     47  O   UNL     1      30.304  -0.200   1.822  1.00  0.00    -0.237 OA
ATOM     48  O   UNL     1      31.701   1.042   3.448  1.00  0.00    -0.237 OA
ATOM     49  O   UNL     1      32.608  -0.944   2.302  1.00  0.00    -0.744 OA
ENDBRANCH  42  46
ENDBRANCH  25  39
BRANCH  26  50
ATOM     50  C   UNL     1      24.327  -7.715   1.990  1.00  0.00     0.023 A 
ATOM     51  C   UNL     1      24.775  -7.911   0.657  1.00  0.00     0.031 A 
ATOM     52  C   UNL     1      24.369  -8.848   2.830  1.00  0.00     0.131 A 
ATOM     53  C   UNL     1      25.250  -9.178   0.231  1.00  0.00     0.055 A 
ATOM     54  C   UNL     1      24.843 -10.094   2.405  1.00  0.00     0.041 A 
ATOM     55  F   UNL     1      24.036  -8.764   4.127  1.00  0.00    -0.206 F 
ATOM     56  C   UNL     1      25.299 -10.261   1.108  1.00  0.00     0.022 A 
BRANCH  53  57
ATOM     57  S   UNL     1      25.939  -9.417  -1.445  1.00  0.00     0.124 S 
ATOM     58  O   UNL     1      24.734  -9.556  -2.254  1.00  0.00    -0.237 OA
ATOM     59  O   UNL     1      26.721  -8.203  -1.649  1.00  0.00    -0.237 OA
ATOM     60  O   UNL     1      26.735 -10.639  -1.312  1.00  0.00    -0.744 OA
ENDBRANCH  53  57
ENDBRANCH  26  50
BRANCH  38  61
ATOM     61  C   UNL     1      23.050  -1.469   2.183  1.00  0.00     0.023 A 
ATOM     62  C   UNL     1      21.914  -2.112   2.728  1.00  0.00     0.031 A 
ATOM     63  C   UNL     1      22.843  -0.318   1.403  1.00  0.00     0.131 A 
ATOM     64  C   UNL     1      20.628  -1.585   2.485  1.00  0.00     0.055 A 
ATOM     65  C   UNL     1      21.573   0.210   1.183  1.00  0.00     0.041 A 
ATOM     66  F   UNL     1      23.889   0.349   0.888  1.00  0.00    -0.206 F 
ATOM     67  C   UNL     1      20.460  -0.421   1.726  1.00  0.00     0.022 A 
BRANCH  64  68
ATOM     68  S   UNL     1      19.148  -2.369   3.208  1.00  0.00     0.124 S 
ATOM     69  O   UNL     1      19.123  -3.681   2.572  1.00  0.00    -0.237 OA
ATOM     70  O   UNL     1      19.435  -2.354   4.640  1.00  0.00    -0.237 OA
ATOM     71  O   UNL     1      18.056  -1.479   2.807  1.00  0.00    -0.744 OA
ENDBRANCH  64  68
ENDBRANCH  38  61
ENDBRANCH  12  13
ENDBRANCH   5   7
ENDBRANCH   2   3
ENDBRANCH   1   2
BRANCH   1  72
ATOM     72  C   UNL     1      17.506  -1.481  11.825  1.00  0.00     0.023 C 
BRANCH  72  73
ATOM     73  C   UNL     1      16.938  -1.033  13.178  1.00  0.00     0.116 C 
BRANCH  73  74
ATOM     74  N   UNL     1      16.668   0.398  13.241  1.00  0.00    -0.351 N 
ATOM     75  C   UNL     1      15.481   1.076  13.455  1.00  0.00     0.272 C 
ATOM     76  H   UNL     1      17.456   0.974  13.111  1.00  0.00     0.163 HD
ATOM     77  O   UNL     1      15.479   2.300  13.311  1.00  0.00    -0.267 OA
BRANCH  75  78
ATOM     78  C   UNL     1      14.245   0.350  13.801  1.00  0.00     0.155 A 
ATOM     79  N   UNL     1      14.220  -0.714  14.635  1.00  0.00    -0.167 NA
ATOM     80  C   UNL     1      12.921   0.673  13.375  1.00  0.00     0.026 A 
ATOM     81  N   UNL     1      12.942  -1.152  14.606  1.00  0.00    -0.264 N 
ATOM     82  C   UNL     1      12.152  -0.393  13.803  1.00  0.00     0.046 A 
ATOM     83  C   UNL     1      12.388   1.793  12.528  1.00  0.00     0.159 C 
ATOM     84  C   UNL     1      10.743  -0.633  13.402  1.00  0.00     0.078 C 
ATOM     85  N   UNL     1      10.929   1.580  12.329  1.00  0.00    -0.337 N 
ATOM     86  C   UNL     1      10.505   0.182  12.113  1.00  0.00     0.126 C 
BRANCH  81  87
ATOM     87  C   UNL     1      12.529  -2.259  15.459  1.00  0.00     0.180 C 
BRANCH  87  88
ATOM     88  C   UNL     1      12.994  -3.592  14.930  1.00  0.00    -0.026 A 
ATOM     89  C   UNL     1      14.332  -3.984  15.106  1.00  0.00     0.008 A 
ATOM     90  C   UNL     1      12.112  -4.454  14.260  1.00  0.00     0.008 A 
ATOM     91  C   UNL     1      14.777  -5.218  14.633  1.00  0.00     0.039 A 
ATOM     92  C   UNL     1      12.560  -5.690  13.790  1.00  0.00     0.039 A 
ATOM     93  C   UNL     1      13.886  -6.061  13.984  1.00  0.00     0.123 A 
ATOM     94  F   UNL     1      14.306  -7.254  13.544  1.00  0.00    -0.207 F 
ENDBRANCH  87  88
ENDBRANCH  81  87
BRANCH  85  95
ATOM     95  C   UNL     1      10.045   2.642  12.451  1.00  0.00     0.232 C 
ATOM     96  O   UNL     1      10.388   3.802  12.676  1.00  0.00    -0.274 OA
BRANCH  95  97
ATOM     97  C   UNL     1       8.610   2.335  12.256  1.00  0.00     0.154 C 
ATOM     98  C   UNL     1       7.839   1.623  13.360  1.00  0.00     0.097 C 
ATOM     99  C   UNL     1       7.538   3.029  13.005  1.00  0.00     0.260 C 
ATOM    100  F   UNL     1       7.759   4.003  13.947  1.00  0.00    -0.206 F 
ATOM    101  F   UNL     1       6.322   3.300  12.416  1.00  0.00    -0.206 F 
ENDBRANCH  95  97
ENDBRANCH  85  95
ENDBRANCH  75  78
ENDBRANCH  73  74
ENDBRANCH  72  73
ENDBRANCH   1  72
TORSDOF 18
