REMARK SMILES CS(=O)(=O)N1C[C@@H]2CN(C(=O)c3ccco3)C[C@]2(C(=O)NCCCCNC(=O)c2ccc(-c3c4nc(c(-c5cc(S(=O)(=O)[O-])ccc5F)c5ccc([nH]5)c(-c5cc(S(=O)(=O)[O-])ccc5F)c5nc(c(-c6cc(S(=O)(=O)[O-])ccc6F)c6ccc3[nH]6)C=C5)C=C4)cc2)C1
REMARK SMILES IDX 24 1 23 2 22 3 21 4 19 5 20 6 18 8 5 9 6 10 92 11 7 12 8 13
REMARK SMILES IDX 17 14 9 15 2 16 1 17 3 18 4 19 10 20 11 21 12 22 13 23 16 24
REMARK SMILES IDX 14 25 15 26 25 27 26 28 27 29 28 31 29 32 30 33 91 34 31 35
REMARK SMILES IDX 90 36 32 37 33 38 34 39 84 40 35 41 89 42 83 43 85 44 36 45
REMARK SMILES IDX 88 46 82 47 81 48 37 50 69 51 49 52 68 53 50 54 53 55 67 56
REMARK SMILES IDX 86 57 51 58 52 59 66 61 87 62 54 63 38 64 39 65 47 66 40 67
REMARK SMILES IDX 46 68 48 69 45 70 41 71 42 72 43 73 44 74 70 75 71 76 79 77
REMARK SMILES IDX 72 78 78 79 80 80 77 81 73 82 74 83 75 84 76 85 55 86 56 87
REMARK SMILES IDX 64 88 57 89 63 90 65 91 62 92 58 93 59 94 60 95 61 96
REMARK H PARENT 21 7 26 30 85 49 53 60
REMARK Flexibility Score: inf
ROOT
ATOM      1  C   UNL     1       3.253   6.213  -5.392  1.00  0.00     0.023 C 
ENDROOT
BRANCH   1   2
ATOM      2  C   UNL     1       2.509   4.905  -5.612  1.00  0.00     0.023 C 
BRANCH   2   3
ATOM      3  C   UNL     1       2.860   3.804  -4.624  1.00  0.00     0.116 C 
BRANCH   3   4
ATOM      4  N   UNL     1       2.217   4.096  -3.361  1.00  0.00    -0.356 N 
ATOM      5  C   UNL     1       0.898   3.851  -3.073  1.00  0.00     0.229 C 
ATOM      6  O   UNL     1       0.354   4.491  -2.172  1.00  0.00    -0.274 OA
ATOM      7  H   UNL     1       2.769   4.503  -2.654  1.00  0.00     0.163 HD
BRANCH   5   8
ATOM      8  C   UNL     1       0.222   2.729  -3.884  1.00  0.00     0.086 C 
ATOM      9  N   UNL     1       0.391   0.494  -2.785  1.00  0.00    -0.201 NA
ATOM     10  C   UNL     1      -0.163   0.298  -4.125  1.00  0.00     0.108 C 
ATOM     11  C   UNL     1       0.168   1.942  -2.460  1.00  0.00     0.121 C 
ATOM     12  C   UNL     1      -0.783   1.649  -4.391  1.00  0.00     0.042 C 
ATOM     13  C   UNL     1      -1.050   1.889  -5.853  1.00  0.00     0.126 C 
ATOM     14  C   UNL     1      -0.706   3.850  -4.593  1.00  0.00     0.138 C 
ATOM     15  N   UNL     1      -0.939   3.313  -5.948  1.00  0.00    -0.334 N 
BRANCH   9  16
ATOM     16  S   UNL     1      -0.058  -0.651  -1.627  1.00  0.00     0.211 S 
ATOM     17  C   UNL     1       0.912  -0.173  -0.211  1.00  0.00     0.176 C 
ATOM     18  O   UNL     1       0.418  -1.939  -2.095  1.00  0.00    -0.213 OA
ATOM     19  O   UNL     1      -1.456  -0.441  -1.331  1.00  0.00    -0.213 OA
ENDBRANCH   9  16
BRANCH  15  20
ATOM     20  C   UNL     1      -0.805   3.850  -7.231  1.00  0.00     0.289 C 
ATOM     21  O   UNL     1      -1.010   3.115  -8.203  1.00  0.00    -0.265 OA
BRANCH  20  22
ATOM     22  C   UNL     1      -0.291   5.187  -7.437  1.00  0.00     0.191 A 
ATOM     23  C   UNL     1       0.630   5.616  -8.382  1.00  0.00     0.056 A 
ATOM     24  O   UNL     1      -0.707   6.255  -6.692  1.00  0.00    -0.459 OA
ATOM     25  C   UNL     1       0.809   7.002  -8.186  1.00  0.00     0.043 A 
ATOM     26  C   UNL     1      -0.051   7.350  -7.170  1.00  0.00     0.196 A 
ENDBRANCH  20  22
ENDBRANCH  15  20
ENDBRANCH   5   8
ENDBRANCH   3   4
ENDBRANCH   2   3
ENDBRANCH   1   2
BRANCH   1  27
ATOM     27  C   UNL     1       4.654   6.171  -5.954  1.00  0.00     0.116 C 
BRANCH  27  28
ATOM     28  N   UNL     1       4.676   5.948  -7.396  1.00  0.00    -0.352 N 
ATOM     29  C   UNL     1       5.506   6.508  -8.336  1.00  0.00     0.251 C 
ATOM     30  H   UNL     1       4.008   5.312  -7.740  1.00  0.00     0.163 HD
ATOM     31  O   UNL     1       5.304   6.316  -9.529  1.00  0.00    -0.269 OA
BRANCH  29  32
ATOM     32  C   UNL     1       6.596   7.387  -7.872  1.00  0.00     0.039 A 
ATOM     33  C   UNL     1       6.808   8.607  -8.512  1.00  0.00     0.014 A 
ATOM     34  C   UNL     1       7.324   7.045  -6.731  1.00  0.00     0.014 A 
ATOM     35  C   UNL     1       7.711   9.515  -7.959  1.00  0.00     0.010 A 
ATOM     36  C   UNL     1       8.094   8.007  -6.103  1.00  0.00     0.010 A 
ATOM     37  C   UNL     1       8.328   9.238  -6.728  1.00  0.00    -0.014 A 
BRANCH  37  38
ATOM     38  C   UNL     1       9.284  10.181  -6.100  1.00  0.00     0.031 A 
ATOM     39  C   UNL     1      10.688   9.713  -5.811  1.00  0.00     0.074 A 
ATOM     40  C   UNL     1       8.879  11.412  -5.732  1.00  0.00     0.049 A 
ATOM     41  N   UNL     1      11.651  10.324  -5.174  1.00  0.00    -0.248 NA
ATOM     42  C   UNL     1      11.035   8.350  -6.252  1.00  0.00     0.031 C 
ATOM     43  C   UNL     1       7.527  11.951  -5.911  1.00  0.00     0.029 A 
ATOM     44  N   UNL     1       9.563  12.435  -5.128  1.00  0.00    -0.354 N 
ATOM     45  C   UNL     1      12.700   9.412  -5.116  1.00  0.00     0.074 A 
ATOM     46  C   UNL     1      12.220   8.177  -5.691  1.00  0.00     0.031 C 
ATOM     47  C   UNL     1       7.497  13.219  -5.471  1.00  0.00     0.029 A 
ATOM     48  C   UNL     1       8.806  13.566  -4.927  1.00  0.00     0.049 A 
ATOM     49  H   UNL     1      10.508  12.367  -4.863  1.00  0.00     0.167 HD
ATOM     50  C   UNL     1      13.963   9.600  -4.664  1.00  0.00     0.034 A 
ATOM     51  C   UNL     1       9.133  14.745  -4.363  1.00  0.00     0.034 A 
ATOM     52  C   UNL     1      14.428  10.853  -4.130  1.00  0.00     0.049 A 
ATOM     53  C   UNL     1      10.544  14.933  -3.861  1.00  0.00     0.074 A 
ATOM     54  C   UNL     1      15.697  11.186  -3.694  1.00  0.00     0.029 A 
ATOM     55  N   UNL     1      13.637  11.983  -3.959  1.00  0.00    -0.354 N 
ATOM     56  N   UNL     1      11.542  14.077  -3.859  1.00  0.00    -0.248 NA
ATOM     57  C   UNL     1      10.877  16.248  -3.302  1.00  0.00     0.031 C 
ATOM     58  C   UNL     1      15.656  12.489  -3.190  1.00  0.00     0.029 A 
ATOM     59  C   UNL     1      14.386  13.005  -3.398  1.00  0.00     0.049 A 
ATOM     60  H   UNL     1      12.685  12.049  -4.201  1.00  0.00     0.167 HD
ATOM     61  C   UNL     1      12.633  14.768  -3.337  1.00  0.00     0.074 A 
ATOM     62  C   UNL     1      12.170  16.110  -3.048  1.00  0.00     0.031 C 
ATOM     63  C   UNL     1      13.902  14.338  -3.120  1.00  0.00     0.034 A 
BRANCH  50  64
ATOM     64  C   UNL     1      14.906   8.421  -4.721  1.00  0.00     0.023 A 
ATOM     65  C   UNL     1      15.238   7.794  -5.936  1.00  0.00     0.031 A 
ATOM     66  C   UNL     1      15.448   7.886  -3.539  1.00  0.00     0.131 A 
ATOM     67  C   UNL     1      16.008   6.622  -5.934  1.00  0.00     0.055 A 
ATOM     68  C   UNL     1      16.295   6.776  -3.554  1.00  0.00     0.041 A 
ATOM     69  F   UNL     1      15.147   8.420  -2.345  1.00  0.00    -0.206 F 
ATOM     70  C   UNL     1      16.565   6.126  -4.755  1.00  0.00     0.022 A 
BRANCH  67  71
ATOM     71  S   UNL     1      16.129   5.665  -7.471  1.00  0.00     0.124 S 
ATOM     72  O   UNL     1      14.724   5.370  -7.743  1.00  0.00    -0.237 OA
ATOM     73  O   UNL     1      16.772   6.606  -8.380  1.00  0.00    -0.237 OA
ATOM     74  O   UNL     1      16.938   4.509  -7.091  1.00  0.00    -0.744 OA
ENDBRANCH  67  71
ENDBRANCH  50  64
BRANCH  51  75
ATOM     75  C   UNL     1       8.124  15.838  -4.244  1.00  0.00     0.023 A 
ATOM     76  C   UNL     1       8.303  17.064  -4.906  1.00  0.00     0.031 A 
ATOM     77  C   UNL     1       6.986  15.691  -3.431  1.00  0.00     0.131 A 
ATOM     78  C   UNL     1       7.393  18.112  -4.699  1.00  0.00     0.055 A 
ATOM     79  C   UNL     1       6.050  16.716  -3.278  1.00  0.00     0.041 A 
ATOM     80  F   UNL     1       6.761  14.539  -2.779  1.00  0.00    -0.206 F 
ATOM     81  C   UNL     1       6.260  17.941  -3.902  1.00  0.00     0.022 A 
BRANCH  78  82
ATOM     82  S   UNL     1       7.767  19.739  -5.409  1.00  0.00     0.124 S 
ATOM     83  O   UNL     1       9.071  20.024  -4.823  1.00  0.00    -0.237 OA
ATOM     84  O   UNL     1       7.754  19.454  -6.840  1.00  0.00    -0.237 OA
ATOM     85  O   UNL     1       6.670  20.578  -4.932  1.00  0.00    -0.744 OA
ENDBRANCH  78  82
ENDBRANCH  51  75
BRANCH  63  86
ATOM     86  C   UNL     1      14.895  15.352  -2.606  1.00  0.00     0.023 A 
ATOM     87  C   UNL     1      14.771  15.937  -1.335  1.00  0.00     0.031 A 
ATOM     88  C   UNL     1      15.982  15.739  -3.410  1.00  0.00     0.131 A 
ATOM     89  C   UNL     1      15.681  16.925  -0.931  1.00  0.00     0.055 A 
ATOM     90  C   UNL     1      16.926  16.668  -2.972  1.00  0.00     0.041 A 
ATOM     91  F   UNL     1      16.149  15.215  -4.635  1.00  0.00    -0.206 F 
ATOM     92  C   UNL     1      16.769  17.279  -1.732  1.00  0.00     0.022 A 
BRANCH  89  93
ATOM     93  S   UNL     1      15.357  17.824   0.611  1.00  0.00     0.124 S 
ATOM     94  O   UNL     1      14.025  18.367   0.370  1.00  0.00    -0.237 OA
ATOM     95  O   UNL     1      15.443  16.766   1.612  1.00  0.00    -0.237 OA
ATOM     96  O   UNL     1      16.431  18.814   0.661  1.00  0.00    -0.744 OA
ENDBRANCH  89  93
ENDBRANCH  63  86
ENDBRANCH  37  38
ENDBRANCH  29  32
ENDBRANCH  27  28
ENDBRANCH   1  27
TORSDOF 17
