REMARK SMILES O=C(NCCCCNC(=O)[C@H](Cc1ccccc1)SCc1nccs1)c1ccc(-c2c3nc(c(-c4cc(S(=O)(=O)[O-])ccc4F)c4ccc([nH]4)c(-c4cc(S(=O)(=O)[O-])ccc4F)c4nc(c(-c5cc(S(=O)(=O)[O-])ccc5F)c5ccc2[nH]5)C=C4)C=C3)cc1
REMARK SMILES IDX 5 1 4 2 3 3 1 4 2 5 26 7 27 8 88 9 28 10 87 11 29 12 30 13
REMARK SMILES IDX 31 14 81 15 32 16 86 17 80 18 82 19 33 20 85 21 79 22 78 23
REMARK SMILES IDX 34 25 66 26 46 27 65 28 47 29 50 30 64 31 83 32 48 33 49 34
REMARK SMILES IDX 63 36 84 37 51 38 35 39 36 40 44 41 37 42 43 43 45 44 42 45
REMARK SMILES IDX 38 46 39 47 40 48 41 49 67 50 68 51 76 52 69 53 75 54 77 55
REMARK SMILES IDX 74 56 70 57 71 58 72 59 73 60 52 61 53 62 61 63 54 64 60 65
REMARK SMILES IDX 62 66 59 67 55 68 56 69 57 70 58 71 6 72 7 73 8 74 9 75
REMARK SMILES IDX 10 77 11 78 19 79 20 80 21 81 22 82 25 83 23 84 24 85 12 86
REMARK SMILES IDX 13 87 14 88 18 89 15 90 17 91 16 92
REMARK H PARENT 3 6 82 24 50 35 8 76
REMARK Flexibility Score: inf
ROOT
ATOM      1  C   UNL     1       4.734   5.655  -9.707  1.00  0.00     0.023 C 
ENDROOT
BRANCH   1   2
ATOM      2  C   UNL     1       3.243   5.874  -9.493  1.00  0.00     0.116 C 
BRANCH   2   3
ATOM      3  N   UNL     1       2.854   7.268  -9.638  1.00  0.00    -0.352 N 
ATOM      4  O   UNL     1       1.847   9.044 -10.602  1.00  0.00    -0.269 OA
ATOM      5  C   UNL     1       1.937   7.828 -10.501  1.00  0.00     0.251 C 
ATOM      6  H   UNL     1       3.309   7.900  -9.036  1.00  0.00     0.163 HD
BRANCH   5   7
ATOM      7  C   UNL     1       1.074   6.943 -11.319  1.00  0.00     0.039 A 
ATOM      8  C   UNL     1       0.456   5.834 -10.740  1.00  0.00     0.014 A 
ATOM      9  C   UNL     1       0.892   7.217 -12.678  1.00  0.00     0.014 A 
ATOM     10  C   UNL     1      -0.203   4.915 -11.546  1.00  0.00     0.010 A 
ATOM     11  C   UNL     1       0.139   6.341 -13.469  1.00  0.00     0.010 A 
ATOM     12  C   UNL     1      -0.389   5.165 -12.917  1.00  0.00    -0.014 A 
BRANCH  12  13
ATOM     13  C   UNL     1      -1.197   4.200 -13.710  1.00  0.00     0.031 A 
ATOM     14  C   UNL     1      -0.597   3.407 -14.839  1.00  0.00     0.074 A 
ATOM     15  C   UNL     1      -2.479   3.996 -13.344  1.00  0.00     0.049 A 
ATOM     16  N   UNL     1      -1.150   2.477 -15.576  1.00  0.00    -0.248 NA
ATOM     17  C   UNL     1       0.799   3.700 -15.195  1.00  0.00     0.031 C 
ATOM     18  C   UNL     1      -3.171   4.726 -12.277  1.00  0.00     0.029 A 
ATOM     19  N   UNL     1      -3.417   3.102 -13.792  1.00  0.00    -0.354 N 
ATOM     20  C   UNL     1      -0.178   2.075 -16.485  1.00  0.00     0.074 A 
ATOM     21  C   UNL     1       0.990   2.894 -16.231  1.00  0.00     0.031 C 
ATOM     22  C   UNL     1      -4.394   4.206 -12.109  1.00  0.00     0.029 A 
ATOM     23  C   UNL     1      -4.605   3.160 -13.101  1.00  0.00     0.049 A 
ATOM     24  H   UNL     1      -3.255   2.478 -14.536  1.00  0.00     0.167 HD
ATOM     25  C   UNL     1      -0.251   1.107 -17.434  1.00  0.00     0.034 A 
ATOM     26  C   UNL     1      -5.746   2.462 -13.255  1.00  0.00     0.034 A 
ATOM     27  C   UNL     1      -1.428   0.303 -17.676  1.00  0.00     0.049 A 
ATOM     28  C   UNL     1      -5.801   1.403 -14.320  1.00  0.00     0.074 A 
ATOM     29  C   UNL     1      -1.611  -0.702 -18.611  1.00  0.00     0.029 A 
ATOM     30  N   UNL     1      -2.626   0.413 -16.980  1.00  0.00    -0.354 N 
ATOM     31  N   UNL     1      -4.866   1.036 -15.167  1.00  0.00    -0.248 NA
ATOM     32  C   UNL     1      -7.059   0.660 -14.447  1.00  0.00     0.031 C 
ATOM     33  C   UNL     1      -2.931  -1.159 -18.519  1.00  0.00     0.029 A 
ATOM     34  C   UNL     1      -3.555  -0.491 -17.478  1.00  0.00     0.049 A 
ATOM     35  H   UNL     1      -2.792   1.040 -16.240  1.00  0.00     0.167 HD
ATOM     36  C   UNL     1      -5.426   0.014 -15.925  1.00  0.00     0.074 A 
ATOM     37  C   UNL     1      -6.761  -0.205 -15.404  1.00  0.00     0.031 C 
ATOM     38  C   UNL     1      -4.893  -0.675 -16.967  1.00  0.00     0.034 A 
BRANCH  25  39
ATOM     39  C   UNL     1       0.965   0.889 -18.305  1.00  0.00     0.023 A 
ATOM     40  C   UNL     1       2.177   0.410 -17.777  1.00  0.00     0.031 A 
ATOM     41  C   UNL     1       0.912   1.163 -19.684  1.00  0.00     0.131 A 
ATOM     42  C   UNL     1       3.300   0.272 -18.609  1.00  0.00     0.055 A 
ATOM     43  C   UNL     1       2.012   0.958 -20.520  1.00  0.00     0.041 A 
ATOM     44  F   UNL     1      -0.211   1.641 -20.243  1.00  0.00    -0.206 F 
ATOM     45  C   UNL     1       3.219   0.520 -19.982  1.00  0.00     0.022 A 
BRANCH  42  46
ATOM     46  S   UNL     1       4.899  -0.126 -17.852  1.00  0.00     0.124 S 
ATOM     47  O   UNL     1       5.085   1.002 -16.943  1.00  0.00    -0.237 OA
ATOM     48  O   UNL     1       4.640  -1.416 -17.225  1.00  0.00    -0.237 OA
ATOM     49  O   UNL     1       5.818  -0.158 -18.989  1.00  0.00    -0.744 OA
ENDBRANCH  42  46
ENDBRANCH  25  39
BRANCH  26  50
ATOM     50  C   UNL     1      -6.935   2.771 -12.409  1.00  0.00     0.023 A 
ATOM     51  C   UNL     1      -7.479   1.817 -11.536  1.00  0.00     0.031 A 
ATOM     52  C   UNL     1      -7.564   4.027 -12.489  1.00  0.00     0.131 A 
ATOM     53  C   UNL     1      -8.643   2.117 -10.812  1.00  0.00     0.055 A 
ATOM     54  C   UNL     1      -8.685   4.342 -11.721  1.00  0.00     0.041 A 
ATOM     55  F   UNL     1      -7.082   4.978 -13.305  1.00  0.00    -0.206 F 
ATOM     56  C   UNL     1      -9.240   3.378 -10.886  1.00  0.00     0.022 A 
BRANCH  53  57
ATOM     57  S   UNL     1      -9.424   0.802  -9.838  1.00  0.00     0.124 S 
ATOM     58  O   UNL     1      -9.609  -0.242 -10.840  1.00  0.00    -0.237 OA
ATOM     59  O   UNL     1      -8.413   0.540  -8.819  1.00  0.00    -0.237 OA
ATOM     60  O   UNL     1     -10.652   1.424  -9.350  1.00  0.00    -0.744 OA
ENDBRANCH  53  57
ENDBRANCH  26  50
BRANCH  38  61
ATOM     61  C   UNL     1      -5.769  -1.735 -17.587  1.00  0.00     0.023 A 
ATOM     62  C   UNL     1      -6.957  -1.401 -18.262  1.00  0.00     0.031 A 
ATOM     63  C   UNL     1      -5.444  -3.096 -17.452  1.00  0.00     0.131 A 
ATOM     64  C   UNL     1      -7.816  -2.415 -18.709  1.00  0.00     0.055 A 
ATOM     65  C   UNL     1      -6.271  -4.100 -17.957  1.00  0.00     0.041 A 
ATOM     66  F   UNL     1      -4.324  -3.472 -16.815  1.00  0.00    -0.206 F 
ATOM     67  C   UNL     1      -7.474  -3.763 -18.573  1.00  0.00     0.022 A 
BRANCH  64  68
ATOM     68  S   UNL     1      -9.444  -1.949 -19.360  1.00  0.00     0.124 S 
ATOM     69  O   UNL     1     -10.011  -1.196 -18.246  1.00  0.00    -0.237 OA
ATOM     70  O   UNL     1      -9.095  -1.172 -20.544  1.00  0.00    -0.237 OA
ATOM     71  O   UNL     1     -10.085  -3.235 -19.629  1.00  0.00    -0.744 OA
ENDBRANCH  64  68
ENDBRANCH  38  61
ENDBRANCH  12  13
ENDBRANCH   5   7
ENDBRANCH   2   3
ENDBRANCH   1   2
BRANCH   1  72
ATOM     72  C   UNL     1       5.640   6.269  -8.640  1.00  0.00     0.023 C 
BRANCH  72  73
ATOM     73  C   UNL     1       5.313   5.881  -7.199  1.00  0.00     0.116 C 
BRANCH  73  74
ATOM     74  N   UNL     1       5.249   4.443  -7.025  1.00  0.00    -0.355 N 
ATOM     75  C   UNL     1       5.646   3.656  -5.987  1.00  0.00     0.233 C 
ATOM     76  H   UNL     1       4.852   3.955  -7.782  1.00  0.00     0.163 HD
ATOM     77  O   UNL     1       5.439   2.449  -6.116  1.00  0.00    -0.274 OA
BRANCH  75  78
ATOM     78  C   UNL     1       6.393   4.251  -4.792  1.00  0.00     0.140 C 
BRANCH  78  79
ATOM     79  S   UNL     1       5.432   5.520  -3.852  1.00  0.00    -0.141 SA
BRANCH  79  80
ATOM     80  C   UNL     1       3.954   4.653  -3.237  1.00  0.00     0.137 C 
BRANCH  80  81
ATOM     81  C   UNL     1       3.071   3.991  -4.243  1.00  0.00     0.102 A 
ATOM     82  N   UNL     1       2.573   4.560  -5.325  1.00  0.00    -0.249 NA
ATOM     83  S   UNL     1       2.523   2.381  -3.947  1.00  0.00    -0.126 S 
ATOM     84  C   UNL     1       1.773   3.655  -5.998  1.00  0.00     0.123 A 
ATOM     85  C   UNL     1       1.642   2.417  -5.409  1.00  0.00     0.087 A 
ENDBRANCH  80  81
ENDBRANCH  79  80
ENDBRANCH  78  79
BRANCH  78  86
ATOM     86  C   UNL     1       7.188   3.228  -3.944  1.00  0.00     0.060 C 
BRANCH  86  87
ATOM     87  C   UNL     1       6.449   2.215  -3.103  1.00  0.00    -0.046 A 
ATOM     88  C   UNL     1       6.044   0.991  -3.653  1.00  0.00     0.004 A 
ATOM     89  C   UNL     1       6.172   2.462  -1.752  1.00  0.00     0.004 A 
ATOM     90  C   UNL     1       5.306   0.074  -2.903  1.00  0.00     0.000 A 
ATOM     91  C   UNL     1       5.430   1.546  -1.000  1.00  0.00     0.000 A 
ATOM     92  C   UNL     1       4.985   0.360  -1.580  1.00  0.00     0.000 A 
ENDBRANCH  86  87
ENDBRANCH  78  86
ENDBRANCH  75  78
ENDBRANCH  73  74
ENDBRANCH  72  73
ENDBRANCH   1  72
TORSDOF 19
