REMARK SMILES C[C@@H](CC(=O)NCCCCNC(=O)c1ccc(-c2c3nc(c(-c4cc(S(=O)(=O)[O-])ccc4F)c4ccc([nH]4)c(-c4cc(S(=O)(=O)[O-])ccc4F)c4nc(c(-c5cc(S(=O)(=O)[O-])ccc5F)c5ccc2[nH]5)C=C4)C=C3)cc1)NC(=O)CN(C)c1ncccn1
REMARK SMILES IDX 7 1 6 2 4 3 5 4 3 6 2 7 1 8 77 9 78 10 79 12 80 13 81 14
REMARK SMILES IDX 82 15 83 16 84 17 88 18 85 19 87 20 86 21 8 22 9 23 10 24
REMARK SMILES IDX 11 25 12 26 13 28 14 29 15 30 76 31 16 32 75 33 17 34 18 35
REMARK SMILES IDX 19 36 69 37 20 38 74 39 68 40 70 41 21 42 73 43 67 44 66 45
REMARK SMILES IDX 22 47 54 48 34 49 53 50 35 51 38 52 52 53 71 54 36 55 37 56
REMARK SMILES IDX 51 58 72 59 39 60 23 61 24 62 32 63 25 64 31 65 33 66 30 67
REMARK SMILES IDX 26 68 27 69 28 70 29 71 55 72 56 73 64 74 57 75 63 76 65 77
REMARK SMILES IDX 62 78 58 79 59 80 60 81 61 82 40 83 41 84 49 85 42 86 48 87
REMARK SMILES IDX 50 88 47 89 43 90 44 91 45 92 46 93
REMARK H PARENT 6 5 77 11 11 27 70 46 38 57
REMARK Flexibility Score: inf
ROOT
ATOM      1  C   UNL     1       1.728  -1.384  -1.929  1.00  0.00     0.116 C 
ENDROOT
BRANCH   1   2
ATOM      2  N   UNL     1       0.745  -0.704  -2.748  1.00  0.00    -0.356 N 
ATOM      3  C   UNL     1       0.344   0.594  -2.735  1.00  0.00     0.222 C 
ATOM      4  O   UNL     1      -0.639   0.906  -3.410  1.00  0.00    -0.275 OA
ATOM      5  H   UNL     1       0.297  -1.271  -3.418  1.00  0.00     0.163 HD
BRANCH   3   6
ATOM      6  C   UNL     1       1.085   1.645  -1.931  1.00  0.00     0.124 C 
BRANCH   6   7
ATOM      7  C   UNL     1       0.534   1.921  -0.520  1.00  0.00     0.088 C 
ATOM      8  C   UNL     1       0.964   0.858   0.483  1.00  0.00     0.031 C 
BRANCH   7   9
ATOM      9  N   UNL     1      -0.915   2.095  -0.518  1.00  0.00    -0.352 N 
ATOM     10  C   UNL     1      -1.714   2.832   0.311  1.00  0.00     0.239 C 
ATOM     11  H   UNL     1      -1.392   1.603  -1.225  1.00  0.00     0.163 HD
ATOM     12  O   UNL     1      -2.933   2.806   0.106  1.00  0.00    -0.273 OA
BRANCH  10  13
ATOM     13  C   UNL     1      -1.106   3.784   1.347  1.00  0.00     0.219 C 
BRANCH  13  14
ATOM     14  N   UNL     1      -0.270   3.168   2.374  1.00  0.00    -0.335 N 
ATOM     15  C   UNL     1       0.994   3.771   2.734  1.00  0.00     0.147 C 
BRANCH  14  16
ATOM     16  C   UNL     1      -0.853   2.304   3.280  1.00  0.00     0.225 A 
ATOM     17  N   UNL     1      -0.245   2.097   4.463  1.00  0.00    -0.221 NA
ATOM     18  N   UNL     1      -1.976   1.662   2.934  1.00  0.00    -0.221 NA
ATOM     19  C   UNL     1      -0.807   1.214   5.312  1.00  0.00     0.117 A 
ATOM     20  C   UNL     1      -2.489   0.766   3.797  1.00  0.00     0.117 A 
ATOM     21  C   UNL     1      -1.941   0.501   5.024  1.00  0.00     0.040 A 
ENDBRANCH  14  16
ENDBRANCH  13  14
ENDBRANCH  10  13
ENDBRANCH   7   9
ENDBRANCH   6   7
ENDBRANCH   3   6
ENDBRANCH   1   2
BRANCH   1  22
ATOM     22  C   UNL     1       1.041  -2.229  -0.855  1.00  0.00     0.023 C 
BRANCH  22  23
ATOM     23  C   UNL     1       0.549  -3.591  -1.326  1.00  0.00     0.023 C 
BRANCH  23  24
ATOM     24  C   UNL     1       1.649  -4.545  -1.750  1.00  0.00     0.116 C 
BRANCH  24  25
ATOM     25  N   UNL     1       2.587  -4.867  -0.682  1.00  0.00    -0.352 N 
ATOM     26  C   UNL     1       3.162  -6.091  -0.419  1.00  0.00     0.251 C 
ATOM     27  H   UNL     1       2.837  -4.127  -0.082  1.00  0.00     0.163 HD
ATOM     28  O   UNL     1       3.873  -6.259   0.565  1.00  0.00    -0.269 OA
BRANCH  26  29
ATOM     29  C   UNL     1       2.845  -7.203  -1.336  1.00  0.00     0.039 A 
ATOM     30  C   UNL     1       2.214  -8.342  -0.834  1.00  0.00     0.014 A 
ATOM     31  C   UNL     1       3.023  -7.025  -2.709  1.00  0.00     0.014 A 
ATOM     32  C   UNL     1       1.675  -9.272  -1.726  1.00  0.00     0.010 A 
ATOM     33  C   UNL     1       2.407  -7.903  -3.589  1.00  0.00     0.010 A 
ATOM     34  C   UNL     1       1.723  -9.033  -3.108  1.00  0.00    -0.014 A 
BRANCH  34  35
ATOM     35  C   UNL     1       1.105  -9.951  -4.099  1.00  0.00     0.031 A 
ATOM     36  C   UNL     1       1.988 -10.586  -5.137  1.00  0.00     0.074 A 
ATOM     37  C   UNL     1      -0.232 -10.113  -4.148  1.00  0.00     0.049 A 
ATOM     38  N   UNL     1       1.664 -11.200  -6.243  1.00  0.00    -0.248 NA
ATOM     39  C   UNL     1       3.438 -10.451  -4.923  1.00  0.00     0.031 C 
ATOM     40  C   UNL     1      -1.196  -9.525  -3.216  1.00  0.00     0.029 A 
ATOM     41  N   UNL     1      -1.014 -10.803  -5.041  1.00  0.00    -0.354 N 
ATOM     42  C   UNL     1       2.867 -11.477  -6.884  1.00  0.00     0.074 A 
ATOM     43  C   UNL     1       3.920 -10.914  -6.064  1.00  0.00     0.031 C 
ATOM     44  C   UNL     1      -2.438  -9.890  -3.579  1.00  0.00     0.029 A 
ATOM     45  C   UNL     1      -2.364 -10.689  -4.798  1.00  0.00     0.049 A 
ATOM     46  H   UNL     1      -0.644 -11.329  -5.785  1.00  0.00     0.167 HD
ATOM     47  C   UNL     1       3.075 -12.152  -8.041  1.00  0.00     0.034 A 
ATOM     48  C   UNL     1      -3.420 -11.156  -5.495  1.00  0.00     0.034 A 
ATOM     49  C   UNL     1       2.015 -12.751  -8.811  1.00  0.00     0.049 A 
ATOM     50  C   UNL     1      -3.167 -11.933  -6.763  1.00  0.00     0.074 A 
ATOM     51  C   UNL     1       2.106 -13.510  -9.964  1.00  0.00     0.029 A 
ATOM     52  N   UNL     1       0.665 -12.667  -8.495  1.00  0.00    -0.354 N 
ATOM     53  N   UNL     1      -2.024 -12.197  -7.354  1.00  0.00    -0.248 NA
ATOM     54  C   UNL     1      -4.343 -12.477  -7.456  1.00  0.00     0.031 C 
ATOM     55  C   UNL     1       0.810 -13.851 -10.367  1.00  0.00     0.029 A 
ATOM     56  C   UNL     1      -0.086 -13.354  -9.434  1.00  0.00     0.049 A 
ATOM     57  H   UNL     1       0.296 -12.189  -7.717  1.00  0.00     0.167 HD
ATOM     58  C   UNL     1      -2.343 -12.969  -8.467  1.00  0.00     0.074 A 
ATOM     59  C   UNL     1      -3.783 -13.126  -8.468  1.00  0.00     0.031 C 
ATOM     60  C   UNL     1      -1.520 -13.508  -9.401  1.00  0.00     0.034 A 
BRANCH  47  61
ATOM     61  C   UNL     1       4.495 -12.249  -8.538  1.00  0.00     0.023 A 
ATOM     62  C   UNL     1       5.494 -12.901  -7.793  1.00  0.00     0.031 A 
ATOM     63  C   UNL     1       4.872 -11.628  -9.741  1.00  0.00     0.131 A 
ATOM     64  C   UNL     1       6.832 -12.831  -8.205  1.00  0.00     0.055 A 
ATOM     65  C   UNL     1       6.193 -11.643 -10.194  1.00  0.00     0.041 A 
ATOM     66  F   UNL     1       3.967 -10.973 -10.486  1.00  0.00    -0.206 F 
ATOM     67  C   UNL     1       7.186 -12.229  -9.415  1.00  0.00     0.022 A 
BRANCH  64  68
ATOM     68  S   UNL     1       8.117 -13.390  -7.055  1.00  0.00     0.124 S 
ATOM     69  O   UNL     1       7.903 -12.495  -5.920  1.00  0.00    -0.237 OA
ATOM     70  O   UNL     1       7.764 -14.789  -6.841  1.00  0.00    -0.237 OA
ATOM     71  O   UNL     1       9.359 -13.164  -7.792  1.00  0.00    -0.744 OA
ENDBRANCH  64  68
ENDBRANCH  47  61
BRANCH  48  72
ATOM     72  C   UNL     1      -4.811 -10.896  -5.029  1.00  0.00     0.023 A 
ATOM     73  C   UNL     1      -5.628 -11.946  -4.582  1.00  0.00     0.031 A 
ATOM     74  C   UNL     1      -5.357  -9.601  -5.056  1.00  0.00     0.131 A 
ATOM     75  C   UNL     1      -6.960 -11.693  -4.221  1.00  0.00     0.055 A 
ATOM     76  C   UNL     1      -6.670  -9.346  -4.654  1.00  0.00     0.041 A 
ATOM     77  F   UNL     1      -4.616  -8.560  -5.466  1.00  0.00    -0.206 F 
ATOM     78  C   UNL     1      -7.484 -10.398  -4.244  1.00  0.00     0.022 A 
BRANCH  75  79
ATOM     79  S   UNL     1      -8.024 -13.097  -3.788  1.00  0.00     0.124 S 
ATOM     80  O   UNL     1      -7.954 -13.908  -4.999  1.00  0.00    -0.237 OA
ATOM     81  O   UNL     1      -7.348 -13.637  -2.614  1.00  0.00    -0.237 OA
ATOM     82  O   UNL     1      -9.320 -12.474  -3.528  1.00  0.00    -0.744 OA
ENDBRANCH  75  79
ENDBRANCH  48  72
BRANCH  60  83
ATOM     83  C   UNL     1      -2.150 -14.379 -10.453  1.00  0.00     0.023 A 
ATOM     84  C   UNL     1      -2.910 -13.840 -11.504  1.00  0.00     0.031 A 
ATOM     85  C   UNL     1      -1.954 -15.770 -10.413  1.00  0.00     0.131 A 
ATOM     86  C   UNL     1      -3.472 -14.696 -12.462  1.00  0.00     0.055 A 
ATOM     87  C   UNL     1      -2.481 -16.612 -11.392  1.00  0.00     0.041 A 
ATOM     88  F   UNL     1      -1.232 -16.329  -9.429  1.00  0.00    -0.206 F 
ATOM     89  C   UNL     1      -3.250 -16.076 -12.421  1.00  0.00     0.022 A 
BRANCH  86  90
ATOM     90  S   UNL     1      -4.528 -13.988 -13.755  1.00  0.00     0.124 S 
ATOM     91  O   UNL     1      -5.646 -13.461 -12.978  1.00  0.00    -0.237 OA
ATOM     92  O   UNL     1      -3.653 -12.994 -14.368  1.00  0.00    -0.237 OA
ATOM     93  O   UNL     1      -4.848 -15.134 -14.604  1.00  0.00    -0.744 OA
ENDBRANCH  86  90
ENDBRANCH  60  83
ENDBRANCH  34  35
ENDBRANCH  26  29
ENDBRANCH  24  25
ENDBRANCH  23  24
ENDBRANCH  22  23
ENDBRANCH   1  22
TORSDOF 19
