REMARK SMILES O=C(NCCCCNC(=O)c1cc(SC[C@H]2CCOC2)ccn1)c1ccc(-c2c3nc(c(-c4cc(S(=O)(=O)[O-])ccc4F)c4ccc([nH]4)c(-c4cc(S(=O)(=O)[O-])ccc4F)c4nc(c(-c5cc(S(=O)(=O)[O-])ccc5F)c5ccc2[nH]5)C=C4)C=C3)cc1
REMARK SMILES IDX 5 1 4 2 3 3 1 4 2 5 24 7 25 8 86 9 26 10 85 11 27 12 28 13
REMARK SMILES IDX 29 14 79 15 30 16 84 17 78 18 80 19 31 20 83 21 77 22 76 23
REMARK SMILES IDX 32 25 64 26 44 27 63 28 45 29 48 30 62 31 81 32 46 33 47 34
REMARK SMILES IDX 61 36 82 37 49 38 33 39 34 40 42 41 35 42 41 43 43 44 40 45
REMARK SMILES IDX 36 46 37 47 38 48 39 49 65 50 66 51 74 52 67 53 73 54 75 55
REMARK SMILES IDX 72 56 68 57 69 58 70 59 71 60 50 61 51 62 59 63 52 64 58 65
REMARK SMILES IDX 60 66 57 67 53 68 54 69 55 70 56 71 6 72 7 73 8 74 9 75
REMARK SMILES IDX 10 77 11 78 12 79 23 80 13 81 22 82 21 83 14 84 15 85 16 86
REMARK SMILES IDX 17 87 20 88 18 89 19 90
REMARK H PARENT 3 6 80 24 48 35 8 76
REMARK Flexibility Score: inf
ROOT
ATOM      1  C   UNL     1       2.211   5.644  -9.535  1.00  0.00     0.023 C 
ENDROOT
BRANCH   1   2
ATOM      2  C   UNL     1       3.709   5.595  -9.271  1.00  0.00     0.116 C 
BRANCH   2   3
ATOM      3  N   UNL     1       4.207   4.275  -8.908  1.00  0.00    -0.352 N 
ATOM      4  O   UNL     1       5.567   2.469  -9.023  1.00  0.00    -0.269 OA
ATOM      5  C   UNL     1       5.311   3.610  -9.398  1.00  0.00     0.251 C 
ATOM      6  H   UNL     1       3.688   3.795  -8.223  1.00  0.00     0.163 HD
BRANCH   5   7
ATOM      7  C   UNL     1       6.169   4.270 -10.409  1.00  0.00     0.039 A 
ATOM      8  C   UNL     1       6.596   5.585 -10.223  1.00  0.00     0.014 A 
ATOM      9  C   UNL     1       6.508   3.582 -11.579  1.00  0.00     0.014 A 
ATOM     10  C   UNL     1       7.203   6.265 -11.272  1.00  0.00     0.010 A 
ATOM     11  C   UNL     1       7.206   4.243 -12.598  1.00  0.00     0.010 A 
ATOM     12  C   UNL     1       7.522   5.604 -12.471  1.00  0.00    -0.014 A 
BRANCH  12  13
ATOM     13  C   UNL     1       8.215   6.367 -13.545  1.00  0.00     0.031 A 
ATOM     14  C   UNL     1       7.558   6.627 -14.875  1.00  0.00     0.074 A 
ATOM     15  C   UNL     1       9.428   6.891 -13.276  1.00  0.00     0.049 A 
ATOM     16  N   UNL     1       7.998   7.335 -15.886  1.00  0.00    -0.248 NA
ATOM     17  C   UNL     1       6.246   6.007 -15.106  1.00  0.00     0.031 C 
ATOM     18  C   UNL     1      10.170   6.689 -12.028  1.00  0.00     0.029 A 
ATOM     19  N   UNL     1      10.234   7.723 -14.009  1.00  0.00    -0.354 N 
ATOM     20  C   UNL     1       7.024   7.241 -16.875  1.00  0.00     0.074 A 
ATOM     21  C   UNL     1       5.987   6.375 -16.354  1.00  0.00     0.031 C 
ATOM     22  C   UNL     1      11.289   7.426 -12.058  1.00  0.00     0.029 A 
ATOM     23  C   UNL     1      11.380   8.100 -13.347  1.00  0.00     0.049 A 
ATOM     24  H   UNL     1      10.014   8.023 -14.920  1.00  0.00     0.167 HD
ATOM     25  C   UNL     1       6.994   7.831 -18.098  1.00  0.00     0.034 A 
ATOM     26  C   UNL     1      12.398   8.892 -13.734  1.00  0.00     0.034 A 
ATOM     27  C   UNL     1       8.037   8.693 -18.604  1.00  0.00     0.049 A 
ATOM     28  C   UNL     1      12.338   9.534 -15.092  1.00  0.00     0.074 A 
ATOM     29  C   UNL     1       8.108   9.339 -19.828  1.00  0.00     0.029 A 
ATOM     30  N   UNL     1       9.196   9.032 -17.916  1.00  0.00    -0.354 N 
ATOM     31  N   UNL     1      11.406   9.431 -16.011  1.00  0.00    -0.248 NA
ATOM     32  C   UNL     1      13.460  10.404 -15.460  1.00  0.00     0.031 C 
ATOM     33  C   UNL     1       9.328  10.024 -19.898  1.00  0.00     0.029 A 
ATOM     34  C   UNL     1       9.992   9.861 -18.694  1.00  0.00     0.049 A 
ATOM     35  H   UNL     1       9.420   8.728 -17.006  1.00  0.00     0.167 HD
ATOM     36  C   UNL     1      11.832  10.227 -17.069  1.00  0.00     0.074 A 
ATOM     37  C   UNL     1      13.082  10.833 -16.655  1.00  0.00     0.031 C 
ATOM     38  C   UNL     1      11.250  10.432 -18.278  1.00  0.00     0.034 A 
BRANCH  25  39
ATOM     39  C   UNL     1       5.809   7.532 -18.987  1.00  0.00     0.023 A 
ATOM     40  C   UNL     1       4.510   7.955 -18.655  1.00  0.00     0.031 A 
ATOM     41  C   UNL     1       5.980   6.808 -20.181  1.00  0.00     0.131 A 
ATOM     42  C   UNL     1       3.427   7.604 -19.476  1.00  0.00     0.055 A 
ATOM     43  C   UNL     1       4.907   6.521 -21.029  1.00  0.00     0.041 A 
ATOM     44  F   UNL     1       7.193   6.361 -20.541  1.00  0.00    -0.206 F 
ATOM     45  C   UNL     1       3.620   6.909 -20.672  1.00  0.00     0.022 A 
BRANCH  42  46
ATOM     46  S   UNL     1       1.745   7.966 -18.899  1.00  0.00     0.124 S 
ATOM     47  O   UNL     1       1.693   7.212 -17.649  1.00  0.00    -0.237 OA
ATOM     48  O   UNL     1       1.762   9.418 -18.770  1.00  0.00    -0.237 OA
ATOM     49  O   UNL     1       0.896   7.444 -19.968  1.00  0.00    -0.744 OA
ENDBRANCH  42  46
ENDBRANCH  25  39
BRANCH  26  50
ATOM     50  C   UNL     1      13.571   9.091 -12.838  1.00  0.00     0.023 A 
ATOM     51  C   UNL     1      13.881  10.354 -12.310  1.00  0.00     0.031 A 
ATOM     52  C   UNL     1      14.416   8.014 -12.515  1.00  0.00     0.131 A 
ATOM     53  C   UNL     1      15.029  10.515 -11.518  1.00  0.00     0.055 A 
ATOM     54  C   UNL     1      15.525   8.168 -11.684  1.00  0.00     0.041 A 
ATOM     55  F   UNL     1      14.158   6.784 -12.989  1.00  0.00    -0.206 F 
ATOM     56  C   UNL     1      15.844   9.429 -11.191  1.00  0.00     0.022 A 
BRANCH  53  57
ATOM     57  S   UNL     1      15.490  12.187 -10.986  1.00  0.00     0.124 S 
ATOM     58  O   UNL     1      15.557  12.898 -12.258  1.00  0.00    -0.237 OA
ATOM     59  O   UNL     1      14.378  12.541 -10.111  1.00  0.00    -0.237 OA
ATOM     60  O   UNL     1      16.772  11.987 -10.314  1.00  0.00    -0.744 OA
ENDBRANCH  53  57
ENDBRANCH  26  50
BRANCH  38  61
ATOM     61  C   UNL     1      11.971  11.364 -19.219  1.00  0.00     0.023 A 
ATOM     62  C   UNL     1      13.218  11.024 -19.773  1.00  0.00     0.031 A 
ATOM     63  C   UNL     1      11.431  12.625 -19.524  1.00  0.00     0.131 A 
ATOM     64  C   UNL     1      13.918  11.961 -20.547  1.00  0.00     0.055 A 
ATOM     65  C   UNL     1      12.106  13.532 -20.343  1.00  0.00     0.041 A 
ATOM     66  F   UNL     1      10.245  13.001 -19.020  1.00  0.00    -0.206 F 
ATOM     67  C   UNL     1      13.364  13.208 -20.846  1.00  0.00     0.022 A 
BRANCH  64  68
ATOM     68  S   UNL     1      15.610  11.568 -21.067  1.00  0.00     0.124 S 
ATOM     69  O   UNL     1      16.270  11.314 -19.790  1.00  0.00    -0.237 OA
ATOM     70  O   UNL     1      15.411  10.404 -21.924  1.00  0.00    -0.237 OA
ATOM     71  O   UNL     1      16.046  12.780 -21.759  1.00  0.00    -0.744 OA
ENDBRANCH  64  68
ENDBRANCH  38  61
ENDBRANCH  12  13
ENDBRANCH   5   7
ENDBRANCH   2   3
ENDBRANCH   1   2
BRANCH   1  72
ATOM     72  C   UNL     1       1.317   5.276  -8.357  1.00  0.00     0.023 C 
BRANCH  72  73
ATOM     73  C   UNL     1       1.615   6.006  -7.055  1.00  0.00     0.116 C 
BRANCH  73  74
ATOM     74  N   UNL     1       1.443   7.448  -7.123  1.00  0.00    -0.351 N 
ATOM     75  C   UNL     1       0.681   8.255  -6.300  1.00  0.00     0.269 C 
ATOM     76  H   UNL     1       1.930   7.907  -7.846  1.00  0.00     0.163 HD
ATOM     77  O   UNL     1       0.671   9.473  -6.447  1.00  0.00    -0.268 OA
BRANCH  75  78
ATOM     78  C   UNL     1      -0.115   7.619  -5.217  1.00  0.00     0.129 A 
ATOM     79  C   UNL     1       0.550   6.990  -4.168  1.00  0.00     0.049 A 
ATOM     80  N   UNL     1      -1.455   7.577  -5.412  1.00  0.00    -0.251 NA
ATOM     81  C   UNL     1      -0.195   6.180  -3.322  1.00  0.00     0.011 A 
ATOM     82  C   UNL     1      -2.162   6.858  -4.525  1.00  0.00     0.113 A 
ATOM     83  C   UNL     1      -1.583   6.138  -3.492  1.00  0.00     0.035 A 
BRANCH  81  84
ATOM     84  S   UNL     1       0.483   5.130  -2.046  1.00  0.00    -0.126 SA
BRANCH  84  85
ATOM     85  C   UNL     1       2.273   4.984  -2.415  1.00  0.00     0.081 C 
BRANCH  85  86
ATOM     86  C   UNL     1       2.695   4.401  -3.764  1.00  0.00     0.027 C 
ATOM     87  C   UNL     1       4.035   3.683  -3.727  1.00  0.00     0.035 C 
ATOM     88  C   UNL     1       1.829   3.326  -4.388  1.00  0.00     0.164 C 
ATOM     89  C   UNL     1       4.029   2.923  -5.041  1.00  0.00     0.160 C 
ATOM     90  O   UNL     1       2.651   2.731  -5.406  1.00  0.00    -0.381 OA
ENDBRANCH  85  86
ENDBRANCH  84  85
ENDBRANCH  81  84
ENDBRANCH  75  78
ENDBRANCH  73  74
ENDBRANCH  72  73
ENDBRANCH   1  72
TORSDOF 17
