REMARK SMILES Cc1nccn1CCC[NH+]1CCC2(CC1)[C@@H](C(=O)NCCCCNC(=O)c1ccc(-c3c4nc(c(-c5cc(S(=O)(=O)[O-])ccc5F)c5ccc([nH]5)c(-c5cc(S(=O)(=O)[O-])ccc5F)c5nc(c(-c6cc(S(=O)(=O)[O-])ccc6F)c6ccc3[nH]6)C=C5)C=C4)cc1)CC(=O)N2C
REMARK SMILES IDX 21 1 20 2 19 3 17 4 18 5 16 7 10 8 11 9 15 10 12 12 14 13
REMARK SMILES IDX 13 14 93 15 90 16 91 17 94 18 92 19 9 20 8 21 7 22 6 23 1 24
REMARK SMILES IDX 2 25 3 26 4 27 5 28 22 29 23 30 24 31 25 32 26 34 27 35
REMARK SMILES IDX 28 36 89 37 29 38 88 39 30 40 31 41 32 42 82 43 33 44 87 45
REMARK SMILES IDX 81 46 83 47 34 48 86 49 80 50 79 51 35 53 67 54 47 55 66 56
REMARK SMILES IDX 48 57 51 58 65 59 84 60 49 61 50 62 64 64 85 65 52 66 36 67
REMARK SMILES IDX 37 68 45 69 38 70 44 71 46 72 43 73 39 74 40 75 41 76 42 77
REMARK SMILES IDX 68 78 69 79 77 80 70 81 76 82 78 83 75 84 71 85 72 86 73 87
REMARK SMILES IDX 74 88 53 89 54 90 62 91 55 92 61 93 63 94 60 95 56 96 57 97
REMARK SMILES IDX 58 98 59 99
REMARK H PARENT 19 6 10 11 24 33 83 52 51 63
REMARK Flexibility Score: inf
ROOT
ATOM      1  C   UNL     1       3.251   2.203   3.716  1.00  0.00     0.023 C 
ENDROOT
BRANCH   1   2
ATOM      2  C   UNL     1       1.997   1.572   4.322  1.00  0.00     0.116 C 
BRANCH   2   3
ATOM      3  N   UNL     1       0.862   1.546   3.421  1.00  0.00    -0.356 N 
ATOM      4  C   UNL     1      -0.150   0.671   3.194  1.00  0.00     0.226 C 
ATOM      5  O   UNL     1      -0.930   1.079   2.327  1.00  0.00    -0.275 OA
ATOM      6  H   UNL     1       0.815   2.342   2.844  1.00  0.00     0.163 HD
BRANCH   4   7
ATOM      7  C   UNL     1      -0.207  -0.774   3.740  1.00  0.00     0.114 C 
ATOM      8  N   UNL     1      -3.714  -2.698   2.095  1.00  0.00    -0.335 N 
ATOM      9  C   UNL     1      -2.778  -3.580   2.755  1.00  0.00     0.264 C 
ATOM     10  C   UNL     1      -4.069  -1.528   2.873  1.00  0.00     0.264 C 
ATOM     11  H   UNL     1      -4.603  -3.198   2.111  1.00  0.00     0.348 HD
ATOM     12  C   UNL     1      -1.472  -2.882   3.092  1.00  0.00     0.091 C 
ATOM     13  C   UNL     1      -2.862  -0.725   3.371  1.00  0.00     0.091 C 
ATOM     14  C   UNL     1      -1.619  -1.527   3.851  1.00  0.00     0.065 C 
ATOM     15  N   UNL     1      -1.683  -1.855   5.294  1.00  0.00    -0.339 N 
ATOM     16  C   UNL     1       0.470  -1.002   5.088  1.00  0.00     0.116 C 
ATOM     17  C   UNL     1      -0.464  -1.796   5.935  1.00  0.00     0.223 C 
ATOM     18  C   UNL     1      -2.853  -2.293   6.025  1.00  0.00     0.147 C 
ATOM     19  O   UNL     1      -0.185  -2.238   7.030  1.00  0.00    -0.275 OA
BRANCH   8  20
ATOM     20  C   UNL     1      -3.719  -2.659   0.641  1.00  0.00     0.264 C 
BRANCH  20  21
ATOM     21  C   UNL     1      -3.071  -1.528  -0.177  1.00  0.00     0.083 C 
BRANCH  21  22
ATOM     22  C   UNL     1      -1.600  -1.156   0.007  1.00  0.00     0.129 C 
BRANCH  22  23
ATOM     23  N   UNL     1      -0.519  -2.058  -0.337  1.00  0.00    -0.335 N 
ATOM     24  C   UNL     1       1.268  -0.255  -0.430  1.00  0.00     0.087 C 
ATOM     25  C   UNL     1       0.811  -1.670  -0.412  1.00  0.00     0.105 A 
ATOM     26  N   UNL     1       1.606  -2.721  -0.425  1.00  0.00    -0.242 NA
ATOM     27  C   UNL     1       0.782  -3.809  -0.402  1.00  0.00     0.131 A 
ATOM     28  C   UNL     1      -0.537  -3.423  -0.398  1.00  0.00     0.107 A 
ENDBRANCH  22  23
ENDBRANCH  21  22
ENDBRANCH  20  21
ENDBRANCH   8  20
ENDBRANCH   4   7
ENDBRANCH   2   3
ENDBRANCH   1   2
BRANCH   1  29
ATOM     29  C   UNL     1       3.124   3.613   3.131  1.00  0.00     0.023 C 
BRANCH  29  30
ATOM     30  C   UNL     1       2.447   4.635   4.032  1.00  0.00     0.116 C 
BRANCH  30  31
ATOM     31  N   UNL     1       3.138   4.834   5.297  1.00  0.00    -0.352 N 
ATOM     32  C   UNL     1       2.845   5.770   6.271  1.00  0.00     0.251 C 
ATOM     33  H   UNL     1       3.898   4.236   5.480  1.00  0.00     0.163 HD
ATOM     34  O   UNL     1       3.685   6.063   7.114  1.00  0.00    -0.269 OA
BRANCH  32  35
ATOM     35  C   UNL     1       1.520   6.421   6.264  1.00  0.00     0.039 A 
ATOM     36  C   UNL     1       1.408   7.800   6.462  1.00  0.00     0.014 A 
ATOM     37  C   UNL     1       0.383   5.645   6.035  1.00  0.00     0.014 A 
ATOM     38  C   UNL     1       0.157   8.402   6.337  1.00  0.00     0.010 A 
ATOM     39  C   UNL     1      -0.838   6.252   5.819  1.00  0.00     0.010 A 
ATOM     40  C   UNL     1      -0.963   7.628   5.984  1.00  0.00    -0.014 A 
BRANCH  40  41
ATOM     41  C   UNL     1      -2.216   8.287   5.603  1.00  0.00     0.031 A 
ATOM     42  C   UNL     1      -2.061   9.311   4.530  1.00  0.00     0.074 A 
ATOM     43  C   UNL     1      -3.447   7.886   5.992  1.00  0.00     0.049 A 
ATOM     44  N   UNL     1      -2.223  10.588   4.631  1.00  0.00    -0.248 NA
ATOM     45  C   UNL     1      -1.511   8.890   3.230  1.00  0.00     0.031 C 
ATOM     46  C   UNL     1      -3.801   6.726   6.813  1.00  0.00     0.029 A 
ATOM     47  N   UNL     1      -4.668   8.382   5.636  1.00  0.00    -0.354 N 
ATOM     48  C   UNL     1      -2.038  11.107   3.353  1.00  0.00     0.074 A 
ATOM     49  C   UNL     1      -1.409  10.060   2.595  1.00  0.00     0.031 C 
ATOM     50  C   UNL     1      -5.125   6.477   6.698  1.00  0.00     0.029 A 
ATOM     51  C   UNL     1      -5.743   7.540   5.922  1.00  0.00     0.049 A 
ATOM     52  H   UNL     1      -4.781   9.262   5.211  1.00  0.00     0.167 HD
ATOM     53  C   UNL     1      -2.639  12.271   2.975  1.00  0.00     0.034 A 
ATOM     54  C   UNL     1      -7.040   7.686   5.534  1.00  0.00     0.034 A 
ATOM     55  C   UNL     1      -3.102  13.010   4.132  1.00  0.00     0.049 A 
ATOM     56  C   UNL     1      -7.235   9.126   5.234  1.00  0.00     0.074 A 
ATOM     57  C   UNL     1      -2.492  13.489   5.278  1.00  0.00     0.029 A 
ATOM     58  N   UNL     1      -4.451  13.003   4.417  1.00  0.00    -0.354 N 
ATOM     59  N   UNL     1      -7.175  10.056   6.146  1.00  0.00    -0.248 NA
ATOM     60  C   UNL     1      -7.003   9.580   3.871  1.00  0.00     0.031 C 
ATOM     61  C   UNL     1      -3.422  13.217   6.325  1.00  0.00     0.029 A 
ATOM     62  C   UNL     1      -4.580  12.691   5.749  1.00  0.00     0.049 A 
ATOM     63  H   UNL     1      -5.183  13.187   3.786  1.00  0.00     0.167 HD
ATOM     64  C   UNL     1      -6.463  11.087   5.555  1.00  0.00     0.074 A 
ATOM     65  C   UNL     1      -6.473  10.781   4.125  1.00  0.00     0.031 C 
ATOM     66  C   UNL     1      -5.686  11.931   6.299  1.00  0.00     0.034 A 
BRANCH  53  67
ATOM     67  C   UNL     1      -3.152  12.574   1.580  1.00  0.00     0.023 A 
ATOM     68  C   UNL     1      -3.813  13.806   1.397  1.00  0.00     0.031 A 
ATOM     69  C   UNL     1      -3.305  11.641   0.530  1.00  0.00     0.131 A 
ATOM     70  C   UNL     1      -4.680  14.010   0.311  1.00  0.00     0.055 A 
ATOM     71  C   UNL     1      -4.112  11.879  -0.588  1.00  0.00     0.041 A 
ATOM     72  F   UNL     1      -2.763  10.419   0.557  1.00  0.00    -0.206 F 
ATOM     73  C   UNL     1      -4.838  13.052  -0.684  1.00  0.00     0.022 A 
BRANCH  70  74
ATOM     74  S   UNL     1      -5.752  15.470   0.339  1.00  0.00     0.124 S 
ATOM     75  O   UNL     1      -6.411  15.318   1.632  1.00  0.00    -0.237 OA
ATOM     76  O   UNL     1      -4.782  16.555   0.231  1.00  0.00    -0.237 OA
ATOM     77  O   UNL     1      -6.610  15.281  -0.828  1.00  0.00    -0.744 OA
ENDBRANCH  70  74
ENDBRANCH  53  67
BRANCH  54  78
ATOM     78  C   UNL     1      -8.033   6.634   5.166  1.00  0.00     0.023 A 
ATOM     79  C   UNL     1      -9.421   6.888   5.065  1.00  0.00     0.031 A 
ATOM     80  C   UNL     1      -7.583   5.398   4.649  1.00  0.00     0.131 A 
ATOM     81  C   UNL     1     -10.284   5.937   4.464  1.00  0.00     0.055 A 
ATOM     82  C   UNL     1      -8.438   4.464   4.057  1.00  0.00     0.041 A 
ATOM     83  F   UNL     1      -6.277   5.091   4.617  1.00  0.00    -0.206 F 
ATOM     84  C   UNL     1      -9.792   4.735   3.951  1.00  0.00     0.022 A 
BRANCH  81  85
ATOM     85  S   UNL     1     -12.059   6.293   4.234  1.00  0.00     0.124 S 
ATOM     86  O   UNL     1     -12.581   6.155   5.589  1.00  0.00    -0.237 OA
ATOM     87  O   UNL     1     -12.044   7.640   3.676  1.00  0.00    -0.237 OA
ATOM     88  O   UNL     1     -12.496   5.253   3.301  1.00  0.00    -0.744 OA
ENDBRANCH  81  85
ENDBRANCH  54  78
BRANCH  66  89
ATOM     89  C   UNL     1      -5.835  11.925   7.809  1.00  0.00     0.023 A 
ATOM     90  C   UNL     1      -5.714  10.784   8.637  1.00  0.00     0.031 A 
ATOM     91  C   UNL     1      -5.994  13.171   8.443  1.00  0.00     0.131 A 
ATOM     92  C   UNL     1      -5.769  10.919  10.039  1.00  0.00     0.055 A 
ATOM     93  C   UNL     1      -6.021  13.303   9.830  1.00  0.00     0.041 A 
ATOM     94  F   UNL     1      -6.092  14.297   7.718  1.00  0.00    -0.206 F 
ATOM     95  C   UNL     1      -5.916  12.176  10.634  1.00  0.00     0.022 A 
BRANCH  92  96
ATOM     96  S   UNL     1      -5.675   9.456  11.123  1.00  0.00     0.124 S 
ATOM     97  O   UNL     1      -6.598   8.512  10.507  1.00  0.00    -0.237 OA
ATOM     98  O   UNL     1      -4.259   9.103  11.056  1.00  0.00    -0.237 OA
ATOM     99  O   UNL     1      -6.109   9.970  12.424  1.00  0.00    -0.744 OA
ENDBRANCH  92  96
ENDBRANCH  66  89
ENDBRANCH  40  41
ENDBRANCH  32  35
ENDBRANCH  30  31
ENDBRANCH  29  30
ENDBRANCH   1  29
TORSDOF 18
