REMARK SMILES C[C@@H](C(=O)NCCCCNC(=O)c1ccc(-c2c3nc(c(-c4cc(S(=O)(=O)[O-])ccc4F)c4ccc([nH]4)c(-c4cc(S(=O)(=O)[O-])ccc4F)c4nc(c(-c5cc(S(=O)(=O)[O-])ccc5F)c5ccc2[nH]5)C=C4)C=C3)cc1)c1ccc(-c2cccc(OC(=O)NCCCc3ccccc3)c2)c(F)c1
REMARK SMILES IDX 3 1 4 2 5 3 2 5 1 6 76 7 77 8 101 9 78 10 99 11 79 12 100 13
REMARK SMILES IDX 80 14 81 15 98 16 82 17 84 18 83 19 85 20 86 21 87 22 88 23
REMARK SMILES IDX 89 25 90 26 91 27 92 28 93 29 97 30 94 31 96 32 95 33 6 34
REMARK SMILES IDX 7 35 8 36 9 37 10 38 11 39 12 41 13 42 14 43 75 44 15 45
REMARK SMILES IDX 74 46 16 47 17 48 18 49 68 50 19 51 73 52 67 53 69 54 20 55
REMARK SMILES IDX 72 56 66 57 65 58 21 60 53 61 33 62 52 63 34 64 37 65 51 66
REMARK SMILES IDX 70 67 35 68 36 69 50 71 71 72 38 73 22 74 23 75 31 76 24 77
REMARK SMILES IDX 30 78 32 79 29 80 25 81 26 82 27 83 28 84 54 85 55 86 63 87
REMARK SMILES IDX 56 88 62 89 64 90 61 91 57 92 58 93 59 94 60 95 39 96 40 97
REMARK SMILES IDX 48 98 41 99 47 100 49 101 46 102 42 103 43 104 44 105 45 106
REMARK H PARENT 5 4 88 24 10 40 69 59 37 70
REMARK Flexibility Score: inf
ROOT
ATOM      1  C   UNL     1       1.066   0.649   2.245  1.00  0.00     0.227 C 
ATOM      2  O   UNL     1       0.423   1.409   2.972  1.00  0.00    -0.274 OA
ATOM      3  N   UNL     1       2.407   0.577   2.478  1.00  0.00    -0.356 N 
ATOM      4  H   UNL     1       2.721   1.067   3.273  1.00  0.00     0.163 HD
ENDROOT
BRANCH   1   5
ATOM      5  C   UNL     1       0.432  -0.232   1.152  1.00  0.00     0.105 C 
ATOM      6  C   UNL     1       0.818   0.169  -0.273  1.00  0.00     0.023 C 
BRANCH   5   7
ATOM      7  C   UNL     1      -1.088  -0.259   1.211  1.00  0.00    -0.033 A 
ATOM      8  C   UNL     1      -1.837   0.928   1.166  1.00  0.00     0.005 A 
ATOM      9  C   UNL     1      -1.765  -1.482   1.239  1.00  0.00     0.044 A 
ATOM     10  C   UNL     1      -3.229   0.897   1.183  1.00  0.00     0.012 A 
ATOM     11  C   UNL     1      -3.155  -1.505   1.241  1.00  0.00     0.131 A 
ATOM     12  C   UNL     1      -3.913  -0.324   1.227  1.00  0.00     0.018 A 
ATOM     13  F   UNL     1      -3.763  -2.702   1.266  1.00  0.00    -0.206 F 
BRANCH  12  14
ATOM     14  C   UNL     1      -5.372  -0.345   1.363  1.00  0.00    -0.012 A 
ATOM     15  C   UNL     1      -6.217   0.357   0.490  1.00  0.00     0.009 A 
ATOM     16  C   UNL     1      -5.943  -1.037   2.440  1.00  0.00     0.056 A 
ATOM     17  C   UNL     1      -7.599   0.371   0.694  1.00  0.00     0.004 A 
ATOM     18  C   UNL     1      -7.313  -1.009   2.651  1.00  0.00     0.133 A 
ATOM     19  C   UNL     1      -8.148  -0.310   1.779  1.00  0.00     0.047 A 
BRANCH  18  20
ATOM     20  O   UNL     1      -7.954  -1.679   3.714  1.00  0.00    -0.410 OA
BRANCH  20  21
ATOM     21  C   UNL     1      -7.314  -2.269   4.802  1.00  0.00     0.412 C 
ATOM     22  O   UNL     1      -6.116  -2.268   5.046  1.00  0.00    -0.224 OA
ATOM     23  N   UNL     1      -8.185  -2.884   5.655  1.00  0.00    -0.321 N 
ATOM     24  H   UNL     1      -7.801  -3.414   6.390  1.00  0.00     0.167 HD
BRANCH  23  25
ATOM     25  C   UNL     1      -9.622  -2.820   5.566  1.00  0.00     0.120 C 
BRANCH  25  26
ATOM     26  C   UNL     1     -10.335  -4.066   6.085  1.00  0.00     0.026 C 
BRANCH  26  27
ATOM     27  C   UNL     1      -9.793  -4.737   7.353  1.00  0.00     0.037 C 
BRANCH  27  28
ATOM     28  C   UNL     1      -9.935  -4.066   8.700  1.00  0.00    -0.048 A 
ATOM     29  C   UNL     1     -10.140  -2.697   8.894  1.00  0.00     0.004 A 
ATOM     30  C   UNL     1      -9.782  -4.873   9.842  1.00  0.00     0.004 A 
ATOM     31  C   UNL     1     -10.178  -2.148  10.180  1.00  0.00     0.000 A 
ATOM     32  C   UNL     1      -9.832  -4.330  11.128  1.00  0.00     0.000 A 
ATOM     33  C   UNL     1     -10.023  -2.963  11.296  1.00  0.00     0.000 A 
ENDBRANCH  27  28
ENDBRANCH  26  27
ENDBRANCH  25  26
ENDBRANCH  23  25
ENDBRANCH  20  21
ENDBRANCH  18  20
ENDBRANCH  12  14
ENDBRANCH   5   7
ENDBRANCH   1   5
BRANCH   3  34
ATOM     34  C   UNL     1       3.438  -0.112   1.734  1.00  0.00     0.116 C 
BRANCH  34  35
ATOM     35  C   UNL     1       4.175   0.858   0.809  1.00  0.00     0.023 C 
BRANCH  35  36
ATOM     36  C   UNL     1       4.944   1.962   1.536  1.00  0.00     0.023 C 
BRANCH  36  37
ATOM     37  C   UNL     1       5.932   1.467   2.581  1.00  0.00     0.116 C 
BRANCH  37  38
ATOM     38  N   UNL     1       6.909   0.547   2.023  1.00  0.00    -0.352 N 
ATOM     39  C   UNL     1       8.262   0.493   2.238  1.00  0.00     0.251 C 
ATOM     40  H   UNL     1       6.549  -0.131   1.407  1.00  0.00     0.163 HD
ATOM     41  O   UNL     1       8.955  -0.238   1.536  1.00  0.00    -0.269 OA
BRANCH  39  42
ATOM     42  C   UNL     1       8.876   1.332   3.290  1.00  0.00     0.039 A 
ATOM     43  C   UNL     1      10.096   1.956   3.023  1.00  0.00     0.014 A 
ATOM     44  C   UNL     1       8.263   1.494   4.536  1.00  0.00     0.014 A 
ATOM     45  C   UNL     1      10.687   2.761   3.998  1.00  0.00     0.010 A 
ATOM     46  C   UNL     1       8.805   2.372   5.469  1.00  0.00     0.010 A 
ATOM     47  C   UNL     1      10.039   2.990   5.224  1.00  0.00    -0.014 A 
BRANCH  47  48
ATOM     48  C   UNL     1      10.676   3.823   6.277  1.00  0.00     0.031 A 
ATOM     49  C   UNL     1      11.058   3.201   7.595  1.00  0.00     0.074 A 
ATOM     50  C   UNL     1      10.894   5.134   6.055  1.00  0.00     0.049 A 
ATOM     51  N   UNL     1      11.625   3.752   8.638  1.00  0.00    -0.248 NA
ATOM     52  C   UNL     1      10.732   1.777   7.776  1.00  0.00     0.031 C 
ATOM     53  C   UNL     1      10.529   5.856   4.834  1.00  0.00     0.029 A 
ATOM     54  N   UNL     1      11.483   6.091   6.842  1.00  0.00    -0.354 N 
ATOM     55  C   UNL     1      11.710   2.748   9.598  1.00  0.00     0.074 A 
ATOM     56  C   UNL     1      11.068   1.579   9.040  1.00  0.00     0.031 C 
ATOM     57  C   UNL     1      10.944   7.129   4.936  1.00  0.00     0.029 A 
ATOM     58  C   UNL     1      11.562   7.328   6.243  1.00  0.00     0.049 A 
ATOM     59  H   UNL     1      11.818   5.910   7.750  1.00  0.00     0.167 HD
ATOM     60  C   UNL     1      12.296   2.788  10.821  1.00  0.00     0.034 A 
ATOM     61  C   UNL     1      12.077   8.488   6.697  1.00  0.00     0.034 A 
ATOM     62  C   UNL     1      12.943   3.962  11.355  1.00  0.00     0.049 A 
ATOM     63  C   UNL     1      12.708   8.513   8.068  1.00  0.00     0.074 A 
ATOM     64  C   UNL     1      13.613   4.104  12.558  1.00  0.00     0.029 A 
ATOM     65  N   UNL     1      12.996   5.199  10.724  1.00  0.00    -0.354 N 
ATOM     66  N   UNL     1      12.833   7.540   8.941  1.00  0.00    -0.248 NA
ATOM     67  C   UNL     1      13.285   9.790   8.503  1.00  0.00     0.031 C 
ATOM     68  C   UNL     1      13.998   5.443  12.690  1.00  0.00     0.029 A 
ATOM     69  C   UNL     1      13.658   6.116  11.527  1.00  0.00     0.049 A 
ATOM     70  H   UNL     1      12.618   5.396   9.837  1.00  0.00     0.167 HD
ATOM     71  C   UNL     1      13.545   8.079  10.010  1.00  0.00     0.074 A 
ATOM     72  C   UNL     1      13.831   9.456   9.662  1.00  0.00     0.031 C 
ATOM     73  C   UNL     1      13.934   7.489  11.170  1.00  0.00     0.034 A 
BRANCH  60  74
ATOM     74  C   UNL     1      12.230   1.537  11.668  1.00  0.00     0.023 A 
ATOM     75  C   UNL     1      12.805   0.324  11.248  1.00  0.00     0.031 A 
ATOM     76  C   UNL     1      11.553   1.548  12.900  1.00  0.00     0.131 A 
ATOM     77  C   UNL     1      12.621  -0.841  12.008  1.00  0.00     0.055 A 
ATOM     78  C   UNL     1      11.453   0.405  13.697  1.00  0.00     0.041 A 
ATOM     79  F   UNL     1      10.961   2.667  13.346  1.00  0.00    -0.206 F 
ATOM     80  C   UNL     1      11.974  -0.803  13.245  1.00  0.00     0.022 A 
BRANCH  77  81
ATOM     81  S   UNL     1      13.097  -2.434  11.281  1.00  0.00     0.124 S 
ATOM     82  O   UNL     1      12.293  -2.453  10.061  1.00  0.00    -0.237 OA
ATOM     83  O   UNL     1      14.535  -2.281  11.097  1.00  0.00    -0.237 OA
ATOM     84  O   UNL     1      12.696  -3.407  12.296  1.00  0.00    -0.744 OA
ENDBRANCH  77  81
ENDBRANCH  60  74
BRANCH  61  85
ATOM     85  C   UNL     1      12.034   9.719   5.855  1.00  0.00     0.023 A 
ATOM     86  C   UNL     1      13.217  10.343   5.425  1.00  0.00     0.031 A 
ATOM     87  C   UNL     1      10.811  10.322   5.513  1.00  0.00     0.131 A 
ATOM     88  C   UNL     1      13.153  11.561   4.729  1.00  0.00     0.055 A 
ATOM     89  C   UNL     1      10.752  11.501   4.768  1.00  0.00     0.041 A 
ATOM     90  F   UNL     1       9.650   9.767   5.895  1.00  0.00    -0.206 F 
ATOM     91  C   UNL     1      11.929  12.136   4.385  1.00  0.00     0.022 A 
BRANCH  88  92
ATOM     92  S   UNL     1      14.701  12.437   4.370  1.00  0.00     0.124 S 
ATOM     93  O   UNL     1      15.262  12.608   5.705  1.00  0.00    -0.237 OA
ATOM     94  O   UNL     1      15.390  11.490   3.500  1.00  0.00    -0.237 OA
ATOM     95  O   UNL     1      14.252  13.666   3.718  1.00  0.00    -0.744 OA
ENDBRANCH  88  92
ENDBRANCH  61  85
BRANCH  73  96
ATOM     96  C   UNL     1      14.773   8.318  12.116  1.00  0.00     0.023 A 
ATOM     97  C   UNL     1      14.280   9.486  12.724  1.00  0.00     0.031 A 
ATOM     98  C   UNL     1      16.103   7.946  12.387  1.00  0.00     0.131 A 
ATOM     99  C   UNL     1      15.133  10.281  13.505  1.00  0.00     0.055 A 
ATOM    100  C   UNL     1      16.922   8.698  13.228  1.00  0.00     0.041 A 
ATOM    101  F   UNL     1      16.631   6.843  11.832  1.00  0.00    -0.206 F 
ATOM    102  C   UNL     1      16.445   9.884  13.777  1.00  0.00     0.022 A 
BRANCH  99 103
ATOM    103  S   UNL     1      14.548  11.910  14.048  1.00  0.00     0.124 S 
ATOM    104  O   UNL     1      14.169  12.533  12.784  1.00  0.00    -0.237 OA
ATOM    105  O   UNL     1      13.448  11.563  14.942  1.00  0.00    -0.237 OA
ATOM    106  O   UNL     1      15.718  12.494  14.702  1.00  0.00    -0.744 OA
ENDBRANCH  99 103
ENDBRANCH  73  96
ENDBRANCH  47  48
ENDBRANCH  39  42
ENDBRANCH  37  38
ENDBRANCH  36  37
ENDBRANCH  35  36
ENDBRANCH  34  35
ENDBRANCH   3  34
TORSDOF 22
