REMARK SMILES COC(=O)/C=C(/CC(C)C)C(=O)NCCCCNC(=O)c1ccc(-c2c3nc(c(-c4cc(S(=O)(=O)[O-])ccc4F)c4ccc([nH]4)c(-c4cc(S(=O)(=O)[O-])ccc4F)c4nc(c(-c5cc(S(=O)(=O)[O-])ccc5F)c5ccc2[nH]5)C=C4)C=C3)cc1
REMARK SMILES IDX 16 1 15 2 14 3 13 4 11 5 12 6 6 8 5 9 3 10 4 11 2 12 1 13
REMARK SMILES IDX 7 14 8 15 9 16 10 17 17 18 18 19 19 20 20 22 21 23 22 24
REMARK SMILES IDX 83 25 23 26 82 27 24 28 25 29 26 30 76 31 27 32 81 33 75 34
REMARK SMILES IDX 77 35 28 36 80 37 74 38 73 39 29 41 61 42 41 43 60 44 42 45
REMARK SMILES IDX 45 46 59 47 78 48 43 49 44 50 58 52 79 53 46 54 30 55 31 56
REMARK SMILES IDX 39 57 32 58 38 59 40 60 37 61 33 62 34 63 35 64 36 65 62 66
REMARK SMILES IDX 63 67 71 68 64 69 70 70 72 71 69 72 65 73 66 74 67 75 68 76
REMARK SMILES IDX 47 77 48 78 56 79 49 80 55 81 57 82 54 83 50 84 51 85 52 86
REMARK SMILES IDX 53 87
REMARK H PARENT 13 7 18 21 77 40 45 51
REMARK Flexibility Score: inf
ROOT
ATOM      1  C   UNL     1      -2.304  -2.628   6.268  1.00  0.00     0.023 C 
ENDROOT
BRANCH   1   2
ATOM      2  C   UNL     1      -1.746  -3.661   5.306  1.00  0.00     0.023 C 
BRANCH   2   3
ATOM      3  C   UNL     1      -2.345  -3.634   3.900  1.00  0.00     0.116 C 
BRANCH   3   4
ATOM      4  N   UNL     1      -1.655  -2.659   3.076  1.00  0.00    -0.352 N 
ATOM      5  C   UNL     1      -0.520  -2.746   2.331  1.00  0.00     0.247 C 
ATOM      6  O   UNL     1       0.257  -1.794   2.423  1.00  0.00    -0.270 OA
ATOM      7  H   UNL     1      -2.085  -1.774   3.053  1.00  0.00     0.163 HD
BRANCH   5   8
ATOM      8  C   UNL     1      -0.205  -3.900   1.428  1.00  0.00     0.024 C 
ATOM      9  C   UNL     1       0.522  -3.683   0.308  1.00  0.00     0.102 C 
BRANCH   9  10
ATOM     10  C   UNL     1       1.117  -2.463  -0.276  1.00  0.00     0.330 C 
ATOM     11  O   UNL     1       2.151  -2.528  -0.930  1.00  0.00    -0.247 OA
BRANCH  10  12
ATOM     12  O   UNL     1       0.354  -1.363  -0.114  1.00  0.00    -0.466 OA
ATOM     13  C   UNL     1       1.011  -0.138  -0.447  1.00  0.00     0.282 C 
ENDBRANCH  10  12
ENDBRANCH   9  10
BRANCH   8  14
ATOM     14  C   UNL     1      -0.638  -5.322   1.693  1.00  0.00     0.044 C 
BRANCH  14  15
ATOM     15  C   UNL     1       0.248  -6.159   2.650  1.00  0.00    -0.013 C 
ATOM     16  C   UNL     1       0.705  -5.486   3.940  1.00  0.00     0.008 C 
ATOM     17  C   UNL     1      -0.477  -7.463   3.007  1.00  0.00     0.008 C 
ENDBRANCH  14  15
ENDBRANCH   8  14
ENDBRANCH   5   8
ENDBRANCH   3   4
ENDBRANCH   2   3
ENDBRANCH   1   2
BRANCH   1  18
ATOM     18  C   UNL     1      -3.804  -2.712   6.486  1.00  0.00     0.116 C 
BRANCH  18  19
ATOM     19  N   UNL     1      -4.285  -4.052   6.805  1.00  0.00    -0.352 N 
ATOM     20  C   UNL     1      -5.217  -4.429   7.745  1.00  0.00     0.251 C 
ATOM     21  H   UNL     1      -3.891  -4.784   6.278  1.00  0.00     0.163 HD
ATOM     22  O   UNL     1      -5.439  -5.617   7.953  1.00  0.00    -0.269 OA
BRANCH  20  23
ATOM     23  C   UNL     1      -5.898  -3.377   8.525  1.00  0.00     0.039 A 
ATOM     24  C   UNL     1      -5.957  -3.491   9.914  1.00  0.00     0.014 A 
ATOM     25  C   UNL     1      -6.368  -2.228   7.886  1.00  0.00     0.014 A 
ATOM     26  C   UNL     1      -6.409  -2.406  10.665  1.00  0.00     0.010 A 
ATOM     27  C   UNL     1      -6.682  -1.108   8.640  1.00  0.00     0.010 A 
ATOM     28  C   UNL     1      -6.721  -1.186  10.039  1.00  0.00    -0.014 A 
BRANCH  28  29
ATOM     29  C   UNL     1      -7.098   0.010  10.835  1.00  0.00     0.031 A 
ATOM     30  C   UNL     1      -8.435   0.669  10.617  1.00  0.00     0.074 A 
ATOM     31  C   UNL     1      -6.218   0.522  11.719  1.00  0.00     0.049 A 
ATOM     32  N   UNL     1      -8.949   1.713  11.215  1.00  0.00    -0.248 NA
ATOM     33  C   UNL     1      -9.288   0.110   9.557  1.00  0.00     0.031 C 
ATOM     34  C   UNL     1      -4.859   0.022  11.950  1.00  0.00     0.029 A 
ATOM     35  N   UNL     1      -6.334   1.568  12.599  1.00  0.00    -0.354 N 
ATOM     36  C   UNL     1     -10.175   1.937  10.596  1.00  0.00     0.074 A 
ATOM     37  C   UNL     1     -10.280   0.983   9.515  1.00  0.00     0.031 C 
ATOM     38  C   UNL     1      -4.295   0.718  12.949  1.00  0.00     0.029 A 
ATOM     39  C   UNL     1      -5.229   1.741  13.402  1.00  0.00     0.049 A 
ATOM     40  H   UNL     1      -7.132   2.142  12.650  1.00  0.00     0.167 HD
ATOM     41  C   UNL     1     -11.143   2.827  10.924  1.00  0.00     0.034 A 
ATOM     42  C   UNL     1      -5.004   2.618  14.400  1.00  0.00     0.034 A 
ATOM     43  C   UNL     1     -11.023   3.756  12.020  1.00  0.00     0.049 A 
ATOM     44  C   UNL     1      -6.104   3.584  14.764  1.00  0.00     0.074 A 
ATOM     45  C   UNL     1     -11.954   4.668  12.486  1.00  0.00     0.029 A 
ATOM     46  N   UNL     1      -9.897   3.894  12.824  1.00  0.00    -0.354 N 
ATOM     47  N   UNL     1      -7.290   3.732  14.218  1.00  0.00    -0.248 NA
ATOM     48  C   UNL     1      -5.841   4.483  15.892  1.00  0.00     0.031 C 
ATOM     49  C   UNL     1     -11.367   5.402  13.523  1.00  0.00     0.029 A 
ATOM     50  C   UNL     1     -10.100   4.893  13.763  1.00  0.00     0.049 A 
ATOM     51  H   UNL     1      -9.075   3.360  12.738  1.00  0.00     0.167 HD
ATOM     52  C   UNL     1      -7.925   4.726  14.957  1.00  0.00     0.074 A 
ATOM     53  C   UNL     1      -7.001   5.110  16.006  1.00  0.00     0.031 C 
ATOM     54  C   UNL     1      -9.155   5.277  14.787  1.00  0.00     0.034 A 
BRANCH  41  55
ATOM     55  C   UNL     1     -12.395   2.836  10.077  1.00  0.00     0.023 A 
ATOM     56  C   UNL     1     -13.222   1.702   9.967  1.00  0.00     0.031 A 
ATOM     57  C   UNL     1     -12.747   3.975   9.333  1.00  0.00     0.131 A 
ATOM     58  C   UNL     1     -14.302   1.702   9.072  1.00  0.00     0.055 A 
ATOM     59  C   UNL     1     -13.878   4.000   8.513  1.00  0.00     0.041 A 
ATOM     60  F   UNL     1     -11.987   5.081   9.374  1.00  0.00    -0.206 F 
ATOM     61  C   UNL     1     -14.653   2.853   8.365  1.00  0.00     0.022 A 
BRANCH  58  62
ATOM     62  S   UNL     1     -15.140   0.131   8.725  1.00  0.00     0.124 S 
ATOM     63  O   UNL     1     -14.040  -0.683   8.212  1.00  0.00    -0.237 OA
ATOM     64  O   UNL     1     -15.658  -0.247  10.035  1.00  0.00    -0.237 OA
ATOM     65  O   UNL     1     -16.152   0.494   7.734  1.00  0.00    -0.744 OA
ENDBRANCH  58  62
ENDBRANCH  41  55
BRANCH  42  66
ATOM     66  C   UNL     1      -3.708   2.616  15.140  1.00  0.00     0.023 A 
ATOM     67  C   UNL     1      -3.655   2.321  16.513  1.00  0.00     0.031 A 
ATOM     68  C   UNL     1      -2.504   2.954  14.495  1.00  0.00     0.131 A 
ATOM     69  C   UNL     1      -2.438   2.420  17.206  1.00  0.00     0.055 A 
ATOM     70  C   UNL     1      -1.287   2.995  15.177  1.00  0.00     0.041 A 
ATOM     71  F   UNL     1      -2.494   3.238  13.183  1.00  0.00    -0.206 F 
ATOM     72  C   UNL     1      -1.252   2.742  16.545  1.00  0.00     0.022 A 
BRANCH  69  73
ATOM     73  S   UNL     1      -2.445   2.213  19.009  1.00  0.00     0.124 S 
ATOM     74  O   UNL     1      -3.393   3.240  19.424  1.00  0.00    -0.237 OA
ATOM     75  O   UNL     1      -2.892   0.831  19.153  1.00  0.00    -0.237 OA
ATOM     76  O   UNL     1      -1.054   2.458  19.384  1.00  0.00    -0.744 OA
ENDBRANCH  69  73
ENDBRANCH  42  66
BRANCH  54  77
ATOM     77  C   UNL     1      -9.567   6.332  15.787  1.00  0.00     0.023 A 
ATOM     78  C   UNL     1      -8.867   7.545  15.906  1.00  0.00     0.031 A 
ATOM     79  C   UNL     1     -10.638   6.098  16.667  1.00  0.00     0.131 A 
ATOM     80  C   UNL     1      -9.181   8.434  16.944  1.00  0.00     0.055 A 
ATOM     81  C   UNL     1     -11.001   7.026  17.645  1.00  0.00     0.041 A 
ATOM     82  F   UNL     1     -11.344   4.958  16.601  1.00  0.00    -0.206 F 
ATOM     83  C   UNL     1     -10.256   8.191  17.802  1.00  0.00     0.022 A 
BRANCH  80  84
ATOM     84  S   UNL     1      -8.069   9.833  17.250  1.00  0.00     0.124 S 
ATOM     85  O   UNL     1      -6.781   9.165  17.412  1.00  0.00    -0.237 OA
ATOM     86  O   UNL     1      -8.226  10.627  16.037  1.00  0.00    -0.237 OA
ATOM     87  O   UNL     1      -8.610  10.440  18.465  1.00  0.00    -0.744 OA
ENDBRANCH  80  84
ENDBRANCH  54  77
ENDBRANCH  28  29
ENDBRANCH  20  23
ENDBRANCH  18  19
ENDBRANCH   1  18
TORSDOF 18
