REMARK SMILES Cc1c(CC(=O)NCCCCNC(=O)c2ccc(-c3c4nc(c(-c5cc(S(=O)(=O)[O-])ccc5F)c5ccc([nH]5)c(-c5cc(S(=O)(=O)[O-])ccc5F)c5nc(c(-c6cc(S(=O)(=O)[O-])ccc6F)c6ccc3[nH]6)C=C5)C=C4)cc2)c2cc(O)ccc2n1C(=O)c1ccc(Cl)cc1
REMARK SMILES IDX 9 1 8 2 7 3 5 4 6 5 4 7 3 8 1 9 2 10 85 11 78 12 84 13 79 14
REMARK SMILES IDX 83 15 80 16 82 17 86 18 87 19 88 20 89 21 94 22 90 23 93 24
REMARK SMILES IDX 91 25 92 26 81 27 10 29 11 30 12 31 13 32 14 34 15 35 16 36
REMARK SMILES IDX 77 37 17 38 76 39 18 40 19 41 20 42 70 43 21 44 75 45 69 46
REMARK SMILES IDX 71 47 22 48 74 49 68 50 67 51 23 53 55 54 35 55 54 56 36 57
REMARK SMILES IDX 39 58 53 59 72 60 37 61 38 62 52 64 73 65 40 66 24 67 25 68
REMARK SMILES IDX 33 69 26 70 32 71 34 72 31 73 27 74 28 75 29 76 30 77 56 78
REMARK SMILES IDX 57 79 65 80 58 81 64 82 66 83 63 84 59 85 60 86 61 87 62 88
REMARK SMILES IDX 41 89 42 90 50 91 43 92 49 93 51 94 48 95 44 96 45 97 46 98
REMARK SMILES IDX 47 99
REMARK H PARENT 7 6 81 28 12 33 71 52 39 63
REMARK Flexibility Score: inf
ROOT
ATOM      1  C   UNL     1      -1.955  -2.091   1.848  1.00  0.00     0.023 C 
ENDROOT
BRANCH   1   2
ATOM      2  C   UNL     1      -0.549  -1.866   2.403  1.00  0.00     0.116 C 
BRANCH   2   3
ATOM      3  N   UNL     1       0.185  -3.106   2.558  1.00  0.00    -0.356 N 
ATOM      4  C   UNL     1       1.306  -3.519   1.894  1.00  0.00     0.224 C 
ATOM      5  O   UNL     1       1.809  -4.600   2.208  1.00  0.00    -0.275 OA
ATOM      6  H   UNL     1      -0.170  -3.732   3.229  1.00  0.00     0.163 HD
BRANCH   4   7
ATOM      7  C   UNL     1       1.949  -2.622   0.846  1.00  0.00     0.138 C 
BRANCH   7   8
ATOM      8  C   UNL     1       1.086  -2.396  -0.363  1.00  0.00    -0.009 A 
ATOM      9  C   UNL     1       1.154   0.193  -0.480  1.00  0.00     0.065 C 
ATOM     10  C   UNL     1       0.718  -1.173  -0.910  1.00  0.00     0.028 A 
ATOM     11  N   UNL     1      -0.217  -1.402  -1.929  1.00  0.00    -0.280 N 
ATOM     12  C   UNL     1       0.536  -3.409  -1.197  1.00  0.00     0.008 A 
ATOM     13  C   UNL     1      -0.193  -2.779  -2.213  1.00  0.00     0.057 A 
ATOM     14  C   UNL     1       0.623  -4.819  -1.178  1.00  0.00     0.056 A 
ATOM     15  C   UNL     1      -0.763  -3.548  -3.250  1.00  0.00     0.031 A 
ATOM     16  C   UNL     1      -0.006  -5.564  -2.170  1.00  0.00     0.116 A 
ATOM     17  C   UNL     1      -0.681  -4.943  -3.204  1.00  0.00     0.048 A 
BRANCH  11  18
ATOM     18  C   UNL     1      -1.033  -0.410  -2.547  1.00  0.00     0.262 C 
ATOM     19  O   UNL     1      -0.933   0.759  -2.178  1.00  0.00    -0.268 OA
BRANCH  18  20
ATOM     20  C   UNL     1      -1.992  -0.658  -3.635  1.00  0.00     0.040 A 
ATOM     21  C   UNL     1      -3.164  -1.390  -3.416  1.00  0.00     0.015 A 
ATOM     22  C   UNL     1      -1.677  -0.170  -4.908  1.00  0.00     0.015 A 
ATOM     23  C   UNL     1      -3.980  -1.710  -4.505  1.00  0.00     0.021 A 
ATOM     24  C   UNL     1      -2.499  -0.487  -5.988  1.00  0.00     0.021 A 
ATOM     25  C   UNL     1      -3.636  -1.272  -5.786  1.00  0.00     0.041 A 
ATOM     26  Cl  UNL     1      -4.601  -1.725  -7.135  1.00  0.00    -0.084 Cl
ENDBRANCH  18  20
ENDBRANCH  11  18
BRANCH  16  27
ATOM     27  O   UNL     1       0.083  -6.922  -2.099  1.00  0.00    -0.508 OA
ATOM     28  H   UNL     1       0.546  -7.325  -1.390  1.00  0.00     0.293 HD
ENDBRANCH  16  27
ENDBRANCH   7   8
ENDBRANCH   4   7
ENDBRANCH   2   3
ENDBRANCH   1   2
BRANCH   1  29
ATOM     29  C   UNL     1      -2.929  -2.768   2.827  1.00  0.00     0.023 C 
BRANCH  29  30
ATOM     30  C   UNL     1      -2.993  -2.116   4.210  1.00  0.00     0.116 C 
BRANCH  30  31
ATOM     31  N   UNL     1      -3.295  -0.700   4.149  1.00  0.00    -0.352 N 
ATOM     32  C   UNL     1      -4.431   0.054   4.229  1.00  0.00     0.251 C 
ATOM     33  H   UNL     1      -2.489  -0.151   4.020  1.00  0.00     0.163 HD
ATOM     34  O   UNL     1      -4.253   1.276   4.212  1.00  0.00    -0.269 OA
BRANCH  32  35
ATOM     35  C   UNL     1      -5.822  -0.473   4.295  1.00  0.00     0.039 A 
ATOM     36  C   UNL     1      -6.185  -1.820   4.266  1.00  0.00     0.014 A 
ATOM     37  C   UNL     1      -6.846   0.494   4.333  1.00  0.00     0.014 A 
ATOM     38  C   UNL     1      -7.526  -2.190   4.216  1.00  0.00     0.010 A 
ATOM     39  C   UNL     1      -8.189   0.129   4.285  1.00  0.00     0.010 A 
ATOM     40  C   UNL     1      -8.526  -1.216   4.182  1.00  0.00    -0.014 A 
BRANCH  40  41
ATOM     41  C   UNL     1      -9.906  -1.674   4.047  1.00  0.00     0.031 A 
ATOM     42  C   UNL     1     -10.434  -2.521   5.158  1.00  0.00     0.074 A 
ATOM     43  C   UNL     1     -10.707  -1.305   3.030  1.00  0.00     0.049 A 
ATOM     44  N   UNL     1     -10.839  -3.751   5.123  1.00  0.00    -0.248 NA
ATOM     45  C   UNL     1     -10.425  -1.932   6.503  1.00  0.00     0.031 C 
ATOM     46  C   UNL     1     -10.493  -0.248   2.036  1.00  0.00     0.029 A 
ATOM     47  N   UNL     1     -11.957  -1.756   2.736  1.00  0.00    -0.354 N 
ATOM     48  C   UNL     1     -11.287  -4.053   6.414  1.00  0.00     0.074 A 
ATOM     49  C   UNL     1     -10.898  -2.937   7.240  1.00  0.00     0.031 C 
ATOM     50  C   UNL     1     -11.662   0.011   1.406  1.00  0.00     0.029 A 
ATOM     51  C   UNL     1     -12.647  -0.968   1.831  1.00  0.00     0.049 A 
ATOM     52  H   UNL     1     -12.338  -2.573   3.133  1.00  0.00     0.167 HD
ATOM     53  C   UNL     1     -12.075  -5.132   6.694  1.00  0.00     0.034 A 
ATOM     54  C   UNL     1     -13.959  -1.065   1.514  1.00  0.00     0.034 A 
ATOM     55  C   UNL     1     -12.077  -6.083   5.621  1.00  0.00     0.049 A 
ATOM     56  C   UNL     1     -14.436  -2.410   1.914  1.00  0.00     0.074 A 
ATOM     57  C   UNL     1     -11.140  -6.923   5.056  1.00  0.00     0.029 A 
ATOM     58  N   UNL     1     -13.136  -6.064   4.750  1.00  0.00    -0.354 N 
ATOM     59  N   UNL     1     -14.076  -3.524   1.338  1.00  0.00    -0.248 NA
ATOM     60  C   UNL     1     -15.023  -2.551   3.237  1.00  0.00     0.031 C 
ATOM     61  C   UNL     1     -11.483  -6.981   3.676  1.00  0.00     0.029 A 
ATOM     62  C   UNL     1     -12.623  -6.196   3.487  1.00  0.00     0.049 A 
ATOM     63  H   UNL     1     -14.087  -5.973   4.988  1.00  0.00     0.167 HD
ATOM     64  C   UNL     1     -13.993  -4.444   2.373  1.00  0.00     0.074 A 
ATOM     65  C   UNL     1     -14.693  -3.818   3.492  1.00  0.00     0.031 C 
ATOM     66  C   UNL     1     -13.137  -5.507   2.319  1.00  0.00     0.034 A 
BRANCH  53  67
ATOM     67  C   UNL     1     -13.065  -5.210   7.835  1.00  0.00     0.023 A 
ATOM     68  C   UNL     1     -13.465  -4.082   8.572  1.00  0.00     0.031 A 
ATOM     69  C   UNL     1     -13.808  -6.389   8.069  1.00  0.00     0.131 A 
ATOM     70  C   UNL     1     -14.524  -4.139   9.490  1.00  0.00     0.055 A 
ATOM     71  C   UNL     1     -14.909  -6.429   8.936  1.00  0.00     0.041 A 
ATOM     72  F   UNL     1     -13.526  -7.528   7.418  1.00  0.00    -0.206 F 
ATOM     73  C   UNL     1     -15.271  -5.299   9.655  1.00  0.00     0.022 A 
BRANCH  70  74
ATOM     74  S   UNL     1     -14.942  -2.681  10.486  1.00  0.00     0.124 S 
ATOM     75  O   UNL     1     -16.295  -2.380  10.015  1.00  0.00    -0.237 OA
ATOM     76  O   UNL     1     -14.855  -3.216  11.845  1.00  0.00    -0.237 OA
ATOM     77  O   UNL     1     -13.914  -1.719  10.134  1.00  0.00    -0.744 OA
ENDBRANCH  70  74
ENDBRANCH  53  67
BRANCH  54  78
ATOM     78  C   UNL     1     -14.888   0.074   1.346  1.00  0.00     0.023 A 
ATOM     79  C   UNL     1     -14.688   1.249   2.098  1.00  0.00     0.031 A 
ATOM     80  C   UNL     1     -16.122  -0.081   0.698  1.00  0.00     0.131 A 
ATOM     81  C   UNL     1     -15.711   2.197   2.220  1.00  0.00     0.055 A 
ATOM     82  C   UNL     1     -17.138   0.876   0.807  1.00  0.00     0.041 A 
ATOM     83  F   UNL     1     -16.387  -1.194  -0.003  1.00  0.00    -0.206 F 
ATOM     84  C   UNL     1     -16.939   2.016   1.583  1.00  0.00     0.022 A 
BRANCH  81  85
ATOM     85  S   UNL     1     -15.491   3.654   3.277  1.00  0.00     0.124 S 
ATOM     86  O   UNL     1     -15.943   4.737   2.406  1.00  0.00    -0.237 OA
ATOM     87  O   UNL     1     -16.369   3.342   4.399  1.00  0.00    -0.237 OA
ATOM     88  O   UNL     1     -14.061   3.654   3.568  1.00  0.00    -0.744 OA
ENDBRANCH  81  85
ENDBRANCH  54  78
BRANCH  66  89
ATOM     89  C   UNL     1     -12.439  -5.829   1.016  1.00  0.00     0.023 A 
ATOM     90  C   UNL     1     -12.459  -7.168   0.585  1.00  0.00     0.031 A 
ATOM     91  C   UNL     1     -11.558  -4.947   0.361  1.00  0.00     0.131 A 
ATOM     92  C   UNL     1     -11.583  -7.601  -0.417  1.00  0.00     0.055 A 
ATOM     93  C   UNL     1     -10.739  -5.368  -0.692  1.00  0.00     0.041 A 
ATOM     94  F   UNL     1     -11.390  -3.687   0.780  1.00  0.00    -0.206 F 
ATOM     95  C   UNL     1     -10.734  -6.705  -1.073  1.00  0.00     0.022 A 
BRANCH  92  96
ATOM     96  S   UNL     1     -11.397  -9.367  -0.773  1.00  0.00     0.124 S 
ATOM     97  O   UNL     1     -11.775  -9.441  -2.182  1.00  0.00    -0.237 OA
ATOM     98  O   UNL     1      -9.979  -9.589  -0.495  1.00  0.00    -0.237 OA
ATOM     99  O   UNL     1     -12.318 -10.016   0.155  1.00  0.00    -0.744 OA
ENDBRANCH  92  96
ENDBRANCH  66  89
ENDBRANCH  40  41
ENDBRANCH  32  35
ENDBRANCH  30  31
ENDBRANCH  29  30
ENDBRANCH   1  29
TORSDOF 18
