REMARK SMILES CC1(C)CCSC[C@@]1(Nc1ccccc1Br)C(=O)NCCCCNC(=O)c1ccc(-c2c3nc(c(-c4cc(S(=O)(=O)[O-])ccc4F)c4ccc([nH]4)c(-c4cc(S(=O)(=O)[O-])ccc4F)c4nc(c(-c5cc(S(=O)(=O)[O-])ccc5F)c5ccc2[nH]5)C=C4)C=C3)cc1
REMARK SMILES IDX 22 1 21 2 20 3 19 4 17 5 18 6 8 8 1 9 2 10 3 11 4 12 5 13
REMARK SMILES IDX 7 14 6 15 9 16 10 18 11 19 15 20 12 21 14 22 16 23 13 24
REMARK SMILES IDX 23 25 24 26 25 27 26 29 27 30 28 31 89 32 29 33 88 34 30 35
REMARK SMILES IDX 31 36 32 37 82 38 33 39 87 40 81 41 83 42 34 43 86 44 80 45
REMARK SMILES IDX 79 46 35 48 67 49 47 50 66 51 48 52 51 53 65 54 84 55 49 56
REMARK SMILES IDX 50 57 64 59 85 60 52 61 36 62 37 63 45 64 38 65 44 66 46 67
REMARK SMILES IDX 43 68 39 69 40 70 41 71 42 72 68 73 69 74 77 75 70 76 76 77
REMARK SMILES IDX 78 78 75 79 71 80 72 81 73 82 74 83 53 84 54 85 62 86 55 87
REMARK SMILES IDX 61 88 63 89 60 90 56 91 57 92 58 93 59 94
REMARK H PARENT 19 7 9 17 24 28 83 47 51 58
REMARK Flexibility Score: inf
ROOT
ATOM      1  C   UNL     1       2.780  -6.356  -3.358  1.00  0.00     0.023 C 
ENDROOT
BRANCH   1   2
ATOM      2  C   UNL     1       3.370  -4.968  -3.612  1.00  0.00     0.023 C 
BRANCH   2   3
ATOM      3  C   UNL     1       2.380  -3.810  -3.593  1.00  0.00     0.116 C 
BRANCH   3   4
ATOM      4  N   UNL     1       1.823  -3.503  -2.293  1.00  0.00    -0.354 N 
ATOM      5  C   UNL     1       1.161  -2.400  -1.828  1.00  0.00     0.247 C 
ATOM      6  O   UNL     1       0.503  -2.627  -0.804  1.00  0.00    -0.272 OA
ATOM      7  H   UNL     1       1.942  -4.215  -1.624  1.00  0.00     0.163 HD
BRANCH   5   8
ATOM      8  C   UNL     1       1.227  -0.940  -2.474  1.00  0.00     0.131 C 
ATOM      9  C   UNL     1       1.033   0.136  -0.042  1.00  0.00     0.014 C 
ATOM     10  C   UNL     1       0.484   0.141  -1.497  1.00  0.00    -0.002 C 
ATOM     11  C   UNL     1      -1.053  -0.086  -1.380  1.00  0.00     0.014 C 
ATOM     12  C   UNL     1       0.647   1.587  -2.062  1.00  0.00     0.020 C 
ATOM     13  C   UNL     1       2.071   2.118  -2.090  1.00  0.00     0.070 C 
ATOM     14  C   UNL     1       2.723  -0.542  -2.597  1.00  0.00     0.108 C 
ATOM     15  S   UNL     1       3.137   1.149  -3.170  1.00  0.00    -0.159 SA
BRANCH   8  16
ATOM     16  N   UNL     1       0.451  -0.903  -3.764  1.00  0.00    -0.369 N 
ATOM     17  H   UNL     1      -0.369  -0.359  -3.742  1.00  0.00     0.161 HD
BRANCH  16  18
ATOM     18  C   UNL     1       0.716  -1.518  -4.979  1.00  0.00     0.049 A 
ATOM     19  C   UNL     1       1.840  -1.212  -5.750  1.00  0.00     0.027 A 
ATOM     20  C   UNL     1      -0.142  -2.532  -5.468  1.00  0.00     0.041 A 
ATOM     21  C   UNL     1       2.136  -1.919  -6.923  1.00  0.00     0.002 A 
ATOM     22  C   UNL     1       0.154  -3.251  -6.632  1.00  0.00     0.018 A 
ATOM     23  Br  UNL     1      -1.706  -3.031  -4.500  1.00  0.00    -0.049 Br
ATOM     24  C   UNL     1       1.305  -2.950  -7.353  1.00  0.00     0.001 A 
ENDBRANCH  16  18
ENDBRANCH   8  16
ENDBRANCH   5   8
ENDBRANCH   3   4
ENDBRANCH   2   3
ENDBRANCH   1   2
BRANCH   1  25
ATOM     25  C   UNL     1       1.533  -6.739  -4.156  1.00  0.00     0.116 C 
BRANCH  25  26
ATOM     26  N   UNL     1       1.682  -6.627  -5.600  1.00  0.00    -0.352 N 
ATOM     27  C   UNL     1       1.340  -7.522  -6.590  1.00  0.00     0.251 C 
ATOM     28  H   UNL     1       2.086  -5.787  -5.916  1.00  0.00     0.163 HD
ATOM     29  O   UNL     1       1.565  -7.243  -7.765  1.00  0.00    -0.269 OA
BRANCH  27  30
ATOM     30  C   UNL     1       0.756  -8.837  -6.235  1.00  0.00     0.039 A 
ATOM     31  C   UNL     1       1.332  -9.993  -6.771  1.00  0.00     0.014 A 
ATOM     32  C   UNL     1      -0.311  -8.941  -5.339  1.00  0.00     0.014 A 
ATOM     33  C   UNL     1       0.918 -11.249  -6.317  1.00  0.00     0.010 A 
ATOM     34  C   UNL     1      -0.675 -10.191  -4.838  1.00  0.00     0.010 A 
ATOM     35  C   UNL     1      -0.043 -11.356  -5.298  1.00  0.00    -0.014 A 
BRANCH  35  36
ATOM     36  C   UNL     1      -0.344 -12.666  -4.659  1.00  0.00     0.031 A 
ATOM     37  C   UNL     1      -1.715 -13.274  -4.761  1.00  0.00     0.074 A 
ATOM     38  C   UNL     1       0.606 -13.274  -3.918  1.00  0.00     0.049 A 
ATOM     39  N   UNL     1      -2.182 -14.360  -4.198  1.00  0.00    -0.248 NA
ATOM     40  C   UNL     1      -2.696 -12.551  -5.582  1.00  0.00     0.031 C 
ATOM     41  C   UNL     1       1.962 -12.761  -3.699  1.00  0.00     0.029 A 
ATOM     42  N   UNL     1       0.579 -14.446  -3.204  1.00  0.00    -0.354 N 
ATOM     43  C   UNL     1      -3.513 -14.450  -4.591  1.00  0.00     0.074 A 
ATOM     44  C   UNL     1      -3.789 -13.277  -5.396  1.00  0.00     0.031 C 
ATOM     45  C   UNL     1       2.639 -13.623  -2.925  1.00  0.00     0.029 A 
ATOM     46  C   UNL     1       1.760 -14.727  -2.555  1.00  0.00     0.049 A 
ATOM     47  H   UNL     1      -0.212 -15.031  -3.159  1.00  0.00     0.167 HD
ATOM     48  C   UNL     1      -4.414 -15.427  -4.322  1.00  0.00     0.034 A 
ATOM     49  C   UNL     1       2.098 -15.751  -1.746  1.00  0.00     0.034 A 
ATOM     50  C   UNL     1      -4.128 -16.592  -3.519  1.00  0.00     0.049 A 
ATOM     51  C   UNL     1       1.081 -16.824  -1.460  1.00  0.00     0.074 A 
ATOM     52  C   UNL     1      -4.964 -17.651  -3.207  1.00  0.00     0.029 A 
ATOM     53  N   UNL     1      -2.913 -16.852  -2.897  1.00  0.00    -0.354 N 
ATOM     54  N   UNL     1      -0.167 -16.903  -1.857  1.00  0.00    -0.248 NA
ATOM     55  C   UNL     1       1.522 -17.950  -0.627  1.00  0.00     0.031 C 
ATOM     56  C   UNL     1      -4.273 -18.523  -2.356  1.00  0.00     0.029 A 
ATOM     57  C   UNL     1      -2.984 -18.044  -2.191  1.00  0.00     0.049 A 
ATOM     58  H   UNL     1      -2.118 -16.274  -2.950  1.00  0.00     0.167 HD
ATOM     59  C   UNL     1      -0.654 -18.099  -1.339  1.00  0.00     0.074 A 
ATOM     60  C   UNL     1       0.439 -18.714  -0.614  1.00  0.00     0.031 C 
ATOM     61  C   UNL     1      -1.893 -18.641  -1.457  1.00  0.00     0.034 A 
BRANCH  48  62
ATOM     62  C   UNL     1      -5.803 -15.260  -4.890  1.00  0.00     0.023 A 
ATOM     63  C   UNL     1      -6.034 -15.264  -6.277  1.00  0.00     0.031 A 
ATOM     64  C   UNL     1      -6.907 -15.076  -4.039  1.00  0.00     0.131 A 
ATOM     65  C   UNL     1      -7.323 -15.018  -6.773  1.00  0.00     0.055 A 
ATOM     66  C   UNL     1      -8.200 -14.908  -4.537  1.00  0.00     0.041 A 
ATOM     67  F   UNL     1      -6.745 -15.045  -2.706  1.00  0.00    -0.206 F 
ATOM     68  C   UNL     1      -8.412 -14.864  -5.912  1.00  0.00     0.022 A 
BRANCH  65  69
ATOM     69  S   UNL     1      -7.533 -14.779  -8.558  1.00  0.00     0.124 S 
ATOM     70  O   UNL     1      -6.703 -13.600  -8.796  1.00  0.00    -0.237 OA
ATOM     71  O   UNL     1      -7.032 -16.034  -9.107  1.00  0.00    -0.237 OA
ATOM     72  O   UNL     1      -8.970 -14.561  -8.708  1.00  0.00    -0.744 OA
ENDBRANCH  65  69
ENDBRANCH  48  62
BRANCH  49  73
ATOM     73  C   UNL     1       3.457 -15.806  -1.137  1.00  0.00     0.023 A 
ATOM     74  C   UNL     1       4.382 -16.791  -1.517  1.00  0.00     0.031 A 
ATOM     75  C   UNL     1       3.844 -14.879  -0.154  1.00  0.00     0.131 A 
ATOM     76  C   UNL     1       5.638 -16.847  -0.893  1.00  0.00     0.055 A 
ATOM     77  C   UNL     1       5.109 -14.912   0.434  1.00  0.00     0.041 A 
ATOM     78  F   UNL     1       2.998 -13.911   0.235  1.00  0.00    -0.206 F 
ATOM     79  C   UNL     1       6.011 -15.908   0.071  1.00  0.00     0.022 A 
BRANCH  76  80
ATOM     80  S   UNL     1       6.764 -18.201  -1.325  1.00  0.00     0.124 S 
ATOM     81  O   UNL     1       5.989 -19.371  -0.930  1.00  0.00    -0.237 OA
ATOM     82  O   UNL     1       6.942 -18.002  -2.760  1.00  0.00    -0.237 OA
ATOM     83  O   UNL     1       7.948 -17.931  -0.511  1.00  0.00    -0.744 OA
ENDBRANCH  76  80
ENDBRANCH  49  73
BRANCH  61  84
ATOM     84  C   UNL     1      -2.116 -19.986  -0.813  1.00  0.00     0.023 A 
ATOM     85  C   UNL     1      -2.126 -20.146   0.583  1.00  0.00     0.031 A 
ATOM     86  C   UNL     1      -2.317 -21.125  -1.613  1.00  0.00     0.131 A 
ATOM     87  C   UNL     1      -2.285 -21.425   1.138  1.00  0.00     0.055 A 
ATOM     88  C   UNL     1      -2.527 -22.387  -1.054  1.00  0.00     0.041 A 
ATOM     89  F   UNL     1      -2.316 -21.029  -2.952  1.00  0.00    -0.206 F 
ATOM     90  C   UNL     1      -2.500 -22.544   0.329  1.00  0.00     0.022 A 
BRANCH  87  91
ATOM     91  S   UNL     1      -2.128 -21.622   2.934  1.00  0.00     0.124 S 
ATOM     92  O   UNL     1      -0.776 -21.127   3.177  1.00  0.00    -0.237 OA
ATOM     93  O   UNL     1      -3.213 -20.786   3.437  1.00  0.00    -0.237 OA
ATOM     94  O   UNL     1      -2.307 -23.058   3.139  1.00  0.00    -0.744 OA
ENDBRANCH  87  91
ENDBRANCH  61  84
ENDBRANCH  35  36
ENDBRANCH  27  30
ENDBRANCH  25  26
ENDBRANCH   1  25
TORSDOF 16
