REMARK SMILES CCCc1sc(C(=O)NCCC(=O)NCCCCNC(=O)c2ccc(-c3c4nc(c(-c5cc(S(=O)(=O)[O-])ccc5F)c5ccc([nH]5)c(-c5cc(S(=O)(=O)[O-])ccc5F)c5nc(c(-c6cc(S(=O)(=O)[O-])ccc6F)c6ccc3[nH]6)C=C5)C=C4)cc2)cc1CC
REMARK SMILES IDX 15 1 14 2 12 3 13 4 11 6 10 7 9 8 7 9 8 10 6 12 4 13 5 14
REMARK SMILES IDX 86 15 85 16 3 17 2 18 1 19 87 20 88 21 16 22 17 23 18 24
REMARK SMILES IDX 19 25 20 26 21 28 22 29 23 30 84 31 24 32 83 33 25 34 26 35
REMARK SMILES IDX 27 36 77 37 28 38 82 39 76 40 78 41 29 42 81 43 75 44 74 45
REMARK SMILES IDX 30 47 62 48 42 49 61 50 43 51 46 52 60 53 79 54 44 55 45 56
REMARK SMILES IDX 59 58 80 59 47 60 31 61 32 62 40 63 33 64 39 65 41 66 38 67
REMARK SMILES IDX 34 68 35 69 36 70 37 71 63 72 64 73 72 74 65 75 71 76 73 77
REMARK SMILES IDX 70 78 66 79 67 80 68 81 69 82 48 83 49 84 57 85 50 86 56 87
REMARK SMILES IDX 58 88 55 89 51 90 52 91 53 92 54 93
REMARK H PARENT 14 5 9 11 19 27 78 46 46 57
REMARK Flexibility Score: inf
ROOT
ATOM      1  C   UNL     1      -0.122  -4.635   6.837  1.00  0.00     0.116 C 
ENDROOT
BRANCH   1   2
ATOM      2  N   UNL     1       0.098  -6.059   7.005  1.00  0.00    -0.356 N 
ATOM      3  C   UNL     1       0.385  -7.004   6.068  1.00  0.00     0.221 C 
ATOM      4  O   UNL     1       0.474  -8.182   6.420  1.00  0.00    -0.275 OA
ATOM      5  H   UNL     1       0.029  -6.390   7.930  1.00  0.00     0.163 HD
BRANCH   3   6
ATOM      6  C   UNL     1       0.570  -6.621   4.613  1.00  0.00     0.121 C 
BRANCH   6   7
ATOM      7  C   UNL     1      -0.749  -6.687   3.852  1.00  0.00     0.126 C 
BRANCH   7   8
ATOM      8  N   UNL     1      -1.467  -5.427   3.829  1.00  0.00    -0.351 N 
ATOM      9  C   UNL     1      -1.295  -4.224   3.190  1.00  0.00     0.261 C 
ATOM     10  O   UNL     1      -1.991  -3.314   3.640  1.00  0.00    -0.268 OA
ATOM     11  H   UNL     1      -2.264  -5.436   4.407  1.00  0.00     0.163 HD
BRANCH   9  12
ATOM     12  C   UNL     1      -0.404  -4.062   2.049  1.00  0.00     0.092 A 
ATOM     13  C   UNL     1       0.639  -3.012   0.027  1.00  0.00     0.009 A 
ATOM     14  S   UNL     1      -0.304  -2.494   1.353  1.00  0.00    -0.135 S 
ATOM     15  C   UNL     1       0.939  -4.365   0.131  1.00  0.00    -0.034 A 
ATOM     16  C   UNL     1       0.372  -4.937   1.323  1.00  0.00     0.029 A 
BRANCH  13  17
ATOM     17  C   UNL     1       1.027  -2.087  -1.107  1.00  0.00     0.047 C 
BRANCH  17  18
ATOM     18  C   UNL     1       0.487  -0.654  -1.108  1.00  0.00     0.002 C 
ATOM     19  C   UNL     1       1.236   0.290  -0.176  1.00  0.00     0.004 C 
ENDBRANCH  17  18
ENDBRANCH  13  17
BRANCH  15  20
ATOM     20  C   UNL     1       1.687  -5.185  -0.887  1.00  0.00     0.033 C 
ATOM     21  C   UNL     1       2.922  -5.869  -0.323  1.00  0.00     0.009 C 
ENDBRANCH  15  20
ENDBRANCH   9  12
ENDBRANCH   7   8
ENDBRANCH   6   7
ENDBRANCH   3   6
ENDBRANCH   1   2
BRANCH   1  22
ATOM     22  C   UNL     1      -1.607  -4.284   6.910  1.00  0.00     0.023 C 
BRANCH  22  23
ATOM     23  C   UNL     1      -2.222  -4.297   8.303  1.00  0.00     0.023 C 
BRANCH  23  24
ATOM     24  C   UNL     1      -1.573  -3.361   9.307  1.00  0.00     0.116 C 
BRANCH  24  25
ATOM     25  N   UNL     1      -1.516  -1.976   8.864  1.00  0.00    -0.352 N 
ATOM     26  C   UNL     1      -1.780  -0.833   9.584  1.00  0.00     0.251 C 
ATOM     27  H   UNL     1      -1.253  -1.839   7.926  1.00  0.00     0.163 HD
ATOM     28  O   UNL     1      -1.770   0.261   9.030  1.00  0.00    -0.269 OA
BRANCH  26  29
ATOM     29  C   UNL     1      -2.126  -0.948  11.017  1.00  0.00     0.039 A 
ATOM     30  C   UNL     1      -3.241  -0.263  11.501  1.00  0.00     0.014 A 
ATOM     31  C   UNL     1      -1.389  -1.784  11.860  1.00  0.00     0.014 A 
ATOM     32  C   UNL     1      -3.663  -0.476  12.814  1.00  0.00     0.010 A 
ATOM     33  C   UNL     1      -1.870  -2.073  13.131  1.00  0.00     0.010 A 
ATOM     34  C   UNL     1      -3.005  -1.414  13.627  1.00  0.00    -0.014 A 
BRANCH  34  35
ATOM     35  C   UNL     1      -3.463  -1.698  15.011  1.00  0.00     0.031 A 
ATOM     36  C   UNL     1      -2.542  -1.424  16.169  1.00  0.00     0.074 A 
ATOM     37  C   UNL     1      -4.668  -2.266  15.217  1.00  0.00     0.049 A 
ATOM     38  N   UNL     1      -2.708  -1.679  17.441  1.00  0.00    -0.248 NA
ATOM     39  C   UNL     1      -1.238  -0.824  15.843  1.00  0.00     0.031 C 
ATOM     40  C   UNL     1      -5.622  -2.638  14.169  1.00  0.00     0.029 A 
ATOM     41  N   UNL     1      -5.296  -2.637  16.379  1.00  0.00    -0.354 N 
ATOM     42  C   UNL     1      -1.522  -1.297  18.060  1.00  0.00     0.074 A 
ATOM     43  C   UNL     1      -0.622  -0.865  17.013  1.00  0.00     0.031 C 
ATOM     44  C   UNL     1      -6.724  -3.153  14.738  1.00  0.00     0.029 A 
ATOM     45  C   UNL     1      -6.543  -3.186  16.185  1.00  0.00     0.049 A 
ATOM     46  H   UNL     1      -4.892  -2.522  17.270  1.00  0.00     0.167 HD
ATOM     47  C   UNL     1      -1.223  -1.277  19.383  1.00  0.00     0.034 A 
ATOM     48  C   UNL     1      -7.436  -3.662  17.075  1.00  0.00     0.034 A 
ATOM     49  C   UNL     1      -2.148  -1.678  20.413  1.00  0.00     0.049 A 
ATOM     50  C   UNL     1      -7.095  -3.604  18.543  1.00  0.00     0.074 A 
ATOM     51  C   UNL     1      -1.983  -1.638  21.786  1.00  0.00     0.029 A 
ATOM     52  N   UNL     1      -3.418  -2.194  20.181  1.00  0.00    -0.354 N 
ATOM     53  N   UNL     1      -5.992  -3.184  19.119  1.00  0.00    -0.248 NA
ATOM     54  C   UNL     1      -8.126  -4.068  19.479  1.00  0.00     0.031 C 
ATOM     55  C   UNL     1      -3.129  -2.179  22.381  1.00  0.00     0.029 A 
ATOM     56  C   UNL     1      -4.038  -2.494  21.384  1.00  0.00     0.049 A 
ATOM     57  H   UNL     1      -3.819  -2.326  19.291  1.00  0.00     0.167 HD
ATOM     58  C   UNL     1      -6.209  -3.308  20.488  1.00  0.00     0.074 A 
ATOM     59  C   UNL     1      -7.553  -3.825  20.649  1.00  0.00     0.031 C 
ATOM     60  C   UNL     1      -5.376  -3.018  21.521  1.00  0.00     0.034 A 
BRANCH  47  61
ATOM     61  C   UNL     1       0.165  -0.822  19.771  1.00  0.00     0.023 A 
ATOM     62  C   UNL     1       0.627   0.473  19.474  1.00  0.00     0.031 A 
ATOM     63  C   UNL     1       1.056  -1.708  20.400  1.00  0.00     0.131 A 
ATOM     64  C   UNL     1       1.966   0.814  19.718  1.00  0.00     0.055 A 
ATOM     65  C   UNL     1       2.362  -1.332  20.723  1.00  0.00     0.041 A 
ATOM     66  F   UNL     1       0.682  -2.963  20.692  1.00  0.00    -0.206 F 
ATOM     67  C   UNL     1       2.830  -0.071  20.364  1.00  0.00     0.022 A 
BRANCH  64  68
ATOM     68  S   UNL     1       2.601   2.367  19.030  1.00  0.00     0.124 S 
ATOM     69  O   UNL     1       2.375   2.169  17.600  1.00  0.00    -0.237 OA
ATOM     70  O   UNL     1       1.760   3.367  19.677  1.00  0.00    -0.237 OA
ATOM     71  O   UNL     1       4.005   2.374  19.436  1.00  0.00    -0.744 OA
ENDBRANCH  64  68
ENDBRANCH  47  61
BRANCH  48  72
ATOM     72  C   UNL     1      -8.737  -4.224  16.615  1.00  0.00     0.023 A 
ATOM     73  C   UNL     1      -9.950  -3.590  16.927  1.00  0.00     0.031 A 
ATOM     74  C   UNL     1      -8.790  -5.425  15.884  1.00  0.00     0.131 A 
ATOM     75  C   UNL     1     -11.167  -4.180  16.550  1.00  0.00     0.055 A 
ATOM     76  C   UNL     1     -10.001  -5.983  15.470  1.00  0.00     0.041 A 
ATOM     77  F   UNL     1      -7.659  -6.067  15.551  1.00  0.00    -0.206 F 
ATOM     78  C   UNL     1     -11.200  -5.366  15.815  1.00  0.00     0.022 A 
BRANCH  75  79
ATOM     79  S   UNL     1     -12.713  -3.410  17.104  1.00  0.00     0.124 S 
ATOM     80  O   UNL     1     -12.548  -3.419  18.553  1.00  0.00    -0.237 OA
ATOM     81  O   UNL     1     -12.649  -2.104  16.458  1.00  0.00    -0.237 OA
ATOM     82  O   UNL     1     -13.744  -4.308  16.587  1.00  0.00    -0.744 OA
ENDBRANCH  75  79
ENDBRANCH  48  72
BRANCH  60  83
ATOM     83  C   UNL     1      -5.923  -3.215  22.912  1.00  0.00     0.023 A 
ATOM     84  C   UNL     1      -6.216  -4.493  23.417  1.00  0.00     0.031 A 
ATOM     85  C   UNL     1      -6.167  -2.103  23.738  1.00  0.00     0.131 A 
ATOM     86  C   UNL     1      -6.791  -4.626  24.689  1.00  0.00     0.055 A 
ATOM     87  C   UNL     1      -6.683  -2.245  25.026  1.00  0.00     0.041 A 
ATOM     88  F   UNL     1      -5.904  -0.860  23.305  1.00  0.00    -0.206 F 
ATOM     89  C   UNL     1      -7.011  -3.511  25.503  1.00  0.00     0.022 A 
BRANCH  86  90
ATOM     90  S   UNL     1      -7.333  -6.269  25.232  1.00  0.00     0.124 S 
ATOM     91  O   UNL     1      -8.280  -6.638  24.184  1.00  0.00    -0.237 OA
ATOM     92  O   UNL     1      -6.082  -7.019  25.253  1.00  0.00    -0.237 OA
ATOM     93  O   UNL     1      -7.927  -6.018  26.544  1.00  0.00    -0.744 OA
ENDBRANCH  86  90
ENDBRANCH  60  83
ENDBRANCH  34  35
ENDBRANCH  26  29
ENDBRANCH  24  25
ENDBRANCH  23  24
ENDBRANCH  22  23
ENDBRANCH   1  22
TORSDOF 20
