REMARK SMILES O=C(NCCCCNC(=O)c1cc2c(c(S(=O)(=O)Nc3cc(C(F)(F)F)ccc3-n3cccn3)c1)CCC2)c1ccc(-c2c3nc(c(-c4cc(S(=O)(=O)[O-])ccc4F)c4ccc([nH]4)c(-c4cc(S(=O)(=O)[O-])ccc4F)c4nc(c(-c5cc(S(=O)(=O)[O-])ccc5F)c5ccc2[nH]5)C=C4)C=C3)cc1
REMARK SMILES IDX 6 1 5 2 4 3 3 4 1 5 2 6 39 8 40 9 101 10 41 11 100 12 42 13
REMARK SMILES IDX 43 14 44 15 94 16 45 17 99 18 93 19 95 20 46 21 98 22 92 23
REMARK SMILES IDX 91 24 47 26 79 27 59 28 78 29 60 30 63 31 77 32 96 33 61 34
REMARK SMILES IDX 62 35 76 37 97 38 64 39 48 40 49 41 57 42 50 43 56 44 58 45
REMARK SMILES IDX 55 46 51 47 52 48 53 49 54 50 80 51 81 52 89 53 82 54 88 55
REMARK SMILES IDX 90 56 87 57 83 58 84 59 85 60 86 61 65 62 66 63 74 64 67 65
REMARK SMILES IDX 73 66 75 67 72 68 68 69 69 70 70 71 71 72 7 73 8 74 9 75
REMARK SMILES IDX 10 77 11 78 12 79 35 80 13 81 15 82 14 83 38 84 36 85 37 86
REMARK SMILES IDX 16 87 17 88 18 89 19 90 20 92 21 93 29 94 22 95 28 96 27 97
REMARK SMILES IDX 30 98 31 99 34 100 32 101 33 102 23 103 24 104 25 105 26 106
REMARK H PARENT 3 7 95 25 63 36 8 76 19 91
REMARK Flexibility Score: inf
ROOT
ATOM      1  C   UNL     1       4.604  -2.646  -2.184  1.00  0.00     0.023 C 
ENDROOT
BRANCH   1   2
ATOM      2  C   UNL     1       5.058  -1.858  -0.958  1.00  0.00     0.023 C 
BRANCH   2   3
ATOM      3  C   UNL     1       4.793  -0.351  -0.988  1.00  0.00     0.116 C 
BRANCH   3   4
ATOM      4  N   UNL     1       3.415   0.047  -1.194  1.00  0.00    -0.352 N 
ATOM      5  O   UNL     1       1.358   0.781  -0.858  1.00  0.00    -0.269 OA
ATOM      6  C   UNL     1       2.326   0.190  -0.373  1.00  0.00     0.251 C 
ATOM      7  H   UNL     1       3.216   0.264  -2.133  1.00  0.00     0.163 HD
BRANCH   6   8
ATOM      8  C   UNL     1       2.216  -0.368   1.004  1.00  0.00     0.039 A 
ATOM      9  C   UNL     1       3.272  -0.889   1.750  1.00  0.00     0.014 A 
ATOM     10  C   UNL     1       0.922  -0.411   1.557  1.00  0.00     0.014 A 
ATOM     11  C   UNL     1       3.035  -1.553   2.948  1.00  0.00     0.010 A 
ATOM     12  C   UNL     1       0.683  -1.039   2.776  1.00  0.00     0.010 A 
ATOM     13  C   UNL     1       1.738  -1.654   3.448  1.00  0.00    -0.014 A 
BRANCH  13  14
ATOM     14  C   UNL     1       1.555  -2.324   4.734  1.00  0.00     0.031 A 
ATOM     15  C   UNL     1       2.180  -1.656   5.913  1.00  0.00     0.074 A 
ATOM     16  C   UNL     1       0.751  -3.392   4.901  1.00  0.00     0.049 A 
ATOM     17  N   UNL     1       3.008  -2.144   6.780  1.00  0.00    -0.248 NA
ATOM     18  C   UNL     1       1.893  -0.226   6.108  1.00  0.00     0.031 C 
ATOM     19  C   UNL     1      -0.152  -3.989   3.915  1.00  0.00     0.029 A 
ATOM     20  N   UNL     1       0.479  -4.091   6.041  1.00  0.00    -0.354 N 
ATOM     21  C   UNL     1       3.200  -1.151   7.739  1.00  0.00     0.074 A 
ATOM     22  C   UNL     1       2.600   0.043   7.205  1.00  0.00     0.031 C 
ATOM     23  C   UNL     1      -1.034  -4.788   4.553  1.00  0.00     0.029 A 
ATOM     24  C   UNL     1      -0.678  -4.855   5.962  1.00  0.00     0.049 A 
ATOM     25  H   UNL     1       1.049  -4.058   6.843  1.00  0.00     0.167 HD
ATOM     26  C   UNL     1       3.682  -1.423   8.985  1.00  0.00     0.034 A 
ATOM     27  C   UNL     1      -1.358  -5.424   6.990  1.00  0.00     0.034 A 
ATOM     28  C   UNL     1       4.389  -2.679   9.019  1.00  0.00     0.049 A 
ATOM     29  C   UNL     1      -0.420  -5.562   8.128  1.00  0.00     0.074 A 
ATOM     30  C   UNL     1       5.488  -3.193   8.356  1.00  0.00     0.029 A 
ATOM     31  N   UNL     1       3.789  -3.764   9.614  1.00  0.00    -0.354 N 
ATOM     32  N   UNL     1       0.623  -6.346   8.114  1.00  0.00    -0.248 NA
ATOM     33  C   UNL     1      -0.385  -4.510   9.133  1.00  0.00     0.031 C 
ATOM     34  C   UNL     1       5.186  -4.572   8.158  1.00  0.00     0.029 A 
ATOM     35  C   UNL     1       3.946  -4.819   8.750  1.00  0.00     0.049 A 
ATOM     36  H   UNL     1       3.336  -3.781  10.488  1.00  0.00     0.167 HD
ATOM     37  C   UNL     1       1.609  -5.647   8.791  1.00  0.00     0.074 A 
ATOM     38  C   UNL     1       0.899  -4.583   9.495  1.00  0.00     0.031 C 
ATOM     39  C   UNL     1       2.932  -5.822   8.499  1.00  0.00     0.034 A 
BRANCH  26  40
ATOM     40  C   UNL     1       3.260  -0.703  10.249  1.00  0.00     0.023 A 
ATOM     41  C   UNL     1       3.867  -1.093  11.461  1.00  0.00     0.031 A 
ATOM     42  C   UNL     1       2.115   0.116  10.376  1.00  0.00     0.131 A 
ATOM     43  C   UNL     1       3.292  -0.761  12.701  1.00  0.00     0.055 A 
ATOM     44  C   UNL     1       1.591   0.507  11.612  1.00  0.00     0.041 A 
ATOM     45  F   UNL     1       1.385   0.505   9.324  1.00  0.00    -0.206 F 
ATOM     46  C   UNL     1       2.158   0.040  12.785  1.00  0.00     0.022 A 
BRANCH  43  47
ATOM     47  S   UNL     1       3.932  -1.568  14.193  1.00  0.00     0.124 S 
ATOM     48  O   UNL     1       3.958  -2.969  13.786  1.00  0.00    -0.237 OA
ATOM     49  O   UNL     1       5.229  -0.919  14.351  1.00  0.00    -0.237 OA
ATOM     50  O   UNL     1       2.939  -1.234  15.211  1.00  0.00    -0.744 OA
ENDBRANCH  43  47
ENDBRANCH  26  40
BRANCH  27  51
ATOM     51  C   UNL     1      -2.836  -5.520   7.109  1.00  0.00     0.023 A 
ATOM     52  C   UNL     1      -3.478  -6.456   7.943  1.00  0.00     0.031 A 
ATOM     53  C   UNL     1      -3.650  -4.515   6.535  1.00  0.00     0.131 A 
ATOM     54  C   UNL     1      -4.874  -6.375   8.154  1.00  0.00     0.055 A 
ATOM     55  C   UNL     1      -5.029  -4.450   6.732  1.00  0.00     0.041 A 
ATOM     56  F   UNL     1      -3.117  -3.509   5.824  1.00  0.00    -0.206 F 
ATOM     57  C   UNL     1      -5.648  -5.380   7.550  1.00  0.00     0.022 A 
BRANCH  54  58
ATOM     58  S   UNL     1      -5.695  -7.518   9.309  1.00  0.00     0.124 S 
ATOM     59  O   UNL     1      -5.598  -8.792   8.606  1.00  0.00    -0.237 OA
ATOM     60  O   UNL     1      -4.888  -7.378  10.515  1.00  0.00    -0.237 OA
ATOM     61  O   UNL     1      -7.052  -6.979   9.417  1.00  0.00    -0.744 OA
ENDBRANCH  54  58
ENDBRANCH  27  51
BRANCH  39  62
ATOM     62  C   UNL     1       3.330  -6.993   7.626  1.00  0.00     0.023 A 
ATOM     63  C   UNL     1       2.851  -7.201   6.313  1.00  0.00     0.031 A 
ATOM     64  C   UNL     1       4.339  -7.852   8.095  1.00  0.00     0.131 A 
ATOM     65  C   UNL     1       3.371  -8.248   5.529  1.00  0.00     0.055 A 
ATOM     66  C   UNL     1       4.864  -8.878   7.310  1.00  0.00     0.041 A 
ATOM     67  F   UNL     1       4.864  -7.680   9.320  1.00  0.00    -0.206 F 
ATOM     68  C   UNL     1       4.377  -9.084   6.024  1.00  0.00     0.022 A 
BRANCH  65  69
ATOM     69  S   UNL     1       2.744  -8.535   3.843  1.00  0.00     0.124 S 
ATOM     70  O   UNL     1       1.297  -8.562   4.017  1.00  0.00    -0.237 OA
ATOM     71  O   UNL     1       3.281  -7.393   3.107  1.00  0.00    -0.237 OA
ATOM     72  O   UNL     1       3.336  -9.823   3.475  1.00  0.00    -0.744 OA
ENDBRANCH  65  69
ENDBRANCH  39  62
ENDBRANCH  13  14
ENDBRANCH   6   8
ENDBRANCH   3   4
ENDBRANCH   2   3
ENDBRANCH   1   2
BRANCH   1  73
ATOM     73  C   UNL     1       5.062  -2.117  -3.537  1.00  0.00     0.116 C 
BRANCH  73  74
ATOM     74  N   UNL     1       6.510  -2.108  -3.731  1.00  0.00    -0.352 N 
ATOM     75  C   UNL     1       7.233  -2.395  -4.879  1.00  0.00     0.251 C 
ATOM     76  H   UNL     1       7.045  -1.865  -2.941  1.00  0.00     0.163 HD
ATOM     77  O   UNL     1       8.453  -2.376  -4.883  1.00  0.00    -0.269 OA
BRANCH  75  78
ATOM     78  C   UNL     1       6.496  -2.761  -6.115  1.00  0.00     0.041 A 
ATOM     79  C   UNL     1       5.455  -1.938  -6.542  1.00  0.00     0.018 A 
ATOM     80  C   UNL     1       6.754  -4.000  -6.744  1.00  0.00     0.036 A 
ATOM     81  C   UNL     1       4.537  -2.480  -7.413  1.00  0.00    -0.043 A 
ATOM     82  C   UNL     1       5.846  -4.516  -7.692  1.00  0.00     0.092 A 
ATOM     83  C   UNL     1       4.684  -3.786  -7.920  1.00  0.00    -0.024 A 
ATOM     84  C   UNL     1       3.212  -1.885  -7.780  1.00  0.00     0.036 C 
ATOM     85  C   UNL     1       3.365  -4.199  -8.498  1.00  0.00     0.037 C 
ATOM     86  C   UNL     1       2.775  -2.841  -8.887  1.00  0.00     0.010 C 
BRANCH  82  87
ATOM     87  S   UNL     1       6.077  -6.171  -8.313  1.00  0.00     0.262 S 
ATOM     88  O   UNL     1       7.323  -6.671  -7.776  1.00  0.00    -0.201 OA
ATOM     89  O   UNL     1       4.846  -6.909  -8.098  1.00  0.00    -0.201 OA
BRANCH  87  90
ATOM     90  N   UNL     1       6.345  -6.163 -10.006  1.00  0.00    -0.277 N 
ATOM     91  H   UNL     1       7.122  -6.643 -10.373  1.00  0.00     0.180 HD
BRANCH  90  92
ATOM     92  C   UNL     1       5.459  -5.473 -10.899  1.00  0.00     0.075 A 
ATOM     93  C   UNL     1       4.280  -6.112 -11.319  1.00  0.00     0.042 A 
ATOM     94  C   UNL     1       5.675  -4.128 -11.244  1.00  0.00     0.089 A 
ATOM     95  C   UNL     1       3.287  -5.405 -12.030  1.00  0.00     0.058 A 
ATOM     96  C   UNL     1       4.701  -3.428 -11.974  1.00  0.00     0.031 A 
ATOM     97  C   UNL     1       3.520  -4.063 -12.368  1.00  0.00     0.015 A 
BRANCH  94  98
ATOM     98  N   UNL     1       6.834  -3.432 -10.820  1.00  0.00    -0.239 N 
ATOM     99  C   UNL     1       8.090  -3.939 -10.568  1.00  0.00     0.115 A 
ATOM    100  N   UNL     1       6.777  -2.106 -10.530  1.00  0.00    -0.177 NA
ATOM    101  C   UNL     1       8.777  -2.975  -9.873  1.00  0.00     0.042 A 
ATOM    102  C   UNL     1       7.903  -1.879  -9.847  1.00  0.00     0.135 A 
ENDBRANCH  94  98
BRANCH  95 103
ATOM    103  C   UNL     1       1.963  -6.059 -12.356  1.00  0.00     0.416 C 
ATOM    104  F   UNL     1       2.071  -6.986 -13.346  1.00  0.00    -0.166 F 
ATOM    105  F   UNL     1       1.423  -6.707 -11.288  1.00  0.00    -0.166 F 
ATOM    106  F   UNL     1       1.012  -5.176 -12.772  1.00  0.00    -0.166 F 
ENDBRANCH  95 103
ENDBRANCH  90  92
ENDBRANCH  87  90
ENDBRANCH  82  87
ENDBRANCH  75  78
ENDBRANCH  73  74
ENDBRANCH   1  73
TORSDOF 19
