REMARK SMILES C[C@@H](C(=O)NCCCCNC(=O)c1ccc(-c2c3nc(c(-c4cc(S(=O)(=O)[O-])ccc4F)c4ccc([nH]4)c(-c4cc(S(=O)(=O)[O-])ccc4F)c4nc(c(-c5cc(S(=O)(=O)[O-])ccc5F)c5ccc2[nH]5)C=C4)C=C3)cc1)c1cccn(C(F)F)c1=O
REMARK SMILES IDX 8 1 7 2 6 3 5 4 3 5 4 6 2 8 1 9 76 10 77 11 84 12 78 13
REMARK SMILES IDX 80 14 85 15 79 16 81 17 82 18 83 19 9 20 10 21 11 22 12 24
REMARK SMILES IDX 13 25 14 26 75 27 15 28 74 29 16 30 17 31 18 32 68 33 19 34
REMARK SMILES IDX 73 35 67 36 69 37 20 38 72 39 66 40 65 41 21 43 53 44 33 45
REMARK SMILES IDX 52 46 34 47 37 48 51 49 70 50 35 51 36 52 50 54 71 55 38 56
REMARK SMILES IDX 22 57 23 58 31 59 24 60 30 61 32 62 29 63 25 64 26 65 27 66
REMARK SMILES IDX 28 67 54 68 55 69 63 70 56 71 62 72 64 73 61 74 57 75 58 76
REMARK SMILES IDX 59 77 60 78 39 79 40 80 48 81 41 82 47 83 49 84 46 85 42 86
REMARK SMILES IDX 43 87 44 88 45 89
REMARK H PARENT 5 7 10 23 69 42 37 53
REMARK Flexibility Score: inf
ROOT
ATOM      1  C   UNL     1       4.989  -2.243   1.293  1.00  0.00     0.023 C 
ENDROOT
BRANCH   1   2
ATOM      2  C   UNL     1       4.207  -1.211   0.477  1.00  0.00     0.023 C 
BRANCH   2   3
ATOM      3  C   UNL     1       3.359  -1.788  -0.663  1.00  0.00     0.116 C 
BRANCH   3   4
ATOM      4  N   UNL     1       2.308  -2.645  -0.147  1.00  0.00    -0.356 N 
ATOM      5  C   UNL     1       0.987  -2.377   0.071  1.00  0.00     0.227 C 
ATOM      6  O   UNL     1       0.386  -3.162   0.807  1.00  0.00    -0.274 OA
ATOM      7  H   UNL     1       2.591  -3.560   0.080  1.00  0.00     0.163 HD
BRANCH   5   8
ATOM      8  C   UNL     1       0.321  -1.138  -0.582  1.00  0.00     0.111 C 
ATOM      9  C   UNL     1       0.741   0.089   0.242  1.00  0.00     0.023 C 
BRANCH   8  10
ATOM     10  C   UNL     1      -1.200  -1.260  -0.736  1.00  0.00     0.030 A 
ATOM     11  C   UNL     1      -1.896  -2.416  -0.740  1.00  0.00     0.012 A 
ATOM     12  C   UNL     1      -2.008   0.009  -0.899  1.00  0.00     0.258 A 
ATOM     13  C   UNL     1      -3.335  -2.454  -0.722  1.00  0.00     0.019 A 
ATOM     14  N   UNL     1      -3.382  -0.101  -0.772  1.00  0.00    -0.258 N 
ATOM     15  O   UNL     1      -1.458   1.083  -1.136  1.00  0.00    -0.269 OA
ATOM     16  C   UNL     1      -4.029  -1.315  -0.696  1.00  0.00     0.095 A 
BRANCH  14  17
ATOM     17  C   UNL     1      -4.154   1.114  -0.786  1.00  0.00     0.451 C 
ATOM     18  F   UNL     1      -4.987   1.115  -1.863  1.00  0.00    -0.185 F 
ATOM     19  F   UNL     1      -4.960   1.157   0.310  1.00  0.00    -0.185 F 
ENDBRANCH  14  17
ENDBRANCH   8  10
ENDBRANCH   5   8
ENDBRANCH   3   4
ENDBRANCH   2   3
ENDBRANCH   1   2
BRANCH   1  20
ATOM     20  C   UNL     1       5.961  -3.097   0.491  1.00  0.00     0.116 C 
BRANCH  20  21
ATOM     21  N   UNL     1       6.927  -2.297  -0.242  1.00  0.00    -0.352 N 
ATOM     22  C   UNL     1       8.285  -2.452  -0.352  1.00  0.00     0.251 C 
ATOM     23  H   UNL     1       6.551  -1.530  -0.732  1.00  0.00     0.163 HD
ATOM     24  O   UNL     1       8.947  -1.561  -0.884  1.00  0.00    -0.269 OA
BRANCH  22  25
ATOM     25  C   UNL     1       8.950  -3.657   0.189  1.00  0.00     0.039 A 
ATOM     26  C   UNL     1      10.166  -3.503   0.857  1.00  0.00     0.014 A 
ATOM     27  C   UNL     1       8.389  -4.930   0.042  1.00  0.00     0.014 A 
ATOM     28  C   UNL     1      10.788  -4.615   1.426  1.00  0.00     0.010 A 
ATOM     29  C   UNL     1       8.969  -6.025   0.682  1.00  0.00     0.010 A 
ATOM     30  C   UNL     1      10.175  -5.880   1.380  1.00  0.00    -0.014 A 
BRANCH  30  31
ATOM     31  C   UNL     1      10.790  -7.040   2.079  1.00  0.00     0.031 A 
ATOM     32  C   UNL     1      11.268  -8.238   1.303  1.00  0.00     0.074 A 
ATOM     33  C   UNL     1      10.903  -7.013   3.422  1.00  0.00     0.049 A 
ATOM     34  N   UNL     1      11.836  -9.332   1.742  1.00  0.00    -0.248 NA
ATOM     35  C   UNL     1      11.059  -8.216  -0.153  1.00  0.00     0.031 C 
ATOM     36  C   UNL     1      10.427  -5.928   4.286  1.00  0.00     0.029 A 
ATOM     37  N   UNL     1      11.454  -7.912   4.299  1.00  0.00    -0.354 N 
ATOM     38  C   UNL     1      12.063 -10.121   0.620  1.00  0.00     0.074 A 
ATOM     39  C   UNL     1      11.502  -9.412  -0.510  1.00  0.00     0.031 C 
ATOM     40  C   UNL     1      10.742  -6.208   5.560  1.00  0.00     0.029 A 
ATOM     41  C   UNL     1      11.397  -7.510   5.615  1.00  0.00     0.049 A 
ATOM     42  H   UNL     1      11.854  -8.766   4.014  1.00  0.00     0.167 HD
ATOM     43  C   UNL     1      12.707 -11.312   0.536  1.00  0.00     0.034 A 
ATOM     44  C   UNL     1      11.818  -8.123   6.739  1.00  0.00     0.034 A 
ATOM     45  C   UNL     1      13.259 -12.009   1.673  1.00  0.00     0.049 A 
ATOM     46  C   UNL     1      12.504  -9.461   6.618  1.00  0.00     0.074 A 
ATOM     47  C   UNL     1      13.956 -13.205   1.695  1.00  0.00     0.029 A 
ATOM     48  N   UNL     1      13.174 -11.578   2.991  1.00  0.00    -0.354 N 
ATOM     49  N   UNL     1      12.760 -10.165   5.538  1.00  0.00    -0.248 NA
ATOM     50  C   UNL     1      12.976 -10.076   7.864  1.00  0.00     0.031 C 
ATOM     51  C   UNL     1      14.228 -13.532   3.028  1.00  0.00     0.029 A 
ATOM     52  C   UNL     1      13.779 -12.499   3.834  1.00  0.00     0.049 A 
ATOM     53  H   UNL     1      12.747 -10.741   3.284  1.00  0.00     0.167 HD
ATOM     54  C   UNL     1      13.446 -11.294   5.978  1.00  0.00     0.074 A 
ATOM     55  C   UNL     1      13.597 -11.154   7.411  1.00  0.00     0.031 C 
ATOM     56  C   UNL     1      13.905 -12.356   5.266  1.00  0.00     0.034 A 
BRANCH  43  57
ATOM     57  C   UNL     1      12.840 -11.940  -0.832  1.00  0.00     0.023 A 
ATOM     58  C   UNL     1      13.576 -11.320  -1.858  1.00  0.00     0.031 A 
ATOM     59  C   UNL     1      12.231 -13.175  -1.116  1.00  0.00     0.131 A 
ATOM     60  C   UNL     1      13.636 -11.905  -3.131  1.00  0.00     0.055 A 
ATOM     61  C   UNL     1      12.361 -13.791  -2.362  1.00  0.00     0.041 A 
ATOM     62  F   UNL     1      11.496 -13.805  -0.185  1.00  0.00    -0.206 F 
ATOM     63  C   UNL     1      13.058 -13.151  -3.383  1.00  0.00     0.022 A 
BRANCH  60  64
ATOM     64  S   UNL     1      14.379 -10.957  -4.487  1.00  0.00     0.124 S 
ATOM     65  O   UNL     1      13.525  -9.772  -4.520  1.00  0.00    -0.237 OA
ATOM     66  O   UNL     1      15.744 -10.749  -4.018  1.00  0.00    -0.237 OA
ATOM     67  O   UNL     1      14.244 -11.845  -5.640  1.00  0.00    -0.744 OA
ENDBRANCH  60  64
ENDBRANCH  43  57
BRANCH  44  68
ATOM     68  C   UNL     1      11.590  -7.503   8.078  1.00  0.00     0.023 A 
ATOM     69  C   UNL     1      12.664  -7.172   8.920  1.00  0.00     0.031 A 
ATOM     70  C   UNL     1      10.287  -7.300   8.567  1.00  0.00     0.131 A 
ATOM     71  C   UNL     1      12.417  -6.724  10.227  1.00  0.00     0.055 A 
ATOM     72  C   UNL     1      10.047  -6.787   9.843  1.00  0.00     0.041 A 
ATOM     73  F   UNL     1       9.221  -7.596   7.806  1.00  0.00    -0.206 F 
ATOM     74  C   UNL     1      11.116  -6.515  10.689  1.00  0.00     0.022 A 
BRANCH  71  75
ATOM     75  S   UNL     1      13.822  -6.542  11.362  1.00  0.00     0.124 S 
ATOM     76  O   UNL     1      14.424  -7.869  11.302  1.00  0.00    -0.237 OA
ATOM     77  O   UNL     1      14.579  -5.464  10.734  1.00  0.00    -0.237 OA
ATOM     78  O   UNL     1      13.188  -6.199  12.634  1.00  0.00    -0.744 OA
ENDBRANCH  71  75
ENDBRANCH  44  68
BRANCH  56  79
ATOM     79  C   UNL     1      14.640 -13.426   6.039  1.00  0.00     0.023 A 
ATOM     80  C   UNL     1      14.003 -14.180   7.041  1.00  0.00     0.031 A 
ATOM     81  C   UNL     1      16.007 -13.662   5.808  1.00  0.00     0.131 A 
ATOM     82  C   UNL     1      14.749 -15.064   7.834  1.00  0.00     0.055 A 
ATOM     83  C   UNL     1      16.727 -14.603   6.547  1.00  0.00     0.041 A 
ATOM     84  F   UNL     1      16.671 -12.973   4.866  1.00  0.00    -0.206 F 
ATOM     85  C   UNL     1      16.103 -15.294   7.581  1.00  0.00     0.022 A 
BRANCH  82  86
ATOM     86  S   UNL     1      13.957 -15.800   9.291  1.00  0.00     0.124 S 
ATOM     87  O   UNL     1      13.513 -14.618  10.023  1.00  0.00    -0.237 OA
ATOM     88  O   UNL     1      12.903 -16.613   8.694  1.00  0.00    -0.237 OA
ATOM     89  O   UNL     1      15.038 -16.553   9.924  1.00  0.00    -0.744 OA
ENDBRANCH  82  86
ENDBRANCH  56  79
ENDBRANCH  30  31
ENDBRANCH  22  25
ENDBRANCH  20  21
ENDBRANCH   1  20
TORSDOF 16
