REMARK SMILES COCCOc1ccc([C@H]([NH3+])C(=O)NCCCCNC(=O)c2ccc(-c3c4nc(c(-c5cc(S(=O)(=O)[O-])ccc5F)c5ccc([nH]5)c(-c5cc(S(=O)(=O)[O-])ccc5F)c5nc(c(-c6cc(S(=O)(=O)[O-])ccc6F)c6ccc3[nH]6)C=C5)C=C4)cc2)cc1OC
REMARK SMILES IDX 15 1 14 2 12 3 13 4 10 6 9 7 6 8 7 9 86 10 8 11 85 12 5 13
REMARK SMILES IDX 4 14 3 15 2 16 1 17 87 18 88 19 11 20 16 24 17 25 18 26
REMARK SMILES IDX 19 27 20 28 21 30 22 31 23 32 84 33 24 34 83 35 25 36 26 37
REMARK SMILES IDX 27 38 77 39 28 40 82 41 76 42 78 43 29 44 81 45 75 46 74 47
REMARK SMILES IDX 30 49 62 50 42 51 61 52 43 53 46 54 60 55 79 56 44 57 45 58
REMARK SMILES IDX 59 60 80 61 47 62 31 63 32 64 40 65 33 66 39 67 41 68 38 69
REMARK SMILES IDX 34 70 35 71 36 72 37 73 63 74 64 75 72 76 65 77 71 78 73 79
REMARK SMILES IDX 70 80 66 81 67 82 68 83 69 84 48 85 49 86 57 87 50 88 56 89
REMARK SMILES IDX 58 90 55 91 51 92 52 93 53 94 54 95
REMARK H PARENT 14 5 11 21 11 22 11 23 19 29 78 48 46 59
REMARK Flexibility Score: inf
ROOT
ATOM      1  C   UNL     1      -1.225  -0.008  -4.794  1.00  0.00     0.116 C 
ENDROOT
BRANCH   1   2
ATOM      2  N   UNL     1      -2.147   0.991  -4.277  1.00  0.00    -0.351 N 
ATOM      3  C   UNL     1      -1.889   2.220  -3.730  1.00  0.00     0.283 C 
ATOM      4  O   UNL     1      -2.854   2.959  -3.514  1.00  0.00    -0.268 OA
ATOM      5  H   UNL     1      -3.099   0.747  -4.328  1.00  0.00     0.163 HD
BRANCH   3   6
ATOM      6  C   UNL     1      -0.454   2.641  -3.305  1.00  0.00     0.302 C 
BRANCH   6   7
ATOM      7  C   UNL     1       0.588   2.673  -4.418  1.00  0.00     0.023 A 
ATOM      8  C   UNL     1       2.548   2.079  -6.338  1.00  0.00     0.161 A 
ATOM      9  C   UNL     1       1.218   2.239  -6.727  1.00  0.00     0.051 A 
ATOM     10  C   UNL     1       2.921   2.385  -5.029  1.00  0.00     0.161 A 
ATOM     11  C   UNL     1       0.251   2.594  -5.780  1.00  0.00     0.014 A 
ATOM     12  C   UNL     1       1.949   2.672  -4.074  1.00  0.00     0.061 A 
BRANCH   8  13
ATOM     13  O   UNL     1       3.484   1.501  -7.150  1.00  0.00    -0.487 OA
BRANCH  13  14
ATOM     14  C   UNL     1       3.728   2.183  -8.379  1.00  0.00     0.258 C 
BRANCH  14  15
ATOM     15  C   UNL     1       4.715   3.341  -8.188  1.00  0.00     0.201 C 
BRANCH  15  16
ATOM     16  O   UNL     1       4.241   4.418  -7.377  1.00  0.00    -0.381 OA
ATOM     17  C   UNL     1       3.088   5.088  -7.857  1.00  0.00     0.195 C 
ENDBRANCH  15  16
ENDBRANCH  14  15
ENDBRANCH  13  14
ENDBRANCH   8  13
BRANCH  10  18
ATOM     18  O   UNL     1       4.234   2.296  -4.647  1.00  0.00    -0.493 OA
ATOM     19  C   UNL     1       4.782   3.591  -4.394  1.00  0.00     0.278 C 
ENDBRANCH  10  18
ENDBRANCH   6   7
BRANCH   6  20
ATOM     20  N   UNL     1      -0.021   1.755  -2.189  1.00  0.00    -0.343 N 
ATOM     21  H   UNL     1       0.027   0.791  -2.518  1.00  0.00     0.345 HD
ATOM     22  H   UNL     1      -0.691   1.820  -1.423  1.00  0.00     0.345 HD
ATOM     23  H   UNL     1       0.900   2.048  -1.860  1.00  0.00     0.345 HD
ENDBRANCH   6  20
ENDBRANCH   3   6
ENDBRANCH   1   2
BRANCH   1  24
ATOM     24  C   UNL     1      -1.627  -1.431  -4.434  1.00  0.00     0.023 C 
BRANCH  24  25
ATOM     25  C   UNL     1      -2.942  -1.905  -5.050  1.00  0.00     0.023 C 
BRANCH  25  26
ATOM     26  C   UNL     1      -3.035  -1.794  -6.569  1.00  0.00     0.116 C 
BRANCH  26  27
ATOM     27  N   UNL     1      -2.017  -2.570  -7.260  1.00  0.00    -0.352 N 
ATOM     28  C   UNL     1      -2.166  -3.534  -8.234  1.00  0.00     0.251 C 
ATOM     29  H   UNL     1      -1.089  -2.380  -6.993  1.00  0.00     0.163 HD
ATOM     30  O   UNL     1      -1.200  -4.191  -8.592  1.00  0.00    -0.269 OA
BRANCH  28  31
ATOM     31  C   UNL     1      -3.505  -3.788  -8.815  1.00  0.00     0.039 A 
ATOM     32  C   UNL     1      -3.953  -5.106  -8.928  1.00  0.00     0.014 A 
ATOM     33  C   UNL     1      -4.322  -2.731  -9.223  1.00  0.00     0.014 A 
ATOM     34  C   UNL     1      -5.253  -5.358  -9.377  1.00  0.00     0.010 A 
ATOM     35  C   UNL     1      -5.641  -2.980  -9.596  1.00  0.00     0.010 A 
ATOM     36  C   UNL     1      -6.124  -4.296  -9.672  1.00  0.00    -0.014 A 
BRANCH  36  37
ATOM     37  C   UNL     1      -7.543  -4.542 -10.053  1.00  0.00     0.031 A 
ATOM     38  C   UNL     1      -8.044  -4.118 -11.409  1.00  0.00     0.074 A 
ATOM     39  C   UNL     1      -8.392  -5.086  -9.156  1.00  0.00     0.049 A 
ATOM     40  N   UNL     1      -9.258  -4.171 -11.894  1.00  0.00    -0.248 NA
ATOM     41  C   UNL     1      -7.057  -3.535 -12.330  1.00  0.00     0.031 C 
ATOM     42  C   UNL     1      -8.033  -5.505  -7.799  1.00  0.00     0.029 A 
ATOM     43  N   UNL     1      -9.732  -5.374  -9.244  1.00  0.00    -0.354 N 
ATOM     44  C   UNL     1      -9.184  -3.615 -13.167  1.00  0.00     0.074 A 
ATOM     45  C   UNL     1      -7.816  -3.185 -13.357  1.00  0.00     0.031 C 
ATOM     46  C   UNL     1      -9.117  -6.017  -7.194  1.00  0.00     0.029 A 
ATOM     47  C   UNL     1     -10.262  -5.915  -8.093  1.00  0.00     0.049 A 
ATOM     48  H   UNL     1     -10.265  -5.208 -10.055  1.00  0.00     0.167 HD
ATOM     49  C   UNL     1     -10.164  -3.492 -14.096  1.00  0.00     0.034 A 
ATOM     50  C   UNL     1     -11.527  -6.272  -7.791  1.00  0.00     0.034 A 
ATOM     51  C   UNL     1     -11.518  -3.948 -13.901  1.00  0.00     0.049 A 
ATOM     52  C   UNL     1     -12.602  -6.097  -8.838  1.00  0.00     0.074 A 
ATOM     53  C   UNL     1     -12.567  -3.933 -14.804  1.00  0.00     0.029 A 
ATOM     54  N   UNL     1     -12.016  -4.490 -12.725  1.00  0.00    -0.354 N 
ATOM     55  N   UNL     1     -12.497  -5.627 -10.060  1.00  0.00    -0.248 NA
ATOM     56  C   UNL     1     -13.963  -6.512  -8.470  1.00  0.00     0.031 C 
ATOM     57  C   UNL     1     -13.715  -4.391 -14.152  1.00  0.00     0.029 A 
ATOM     58  C   UNL     1     -13.365  -4.778 -12.868  1.00  0.00     0.049 A 
ATOM     59  H   UNL     1     -11.489  -4.648 -11.908  1.00  0.00     0.167 HD
ATOM     60  C   UNL     1     -13.771  -5.730 -10.616  1.00  0.00     0.074 A 
ATOM     61  C   UNL     1     -14.619  -6.322  -9.604  1.00  0.00     0.031 C 
ATOM     62  C   UNL     1     -14.200  -5.372 -11.852  1.00  0.00     0.034 A 
BRANCH  49  63
ATOM     63  C   UNL     1      -9.818  -2.818 -15.402  1.00  0.00     0.023 A 
ATOM     64  C   UNL     1      -8.898  -3.376 -16.305  1.00  0.00     0.031 A 
ATOM     65  C   UNL     1     -10.437  -1.606 -15.756  1.00  0.00     0.131 A 
ATOM     66  C   UNL     1      -8.586  -2.699 -17.494  1.00  0.00     0.055 A 
ATOM     67  C   UNL     1     -10.180  -0.976 -16.975  1.00  0.00     0.041 A 
ATOM     68  F   UNL     1     -11.307  -1.014 -14.923  1.00  0.00    -0.206 F 
ATOM     69  C   UNL     1      -9.242  -1.517 -17.848  1.00  0.00     0.022 A 
BRANCH  66  70
ATOM     70  S   UNL     1      -7.231  -3.327 -18.522  1.00  0.00     0.124 S 
ATOM     71  O   UNL     1      -6.100  -3.247 -17.600  1.00  0.00    -0.237 OA
ATOM     72  O   UNL     1      -7.686  -4.671 -18.860  1.00  0.00    -0.237 OA
ATOM     73  O   UNL     1      -7.182  -2.386 -19.639  1.00  0.00    -0.744 OA
ENDBRANCH  66  70
ENDBRANCH  49  63
BRANCH  50  74
ATOM     74  C   UNL     1     -11.873  -6.810  -6.440  1.00  0.00     0.023 A 
ATOM     75  C   UNL     1     -12.425  -8.093  -6.293  1.00  0.00     0.031 A 
ATOM     76  C   UNL     1     -11.743  -6.017  -5.286  1.00  0.00     0.131 A 
ATOM     77  C   UNL     1     -12.896  -8.515  -5.040  1.00  0.00     0.055 A 
ATOM     78  C   UNL     1     -12.146  -6.470  -4.028  1.00  0.00     0.041 A 
ATOM     79  F   UNL     1     -11.222  -4.782  -5.364  1.00  0.00    -0.206 F 
ATOM     80  C   UNL     1     -12.746  -7.718  -3.903  1.00  0.00     0.022 A 
BRANCH  77  81
ATOM     81  S   UNL     1     -13.832 -10.066  -4.944  1.00  0.00     0.124 S 
ATOM     82  O   UNL     1     -14.890  -9.833  -5.921  1.00  0.00    -0.237 OA
ATOM     83  O   UNL     1     -12.822 -11.052  -5.314  1.00  0.00    -0.237 OA
ATOM     84  O   UNL     1     -14.268 -10.114  -3.550  1.00  0.00    -0.744 OA
ENDBRANCH  77  81
ENDBRANCH  50  74
BRANCH  62  85
ATOM     85  C   UNL     1     -15.640  -5.670 -12.196  1.00  0.00     0.023 A 
ATOM     86  C   UNL     1     -16.709  -5.034 -11.542  1.00  0.00     0.031 A 
ATOM     87  C   UNL     1     -15.944  -6.615 -13.194  1.00  0.00     0.131 A 
ATOM     88  C   UNL     1     -18.030  -5.393 -11.850  1.00  0.00     0.055 A 
ATOM     89  C   UNL     1     -17.260  -6.918 -13.543  1.00  0.00     0.041 A 
ATOM     90  F   UNL     1     -14.964  -7.256 -13.850  1.00  0.00    -0.206 F 
ATOM     91  C   UNL     1     -18.312  -6.317 -12.860  1.00  0.00     0.022 A 
BRANCH  88  92
ATOM     92  S   UNL     1     -19.376  -4.708 -10.845  1.00  0.00     0.124 S 
ATOM     93  O   UNL     1     -19.011  -5.154  -9.505  1.00  0.00    -0.237 OA
ATOM     94  O   UNL     1     -19.254  -3.275 -11.095  1.00  0.00    -0.237 OA
ATOM     95  O   UNL     1     -20.573  -5.334 -11.403  1.00  0.00    -0.744 OA
ENDBRANCH  88  92
ENDBRANCH  62  85
ENDBRANCH  36  37
ENDBRANCH  28  31
ENDBRANCH  26  27
ENDBRANCH  25  26
ENDBRANCH  24  25
ENDBRANCH   1  24
TORSDOF 21
