REMARK SMILES O=C(NCCCCNC(=O)[C@H](CO)NC(=O)[C@H](CS)NC(=O)c1ccc(F)cc1)c1ccc(-c2c3nc(c(-c4cc(S(=O)(=O)[O-])ccc4F)c4ccc([nH]4)c(-c4cc(S(=O)(=O)[O-])ccc4F)c4nc(c(-c5cc(S(=O)(=O)[O-])ccc5F)c5ccc2[nH]5)C=C4)C=C3)cc1
REMARK SMILES IDX 6 1 5 2 4 3 3 4 1 5 2 6 30 8 31 9 92 10 32 11 91 12 33 13
REMARK SMILES IDX 34 14 35 15 85 16 36 17 90 18 84 19 86 20 37 21 89 22 83 23
REMARK SMILES IDX 82 24 38 26 70 27 50 28 69 29 51 30 54 31 68 32 87 33 52 34
REMARK SMILES IDX 53 35 67 37 88 38 55 39 39 40 40 41 48 42 41 43 47 44 49 45
REMARK SMILES IDX 46 46 42 47 43 48 44 49 45 50 71 51 72 52 80 53 73 54 79 55
REMARK SMILES IDX 81 56 78 57 74 58 75 59 76 60 77 61 56 62 57 63 65 64 58 65
REMARK SMILES IDX 64 66 66 67 63 68 59 69 60 70 61 71 62 72 7 73 8 74 9 75
REMARK SMILES IDX 10 77 11 78 14 79 15 80 16 82 17 83 20 84 21 85 22 87 23 88
REMARK SMILES IDX 24 89 29 90 25 91 28 92 26 93 27 94 18 95 19 96 12 98 13 99
REMARK H PARENT 3 7 86 25 54 36 8 76 14 81 20 86 19 97 13 100
REMARK Flexibility Score: inf
ROOT
ATOM      1  C   UNL     1       8.396   6.111  -4.408  1.00  0.00     0.023 C 
ENDROOT
BRANCH   1   2
ATOM      2  C   UNL     1       8.137   5.332  -5.702  1.00  0.00     0.023 C 
BRANCH   2   3
ATOM      3  C   UNL     1       9.175   4.269  -6.040  1.00  0.00     0.116 C 
BRANCH   3   4
ATOM      4  N   UNL     1       9.411   3.316  -4.964  1.00  0.00    -0.352 N 
ATOM      5  O   UNL     1       9.961   1.301  -4.094  1.00  0.00    -0.269 OA
ATOM      6  C   UNL     1       9.884   2.029  -5.078  1.00  0.00     0.251 C 
ATOM      7  H   UNL     1       9.210   3.628  -4.052  1.00  0.00     0.163 HD
BRANCH   6   8
ATOM      8  C   UNL     1      10.256   1.532  -6.417  1.00  0.00     0.039 A 
ATOM      9  C   UNL     1      11.122   2.277  -7.220  1.00  0.00     0.014 A 
ATOM     10  C   UNL     1       9.680   0.351  -6.893  1.00  0.00     0.014 A 
ATOM     11  C   UNL     1      11.301   1.915  -8.547  1.00  0.00     0.010 A 
ATOM     12  C   UNL     1       9.929  -0.054  -8.207  1.00  0.00     0.010 A 
ATOM     13  C   UNL     1      10.716   0.741  -9.052  1.00  0.00    -0.014 A 
BRANCH  13  14
ATOM     14  C   UNL     1      11.010   0.346 -10.451  1.00  0.00     0.031 A 
ATOM     15  C   UNL     1       9.940   0.343 -11.505  1.00  0.00     0.074 A 
ATOM     16  C   UNL     1      12.285   0.053 -10.769  1.00  0.00     0.049 A 
ATOM     17  N   UNL     1      10.050   0.085 -12.782  1.00  0.00    -0.248 NA
ATOM     18  C   UNL     1       8.572   0.662 -11.072  1.00  0.00     0.031 C 
ATOM     19  C   UNL     1      13.399   0.027  -9.817  1.00  0.00     0.029 A 
ATOM     20  N   UNL     1      12.870  -0.232 -11.973  1.00  0.00    -0.354 N 
ATOM     21  C   UNL     1       8.766   0.186 -13.306  1.00  0.00     0.074 A 
ATOM     22  C   UNL     1       7.889   0.513 -12.200  1.00  0.00     0.031 C 
ATOM     23  C   UNL     1      14.542  -0.176 -10.485  1.00  0.00     0.029 A 
ATOM     24  C   UNL     1      14.236  -0.365 -11.898  1.00  0.00     0.049 A 
ATOM     25  H   UNL     1      12.363  -0.331 -12.811  1.00  0.00     0.167 HD
ATOM     26  C   UNL     1       8.364   0.021 -14.590  1.00  0.00     0.034 A 
ATOM     27  C   UNL     1      15.147  -0.619 -12.856  1.00  0.00     0.034 A 
ATOM     28  C   UNL     1       9.259  -0.288 -15.679  1.00  0.00     0.049 A 
ATOM     29  C   UNL     1      14.677  -0.813 -14.266  1.00  0.00     0.074 A 
ATOM     30  C   UNL     1       8.960  -0.442 -17.022  1.00  0.00     0.029 A 
ATOM     31  N   UNL     1      10.627  -0.494 -15.551  1.00  0.00    -0.354 N 
ATOM     32  N   UNL     1      13.455  -0.738 -14.738  1.00  0.00    -0.248 NA
ATOM     33  C   UNL     1      15.698  -1.141 -15.266  1.00  0.00     0.031 C 
ATOM     34  C   UNL     1      10.135  -0.797 -17.695  1.00  0.00     0.029 A 
ATOM     35  C   UNL     1      11.179  -0.803 -16.785  1.00  0.00     0.049 A 
ATOM     36  H   UNL     1      11.130  -0.430 -14.708  1.00  0.00     0.167 HD
ATOM     37  C   UNL     1      13.559  -1.013 -16.096  1.00  0.00     0.074 A 
ATOM     38  C   UNL     1      14.965  -1.244 -16.368  1.00  0.00     0.031 C 
ATOM     39  C   UNL     1      12.578  -1.064 -17.030  1.00  0.00     0.034 A 
BRANCH  26  40
ATOM     40  C   UNL     1       6.888   0.122 -14.880  1.00  0.00     0.023 A 
ATOM     41  C   UNL     1       6.191   1.338 -14.780  1.00  0.00     0.031 A 
ATOM     42  C   UNL     1       6.168  -1.022 -15.272  1.00  0.00     0.131 A 
ATOM     43  C   UNL     1       4.808   1.372 -15.023  1.00  0.00     0.055 A 
ATOM     44  C   UNL     1       4.806  -0.969 -15.572  1.00  0.00     0.041 A 
ATOM     45  F   UNL     1       6.780  -2.213 -15.366  1.00  0.00    -0.206 F 
ATOM     46  C   UNL     1       4.116   0.232 -15.440  1.00  0.00     0.022 A 
BRANCH  43  47
ATOM     47  S   UNL     1       3.905   2.910 -14.694  1.00  0.00     0.124 S 
ATOM     48  O   UNL     1       4.127   3.081 -13.259  1.00  0.00    -0.237 OA
ATOM     49  O   UNL     1       4.582   3.866 -15.562  1.00  0.00    -0.237 OA
ATOM     50  O   UNL     1       2.531   2.589 -15.071  1.00  0.00    -0.744 OA
ENDBRANCH  43  47
ENDBRANCH  26  40
BRANCH  27  51
ATOM     51  C   UNL     1      16.580  -0.723 -12.480  1.00  0.00     0.023 A 
ATOM     52  C   UNL     1      17.484   0.304 -12.787  1.00  0.00     0.031 A 
ATOM     53  C   UNL     1      17.040  -1.815 -11.723  1.00  0.00     0.131 A 
ATOM     54  C   UNL     1      18.809   0.219 -12.332  1.00  0.00     0.055 A 
ATOM     55  C   UNL     1      18.349  -1.880 -11.248  1.00  0.00     0.041 A 
ATOM     56  F   UNL     1      16.200  -2.807 -11.387  1.00  0.00    -0.206 F 
ATOM     57  C   UNL     1      19.242  -0.858 -11.553  1.00  0.00     0.022 A 
BRANCH  54  58
ATOM     58  S   UNL     1      19.963   1.556 -12.745  1.00  0.00     0.124 S 
ATOM     59  O   UNL     1      20.125   1.374 -14.184  1.00  0.00    -0.237 OA
ATOM     60  O   UNL     1      19.224   2.743 -12.326  1.00  0.00    -0.237 OA
ATOM     61  O   UNL     1      21.142   1.247 -11.939  1.00  0.00    -0.744 OA
ENDBRANCH  54  58
ENDBRANCH  27  51
BRANCH  39  62
ATOM     62  C   UNL     1      12.995  -1.374 -18.440  1.00  0.00     0.023 A 
ATOM     63  C   UNL     1      13.344  -2.678 -18.829  1.00  0.00     0.031 A 
ATOM     64  C   UNL     1      13.009  -0.358 -19.411  1.00  0.00     0.131 A 
ATOM     65  C   UNL     1      13.718  -2.928 -20.157  1.00  0.00     0.055 A 
ATOM     66  C   UNL     1      13.344  -0.621 -20.738  1.00  0.00     0.041 A 
ATOM     67  F   UNL     1      12.681   0.902 -19.083  1.00  0.00    -0.206 F 
ATOM     68  C   UNL     1      13.704  -1.911 -21.117  1.00  0.00     0.022 A 
BRANCH  65  69
ATOM     69  S   UNL     1      14.240  -4.602 -20.619  1.00  0.00     0.124 S 
ATOM     70  O   UNL     1      15.511  -4.726 -19.912  1.00  0.00    -0.237 OA
ATOM     71  O   UNL     1      13.148  -5.428 -20.115  1.00  0.00    -0.237 OA
ATOM     72  O   UNL     1      14.343  -4.538 -22.076  1.00  0.00    -0.744 OA
ENDBRANCH  65  69
ENDBRANCH  39  62
ENDBRANCH  13  14
ENDBRANCH   6   8
ENDBRANCH   3   4
ENDBRANCH   2   3
ENDBRANCH   1   2
BRANCH   1  73
ATOM     73  C   UNL     1       9.795   6.710  -4.296  1.00  0.00     0.116 C 
BRANCH  73  74
ATOM     74  N   UNL     1       9.989   7.825  -5.201  1.00  0.00    -0.354 N 
ATOM     75  C   UNL     1       9.913   9.170  -5.039  1.00  0.00     0.244 C 
ATOM     76  H   UNL     1      10.223   7.552  -6.117  1.00  0.00     0.163 HD
ATOM     77  O   UNL     1      10.206   9.863  -6.022  1.00  0.00    -0.273 OA
BRANCH  75  78
ATOM     78  C   UNL     1       9.441   9.875  -3.747  1.00  0.00     0.197 C 
BRANCH  78  79
ATOM     79  N   UNL     1       9.239   9.081  -2.536  1.00  0.00    -0.340 N 
ATOM     80  C   UNL     1       8.134   8.619  -1.893  1.00  0.00     0.244 C 
ATOM     81  H   UNL     1      10.081   8.828  -2.092  1.00  0.00     0.164 HD
ATOM     82  O   UNL     1       8.369   7.888  -0.923  1.00  0.00    -0.273 OA
BRANCH  80  83
ATOM     83  C   UNL     1       6.687   9.113  -2.166  1.00  0.00     0.181 C 
BRANCH  83  84
ATOM     84  N   UNL     1       6.397   9.471  -3.553  1.00  0.00    -0.339 N 
ATOM     85  C   UNL     1       5.980  10.652  -4.114  1.00  0.00     0.251 C 
ATOM     86  H   UNL     1       6.522   8.737  -4.197  1.00  0.00     0.164 HD
ATOM     87  O   UNL     1       5.598  10.632  -5.282  1.00  0.00    -0.269 OA
BRANCH  85  88
ATOM     88  C   UNL     1       5.986  11.947  -3.382  1.00  0.00     0.040 A 
ATOM     89  C   UNL     1       6.983  12.315  -2.470  1.00  0.00     0.017 A 
ATOM     90  C   UNL     1       5.002  12.886  -3.729  1.00  0.00     0.017 A 
ATOM     91  C   UNL     1       6.974  13.582  -1.882  1.00  0.00     0.040 A 
ATOM     92  C   UNL     1       4.998  14.156  -3.148  1.00  0.00     0.040 A 
ATOM     93  C   UNL     1       5.981  14.491  -2.225  1.00  0.00     0.123 A 
ATOM     94  F   UNL     1       5.984  15.710  -1.672  1.00  0.00    -0.207 F 
ENDBRANCH  85  88
ENDBRANCH  83  84
BRANCH  83  95
ATOM     95  C   UNL     1       5.707   8.027  -1.663  1.00  0.00     0.101 C 
BRANCH  95  96
ATOM     96  S   UNL     1       3.953   8.533  -1.751  1.00  0.00    -0.177 SA
ATOM     97  H   UNL     1       3.753   9.615  -0.952  1.00  0.00     0.102 HD
ENDBRANCH  95  96
ENDBRANCH  83  95
ENDBRANCH  80  83
ENDBRANCH  78  79
BRANCH  78  98
ATOM     98  C   UNL     1      10.445  11.016  -3.467  1.00  0.00     0.191 C 
BRANCH  98  99
ATOM     99  O   UNL     1      10.125  12.186  -4.218  1.00  0.00    -0.394 OA
ATOM    100  H   UNL     1      10.164  11.983  -5.165  1.00  0.00     0.210 HD
ENDBRANCH  98  99
ENDBRANCH  78  98
ENDBRANCH  75  78
ENDBRANCH  73  74
ENDBRANCH   1  73
TORSDOF 22
