REMARK SMILES Cc1nc2ccc(Cl)cc2cc1C(=O)N1CCC(C(=O)NCCCCNC(=O)c2ccc(-c3c4nc(c(-c5cc(S(=O)(=O)[O-])ccc5F)c5ccc([nH]5)c(-c5cc(S(=O)(=O)[O-])ccc5F)c5nc(c(-c6cc(S(=O)(=O)[O-])ccc6F)c6ccc3[nH]6)C=C5)C=C4)cc2)CC1
REMARK SMILES IDX 24 1 23 2 22 3 21 4 19 5 20 6 18 8 13 9 14 10 15 11 16 12
REMARK SMILES IDX 93 13 17 14 92 15 12 16 1 17 2 18 3 19 4 20 11 21 5 22 10 23
REMARK SMILES IDX 6 24 9 25 7 26 8 27 25 28 26 29 27 30 28 32 29 33 30 34
REMARK SMILES IDX 91 35 31 36 90 37 32 38 33 39 34 40 84 41 35 42 89 43 83 44
REMARK SMILES IDX 85 45 36 46 88 47 82 48 81 49 37 51 69 52 49 53 68 54 50 55
REMARK SMILES IDX 53 56 67 57 86 58 51 59 52 60 66 62 87 63 54 64 38 65 39 66
REMARK SMILES IDX 47 67 40 68 46 69 48 70 45 71 41 72 42 73 43 74 44 75 70 76
REMARK SMILES IDX 71 77 79 78 72 79 78 80 80 81 77 82 73 83 74 84 75 85 76 86
REMARK SMILES IDX 55 87 56 88 64 89 57 90 63 91 65 92 62 93 58 94 59 95 60 96
REMARK SMILES IDX 61 97
REMARK H PARENT 21 7 26 31 85 50 53 61
REMARK Flexibility Score: inf
ROOT
ATOM      1  C   UNL     1      -7.700  -8.374   0.864  1.00  0.00     0.023 C 
ENDROOT
BRANCH   1   2
ATOM      2  C   UNL     1      -6.826  -7.173   0.519  1.00  0.00     0.023 C 
BRANCH   2   3
ATOM      3  C   UNL     1      -5.740  -6.864   1.546  1.00  0.00     0.116 C 
BRANCH   3   4
ATOM      4  N   UNL     1      -4.707  -7.887   1.575  1.00  0.00    -0.356 N 
ATOM      5  C   UNL     1      -3.400  -7.841   1.201  1.00  0.00     0.223 C 
ATOM      6  O   UNL     1      -2.723  -8.866   1.311  1.00  0.00    -0.275 OA
ATOM      7  H   UNL     1      -5.004  -8.759   1.923  1.00  0.00     0.163 HD
BRANCH   5   8
ATOM      8  C   UNL     1      -2.769  -6.565   0.666  1.00  0.00     0.082 C 
ATOM      9  C   UNL     1      -3.434  -2.493  -0.351  1.00  0.00     0.255 C 
ATOM     10  O   UNL     1      -4.434  -2.287  -1.035  1.00  0.00    -0.269 OA
ATOM     11  N   UNL     1      -3.001  -3.781  -0.027  1.00  0.00    -0.339 N 
ATOM     12  C   UNL     1      -2.994  -4.758  -1.102  1.00  0.00     0.120 C 
ATOM     13  C   UNL     1      -2.264  -4.131   1.187  1.00  0.00     0.120 C 
ATOM     14  C   UNL     1      -3.420  -6.136  -0.652  1.00  0.00     0.035 C 
ATOM     15  C   UNL     1      -2.699  -5.477   1.747  1.00  0.00     0.035 C 
BRANCH   9  16
ATOM     16  C   UNL     1      -2.525  -1.356  -0.051  1.00  0.00     0.061 A 
ATOM     17  C   UNL     1      -4.410   0.338   0.224  1.00  0.00     0.067 C 
ATOM     18  C   UNL     1      -2.960  -0.048   0.160  1.00  0.00     0.051 A 
ATOM     19  N   UNL     1      -2.084   0.999   0.252  1.00  0.00    -0.252 NA
ATOM     20  C   UNL     1      -0.762   0.771   0.139  1.00  0.00     0.071 A 
ATOM     21  C   UNL     1      -1.149  -1.571  -0.178  1.00  0.00     0.026 A 
ATOM     22  C   UNL     1       0.144   1.823   0.189  1.00  0.00     0.030 A 
ATOM     23  C   UNL     1      -0.245  -0.520  -0.057  1.00  0.00     0.002 A 
ATOM     24  C   UNL     1       1.525   1.613   0.078  1.00  0.00     0.023 A 
ATOM     25  C   UNL     1       1.136  -0.748  -0.155  1.00  0.00     0.030 A 
ATOM     26  C   UNL     1       2.016   0.322  -0.081  1.00  0.00     0.041 A 
ATOM     27  Cl  UNL     1       3.708   0.045  -0.194  1.00  0.00    -0.084 Cl
ENDBRANCH   9  16
ENDBRANCH   5   8
ENDBRANCH   3   4
ENDBRANCH   2   3
ENDBRANCH   1   2
BRANCH   1  28
ATOM     28  C   UNL     1      -8.341  -8.323   2.244  1.00  0.00     0.116 C 
BRANCH  28  29
ATOM     29  N   UNL     1      -9.131  -7.122   2.460  1.00  0.00    -0.352 N 
ATOM     30  C   UNL     1     -10.354  -7.002   3.073  1.00  0.00     0.251 C 
ATOM     31  H   UNL     1      -8.737  -6.285   2.124  1.00  0.00     0.163 HD
ATOM     32  O   UNL     1     -10.947  -5.927   3.050  1.00  0.00    -0.269 OA
BRANCH  30  33
ATOM     33  C   UNL     1     -10.959  -8.184   3.720  1.00  0.00     0.039 A 
ATOM     34  C   UNL     1     -12.303  -8.475   3.477  1.00  0.00     0.014 A 
ATOM     35  C   UNL     1     -10.194  -9.016   4.542  1.00  0.00     0.014 A 
ATOM     36  C   UNL     1     -12.866  -9.630   4.021  1.00  0.00     0.010 A 
ATOM     37  C   UNL     1     -10.732 -10.209   5.010  1.00  0.00     0.010 A 
ATOM     38  C   UNL     1     -12.079 -10.519   4.771  1.00  0.00    -0.014 A 
BRANCH  38  39
ATOM     39  C   UNL     1     -12.661 -11.751   5.362  1.00  0.00     0.031 A 
ATOM     40  C   UNL     1     -12.704 -11.911   6.857  1.00  0.00     0.074 A 
ATOM     41  C   UNL     1     -13.091 -12.743   4.560  1.00  0.00     0.049 A 
ATOM     42  N   UNL     1     -13.109 -12.928   7.574  1.00  0.00    -0.248 NA
ATOM     43  C   UNL     1     -12.179 -10.789   7.649  1.00  0.00     0.031 C 
ATOM     44  C   UNL     1     -13.046 -12.728   3.096  1.00  0.00     0.029 A 
ATOM     45  N   UNL     1     -13.645 -13.961   4.863  1.00  0.00    -0.354 N 
ATOM     46  C   UNL     1     -12.870 -12.575   8.898  1.00  0.00     0.074 A 
ATOM     47  C   UNL     1     -12.207 -11.288   8.873  1.00  0.00     0.031 C 
ATOM     48  C   UNL     1     -13.571 -13.872   2.630  1.00  0.00     0.029 A 
ATOM     49  C   UNL     1     -13.959 -14.715   3.757  1.00  0.00     0.049 A 
ATOM     50  H   UNL     1     -13.802 -14.266   5.785  1.00  0.00     0.167 HD
ATOM     51  C   UNL     1     -13.202 -13.244  10.031  1.00  0.00     0.034 A 
ATOM     52  C   UNL     1     -14.495 -15.947   3.663  1.00  0.00     0.034 A 
ATOM     53  C   UNL     1     -13.872 -14.522  10.031  1.00  0.00     0.049 A 
ATOM     54  C   UNL     1     -14.872 -16.673   4.929  1.00  0.00     0.074 A 
ATOM     55  C   UNL     1     -14.299 -15.276  11.110  1.00  0.00     0.029 A 
ATOM     56  N   UNL     1     -14.210 -15.242   8.889  1.00  0.00    -0.354 N 
ATOM     57  N   UNL     1     -14.693 -16.306   6.177  1.00  0.00    -0.248 NA
ATOM     58  C   UNL     1     -15.545 -17.967   4.771  1.00  0.00     0.031 C 
ATOM     59  C   UNL     1     -14.836 -16.475  10.625  1.00  0.00     0.029 A 
ATOM     60  C   UNL     1     -14.819 -16.437   9.239  1.00  0.00     0.049 A 
ATOM     61  H   UNL     1     -14.040 -14.945   7.966  1.00  0.00     0.167 HD
ATOM     62  C   UNL     1     -15.262 -17.311   6.954  1.00  0.00     0.074 A 
ATOM     63  C   UNL     1     -15.799 -18.291   6.030  1.00  0.00     0.031 C 
ATOM     64  C   UNL     1     -15.341 -17.412   8.307  1.00  0.00     0.034 A 
BRANCH  51  65
ATOM     65  C   UNL     1     -12.812 -12.604  11.346  1.00  0.00     0.023 A 
ATOM     66  C   UNL     1     -13.278 -11.327  11.711  1.00  0.00     0.031 A 
ATOM     67  C   UNL     1     -11.902 -13.238  12.210  1.00  0.00     0.131 A 
ATOM     68  C   UNL     1     -12.747 -10.681  12.837  1.00  0.00     0.055 A 
ATOM     69  C   UNL     1     -11.457 -12.630  13.387  1.00  0.00     0.041 A 
ATOM     70  F   UNL     1     -11.404 -14.448  11.912  1.00  0.00    -0.206 F 
ATOM     71  C   UNL     1     -11.860 -11.334  13.694  1.00  0.00     0.022 A 
BRANCH  68  72
ATOM     72  S   UNL     1     -13.078  -8.909  13.049  1.00  0.00     0.124 S 
ATOM     73  O   UNL     1     -12.572  -8.362  11.792  1.00  0.00    -0.237 OA
ATOM     74  O   UNL     1     -14.525  -8.876  13.224  1.00  0.00    -0.237 OA
ATOM     75  O   UNL     1     -12.297  -8.553  14.232  1.00  0.00    -0.744 OA
ENDBRANCH  68  72
ENDBRANCH  51  65
BRANCH  52  76
ATOM     76  C   UNL     1     -14.720 -16.564   2.326  1.00  0.00     0.023 A 
ATOM     77  C   UNL     1     -16.016 -16.784   1.835  1.00  0.00     0.031 A 
ATOM     78  C   UNL     1     -13.633 -16.947   1.519  1.00  0.00     0.131 A 
ATOM     79  C   UNL     1     -16.195 -17.403   0.588  1.00  0.00     0.055 A 
ATOM     80  C   UNL     1     -13.816 -17.522   0.261  1.00  0.00     0.041 A 
ATOM     81  F   UNL     1     -12.373 -16.746   1.938  1.00  0.00    -0.206 F 
ATOM     82  C   UNL     1     -15.104 -17.762  -0.207  1.00  0.00     0.022 A 
BRANCH  79  83
ATOM     83  S   UNL     1     -17.882 -17.781   0.038  1.00  0.00     0.124 S 
ATOM     84  O   UNL     1     -18.342 -18.684   1.087  1.00  0.00    -0.237 OA
ATOM     85  O   UNL     1     -18.497 -16.457   0.015  1.00  0.00    -0.237 OA
ATOM     86  O   UNL     1     -17.683 -18.395  -1.273  1.00  0.00    -0.744 OA
ENDBRANCH  79  83
ENDBRANCH  52  76
BRANCH  64  87
ATOM     87  C   UNL     1     -16.085 -18.603   8.862  1.00  0.00     0.023 A 
ATOM     88  C   UNL     1     -15.617 -19.918   8.696  1.00  0.00     0.031 A 
ATOM     89  C   UNL     1     -17.297 -18.416   9.551  1.00  0.00     0.131 A 
ATOM     90  C   UNL     1     -16.388 -20.998   9.154  1.00  0.00     0.055 A 
ATOM     91  C   UNL     1     -18.027 -19.489  10.061  1.00  0.00     0.041 A 
ATOM     92  F   UNL     1     -17.794 -17.182   9.737  1.00  0.00    -0.206 F 
ATOM     93  C   UNL     1     -17.582 -20.791   9.850  1.00  0.00     0.022 A 
BRANCH  90  94
ATOM     94  S   UNL     1     -15.867 -22.683   8.729  1.00  0.00     0.124 S 
ATOM     95  O   UNL     1     -15.784 -22.617   7.273  1.00  0.00    -0.237 OA
ATOM     96  O   UNL     1     -14.596 -22.803   9.435  1.00  0.00    -0.237 OA
ATOM     97  O   UNL     1     -16.948 -23.517   9.251  1.00  0.00    -0.744 OA
ENDBRANCH  90  94
ENDBRANCH  64  87
ENDBRANCH  38  39
ENDBRANCH  30  33
ENDBRANCH  28  29
ENDBRANCH   1  28
TORSDOF 15
