REMARK SMILES O=C(Cc1ccccc1[N+](=O)[O-])N[C@@H]1C=C[C@H](C(=O)NCCCCNC(=O)c2ccc(-c3c4nc(c(-c5cc(S(=O)(=O)[O-])ccc5F)c5ccc([nH]5)c(-c5cc(S(=O)(=O)[O-])ccc5F)c5nc(c(-c6cc(S(=O)(=O)[O-])ccc6F)c6ccc3[nH]6)C=C5)C=C4)cc2)C1
REMARK SMILES IDX 22 1 21 2 20 3 18 4 19 5 17 7 14 8 15 9 91 10 16 11 13 12
REMARK SMILES IDX 1 13 2 14 3 16 4 17 5 18 9 19 6 20 8 21 7 22 10 23 11 24
REMARK SMILES IDX 12 25 23 26 24 27 25 28 26 29 27 31 28 32 29 33 90 34 30 35
REMARK SMILES IDX 89 36 31 37 32 38 33 39 83 40 34 41 88 42 82 43 84 44 35 45
REMARK SMILES IDX 87 46 81 47 80 48 36 50 68 51 48 52 67 53 49 54 52 55 66 56
REMARK SMILES IDX 85 57 50 58 51 59 65 61 86 62 53 63 37 64 38 65 46 66 39 67
REMARK SMILES IDX 45 68 47 69 44 70 40 71 41 72 42 73 43 74 69 75 70 76 78 77
REMARK SMILES IDX 71 78 77 79 79 80 76 81 72 82 73 83 74 84 75 85 54 86 55 87
REMARK SMILES IDX 63 88 56 89 62 90 64 91 61 92 57 93 58 94 59 95 60 96
REMARK H PARENT 20 6 13 15 25 30 84 49 52 60
REMARK Flexibility Score: inf
ROOT
ATOM      1  C   UNL     1      -0.863  -0.867   4.910  1.00  0.00     0.023 C 
ENDROOT
BRANCH   1   2
ATOM      2  C   UNL     1       0.311   0.090   4.908  1.00  0.00     0.116 C 
BRANCH   2   3
ATOM      3  N   UNL     1       1.287  -0.201   5.918  1.00  0.00    -0.356 N 
ATOM      4  C   UNL     1       2.572  -0.617   5.783  1.00  0.00     0.227 C 
ATOM      5  O   UNL     1       3.192  -0.837   6.831  1.00  0.00    -0.274 OA
ATOM      6  H   UNL     1       0.980  -0.080   6.845  1.00  0.00     0.163 HD
BRANCH   4   7
ATOM      7  C   UNL     1       3.246  -0.905   4.428  1.00  0.00     0.103 C 
ATOM      8  C   UNL     1       2.456  -0.915   2.051  1.00  0.00     0.106 C 
ATOM      9  C   UNL     1       2.487  -2.273   2.676  1.00  0.00    -0.006 C 
ATOM     10  C   UNL     1       3.024  -0.011   3.187  1.00  0.00     0.047 C 
ATOM     11  C   UNL     1       2.895  -2.274   3.947  1.00  0.00    -0.016 C 
BRANCH   8  12
ATOM     12  N   UNL     1       1.092  -0.610   1.620  1.00  0.00    -0.350 N 
ATOM     13  O   UNL     1       0.908  -2.383   0.165  1.00  0.00    -0.275 OA
ATOM     14  C   UNL     1       0.415  -1.383   0.682  1.00  0.00     0.225 C 
ATOM     15  H   UNL     1       0.636   0.171   2.007  1.00  0.00     0.164 HD
BRANCH  14  16
ATOM     16  C   UNL     1      -1.011  -0.937   0.349  1.00  0.00     0.142 C 
BRANCH  16  17
ATOM     17  C   UNL     1      -2.088  -1.814   0.971  1.00  0.00     0.039 A 
ATOM     18  C   UNL     1      -2.850  -1.244   1.999  1.00  0.00     0.011 A 
ATOM     19  C   UNL     1      -2.394  -3.147   0.643  1.00  0.00     0.273 A 
ATOM     20  C   UNL     1      -3.780  -1.964   2.753  1.00  0.00     0.001 A 
ATOM     21  C   UNL     1      -3.315  -3.893   1.417  1.00  0.00     0.086 A 
ATOM     22  C   UNL     1      -3.987  -3.305   2.487  1.00  0.00     0.007 A 
BRANCH  19  23
ATOM     23  N   UNL     1      -1.879  -3.791  -0.571  1.00  0.00     0.063 N 
ATOM     24  O   UNL     1      -1.813  -5.029  -0.578  1.00  0.00    -0.258 OA
ATOM     25  O   UNL     1      -1.634  -3.071  -1.548  1.00  0.00    -0.258 OA
ENDBRANCH  19  23
ENDBRANCH  16  17
ENDBRANCH  14  16
ENDBRANCH   8  12
ENDBRANCH   4   7
ENDBRANCH   2   3
ENDBRANCH   1   2
BRANCH   1  26
ATOM     26  C   UNL     1      -2.083  -0.383   5.678  1.00  0.00     0.023 C 
BRANCH  26  27
ATOM     27  C   UNL     1      -2.520   1.065   5.446  1.00  0.00     0.116 C 
BRANCH  27  28
ATOM     28  N   UNL     1      -2.697   1.460   4.049  1.00  0.00    -0.352 N 
ATOM     29  C   UNL     1      -3.840   1.785   3.340  1.00  0.00     0.251 C 
ATOM     30  H   UNL     1      -1.864   1.502   3.526  1.00  0.00     0.163 HD
ATOM     31  O   UNL     1      -3.773   1.992   2.136  1.00  0.00    -0.269 OA
BRANCH  29  32
ATOM     32  C   UNL     1      -5.134   1.841   4.041  1.00  0.00     0.039 A 
ATOM     33  C   UNL     1      -6.270   1.210   3.521  1.00  0.00     0.014 A 
ATOM     34  C   UNL     1      -5.192   2.518   5.254  1.00  0.00     0.014 A 
ATOM     35  C   UNL     1      -7.449   1.197   4.274  1.00  0.00     0.010 A 
ATOM     36  C   UNL     1      -6.310   2.384   6.053  1.00  0.00     0.010 A 
ATOM     37  C   UNL     1      -7.463   1.753   5.562  1.00  0.00    -0.014 A 
BRANCH  37  38
ATOM     38  C   UNL     1      -8.661   1.792   6.436  1.00  0.00     0.031 A 
ATOM     39  C   UNL     1      -9.144   3.136   6.918  1.00  0.00     0.074 A 
ATOM     40  C   UNL     1      -9.186   0.652   6.924  1.00  0.00     0.049 A 
ATOM     41  N   UNL     1      -9.952   3.426   7.902  1.00  0.00    -0.248 NA
ATOM     42  C   UNL     1      -8.572   4.314   6.242  1.00  0.00     0.031 C 
ATOM     43  C   UNL     1      -8.770  -0.703   6.556  1.00  0.00     0.029 A 
ATOM     44  N   UNL     1     -10.162   0.455   7.867  1.00  0.00    -0.354 N 
ATOM     45  C   UNL     1      -9.942   4.815   7.996  1.00  0.00     0.074 A 
ATOM     46  C   UNL     1      -8.993   5.299   7.019  1.00  0.00     0.031 C 
ATOM     47  C   UNL     1      -9.493  -1.590   7.259  1.00  0.00     0.029 A 
ATOM     48  C   UNL     1     -10.378  -0.870   8.169  1.00  0.00     0.049 A 
ATOM     49  H   UNL     1     -10.661   1.192   8.288  1.00  0.00     0.167 HD
ATOM     50  C   UNL     1     -10.677   5.611   8.809  1.00  0.00     0.034 A 
ATOM     51  C   UNL     1     -11.180  -1.433   9.094  1.00  0.00     0.034 A 
ATOM     52  C   UNL     1     -11.648   5.097   9.742  1.00  0.00     0.049 A 
ATOM     53  C   UNL     1     -12.004  -0.529   9.978  1.00  0.00     0.074 A 
ATOM     54  C   UNL     1     -12.515   5.800  10.558  1.00  0.00     0.029 A 
ATOM     55  N   UNL     1     -11.882   3.748   9.979  1.00  0.00    -0.354 N 
ATOM     56  N   UNL     1     -12.021   0.784  10.031  1.00  0.00    -0.248 NA
ATOM     57  C   UNL     1     -12.921  -1.182  10.919  1.00  0.00     0.031 C 
ATOM     58  C   UNL     1     -13.219   4.878  11.339  1.00  0.00     0.029 A 
ATOM     59  C   UNL     1     -12.858   3.598  10.950  1.00  0.00     0.049 A 
ATOM     60  H   UNL     1     -11.420   3.006   9.524  1.00  0.00     0.167 HD
ATOM     61  C   UNL     1     -12.979   1.113  10.987  1.00  0.00     0.074 A 
ATOM     62  C   UNL     1     -13.523  -0.140  11.473  1.00  0.00     0.031 C 
ATOM     63  C   UNL     1     -13.379   2.336  11.422  1.00  0.00     0.034 A 
BRANCH  50  64
ATOM     64  C   UNL     1     -10.442   7.102   8.734  1.00  0.00     0.023 A 
ATOM     65  C   UNL     1     -10.646   7.828   7.546  1.00  0.00     0.031 A 
ATOM     66  C   UNL     1      -9.979   7.808   9.859  1.00  0.00     0.131 A 
ATOM     67  C   UNL     1     -10.308   9.188   7.487  1.00  0.00     0.055 A 
ATOM     68  C   UNL     1      -9.734   9.182   9.819  1.00  0.00     0.041 A 
ATOM     69  F   UNL     1      -9.738   7.169  11.015  1.00  0.00    -0.206 F 
ATOM     70  C   UNL     1      -9.882   9.878   8.623  1.00  0.00     0.022 A 
BRANCH  67  71
ATOM     71  S   UNL     1     -10.286  10.003   5.866  1.00  0.00     0.124 S 
ATOM     72  O   UNL     1      -9.307   9.193   5.145  1.00  0.00    -0.237 OA
ATOM     73  O   UNL     1     -11.670   9.871   5.428  1.00  0.00    -0.237 OA
ATOM     74  O   UNL     1      -9.853  11.364   6.173  1.00  0.00    -0.744 OA
ENDBRANCH  67  71
ENDBRANCH  50  64
BRANCH  51  75
ATOM     75  C   UNL     1     -11.248  -2.916   9.233  1.00  0.00     0.023 A 
ATOM     76  C   UNL     1     -12.434  -3.609   8.943  1.00  0.00     0.031 A 
ATOM     77  C   UNL     1     -10.141  -3.662   9.673  1.00  0.00     0.131 A 
ATOM     78  C   UNL     1     -12.500  -4.997   9.137  1.00  0.00     0.055 A 
ATOM     79  C   UNL     1     -10.195  -5.051   9.813  1.00  0.00     0.041 A 
ATOM     80  F   UNL     1      -8.979  -3.052   9.957  1.00  0.00    -0.206 F 
ATOM     81  C   UNL     1     -11.385  -5.725   9.555  1.00  0.00     0.022 A 
BRANCH  78  82
ATOM     82  S   UNL     1     -14.096  -5.828   8.909  1.00  0.00     0.124 S 
ATOM     83  O   UNL     1     -14.938  -5.120   9.865  1.00  0.00    -0.237 OA
ATOM     84  O   UNL     1     -14.370  -5.573   7.499  1.00  0.00    -0.237 OA
ATOM     85  O   UNL     1     -13.805  -7.221   9.243  1.00  0.00    -0.744 OA
ENDBRANCH  78  82
ENDBRANCH  51  75
BRANCH  63  86
ATOM     86  C   UNL     1     -14.494   2.372  12.437  1.00  0.00     0.023 A 
ATOM     87  C   UNL     1     -14.328   1.867  13.738  1.00  0.00     0.031 A 
ATOM     88  C   UNL     1     -15.742   2.922  12.094  1.00  0.00     0.131 A 
ATOM     89  C   UNL     1     -15.412   1.866  14.628  1.00  0.00     0.055 A 
ATOM     90  C   UNL     1     -16.794   2.983  13.007  1.00  0.00     0.041 A 
ATOM     91  F   UNL     1     -15.955   3.417  10.864  1.00  0.00    -0.206 F 
ATOM     92  C   UNL     1     -16.637   2.440  14.278  1.00  0.00     0.022 A 
BRANCH  89  93
ATOM     93  S   UNL     1     -15.230   1.009  16.215  1.00  0.00     0.124 S 
ATOM     94  O   UNL     1     -14.888  -0.345  15.790  1.00  0.00    -0.237 OA
ATOM     95  O   UNL     1     -14.159   1.765  16.857  1.00  0.00    -0.237 OA
ATOM     96  O   UNL     1     -16.546   1.151  16.834  1.00  0.00    -0.744 OA
ENDBRANCH  89  93
ENDBRANCH  63  86
ENDBRANCH  37  38
ENDBRANCH  29  32
ENDBRANCH  27  28
ENDBRANCH  26  27
ENDBRANCH   1  26
TORSDOF 18
