REMARK SMILES O=C(C[N@@H+]1C[C@@]2([N+](=O)[O-])CC=C(Cl)[C@@]([N+](=O)[O-])(C1)C2)NCCCCNC(=O)c1ccc(-c2c3nc(c(-c4cc(S(=O)(=O)[O-])ccc4F)c4ccc([nH]4)c(-c4cc(S(=O)(=O)[O-])ccc4F)c4nc(c(-c5cc(S(=O)(=O)[O-])ccc5F)c5ccc2[nH]5)C=C4)C=C3)cc1
REMARK SMILES IDX 23 1 22 2 21 3 20 4 1 5 2 6 3 8 4 9 5 10 18 11 6 13 14 14
REMARK SMILES IDX 10 15 19 16 12 17 11 18 13 19 7 20 8 21 9 22 15 23 16 24
REMARK SMILES IDX 17 25 24 26 25 27 26 28 27 30 28 31 29 32 90 33 30 34 89 35
REMARK SMILES IDX 31 36 32 37 33 38 83 39 34 40 88 41 82 42 84 43 35 44 87 45
REMARK SMILES IDX 81 46 80 47 36 49 68 50 48 51 67 52 49 53 52 54 66 55 85 56
REMARK SMILES IDX 50 57 51 58 65 60 86 61 53 62 37 63 38 64 46 65 39 66 45 67
REMARK SMILES IDX 47 68 44 69 40 70 41 71 42 72 43 73 69 74 70 75 78 76 71 77
REMARK SMILES IDX 77 78 79 79 76 80 72 81 73 82 74 83 75 84 54 85 55 86 63 87
REMARK SMILES IDX 56 88 62 89 64 90 61 91 57 92 58 93 59 94 60 95
REMARK H PARENT 20 7 4 12 25 29 84 48 52 59
REMARK Flexibility Score: inf
ROOT
ATOM      1  C   UNL     1       3.862   3.895   1.024  1.00  0.00     0.023 C 
ENDROOT
BRANCH   1   2
ATOM      2  C   UNL     1       2.360   3.593   1.083  1.00  0.00     0.023 C 
BRANCH   2   3
ATOM      3  C   UNL     1       1.868   2.511   0.125  1.00  0.00     0.116 C 
BRANCH   3   4
ATOM      4  N   UNL     1       2.447   1.213   0.403  1.00  0.00    -0.351 N 
ATOM      5  O   UNL     1       0.775  -0.017  -0.601  1.00  0.00    -0.269 OA
ATOM      6  C   UNL     1       1.872   0.040  -0.054  1.00  0.00     0.275 C 
ATOM      7  H   UNL     1       3.275   1.164   0.934  1.00  0.00     0.163 HD
BRANCH   6   8
ATOM      8  C   UNL     1       2.792  -1.178   0.079  1.00  0.00     0.363 C 
BRANCH   8   9
ATOM      9  N   UNL     1       3.714  -1.365  -1.068  1.00  0.00    -0.315 N 
ATOM     10  C   UNL     1       3.932  -0.182  -1.921  1.00  0.00     0.350 C 
ATOM     11  C   UNL     1       3.400  -2.574  -1.871  1.00  0.00     0.356 C 
ATOM     12  H   UNL     1       4.615  -1.516  -0.614  1.00  0.00     0.348 HD
ATOM     13  C   UNL     1       5.000  -0.413  -3.011  1.00  0.00     0.280 C 
ATOM     14  C   UNL     1       4.492  -2.842  -2.950  1.00  0.00     0.311 C 
ATOM     15  C   UNL     1       6.420  -0.652  -2.433  1.00  0.00     0.121 C 
ATOM     16  C   UNL     1       4.586  -1.610  -3.880  1.00  0.00     0.191 C 
ATOM     17  C   UNL     1       5.840  -3.092  -2.287  1.00  0.00     0.097 C 
ATOM     18  C   UNL     1       6.707  -2.089  -2.057  1.00  0.00     0.004 C 
ATOM     19  Cl  UNL     1       6.219  -4.680  -1.715  1.00  0.00    -0.081 Cl
BRANCH  13  20
ATOM     20  N   UNL     1       5.016   0.870  -3.828  1.00  0.00     0.032 N 
ATOM     21  O   UNL     1       5.675   1.818  -3.381  1.00  0.00    -0.264 OA
ATOM     22  O   UNL     1       4.303   0.916  -4.838  1.00  0.00    -0.264 OA
ENDBRANCH  13  20
BRANCH  14  23
ATOM     23  N   UNL     1       4.096  -4.038  -3.810  1.00  0.00     0.038 N 
ATOM     24  O   UNL     1       3.121  -4.716  -3.455  1.00  0.00    -0.263 OA
ATOM     25  O   UNL     1       4.762  -4.250  -4.834  1.00  0.00    -0.263 OA
ENDBRANCH  14  23
ENDBRANCH   8   9
ENDBRANCH   6   8
ENDBRANCH   3   4
ENDBRANCH   2   3
ENDBRANCH   1   2
BRANCH   1  26
ATOM     26  C   UNL     1       4.381   4.423  -0.313  1.00  0.00     0.116 C 
BRANCH  26  27
ATOM     27  N   UNL     1       3.819   5.720  -0.654  1.00  0.00    -0.352 N 
ATOM     28  C   UNL     1       4.444   6.925  -0.872  1.00  0.00     0.251 C 
ATOM     29  H   UNL     1       2.839   5.738  -0.743  1.00  0.00     0.163 HD
ATOM     30  O   UNL     1       3.758   7.944  -0.960  1.00  0.00    -0.269 OA
BRANCH  28  31
ATOM     31  C   UNL     1       5.920   7.016  -0.968  1.00  0.00     0.039 A 
ATOM     32  C   UNL     1       6.571   8.083  -0.340  1.00  0.00     0.014 A 
ATOM     33  C   UNL     1       6.665   6.078  -1.687  1.00  0.00     0.014 A 
ATOM     34  C   UNL     1       7.967   8.166  -0.371  1.00  0.00     0.010 A 
ATOM     35  C   UNL     1       8.060   6.121  -1.654  1.00  0.00     0.010 A 
ATOM     36  C   UNL     1       8.729   7.163  -0.992  1.00  0.00    -0.014 A 
BRANCH  36  37
ATOM     37  C   UNL     1      10.218   7.186  -0.947  1.00  0.00     0.031 A 
ATOM     38  C   UNL     1      11.017   7.301  -2.219  1.00  0.00     0.074 A 
ATOM     39  C   UNL     1      10.854   7.047   0.234  1.00  0.00     0.049 A 
ATOM     40  N   UNL     1      12.315   7.263  -2.387  1.00  0.00    -0.248 NA
ATOM     41  C   UNL     1      10.255   7.452  -3.467  1.00  0.00     0.031 C 
ATOM     42  C   UNL     1      10.196   6.901   1.535  1.00  0.00     0.029 A 
ATOM     43  N   UNL     1      12.193   7.001   0.538  1.00  0.00    -0.354 N 
ATOM     44  C   UNL     1      12.525   7.377  -3.758  1.00  0.00     0.074 A 
ATOM     45  C   UNL     1      11.217   7.423  -4.377  1.00  0.00     0.031 C 
ATOM     46  C   UNL     1      11.130   6.809   2.494  1.00  0.00     0.029 A 
ATOM     47  C   UNL     1      12.453   6.832   1.880  1.00  0.00     0.049 A 
ATOM     48  H   UNL     1      12.901   7.080  -0.141  1.00  0.00     0.167 HD
ATOM     49  C   UNL     1      13.699   7.454  -4.435  1.00  0.00     0.034 A 
ATOM     50  C   UNL     1      13.621   6.695   2.541  1.00  0.00     0.034 A 
ATOM     51  C   UNL     1      14.996   7.413  -3.804  1.00  0.00     0.049 A 
ATOM     52  C   UNL     1      14.911   6.738   1.759  1.00  0.00     0.074 A 
ATOM     53  C   UNL     1      16.244   7.536  -4.392  1.00  0.00     0.029 A 
ATOM     54  N   UNL     1      15.219   7.225  -2.446  1.00  0.00    -0.354 N 
ATOM     55  N   UNL     1      15.091   6.892   0.467  1.00  0.00    -0.248 NA
ATOM     56  C   UNL     1      16.156   6.596   2.526  1.00  0.00     0.031 C 
ATOM     57  C   UNL     1      17.217   7.340  -3.407  1.00  0.00     0.029 A 
ATOM     58  C   UNL     1      16.581   7.189  -2.186  1.00  0.00     0.049 A 
ATOM     59  H   UNL     1      14.513   7.132  -1.766  1.00  0.00     0.167 HD
ATOM     60  C   UNL     1      16.471   6.904   0.275  1.00  0.00     0.074 A 
ATOM     61  C   UNL     1      17.073   6.756   1.583  1.00  0.00     0.031 C 
ATOM     62  C   UNL     1      17.175   7.032  -0.878  1.00  0.00     0.034 A 
BRANCH  49  63
ATOM     63  C   UNL     1      13.632   7.560  -5.941  1.00  0.00     0.023 A 
ATOM     64  C   UNL     1      13.028   8.658  -6.581  1.00  0.00     0.031 A 
ATOM     65  C   UNL     1      14.171   6.545  -6.751  1.00  0.00     0.131 A 
ATOM     66  C   UNL     1      12.916   8.679  -7.980  1.00  0.00     0.055 A 
ATOM     67  C   UNL     1      14.132   6.614  -8.145  1.00  0.00     0.041 A 
ATOM     68  F   UNL     1      14.742   5.461  -6.200  1.00  0.00    -0.206 F 
ATOM     69  C   UNL     1      13.488   7.678  -8.768  1.00  0.00     0.022 A 
BRANCH  66  70
ATOM     70  S   UNL     1      11.886   9.961  -8.746  1.00  0.00     0.124 S 
ATOM     71  O   UNL     1      10.594   9.721  -8.107  1.00  0.00    -0.237 OA
ATOM     72  O   UNL     1      12.572  11.189  -8.360  1.00  0.00    -0.237 OA
ATOM     73  O   UNL     1      11.938   9.636 -10.170  1.00  0.00    -0.744 OA
ENDBRANCH  66  70
ENDBRANCH  49  63
BRANCH  50  74
ATOM     74  C   UNL     1      13.638   6.485   4.019  1.00  0.00     0.023 A 
ATOM     75  C   UNL     1      14.253   7.412   4.875  1.00  0.00     0.031 A 
ATOM     76  C   UNL     1      13.091   5.323   4.593  1.00  0.00     0.131 A 
ATOM     77  C   UNL     1      14.358   7.136   6.248  1.00  0.00     0.055 A 
ATOM     78  C   UNL     1      13.141   5.084   5.968  1.00  0.00     0.041 A 
ATOM     79  F   UNL     1      12.491   4.401   3.823  1.00  0.00    -0.206 F 
ATOM     80  C   UNL     1      13.792   5.987   6.802  1.00  0.00     0.022 A 
BRANCH  77  81
ATOM     81  S   UNL     1      15.341   8.254   7.285  1.00  0.00     0.124 S 
ATOM     82  O   UNL     1      16.638   8.208   6.620  1.00  0.00    -0.237 OA
ATOM     83  O   UNL     1      14.601   9.506   7.166  1.00  0.00    -0.237 OA
ATOM     84  O   UNL     1      15.291   7.625   8.603  1.00  0.00    -0.744 OA
ENDBRANCH  77  81
ENDBRANCH  50  74
BRANCH  62  85
ATOM     85  C   UNL     1      18.682   7.070  -0.767  1.00  0.00     0.023 A 
ATOM     86  C   UNL     1      19.424   5.962  -0.322  1.00  0.00     0.031 A 
ATOM     87  C   UNL     1      19.384   8.242  -1.103  1.00  0.00     0.131 A 
ATOM     88  C   UNL     1      20.815   6.067  -0.168  1.00  0.00     0.055 A 
ATOM     89  C   UNL     1      20.775   8.318  -1.015  1.00  0.00     0.041 A 
ATOM     90  F   UNL     1      18.729   9.333  -1.529  1.00  0.00    -0.206 F 
ATOM     91  C   UNL     1      21.497   7.231  -0.531  1.00  0.00     0.022 A 
BRANCH  88  92
ATOM     92  S   UNL     1      21.712   4.696   0.610  1.00  0.00     0.124 S 
ATOM     93  O   UNL     1      21.044   4.591   1.903  1.00  0.00    -0.237 OA
ATOM     94  O   UNL     1      21.474   3.598  -0.322  1.00  0.00    -0.237 OA
ATOM     95  O   UNL     1      23.092   5.175   0.662  1.00  0.00    -0.744 OA
ENDBRANCH  88  92
ENDBRANCH  62  85
ENDBRANCH  36  37
ENDBRANCH  28  31
ENDBRANCH  26  27
ENDBRANCH   1  26
TORSDOF 17
