REMARK SMILES Cc1c(Cl)cc2c(c1C)O[C@H](C(F)(F)F)C(C(=O)NCCCCNC(=O)c1ccc(-c3c4nc(c(-c5cc(S(=O)(=O)[O-])ccc5F)c5ccc([nH]5)c(-c5cc(S(=O)(=O)[O-])ccc5F)c5nc(c(-c6cc(S(=O)(=O)[O-])ccc6F)c6ccc3[nH]6)C=C5)C=C4)cc1)=C2
REMARK SMILES IDX 22 1 21 2 20 3 19 4 17 5 18 6 16 8 1 9 2 10 3 11 8 12 4 13
REMARK SMILES IDX 5 14 7 15 9 16 6 17 10 18 90 19 11 20 12 21 13 22 14 23
REMARK SMILES IDX 15 24 23 25 24 26 25 27 26 29 27 30 28 31 89 32 29 33 88 34
REMARK SMILES IDX 30 35 31 36 32 37 82 38 33 39 87 40 81 41 83 42 34 43 86 44
REMARK SMILES IDX 80 45 79 46 35 48 67 49 47 50 66 51 48 52 51 53 65 54 84 55
REMARK SMILES IDX 49 56 50 57 64 59 85 60 52 61 36 62 37 63 45 64 38 65 44 66
REMARK SMILES IDX 46 67 43 68 39 69 40 70 41 71 42 72 68 73 69 74 77 75 70 76
REMARK SMILES IDX 76 77 78 78 75 79 71 80 72 81 73 82 74 83 53 84 54 85 62 86
REMARK SMILES IDX 55 87 61 88 63 89 60 90 56 91 57 92 58 93 59 94
REMARK H PARENT 19 7 24 28 83 47 51 58
REMARK Flexibility Score: inf
ROOT
ATOM      1  C   UNL     1       0.637 -11.001   1.325  1.00  0.00     0.023 C 
ENDROOT
BRANCH   1   2
ATOM      2  C   UNL     1       0.964  -9.508   1.232  1.00  0.00     0.023 C 
BRANCH   2   3
ATOM      3  C   UNL     1       1.341  -9.042  -0.171  1.00  0.00     0.116 C 
BRANCH   3   4
ATOM      4  N   UNL     1       0.173  -8.676  -0.952  1.00  0.00    -0.352 N 
ATOM      5  C   UNL     1      -0.439  -7.532  -1.336  1.00  0.00     0.251 C 
ATOM      6  O   UNL     1      -1.458  -7.680  -2.018  1.00  0.00    -0.270 OA
ATOM      7  H   UNL     1      -0.299  -9.470  -1.292  1.00  0.00     0.163 HD
BRANCH   5   8
ATOM      8  C   UNL     1       0.024  -6.152  -1.001  1.00  0.00     0.067 C 
ATOM      9  C   UNL     1       0.802   0.300  -0.242  1.00  0.00     0.046 C 
ATOM     10  C   UNL     1       0.379  -1.114  -0.546  1.00  0.00    -0.026 A 
ATOM     11  C   UNL     1      -0.722  -1.392  -1.384  1.00  0.00     0.045 A 
ATOM     12  C   UNL     1       1.067  -2.201   0.046  1.00  0.00    -0.004 A 
ATOM     13  Cl  UNL     1      -1.673  -0.139  -2.108  1.00  0.00    -0.084 Cl
ATOM     14  C   UNL     1      -1.107  -2.708  -1.662  1.00  0.00     0.032 A 
ATOM     15  C   UNL     1       0.676  -3.517  -0.268  1.00  0.00     0.131 A 
ATOM     16  C   UNL     1       2.243  -2.012   0.975  1.00  0.00     0.049 C 
ATOM     17  C   UNL     1      -0.404  -3.776  -1.111  1.00  0.00     0.019 A 
ATOM     18  O   UNL     1       1.370  -4.536   0.328  1.00  0.00    -0.475 OA
ATOM     19  C   UNL     1      -0.802  -5.155  -1.371  1.00  0.00     0.025 C 
ATOM     20  C   UNL     1       1.331  -5.827  -0.340  1.00  0.00     0.314 C 
BRANCH  20  21
ATOM     21  C   UNL     1       2.530  -5.940  -1.300  1.00  0.00     0.429 C 
ATOM     22  F   UNL     1       3.695  -5.936  -0.605  1.00  0.00    -0.167 F 
ATOM     23  F   UNL     1       2.515  -7.085  -2.020  1.00  0.00    -0.167 F 
ATOM     24  F   UNL     1       2.586  -4.919  -2.185  1.00  0.00    -0.167 F 
ENDBRANCH  20  21
ENDBRANCH   5   8
ENDBRANCH   3   4
ENDBRANCH   2   3
ENDBRANCH   1   2
BRANCH   1  25
ATOM     25  C   UNL     1       1.727 -11.944   0.817  1.00  0.00     0.116 C 
BRANCH  25  26
ATOM     26  N   UNL     1       3.042 -11.668   1.376  1.00  0.00    -0.352 N 
ATOM     27  C   UNL     1       4.037 -12.563   1.690  1.00  0.00     0.251 C 
ATOM     28  H   UNL     1       3.244 -10.721   1.552  1.00  0.00     0.163 HD
ATOM     29  O   UNL     1       5.060 -12.179   2.247  1.00  0.00    -0.269 OA
BRANCH  27  30
ATOM     30  C   UNL     1       3.832 -13.991   1.384  1.00  0.00     0.039 A 
ATOM     31  C   UNL     1       3.971 -14.927   2.410  1.00  0.00     0.014 A 
ATOM     32  C   UNL     1       3.448 -14.389   0.100  1.00  0.00     0.014 A 
ATOM     33  C   UNL     1       3.661 -16.264   2.164  1.00  0.00     0.010 A 
ATOM     34  C   UNL     1       3.084 -15.712  -0.128  1.00  0.00     0.010 A 
ATOM     35  C   UNL     1       3.185 -16.659   0.903  1.00  0.00    -0.014 A 
BRANCH  35  36
ATOM     36  C   UNL     1       2.813 -18.068   0.633  1.00  0.00     0.031 A 
ATOM     37  C   UNL     1       3.634 -18.880  -0.328  1.00  0.00     0.074 A 
ATOM     38  C   UNL     1       1.720 -18.597   1.216  1.00  0.00     0.049 A 
ATOM     39  N   UNL     1       3.426 -20.091  -0.774  1.00  0.00    -0.248 NA
ATOM     40  C   UNL     1       4.833 -18.231  -0.878  1.00  0.00     0.031 C 
ATOM     41  C   UNL     1       0.837 -17.898   2.153  1.00  0.00     0.029 A 
ATOM     42  N   UNL     1       1.165 -19.846   1.107  1.00  0.00    -0.354 N 
ATOM     43  C   UNL     1       4.462 -20.347  -1.663  1.00  0.00     0.074 A 
ATOM     44  C   UNL     1       5.265 -19.145  -1.734  1.00  0.00     0.031 C 
ATOM     45  C   UNL     1      -0.129 -18.740   2.557  1.00  0.00     0.029 A 
ATOM     46  C   UNL     1       0.041 -20.021   1.880  1.00  0.00     0.049 A 
ATOM     47  H   UNL     1       1.536 -20.552   0.529  1.00  0.00     0.167 HD
ATOM     48  C   UNL     1       4.732 -21.488  -2.342  1.00  0.00     0.034 A 
ATOM     49  C   UNL     1      -0.762 -21.093   2.020  1.00  0.00     0.034 A 
ATOM     50  C   UNL     1       3.938 -22.685  -2.248  1.00  0.00     0.049 A 
ATOM     51  C   UNL     1      -0.459 -22.340   1.233  1.00  0.00     0.074 A 
ATOM     52  C   UNL     1       4.139 -23.905  -2.869  1.00  0.00     0.029 A 
ATOM     53  N   UNL     1       2.790 -22.815  -1.477  1.00  0.00    -0.354 N 
ATOM     54  N   UNL     1       0.517 -22.562   0.384  1.00  0.00    -0.248 NA
ATOM     55  C   UNL     1      -1.369 -23.478   1.419  1.00  0.00     0.031 C 
ATOM     56  C   UNL     1       3.089 -24.758  -2.508  1.00  0.00     0.029 A 
ATOM     57  C   UNL     1       2.263 -24.087  -1.621  1.00  0.00     0.049 A 
ATOM     58  H   UNL     1       2.408 -22.106  -0.910  1.00  0.00     0.167 HD
ATOM     59  C   UNL     1       0.344 -23.869  -0.058  1.00  0.00     0.074 A 
ATOM     60  C   UNL     1      -0.821 -24.390   0.628  1.00  0.00     0.031 C 
ATOM     61  C   UNL     1       1.084 -24.576  -0.948  1.00  0.00     0.034 A 
BRANCH  48  62
ATOM     62  C   UNL     1       5.931 -21.478  -3.252  1.00  0.00     0.023 A 
ATOM     63  C   UNL     1       7.236 -21.382  -2.741  1.00  0.00     0.031 A 
ATOM     64  C   UNL     1       5.768 -21.541  -4.647  1.00  0.00     0.131 A 
ATOM     65  C   UNL     1       8.325 -21.288  -3.619  1.00  0.00     0.055 A 
ATOM     66  C   UNL     1       6.861 -21.516  -5.514  1.00  0.00     0.041 A 
ATOM     67  F   UNL     1       4.542 -21.613  -5.188  1.00  0.00    -0.206 F 
ATOM     68  C   UNL     1       8.149 -21.378  -5.002  1.00  0.00     0.022 A 
BRANCH  65  69
ATOM     69  S   UNL     1       9.968 -20.948  -2.933  1.00  0.00     0.124 S 
ATOM     70  O   UNL     1       9.791 -19.595  -2.410  1.00  0.00    -0.237 OA
ATOM     71  O   UNL     1      10.122 -22.002  -1.937  1.00  0.00    -0.237 OA
ATOM     72  O   UNL     1      10.851 -21.052  -4.092  1.00  0.00    -0.744 OA
ENDBRANCH  65  69
ENDBRANCH  48  62
BRANCH  49  73
ATOM     73  C   UNL     1      -1.934 -21.036   2.934  1.00  0.00     0.023 A 
ATOM     74  C   UNL     1      -1.943 -21.762   4.135  1.00  0.00     0.031 A 
ATOM     75  C   UNL     1      -3.064 -20.264   2.615  1.00  0.00     0.131 A 
ATOM     76  C   UNL     1      -3.074 -21.722   4.965  1.00  0.00     0.055 A 
ATOM     77  C   UNL     1      -4.173 -20.201   3.460  1.00  0.00     0.041 A 
ATOM     78  F   UNL     1      -3.096 -19.544   1.482  1.00  0.00    -0.206 F 
ATOM     79  C   UNL     1      -4.184 -20.938   4.641  1.00  0.00     0.022 A 
BRANCH  76  80
ATOM     80  S   UNL     1      -3.083 -22.728   6.474  1.00  0.00     0.124 S 
ATOM     81  O   UNL     1      -3.056 -24.081   5.928  1.00  0.00    -0.237 OA
ATOM     82  O   UNL     1      -1.867 -22.282   7.146  1.00  0.00    -0.237 OA
ATOM     83  O   UNL     1      -4.330 -22.343   7.131  1.00  0.00    -0.744 OA
ENDBRANCH  76  80
ENDBRANCH  49  73
BRANCH  61  84
ATOM     84  C   UNL     1       0.655 -25.992  -1.219  1.00  0.00     0.023 A 
ATOM     85  C   UNL     1      -0.500 -26.274  -1.968  1.00  0.00     0.031 A 
ATOM     86  C   UNL     1       1.419 -27.069  -0.739  1.00  0.00     0.131 A 
ATOM     87  C   UNL     1      -0.878 -27.606  -2.187  1.00  0.00     0.055 A 
ATOM     88  C   UNL     1       1.062 -28.392  -0.998  1.00  0.00     0.041 A 
ATOM     89  F   UNL     1       2.532 -26.849  -0.020  1.00  0.00    -0.206 F 
ATOM     90  C   UNL     1      -0.096 -28.667  -1.720  1.00  0.00     0.022 A 
BRANCH  87  91
ATOM     91  S   UNL     1      -2.434 -27.938  -3.058  1.00  0.00     0.124 S 
ATOM     92  O   UNL     1      -3.420 -27.384  -2.135  1.00  0.00    -0.237 OA
ATOM     93  O   UNL     1      -2.256 -27.211  -4.311  1.00  0.00    -0.237 OA
ATOM     94  O   UNL     1      -2.452 -29.393  -3.186  1.00  0.00    -0.744 OA
ENDBRANCH  87  91
ENDBRANCH  61  84
ENDBRANCH  35  36
ENDBRANCH  27  30
ENDBRANCH  25  26
ENDBRANCH   1  25
TORSDOF 15
