REMARK SMILES O=C(NCCCCNC(=O)c1ccccc1C[N@H+]1CCCC[C@@H]1CCn1cccn1)c1ccc(-c2c3nc(c(-c4cc(S(=O)(=O)[O-])ccc4F)c4ccc([nH]4)c(-c4cc(S(=O)(=O)[O-])ccc4F)c4nc(c(-c5cc(S(=O)(=O)[O-])ccc5F)c5ccc2[nH]5)C=C4)C=C3)cc1
REMARK SMILES IDX 6 1 5 2 4 3 3 4 1 5 2 6 31 8 32 9 93 10 33 11 92 12 34 13
REMARK SMILES IDX 35 14 36 15 86 16 37 17 91 18 85 19 87 20 38 21 90 22 84 23
REMARK SMILES IDX 83 24 39 26 71 27 51 28 70 29 52 30 55 31 69 32 88 33 53 34
REMARK SMILES IDX 54 35 68 37 89 38 56 39 40 40 41 41 49 42 42 43 48 44 50 45
REMARK SMILES IDX 47 46 43 47 44 48 45 49 46 50 72 51 73 52 81 53 74 54 80 55
REMARK SMILES IDX 82 56 79 57 75 58 76 59 77 60 78 61 57 62 58 63 66 64 59 65
REMARK SMILES IDX 65 66 67 67 64 68 60 69 61 70 62 71 63 72 7 73 8 74 9 75
REMARK SMILES IDX 10 77 11 78 12 79 16 80 13 81 15 82 14 83 17 84 18 85 19 86
REMARK SMILES IDX 23 87 20 89 22 90 21 91 24 92 25 93 26 94 27 95 30 96 28 97
REMARK SMILES IDX 29 98
REMARK H PARENT 3 7 87 25 55 36 8 76 18 88
REMARK Flexibility Score: inf
ROOT
ATOM      1  C   UNL     1       4.489  -0.708   3.399  1.00  0.00     0.023 C 
ENDROOT
BRANCH   1   2
ATOM      2  C   UNL     1       4.934   0.088   2.169  1.00  0.00     0.023 C 
BRANCH   2   3
ATOM      3  C   UNL     1       4.672  -0.554   0.805  1.00  0.00     0.116 C 
BRANCH   3   4
ATOM      4  N   UNL     1       3.288  -0.831   0.479  1.00  0.00    -0.352 N 
ATOM      5  O   UNL     1       1.268  -0.662  -0.417  1.00  0.00    -0.269 OA
ATOM      6  C   UNL     1       2.254  -0.060   0.016  1.00  0.00     0.251 C 
ATOM      7  H   UNL     1       3.037  -1.773   0.619  1.00  0.00     0.163 HD
BRANCH   6   8
ATOM      8  C   UNL     1       2.212   1.423   0.105  1.00  0.00     0.039 A 
ATOM      9  C   UNL     1       3.321   2.265   0.184  1.00  0.00     0.014 A 
ATOM     10  C   UNL     1       0.926   1.993   0.149  1.00  0.00     0.014 A 
ATOM     11  C   UNL     1       3.152   3.623   0.448  1.00  0.00     0.010 A 
ATOM     12  C   UNL     1       0.752   3.351   0.387  1.00  0.00     0.010 A 
ATOM     13  C   UNL     1       1.867   4.159   0.584  1.00  0.00    -0.014 A 
BRANCH  13  14
ATOM     14  C   UNL     1       1.720   5.610   0.707  1.00  0.00     0.031 A 
ATOM     15  C   UNL     1       2.163   6.350  -0.510  1.00  0.00     0.074 A 
ATOM     16  C   UNL     1       1.097   6.231   1.733  1.00  0.00     0.049 A 
ATOM     17  N   UNL     1       3.147   7.180  -0.621  1.00  0.00    -0.248 NA
ATOM     18  C   UNL     1       1.536   6.003  -1.797  1.00  0.00     0.031 C 
ATOM     19  C   UNL     1       0.388   5.619   2.857  1.00  0.00     0.029 A 
ATOM     20  N   UNL     1       0.881   7.565   1.935  1.00  0.00    -0.354 N 
ATOM     21  C   UNL     1       3.120   7.637  -1.937  1.00  0.00     0.074 A 
ATOM     22  C   UNL     1       2.245   6.746  -2.648  1.00  0.00     0.031 C 
ATOM     23  C   UNL     1      -0.367   6.556   3.478  1.00  0.00     0.029 A 
ATOM     24  C   UNL     1      -0.103   7.858   2.881  1.00  0.00     0.049 A 
ATOM     25  H   UNL     1       1.379   8.264   1.453  1.00  0.00     0.167 HD
ATOM     26  C   UNL     1       3.642   8.848  -2.278  1.00  0.00     0.034 A 
ATOM     27  C   UNL     1      -0.699   9.063   3.119  1.00  0.00     0.034 A 
ATOM     28  C   UNL     1       4.522   9.342  -1.246  1.00  0.00     0.049 A 
ATOM     29  C   UNL     1       0.213  10.105   2.585  1.00  0.00     0.074 A 
ATOM     30  C   UNL     1       5.688   8.884  -0.663  1.00  0.00     0.029 A 
ATOM     31  N   UNL     1       4.038  10.308  -0.394  1.00  0.00    -0.354 N 
ATOM     32  N   UNL     1       1.393  10.345   3.088  1.00  0.00    -0.248 NA
ATOM     33  C   UNL     1       0.033  10.523   1.202  1.00  0.00     0.031 C 
ATOM     34  C   UNL     1       5.554   9.211   0.718  1.00  0.00     0.029 A 
ATOM     35  C   UNL     1       4.365   9.924   0.883  1.00  0.00     0.049 A 
ATOM     36  H   UNL     1       3.548  11.122  -0.651  1.00  0.00     0.167 HD
ATOM     37  C   UNL     1       2.220  10.515   1.989  1.00  0.00     0.074 A 
ATOM     38  C   UNL     1       1.312  10.700   0.857  1.00  0.00     0.031 C 
ATOM     39  C   UNL     1       3.549  10.207   2.047  1.00  0.00     0.034 A 
BRANCH  26  40
ATOM     40  C   UNL     1       3.086   9.763  -3.348  1.00  0.00     0.023 A 
ATOM     41  C   UNL     1       3.752  10.988  -3.558  1.00  0.00     0.031 A 
ATOM     42  C   UNL     1       1.804   9.655  -3.933  1.00  0.00     0.131 A 
ATOM     43  C   UNL     1       3.111  12.060  -4.200  1.00  0.00     0.055 A 
ATOM     44  C   UNL     1       1.199  10.703  -4.634  1.00  0.00     0.041 A 
ATOM     45  F   UNL     1       1.025   8.579  -3.780  1.00  0.00    -0.206 F 
ATOM     46  C   UNL     1       1.836  11.926  -4.740  1.00  0.00     0.022 A 
BRANCH  43  47
ATOM     47  S   UNL     1       3.900  13.690  -4.145  1.00  0.00     0.124 S 
ATOM     48  O   UNL     1       4.075  13.881  -2.709  1.00  0.00    -0.237 OA
ATOM     49  O   UNL     1       5.115  13.462  -4.919  1.00  0.00    -0.237 OA
ATOM     50  O   UNL     1       2.914  14.565  -4.776  1.00  0.00    -0.744 OA
ENDBRANCH  43  47
ENDBRANCH  26  40
BRANCH  27  51
ATOM     51  C   UNL     1      -2.138   9.330   3.443  1.00  0.00     0.023 A 
ATOM     52  C   UNL     1      -2.612  10.549   3.989  1.00  0.00     0.031 A 
ATOM     53  C   UNL     1      -3.124   8.437   2.965  1.00  0.00     0.131 A 
ATOM     54  C   UNL     1      -4.005  10.821   4.041  1.00  0.00     0.055 A 
ATOM     55  C   UNL     1      -4.493   8.711   3.017  1.00  0.00     0.041 A 
ATOM     56  F   UNL     1      -2.785   7.296   2.346  1.00  0.00    -0.206 F 
ATOM     57  C   UNL     1      -4.940   9.909   3.547  1.00  0.00     0.022 A 
BRANCH  54  58
ATOM     58  S   UNL     1      -4.639  12.411   4.683  1.00  0.00     0.124 S 
ATOM     59  O   UNL     1      -4.305  12.333   6.099  1.00  0.00    -0.237 OA
ATOM     60  O   UNL     1      -3.900  13.389   3.893  1.00  0.00    -0.237 OA
ATOM     61  O   UNL     1      -6.073  12.352   4.390  1.00  0.00    -0.744 OA
ENDBRANCH  54  58
ENDBRANCH  27  51
BRANCH  39  62
ATOM     62  C   UNL     1       4.178   9.948   3.401  1.00  0.00     0.023 A 
ATOM     63  C   UNL     1       3.763   8.954   4.318  1.00  0.00     0.031 A 
ATOM     64  C   UNL     1       5.341  10.676   3.711  1.00  0.00     0.131 A 
ATOM     65  C   UNL     1       4.505   8.730   5.496  1.00  0.00     0.055 A 
ATOM     66  C   UNL     1       6.084  10.434   4.864  1.00  0.00     0.041 A 
ATOM     67  F   UNL     1       5.800  11.616   2.869  1.00  0.00    -0.206 F 
ATOM     68  C   UNL     1       5.665   9.463   5.765  1.00  0.00     0.022 A 
BRANCH  65  69
ATOM     69  S   UNL     1       3.967   7.487   6.717  1.00  0.00     0.124 S 
ATOM     70  O   UNL     1       2.550   7.777   6.901  1.00  0.00    -0.237 OA
ATOM     71  O   UNL     1       4.281   6.227   6.048  1.00  0.00    -0.237 OA
ATOM     72  O   UNL     1       4.803   7.775   7.886  1.00  0.00    -0.744 OA
ENDBRANCH  65  69
ENDBRANCH  39  62
ENDBRANCH  13  14
ENDBRANCH   6   8
ENDBRANCH   3   4
ENDBRANCH   2   3
ENDBRANCH   1   2
BRANCH   1  73
ATOM     73  C   UNL     1       4.944  -2.159   3.444  1.00  0.00     0.116 C 
BRANCH  73  74
ATOM     74  N   UNL     1       6.384  -2.331   3.352  1.00  0.00    -0.352 N 
ATOM     75  C   UNL     1       7.194  -3.318   3.863  1.00  0.00     0.251 C 
ATOM     76  H   UNL     1       6.854  -1.630   2.844  1.00  0.00     0.163 HD
ATOM     77  O   UNL     1       8.399  -3.289   3.653  1.00  0.00    -0.269 OA
BRANCH  75  78
ATOM     78  C   UNL     1       6.643  -4.401   4.712  1.00  0.00     0.048 A 
ATOM     79  C   UNL     1       7.233  -4.520   5.987  1.00  0.00     0.014 A 
ATOM     80  C   UNL     1       5.655  -5.313   4.292  1.00  0.00     0.019 A 
ATOM     81  C   UNL     1       6.812  -5.500   6.882  1.00  0.00     0.001 A 
ATOM     82  C   UNL     1       5.215  -6.248   5.244  1.00  0.00     0.010 A 
ATOM     83  C   UNL     1       5.788  -6.356   6.513  1.00  0.00     0.001 A 
BRANCH  80  84
ATOM     84  C   UNL     1       5.038  -5.263   2.905  1.00  0.00     0.300 C 
BRANCH  84  85
ATOM     85  N   UNL     1       5.011  -6.478   2.071  1.00  0.00    -0.329 N 
ATOM     86  C   UNL     1       6.382  -6.923   1.784  1.00  0.00     0.262 C 
ATOM     87  C   UNL     1       4.088  -7.568   2.453  1.00  0.00     0.186 C 
ATOM     88  H   UNL     1       4.560  -6.180   1.206  1.00  0.00     0.348 HD
ATOM     89  C   UNL     1       6.415  -7.994   0.702  1.00  0.00     0.062 C 
ATOM     90  C   UNL     1       4.103  -8.660   1.359  1.00  0.00     0.065 C 
ATOM     91  C   UNL     1       5.518  -9.159   1.080  1.00  0.00     0.012 C 
BRANCH  87  92
ATOM     92  C   UNL     1       2.633  -7.063   2.666  1.00  0.00     0.088 C 
BRANCH  92  93
ATOM     93  C   UNL     1       1.672  -8.067   3.311  1.00  0.00     0.150 C 
BRANCH  93  94
ATOM     94  N   UNL     1       2.016  -8.396   4.683  1.00  0.00    -0.273 N 
ATOM     95  C   UNL     1       1.921  -7.576   5.774  1.00  0.00     0.108 A 
ATOM     96  N   UNL     1       2.506  -9.614   4.980  1.00  0.00    -0.182 NA
ATOM     97  C   UNL     1       2.404  -8.299   6.839  1.00  0.00     0.042 A 
ATOM     98  C   UNL     1       2.735  -9.552   6.295  1.00  0.00     0.135 A 
ENDBRANCH  93  94
ENDBRANCH  92  93
ENDBRANCH  87  92
ENDBRANCH  84  85
ENDBRANCH  80  84
ENDBRANCH  75  78
ENDBRANCH  73  74
ENDBRANCH   1  73
TORSDOF 19
