REMARK SMILES COc1ccc(-c2nn(-c3ccccc3)cc2/C=C2\SC(=S)N(CCC(=O)NCCCCNC(=O)c3ccc(-c4c5nc(c(-c6cc(S(=O)(=O)[O-])ccc6F)c6ccc([nH]6)c(-c6cc(S(=O)(=O)[O-])ccc6F)c6nc(c(-c7cc(S(=O)(=O)[O-])ccc7F)c7ccc4[nH]7)C=C6)C=C5)cc3)C2=O)c(C)c1
REMARK SMILES IDX 29 1 28 2 26 3 27 4 25 6 24 7 23 8 18 9 19 10 20 11 99 12
REMARK SMILES IDX 21 13 100 14 22 15 17 16 7 17 8 18 9 19 16 20 6 21 3 22 4 23
REMARK SMILES IDX 103 24 5 25 101 26 102 27 2 28 1 29 10 30 11 31 15 32 12 33
REMARK SMILES IDX 14 34 13 35 30 36 31 37 32 38 33 39 34 40 35 42 36 43 37 44
REMARK SMILES IDX 98 45 38 46 97 47 39 48 40 49 41 50 91 51 42 52 96 53 90 54
REMARK SMILES IDX 92 55 43 56 95 57 89 58 88 59 44 61 76 62 56 63 75 64 57 65
REMARK SMILES IDX 60 66 74 67 93 68 58 69 59 70 73 72 94 73 61 74 45 75 46 76
REMARK SMILES IDX 54 77 47 78 53 79 55 80 52 81 48 82 49 83 50 84 51 85 77 86
REMARK SMILES IDX 78 87 86 88 79 89 85 90 87 91 84 92 80 93 81 94 82 95 83 96
REMARK SMILES IDX 62 97 63 98 71 99 64 100 70 101 72 102 69 103 65 104 66 105
REMARK SMILES IDX 67 106 68 107
REMARK H PARENT 28 5 33 41 92 60 60 71
REMARK Flexibility Score: inf
ROOT
ATOM      1  C   UNL     1       6.716  -2.511  -3.667  1.00  0.00     0.116 C 
ENDROOT
BRANCH   1   2
ATOM      2  N   UNL     1       6.780  -3.942  -3.957  1.00  0.00    -0.356 N 
ATOM      3  C   UNL     1       7.562  -4.610  -4.855  1.00  0.00     0.221 C 
ATOM      4  O   UNL     1       7.545  -5.843  -4.861  1.00  0.00    -0.275 OA
ATOM      5  H   UNL     1       6.171  -4.507  -3.427  1.00  0.00     0.163 HD
BRANCH   3   6
ATOM      6  C   UNL     1       8.460  -3.848  -5.809  1.00  0.00     0.122 C 
BRANCH   6   7
ATOM      7  C   UNL     1       8.107  -4.121  -7.282  1.00  0.00     0.137 C 
BRANCH   7   8
ATOM      8  N   UNL     1       7.024  -3.276  -7.811  1.00  0.00    -0.292 N 
ATOM      9  C   UNL     1       3.442  -2.918  -8.093  1.00  0.00     0.033 C 
ATOM     10  C   UNL     1       4.766  -2.721  -8.265  1.00  0.00     0.081 C 
ATOM     11  S   UNL     1       5.627  -1.287  -8.663  1.00  0.00    -0.054 SA
ATOM     12  C   UNL     1       5.745  -3.796  -7.935  1.00  0.00     0.266 C 
ATOM     13  C   UNL     1       7.186  -1.959  -8.209  1.00  0.00     0.148 C 
ATOM     14  O   UNL     1       5.425  -4.971  -7.798  1.00  0.00    -0.268 OA
ATOM     15  S   UNL     1       8.609  -1.090  -8.299  1.00  0.00    -0.052 S 
BRANCH   9  16
ATOM     16  C   UNL     1       2.361  -1.977  -8.188  1.00  0.00     0.022 A 
ATOM     17  C   UNL     1       1.086  -1.890  -7.486  1.00  0.00     0.100 A 
ATOM     18  N   UNL     1       0.354  -0.891  -8.046  1.00  0.00    -0.167 NA
ATOM     19  N   UNL     1       1.208  -0.216  -8.859  1.00  0.00    -0.240 N 
ATOM     20  C   UNL     1       2.379  -0.896  -9.034  1.00  0.00     0.123 A 
BRANCH  17  21
ATOM     21  C   UNL     1       0.609  -2.603  -6.226  1.00  0.00     0.006 A 
ATOM     22  C   UNL     1       0.091  -3.198  -3.446  1.00  0.00     0.119 A 
ATOM     23  C   UNL     1       1.340  -3.420  -3.987  1.00  0.00     0.047 A 
ATOM     24  C   UNL     1      -0.937  -2.838  -4.314  1.00  0.00     0.050 A 
ATOM     25  C   UNL     1       1.574  -3.163  -5.357  1.00  0.00     0.014 A 
ATOM     26  C   UNL     1      -0.703  -2.518  -5.688  1.00  0.00    -0.038 A 
ATOM     27  C   UNL     1      -1.921  -2.028  -6.422  1.00  0.00     0.045 C 
BRANCH  22  28
ATOM     28  O   UNL     1      -0.228  -3.329  -2.123  1.00  0.00    -0.497 OA
ATOM     29  C   UNL     1       0.735  -2.799  -1.202  1.00  0.00     0.278 C 
ENDBRANCH  22  28
ENDBRANCH  17  21
BRANCH  19  30
ATOM     30  C   UNL     1       0.843   0.875  -9.689  1.00  0.00     0.065 A 
ATOM     31  C   UNL     1       1.546   2.082  -9.590  1.00  0.00     0.028 A 
ATOM     32  C   UNL     1       0.013   0.658 -10.789  1.00  0.00     0.028 A 
ATOM     33  C   UNL     1       1.376   3.097 -10.532  1.00  0.00     0.002 A 
ATOM     34  C   UNL     1      -0.104   1.653 -11.770  1.00  0.00     0.002 A 
ATOM     35  C   UNL     1       0.563   2.875 -11.636  1.00  0.00     0.000 A 
ENDBRANCH  19  30
ENDBRANCH   9  16
ENDBRANCH   7   8
ENDBRANCH   6   7
ENDBRANCH   3   6
ENDBRANCH   1   2
BRANCH   1  36
ATOM     36  C   UNL     1       6.063  -1.703  -4.786  1.00  0.00     0.023 C 
BRANCH  36  37
ATOM     37  C   UNL     1       4.540  -1.697  -4.771  1.00  0.00     0.023 C 
BRANCH  37  38
ATOM     38  C   UNL     1       3.861  -0.347  -4.496  1.00  0.00     0.116 C 
BRANCH  38  39
ATOM     39  N   UNL     1       3.635   0.484  -5.688  1.00  0.00    -0.352 N 
ATOM     40  C   UNL     1       2.655   1.434  -5.940  1.00  0.00     0.251 C 
ATOM     41  H   UNL     1       4.278   0.345  -6.420  1.00  0.00     0.163 HD
ATOM     42  O   UNL     1       2.833   2.308  -6.783  1.00  0.00    -0.269 OA
BRANCH  40  43
ATOM     43  C   UNL     1       1.399   1.531  -5.165  1.00  0.00     0.039 A 
ATOM     44  C   UNL     1       0.924   2.783  -4.764  1.00  0.00     0.014 A 
ATOM     45  C   UNL     1       0.762   0.404  -4.693  1.00  0.00     0.014 A 
ATOM     46  C   UNL     1       0.163   2.870  -3.592  1.00  0.00     0.010 A 
ATOM     47  C   UNL     1      -0.084   0.479  -3.604  1.00  0.00     0.010 A 
ATOM     48  C   UNL     1      -0.132   1.683  -2.908  1.00  0.00    -0.014 A 
BRANCH  48  49
ATOM     49  C   UNL     1       0.316   1.478  -1.508  1.00  0.00     0.031 A 
ATOM     50  C   UNL     1      -0.522   0.964  -0.408  1.00  0.00     0.074 A 
ATOM     51  C   UNL     1       1.661   1.354  -1.335  1.00  0.00     0.049 A 
ATOM     52  N   UNL     1      -0.210   1.114   0.838  1.00  0.00    -0.248 NA
ATOM     53  C   UNL     1      -1.742   0.198  -0.596  1.00  0.00     0.031 C 
ATOM     54  C   UNL     1       2.366   0.699  -0.238  1.00  0.00     0.029 A 
ATOM     55  N   UNL     1       2.697   1.870  -2.110  1.00  0.00    -0.354 N 
ATOM     56  C   UNL     1      -0.920   0.184   1.568  1.00  0.00     0.074 A 
ATOM     57  C   UNL     1      -1.966  -0.229   0.656  1.00  0.00     0.031 C 
ATOM     58  C   UNL     1       3.649   1.086  -0.251  1.00  0.00     0.029 A 
ATOM     59  C   UNL     1       3.811   2.073  -1.298  1.00  0.00     0.049 A 
ATOM     60  H   UNL     1       2.650   2.061  -3.075  1.00  0.00     0.167 HD
ATOM     61  C   UNL     1      -0.443  -0.216   2.792  1.00  0.00     0.034 A 
ATOM     62  C   UNL     1       4.408   3.289  -1.179  1.00  0.00     0.034 A 
ATOM     63  C   UNL     1       0.815   0.477   3.146  1.00  0.00     0.049 A 
ATOM     64  C   UNL     1       4.143   3.912   0.167  1.00  0.00     0.074 A 
ATOM     65  C   UNL     1       2.113   0.058   3.398  1.00  0.00     0.029 A 
ATOM     66  N   UNL     1       0.870   1.867   3.117  1.00  0.00    -0.354 N 
ATOM     67  N   UNL     1       3.700   3.255   1.204  1.00  0.00    -0.248 NA
ATOM     68  C   UNL     1       4.280   5.339   0.435  1.00  0.00     0.031 C 
ATOM     69  C   UNL     1       2.951   1.209   3.450  1.00  0.00     0.029 A 
ATOM     70  C   UNL     1       2.165   2.331   3.253  1.00  0.00     0.049 A 
ATOM     71  H   UNL     1       0.083   2.449   3.013  1.00  0.00     0.167 HD
ATOM     72  C   UNL     1       3.266   4.149   2.150  1.00  0.00     0.074 A 
ATOM     73  C   UNL     1       3.785   5.422   1.681  1.00  0.00     0.031 C 
ATOM     74  C   UNL     1       2.429   3.769   3.167  1.00  0.00     0.034 A 
BRANCH  61  75
ATOM     75  C   UNL     1      -0.968  -1.354   3.678  1.00  0.00     0.023 A 
ATOM     76  C   UNL     1      -0.309  -1.631   4.905  1.00  0.00     0.031 A 
ATOM     77  C   UNL     1      -2.058  -2.206   3.407  1.00  0.00     0.131 A 
ATOM     78  C   UNL     1      -0.708  -2.687   5.755  1.00  0.00     0.055 A 
ATOM     79  C   UNL     1      -2.476  -3.235   4.267  1.00  0.00     0.041 A 
ATOM     80  F   UNL     1      -2.786  -2.117   2.295  1.00  0.00    -0.206 F 
ATOM     81  C   UNL     1      -1.800  -3.485   5.446  1.00  0.00     0.022 A 
BRANCH  78  82
ATOM     82  S   UNL     1       0.229  -3.024   7.275  1.00  0.00     0.124 S 
ATOM     83  O   UNL     1       1.532  -3.418   6.748  1.00  0.00    -0.237 OA
ATOM     84  O   UNL     1       0.169  -1.744   7.971  1.00  0.00    -0.237 OA
ATOM     85  O   UNL     1      -0.529  -4.103   7.908  1.00  0.00    -0.744 OA
ENDBRANCH  78  82
ENDBRANCH  61  75
BRANCH  62  86
ATOM     86  C   UNL     1       4.616   3.979  -2.476  1.00  0.00     0.023 A 
ATOM     87  C   UNL     1       5.636   3.432  -3.274  1.00  0.00     0.031 A 
ATOM     88  C   UNL     1       3.672   4.809  -3.095  1.00  0.00     0.131 A 
ATOM     89  C   UNL     1       5.621   3.590  -4.664  1.00  0.00     0.055 A 
ATOM     90  C   UNL     1       3.690   5.016  -4.482  1.00  0.00     0.041 A 
ATOM     91  F   UNL     1       2.626   5.284  -2.401  1.00  0.00    -0.206 F 
ATOM     92  C   UNL     1       4.642   4.370  -5.278  1.00  0.00     0.022 A 
BRANCH  89  93
ATOM     93  S   UNL     1       6.748   2.566  -5.659  1.00  0.00     0.124 S 
ATOM     94  O   UNL     1       7.802   3.516  -5.998  1.00  0.00    -0.237 OA
ATOM     95  O   UNL     1       7.136   1.510  -4.728  1.00  0.00    -0.237 OA
ATOM     96  O   UNL     1       5.917   2.100  -6.763  1.00  0.00    -0.744 OA
ENDBRANCH  89  93
ENDBRANCH  62  86
BRANCH  74  97
ATOM     97  C   UNL     1       1.762   4.712   4.159  1.00  0.00     0.023 A 
ATOM     98  C   UNL     1       1.698   6.102   3.993  1.00  0.00     0.031 A 
ATOM     99  C   UNL     1       1.127   4.216   5.325  1.00  0.00     0.131 A 
ATOM    100  C   UNL     1       1.149   6.939   4.983  1.00  0.00     0.055 A 
ATOM    101  C   UNL     1       0.491   5.041   6.261  1.00  0.00     0.041 A 
ATOM    102  F   UNL     1       1.096   2.906   5.610  1.00  0.00    -0.206 F 
ATOM    103  C   UNL     1       0.524   6.417   6.109  1.00  0.00     0.022 A 
BRANCH 100 104
ATOM    104  S   UNL     1       1.379   8.728   4.805  1.00  0.00     0.124 S 
ATOM    105  O   UNL     1       2.834   8.839   4.738  1.00  0.00    -0.237 OA
ATOM    106  O   UNL     1       0.667   9.013   3.564  1.00  0.00    -0.237 OA
ATOM    107  O   UNL     1       0.770   9.277   6.015  1.00  0.00    -0.744 OA
ENDBRANCH 100 104
ENDBRANCH  74  97
ENDBRANCH  48  49
ENDBRANCH  40  43
ENDBRANCH  38  39
ENDBRANCH  37  38
ENDBRANCH  36  37
ENDBRANCH   1  36
TORSDOF 20
