REMARK SMILES O=C(NCCCCNC(=O)[C@H]1CCC(=O)N(CCc2ccccc2F)[C@@H]1c1cccs1)c1ccc(-c2c3nc(c(-c4cc(S(=O)(=O)[O-])ccc4F)c4ccc([nH]4)c(-c4cc(S(=O)(=O)[O-])ccc4F)c4nc(c(-c5cc(S(=O)(=O)[O-])ccc5F)c5ccc2[nH]5)C=C4)C=C3)cc1
REMARK SMILES IDX 5 1 4 2 3 3 1 4 2 5 32 7 33 8 94 9 34 10 93 11 35 12 36 13
REMARK SMILES IDX 37 14 87 15 38 16 92 17 86 18 88 19 39 20 91 21 85 22 84 23
REMARK SMILES IDX 40 25 72 26 52 27 71 28 53 29 56 30 70 31 89 32 54 33 55 34
REMARK SMILES IDX 69 36 90 37 57 38 41 39 42 40 50 41 43 42 49 43 51 44 48 45
REMARK SMILES IDX 44 46 45 47 46 48 47 49 73 50 74 51 82 52 75 53 81 54 83 55
REMARK SMILES IDX 80 56 76 57 77 58 78 59 79 60 58 61 59 62 67 63 60 64 66 65
REMARK SMILES IDX 68 66 65 67 61 68 62 69 63 70 64 71 6 72 7 73 8 74 9 75
REMARK SMILES IDX 10 77 11 78 12 79 26 80 13 81 16 82 14 83 15 84 27 85 28 86
REMARK SMILES IDX 31 87 29 88 30 89 17 90 18 91 19 92 20 93 24 94 21 95 23 96
REMARK SMILES IDX 25 97 22 98
REMARK H PARENT 3 6 88 24 56 35 8 76
REMARK Flexibility Score: inf
ROOT
ATOM      1  C   UNL     1       7.019   6.211   0.845  1.00  0.00     0.023 C 
ENDROOT
BRANCH   1   2
ATOM      2  C   UNL     1       7.704   7.568   0.821  1.00  0.00     0.116 C 
BRANCH   2   3
ATOM      3  N   UNL     1       9.074   7.478   0.341  1.00  0.00    -0.352 N 
ATOM      4  O   UNL     1      10.779   7.873  -1.078  1.00  0.00    -0.269 OA
ATOM      5  C   UNL     1       9.678   8.198  -0.661  1.00  0.00     0.251 C 
ATOM      6  H   UNL     1       9.643   6.814   0.793  1.00  0.00     0.163 HD
BRANCH   5   7
ATOM      7  C   UNL     1       8.966   9.362  -1.227  1.00  0.00     0.039 A 
ATOM      8  C   UNL     1       8.361  10.294  -0.378  1.00  0.00     0.014 A 
ATOM      9  C   UNL     1       8.912   9.520  -2.613  1.00  0.00     0.014 A 
ATOM     10  C   UNL     1       7.617  11.333  -0.917  1.00  0.00     0.010 A 
ATOM     11  C   UNL     1       8.234  10.614  -3.152  1.00  0.00     0.010 A 
ATOM     12  C   UNL     1       7.584  11.526  -2.307  1.00  0.00    -0.014 A 
BRANCH  12  13
ATOM     13  C   UNL     1       6.992  12.770  -2.850  1.00  0.00     0.031 A 
ATOM     14  C   UNL     1       5.759  12.748  -3.700  1.00  0.00     0.074 A 
ATOM     15  C   UNL     1       7.597  13.934  -2.549  1.00  0.00     0.049 A 
ATOM     16  N   UNL     1       5.150  13.746  -4.287  1.00  0.00    -0.248 NA
ATOM     17  C   UNL     1       5.129  11.439  -3.921  1.00  0.00     0.031 C 
ATOM     18  C   UNL     1       8.789  14.067  -1.705  1.00  0.00     0.029 A 
ATOM     19  N   UNL     1       7.287  15.223  -2.892  1.00  0.00    -0.354 N 
ATOM     20  C   UNL     1       4.061  13.192  -4.948  1.00  0.00     0.074 A 
ATOM     21  C   UNL     1       4.119  11.761  -4.719  1.00  0.00     0.031 C 
ATOM     22  C   UNL     1       9.072  15.366  -1.547  1.00  0.00     0.029 A 
ATOM     23  C   UNL     1       8.139  16.151  -2.345  1.00  0.00     0.049 A 
ATOM     24  H   UNL     1       6.529  15.460  -3.473  1.00  0.00     0.167 HD
ATOM     25  C   UNL     1       3.104  13.826  -5.670  1.00  0.00     0.034 A 
ATOM     26  C   UNL     1       8.183  17.488  -2.484  1.00  0.00     0.034 A 
ATOM     27  C   UNL     1       3.087  15.252  -5.907  1.00  0.00     0.049 A 
ATOM     28  C   UNL     1       7.173  18.155  -3.366  1.00  0.00     0.074 A 
ATOM     29  C   UNL     1       2.183  15.993  -6.649  1.00  0.00     0.029 A 
ATOM     30  N   UNL     1       4.019  16.156  -5.407  1.00  0.00    -0.354 N 
ATOM     31  N   UNL     1       6.189  17.614  -4.045  1.00  0.00    -0.248 NA
ATOM     32  C   UNL     1       7.284  19.610  -3.508  1.00  0.00     0.031 C 
ATOM     33  C   UNL     1       2.603  17.328  -6.652  1.00  0.00     0.029 A 
ATOM     34  C   UNL     1       3.722  17.440  -5.842  1.00  0.00     0.049 A 
ATOM     35  H   UNL     1       4.779  15.919  -4.829  1.00  0.00     0.167 HD
ATOM     36  C   UNL     1       5.542  18.669  -4.676  1.00  0.00     0.074 A 
ATOM     37  C   UNL     1       6.252  19.876  -4.297  1.00  0.00     0.031 C 
ATOM     38  C   UNL     1       4.450  18.637  -5.481  1.00  0.00     0.034 A 
BRANCH  25  39
ATOM     39  C   UNL     1       2.025  12.970  -6.291  1.00  0.00     0.023 A 
ATOM     40  C   UNL     1       1.107  12.255  -5.502  1.00  0.00     0.031 A 
ATOM     41  C   UNL     1       1.919  12.857  -7.689  1.00  0.00     0.131 A 
ATOM     42  C   UNL     1       0.164  11.413  -6.113  1.00  0.00     0.055 A 
ATOM     43  C   UNL     1       0.932  12.076  -8.292  1.00  0.00     0.041 A 
ATOM     44  F   UNL     1       2.781  13.499  -8.494  1.00  0.00    -0.206 F 
ATOM     45  C   UNL     1       0.054  11.338  -7.503  1.00  0.00     0.022 A 
BRANCH  42  46
ATOM     46  S   UNL     1      -0.838  10.325  -5.063  1.00  0.00     0.124 S 
ATOM     47  O   UNL     1       0.189   9.516  -4.411  1.00  0.00    -0.237 OA
ATOM     48  O   UNL     1      -1.544  11.272  -4.208  1.00  0.00    -0.237 OA
ATOM     49  O   UNL     1      -1.676   9.603  -6.019  1.00  0.00    -0.744 OA
ENDBRANCH  42  46
ENDBRANCH  25  39
BRANCH  26  50
ATOM     50  C   UNL     1       9.228  18.256  -1.760  1.00  0.00     0.023 A 
ATOM     51  C   UNL     1       8.891  19.046  -0.652  1.00  0.00     0.031 A 
ATOM     52  C   UNL     1      10.584  18.142  -2.113  1.00  0.00     0.131 A 
ATOM     53  C   UNL     1       9.903  19.695   0.069  1.00  0.00     0.055 A 
ATOM     54  C   UNL     1      11.589  18.763  -1.373  1.00  0.00     0.041 A 
ATOM     55  F   UNL     1      10.952  17.376  -3.153  1.00  0.00    -0.206 F 
ATOM     56  C   UNL     1      11.250  19.547  -0.274  1.00  0.00     0.022 A 
BRANCH  53  57
ATOM     57  S   UNL     1       9.435  20.731   1.481  1.00  0.00     0.124 S 
ATOM     58  O   UNL     1       8.706  21.812   0.827  1.00  0.00    -0.237 OA
ATOM     59  O   UNL     1       8.636  19.812   2.285  1.00  0.00    -0.237 OA
ATOM     60  O   UNL     1      10.720  21.108   2.067  1.00  0.00    -0.744 OA
ENDBRANCH  53  57
ENDBRANCH  26  50
BRANCH  38  61
ATOM     61  C   UNL     1       3.925  19.963  -5.970  1.00  0.00     0.023 A 
ATOM     62  C   UNL     1       4.637  20.751  -6.890  1.00  0.00     0.031 A 
ATOM     63  C   UNL     1       2.689  20.442  -5.501  1.00  0.00     0.131 A 
ATOM     64  C   UNL     1       4.129  22.001  -7.276  1.00  0.00     0.055 A 
ATOM     65  C   UNL     1       2.162  21.660  -5.932  1.00  0.00     0.041 A 
ATOM     66  F   UNL     1       1.971  19.730  -4.617  1.00  0.00    -0.206 F 
ATOM     67  C   UNL     1       2.888  22.452  -6.816  1.00  0.00     0.022 A 
BRANCH  64  68
ATOM     68  S   UNL     1       5.146  23.068  -8.332  1.00  0.00     0.124 S 
ATOM     69  O   UNL     1       6.321  23.290  -7.494  1.00  0.00    -0.237 OA
ATOM     70  O   UNL     1       5.353  22.237  -9.513  1.00  0.00    -0.237 OA
ATOM     71  O   UNL     1       4.305  24.245  -8.543  1.00  0.00    -0.744 OA
ENDBRANCH  64  68
ENDBRANCH  38  61
ENDBRANCH  12  13
ENDBRANCH   5   7
ENDBRANCH   2   3
ENDBRANCH   1   2
BRANCH   1  72
ATOM     72  C   UNL     1       7.719   5.175   1.725  1.00  0.00     0.023 C 
BRANCH  72  73
ATOM     73  C   UNL     1       7.899   5.605   3.181  1.00  0.00     0.116 C 
BRANCH  73  74
ATOM     74  N   UNL     1       6.627   5.885   3.821  1.00  0.00    -0.356 N 
ATOM     75  C   UNL     1       5.911   5.135   4.708  1.00  0.00     0.225 C 
ATOM     76  H   UNL     1       6.218   6.747   3.579  1.00  0.00     0.163 HD
ATOM     77  O   UNL     1       4.811   5.554   5.065  1.00  0.00    -0.275 OA
BRANCH  75  78
ATOM     78  C   UNL     1       6.546   3.884   5.309  1.00  0.00     0.107 C 
ATOM     79  C   UNL     1       7.289   4.380   6.544  1.00  0.00     0.026 C 
ATOM     80  C   UNL     1       5.491   2.803   5.683  1.00  0.00     0.138 C 
ATOM     81  C   UNL     1       8.029   3.220   7.146  1.00  0.00     0.101 C 
ATOM     82  N   UNL     1       5.906   1.932   6.853  1.00  0.00    -0.334 N 
ATOM     83  C   UNL     1       7.094   2.118   7.567  1.00  0.00     0.223 C 
ATOM     84  O   UNL     1       7.439   1.394   8.505  1.00  0.00    -0.275 OA
BRANCH  80  85
ATOM     85  C   UNL     1       4.954   2.015   4.442  1.00  0.00     0.028 A 
ATOM     86  C   UNL     1       4.158   0.880   4.334  1.00  0.00     0.017 A 
ATOM     87  S   UNL     1       5.137   2.668   2.843  1.00  0.00    -0.147 S 
ATOM     88  C   UNL     1       3.670   0.607   3.021  1.00  0.00     0.012 A 
ATOM     89  C   UNL     1       4.120   1.526   2.114  1.00  0.00     0.065 A 
ENDBRANCH  80  85
BRANCH  82  90
ATOM     90  C   UNL     1       4.968   0.962   7.462  1.00  0.00     0.125 C 
BRANCH  90  91
ATOM     91  C   UNL     1       3.708   1.491   8.190  1.00  0.00     0.060 C 
BRANCH  91  92
ATOM     92  C   UNL     1       2.741   2.336   7.402  1.00  0.00    -0.010 A 
ATOM     93  C   UNL     1       1.848   1.776   6.478  1.00  0.00     0.007 A 
ATOM     94  C   UNL     1       2.782   3.732   7.521  1.00  0.00     0.126 A 
ATOM     95  C   UNL     1       1.112   2.600   5.619  1.00  0.00     0.000 A 
ATOM     96  C   UNL     1       2.056   4.555   6.667  1.00  0.00     0.039 A 
ATOM     97  F   UNL     1       3.628   4.296   8.396  1.00  0.00    -0.207 F 
ATOM     98  C   UNL     1       1.235   3.987   5.696  1.00  0.00     0.003 A 
ENDBRANCH  91  92
ENDBRANCH  90  91
ENDBRANCH  82  90
ENDBRANCH  75  78
ENDBRANCH  73  74
ENDBRANCH  72  73
ENDBRANCH   1  72
TORSDOF 18
