REMARK SMILES CCOc1cc2c(cc1OCC)[C@@H](C(=O)NCCCCNC(=O)c1ccc(-c3c4nc(c(-c5cc(S(=O)(=O)[O-])ccc5F)c5ccc([nH]5)c(-c5cc(S(=O)(=O)[O-])ccc5F)c5nc(c(-c6cc(S(=O)(=O)[O-])ccc6F)c6ccc3[nH]6)C=C5)C=C4)cc1)[C@H](c1ccc(F)cc1Cl)N(C)C2=O
REMARK SMILES IDX 19 1 18 2 17 3 16 4 14 5 15 6 13 8 4 9 5 10 9 11 6 12 8 13
REMARK SMILES IDX 7 14 98 15 96 16 99 17 87 18 97 19 3 20 2 21 1 22 10 23
REMARK SMILES IDX 11 24 12 25 88 26 89 27 94 28 90 29 93 30 95 31 91 32 92 33
REMARK SMILES IDX 20 34 21 35 22 36 23 38 24 39 25 40 86 41 26 42 85 43 27 44
REMARK SMILES IDX 28 45 29 46 79 47 30 48 84 49 78 50 80 51 31 52 83 53 77 54
REMARK SMILES IDX 76 55 32 57 64 58 44 59 63 60 45 61 48 62 62 63 81 64 46 65
REMARK SMILES IDX 47 66 61 68 82 69 49 70 33 71 34 72 42 73 35 74 41 75 43 76
REMARK SMILES IDX 40 77 36 78 37 79 38 80 39 81 65 82 66 83 74 84 67 85 73 86
REMARK SMILES IDX 75 87 72 88 68 89 69 90 70 91 71 92 50 93 51 94 59 95 52 96
REMARK SMILES IDX 58 97 60 98 57 99 53 100 54 101 55 102 56 103
REMARK H PARENT 16 7 21 37 80 56 48 67
REMARK Flexibility Score: inf
ROOT
ATOM      1  C   UNL     1       8.165  -1.621  -1.567  1.00  0.00     0.023 C 
ENDROOT
BRANCH   1   2
ATOM      2  C   UNL     1       7.501  -0.805  -0.466  1.00  0.00     0.023 C 
BRANCH   2   3
ATOM      3  C   UNL     1       6.792  -1.623   0.614  1.00  0.00     0.116 C 
BRANCH   3   4
ATOM      4  N   UNL     1       7.476  -1.507   1.891  1.00  0.00    -0.355 N 
ATOM      5  C   UNL     1       7.364  -0.662   2.942  1.00  0.00     0.230 C 
ATOM      6  O   UNL     1       8.229  -0.791   3.824  1.00  0.00    -0.274 OA
ATOM      7  H   UNL     1       8.172  -2.192   2.019  1.00  0.00     0.163 HD
BRANCH   5   8
ATOM      8  C   UNL     1       6.329   0.444   3.121  1.00  0.00     0.136 C 
ATOM      9  C   UNL     1       2.171  -0.087   2.134  1.00  0.00     0.161 A 
ATOM     10  C   UNL     1       3.030   0.605   1.270  1.00  0.00     0.064 A 
ATOM     11  C   UNL     1       2.662  -0.627   3.330  1.00  0.00     0.161 A 
ATOM     12  C   UNL     1       4.386   0.732   1.565  1.00  0.00     0.048 A 
ATOM     13  C   UNL     1       4.034  -0.514   3.601  1.00  0.00     0.056 A 
ATOM     14  C   UNL     1       4.899   0.173   2.737  1.00  0.00    -0.016 A 
ATOM     15  C   UNL     1       5.286   1.439   0.614  1.00  0.00     0.254 C 
ATOM     16  N   UNL     1       6.504   1.889   1.121  1.00  0.00    -0.333 N 
ATOM     17  O   UNL     1       4.942   1.554  -0.557  1.00  0.00    -0.269 OA
ATOM     18  C   UNL     1       6.801   1.817   2.551  1.00  0.00     0.134 C 
ATOM     19  C   UNL     1       7.473   2.534   0.245  1.00  0.00     0.147 C 
BRANCH   9  20
ATOM     20  O   UNL     1       0.841  -0.107   1.810  1.00  0.00    -0.490 OA
BRANCH  20  21
ATOM     21  C   UNL     1       0.546  -1.032   0.753  1.00  0.00     0.226 C 
ATOM     22  C   UNL     1       0.455  -0.331  -0.592  1.00  0.00     0.049 C 
ENDBRANCH  20  21
ENDBRANCH   9  20
BRANCH  11  23
ATOM     23  O   UNL     1       1.993  -1.257   4.341  1.00  0.00    -0.490 OA
BRANCH  23  24
ATOM     24  C   UNL     1       0.575  -1.365   4.334  1.00  0.00     0.226 C 
ATOM     25  C   UNL     1      -0.096  -0.085   4.804  1.00  0.00     0.049 C 
ENDBRANCH  23  24
ENDBRANCH  11  23
BRANCH  18  26
ATOM     26  C   UNL     1       6.258   2.997   3.405  1.00  0.00    -0.005 A 
ATOM     27  C   UNL     1       6.656   2.987   4.770  1.00  0.00     0.010 A 
ATOM     28  C   UNL     1       5.397   4.047   3.011  1.00  0.00     0.049 A 
ATOM     29  C   UNL     1       6.153   3.900   5.700  1.00  0.00     0.040 A 
ATOM     30  C   UNL     1       4.903   4.966   3.951  1.00  0.00     0.060 A 
ATOM     31  Cl  UNL     1       4.865   4.384   1.403  1.00  0.00    -0.084 Cl
ATOM     32  C   UNL     1       5.267   4.874   5.281  1.00  0.00     0.124 A 
ATOM     33  F   UNL     1       4.768   5.745   6.166  1.00  0.00    -0.207 F 
ENDBRANCH  18  26
ENDBRANCH   5   8
ENDBRANCH   3   4
ENDBRANCH   2   3
ENDBRANCH   1   2
BRANCH   1  34
ATOM     34  C   UNL     1       7.206  -2.421  -2.438  1.00  0.00     0.116 C 
BRANCH  34  35
ATOM     35  N   UNL     1       6.250  -1.615  -3.185  1.00  0.00    -0.352 N 
ATOM     36  C   UNL     1       5.781  -1.823  -4.469  1.00  0.00     0.251 C 
ATOM     37  H   UNL     1       5.893  -0.825  -2.718  1.00  0.00     0.163 HD
ATOM     38  O   UNL     1       5.006  -1.038  -4.991  1.00  0.00    -0.269 OA
BRANCH  36  39
ATOM     39  C   UNL     1       6.294  -2.988  -5.226  1.00  0.00     0.039 A 
ATOM     40  C   UNL     1       6.890  -2.771  -6.471  1.00  0.00     0.014 A 
ATOM     41  C   UNL     1       6.299  -4.259  -4.650  1.00  0.00     0.014 A 
ATOM     42  C   UNL     1       7.599  -3.808  -7.081  1.00  0.00     0.010 A 
ATOM     43  C   UNL     1       7.078  -5.263  -5.216  1.00  0.00     0.010 A 
ATOM     44  C   UNL     1       7.757  -5.040  -6.425  1.00  0.00    -0.014 A 
BRANCH  44  45
ATOM     45  C   UNL     1       8.663  -6.093  -6.955  1.00  0.00     0.031 A 
ATOM     46  C   UNL     1       8.117  -7.446  -7.318  1.00  0.00     0.074 A 
ATOM     47  C   UNL     1       9.991  -5.863  -7.011  1.00  0.00     0.049 A 
ATOM     48  N   UNL     1       8.756  -8.528  -7.679  1.00  0.00    -0.248 NA
ATOM     49  C   UNL     1       6.659  -7.611  -7.221  1.00  0.00     0.031 C 
ATOM     50  C   UNL     1      10.652  -4.612  -6.625  1.00  0.00     0.029 A 
ATOM     51  N   UNL     1      11.029  -6.675  -7.398  1.00  0.00    -0.354 N 
ATOM     52  C   UNL     1       7.783  -9.509  -7.831  1.00  0.00     0.074 A 
ATOM     53  C   UNL     1       6.519  -8.905  -7.461  1.00  0.00     0.031 C 
ATOM     54  C   UNL     1      11.975  -4.733  -6.820  1.00  0.00     0.029 A 
ATOM     55  C   UNL     1      12.266  -6.080  -7.298  1.00  0.00     0.049 A 
ATOM     56  H   UNL     1      10.899  -7.597  -7.718  1.00  0.00     0.167 HD
ATOM     57  C   UNL     1       7.925 -10.787  -8.263  1.00  0.00     0.034 A 
ATOM     58  C   UNL     1      13.497  -6.568  -7.551  1.00  0.00     0.034 A 
ATOM     59  C   UNL     1       9.188 -11.365  -8.653  1.00  0.00     0.049 A 
ATOM     60  C   UNL     1      13.631  -7.990  -8.031  1.00  0.00     0.074 A 
ATOM     61  C   UNL     1       9.436 -12.621  -9.180  1.00  0.00     0.029 A 
ATOM     62  N   UNL     1      10.418 -10.727  -8.555  1.00  0.00    -0.354 N 
ATOM     63  N   UNL     1      12.693  -8.887  -8.225  1.00  0.00    -0.248 NA
ATOM     64  C   UNL     1      14.989  -8.461  -8.330  1.00  0.00     0.031 C 
ATOM     65  C   UNL     1      10.819 -12.763  -9.346  1.00  0.00     0.029 A 
ATOM     66  C   UNL     1      11.430 -11.574  -8.982  1.00  0.00     0.049 A 
ATOM     67  H   UNL     1      10.552  -9.808  -8.229  1.00  0.00     0.167 HD
ATOM     68  C   UNL     1      13.347 -10.024  -8.689  1.00  0.00     0.074 A 
ATOM     69  C   UNL     1      14.756  -9.692  -8.762  1.00  0.00     0.031 C 
ATOM     70  C   UNL     1      12.832 -11.233  -9.028  1.00  0.00     0.034 A 
BRANCH  57  71
ATOM     71  C   UNL     1       6.682 -11.641  -8.313  1.00  0.00     0.023 A 
ATOM     72  C   UNL     1       5.602 -11.321  -9.156  1.00  0.00     0.031 A 
ATOM     73  C   UNL     1       6.554 -12.766  -7.480  1.00  0.00     0.131 A 
ATOM     74  C   UNL     1       4.414 -12.062  -9.084  1.00  0.00     0.055 A 
ATOM     75  C   UNL     1       5.399 -13.551  -7.475  1.00  0.00     0.041 A 
ATOM     76  F   UNL     1       7.543 -13.111  -6.641  1.00  0.00    -0.206 F 
ATOM     77  C   UNL     1       4.313 -13.190  -8.268  1.00  0.00     0.022 A 
BRANCH  74  78
ATOM     78  S   UNL     1       2.954 -11.439  -9.962  1.00  0.00     0.124 S 
ATOM     79  O   UNL     1       2.775 -10.128  -9.341  1.00  0.00    -0.237 OA
ATOM     80  O   UNL     1       3.399 -11.433 -11.350  1.00  0.00    -0.237 OA
ATOM     81  O   UNL     1       1.918 -12.418  -9.642  1.00  0.00    -0.744 OA
ENDBRANCH  74  78
ENDBRANCH  57  71
BRANCH  58  82
ATOM     82  C   UNL     1      14.704  -5.719  -7.346  1.00  0.00     0.023 A 
ATOM     83  C   UNL     1      15.495  -5.316  -8.434  1.00  0.00     0.031 A 
ATOM     84  C   UNL     1      15.107  -5.330  -6.057  1.00  0.00     0.131 A 
ATOM     85  C   UNL     1      16.672  -4.585  -8.211  1.00  0.00     0.055 A 
ATOM     86  C   UNL     1      16.254  -4.563  -5.843  1.00  0.00     0.041 A 
ATOM     87  F   UNL     1      14.381  -5.682  -4.984  1.00  0.00    -0.206 F 
ATOM     88  C   UNL     1      17.051  -4.197  -6.924  1.00  0.00     0.022 A 
BRANCH  85  89
ATOM     89  S   UNL     1      17.743  -4.209  -9.626  1.00  0.00     0.124 S 
ATOM     90  O   UNL     1      18.046  -5.542 -10.133  1.00  0.00    -0.237 OA
ATOM     91  O   UNL     1      16.867  -3.389 -10.457  1.00  0.00    -0.237 OA
ATOM     92  O   UNL     1      18.868  -3.499  -9.021  1.00  0.00    -0.744 OA
ENDBRANCH  85  89
ENDBRANCH  58  82
BRANCH  70  93
ATOM     93  C   UNL     1      13.804 -12.268  -9.533  1.00  0.00     0.023 A 
ATOM     94  C   UNL     1      14.757 -12.857  -8.684  1.00  0.00     0.031 A 
ATOM     95  C   UNL     1      13.786 -12.656 -10.884  1.00  0.00     0.131 A 
ATOM     96  C   UNL     1      15.688 -13.767  -9.207  1.00  0.00     0.055 A 
ATOM     97  C   UNL     1      14.680 -13.602 -11.386  1.00  0.00     0.041 A 
ATOM     98  F   UNL     1      12.897 -12.122 -11.736  1.00  0.00    -0.206 F 
ATOM     99  C   UNL     1      15.646 -14.154 -10.549  1.00  0.00     0.022 A 
BRANCH  96 100
ATOM    100  S   UNL     1      17.007 -14.381  -8.125  1.00  0.00     0.124 S 
ATOM    101  O   UNL     1      17.691 -13.148  -7.749  1.00  0.00    -0.237 OA
ATOM    102  O   UNL     1      16.258 -15.044  -7.062  1.00  0.00    -0.237 OA
ATOM    103  O   UNL     1      17.773 -15.276  -8.991  1.00  0.00    -0.744 OA
ENDBRANCH  96 100
ENDBRANCH  70  93
ENDBRANCH  44  45
ENDBRANCH  36  39
ENDBRANCH  34  35
ENDBRANCH   1  34
TORSDOF 19
