REMARK SMILES Cc1ccc(Nc2c(F)cccc2I)c(CC(=O)NCCCCNC(=O)c2ccc(-c3c4nc(c(-c5cc(S(=O)(=O)[O-])ccc5F)c5ccc([nH]5)c(-c5cc(S(=O)(=O)[O-])ccc5F)c5nc(c(-c6cc(S(=O)(=O)[O-])ccc6F)c6ccc3[nH]6)C=C5)C=C4)cc2)c1
REMARK SMILES IDX 21 1 20 2 19 3 17 4 18 5 16 7 15 8 1 9 2 10 3 11 90 12 4 13
REMARK SMILES IDX 5 14 6 15 7 17 8 18 13 19 9 20 10 21 12 22 14 23 11 24 22 25
REMARK SMILES IDX 23 26 24 27 25 28 26 30 27 31 28 32 89 33 29 34 88 35 30 36
REMARK SMILES IDX 31 37 32 38 82 39 33 40 87 41 81 42 83 43 34 44 86 45 80 46
REMARK SMILES IDX 79 47 35 49 67 50 47 51 66 52 48 53 51 54 65 55 84 56 49 57
REMARK SMILES IDX 50 58 64 60 85 61 52 62 36 63 37 64 45 65 38 66 44 67 46 68
REMARK SMILES IDX 43 69 39 70 40 71 41 72 42 73 68 74 69 75 77 76 70 77 76 78
REMARK SMILES IDX 78 79 75 80 71 81 72 82 73 83 74 84 53 85 54 86 62 87 55 88
REMARK SMILES IDX 61 89 63 90 60 91 56 92 57 93 58 94 59 95
REMARK H PARENT 19 6 6 16 24 29 83 48 51 59
REMARK Flexibility Score: inf
ROOT
ATOM      1  C   UNL     1      -0.049   1.120  -3.155  1.00  0.00     0.023 C 
ENDROOT
BRANCH   1   2
ATOM      2  C   UNL     1      -0.440   2.551  -2.750  1.00  0.00     0.116 C 
BRANCH   2   3
ATOM      3  N   UNL     1      -1.859   2.688  -2.432  1.00  0.00    -0.356 N 
ATOM      4  C   UNL     1      -2.490   2.616  -1.228  1.00  0.00     0.224 C 
ATOM      5  O   UNL     1      -3.723   2.684  -1.197  1.00  0.00    -0.275 OA
ATOM      6  H   UNL     1      -2.447   2.857  -3.204  1.00  0.00     0.163 HD
BRANCH   4   7
ATOM      7  C   UNL     1      -1.714   2.429   0.061  1.00  0.00     0.137 C 
BRANCH   7   8
ATOM      8  C   UNL     1      -1.051   1.076   0.187  1.00  0.00    -0.015 A 
ATOM      9  C   UNL     1       2.586  -0.090   0.223  1.00  0.00     0.044 C 
ATOM     10  C   UNL     1       1.087  -0.116   0.283  1.00  0.00    -0.051 A 
ATOM     11  C   UNL     1       0.393  -1.322   0.221  1.00  0.00     0.005 A 
ATOM     12  C   UNL     1       0.357   1.072   0.309  1.00  0.00     0.009 A 
ATOM     13  C   UNL     1      -1.005  -1.333   0.153  1.00  0.00     0.026 A 
ATOM     14  C   UNL     1      -1.756  -0.147   0.104  1.00  0.00     0.042 A 
BRANCH  14  15
ATOM     15  N   UNL     1      -3.164  -0.178  -0.031  1.00  0.00    -0.352 N 
ATOM     16  H   UNL     1      -3.584   0.699  -0.183  1.00  0.00     0.167 HD
BRANCH  15  17
ATOM     17  C   UNL     1      -4.066  -1.266   0.018  1.00  0.00     0.088 A 
ATOM     18  C   UNL     1      -4.034  -2.212   1.057  1.00  0.00     0.147 A 
ATOM     19  C   UNL     1      -4.992  -1.495  -1.020  1.00  0.00     0.040 A 
ATOM     20  F   UNL     1      -3.196  -2.057   2.094  1.00  0.00    -0.205 F 
ATOM     21  C   UNL     1      -4.880  -3.323   1.077  1.00  0.00     0.041 A 
ATOM     22  C   UNL     1      -5.846  -2.610  -1.005  1.00  0.00     0.017 A 
ATOM     23  I   UNL     1      -5.135  -0.237  -2.697  1.00  0.00    -0.042 I 
ATOM     24  C   UNL     1      -5.787  -3.525   0.044  1.00  0.00     0.004 A 
ENDBRANCH  15  17
ENDBRANCH  14  15
ENDBRANCH   7   8
ENDBRANCH   4   7
ENDBRANCH   2   3
ENDBRANCH   1   2
BRANCH   1  25
ATOM     25  C   UNL     1      -0.783   0.547  -4.365  1.00  0.00     0.023 C 
BRANCH  25  26
ATOM     26  C   UNL     1      -0.452   1.249  -5.673  1.00  0.00     0.116 C 
BRANCH  26  27
ATOM     27  N   UNL     1       0.515   0.556  -6.515  1.00  0.00    -0.352 N 
ATOM     28  C   UNL     1       0.997   0.947  -7.756  1.00  0.00     0.251 C 
ATOM     29  H   UNL     1       0.868  -0.292  -6.161  1.00  0.00     0.163 HD
ATOM     30  O   UNL     1       1.743   0.243  -8.415  1.00  0.00    -0.269 OA
BRANCH  28  31
ATOM     31  C   UNL     1       0.685   2.324  -8.212  1.00  0.00     0.039 A 
ATOM     32  C   UNL     1       1.770   3.185  -8.402  1.00  0.00     0.014 A 
ATOM     33  C   UNL     1      -0.616   2.820  -8.160  1.00  0.00     0.014 A 
ATOM     34  C   UNL     1       1.576   4.558  -8.288  1.00  0.00     0.010 A 
ATOM     35  C   UNL     1      -0.797   4.177  -7.959  1.00  0.00     0.010 A 
ATOM     36  C   UNL     1       0.312   5.034  -7.942  1.00  0.00    -0.014 A 
BRANCH  36  37
ATOM     37  C   UNL     1       0.100   6.367  -7.385  1.00  0.00     0.031 A 
ATOM     38  C   UNL     1      -0.577   7.421  -8.165  1.00  0.00     0.074 A 
ATOM     39  C   UNL     1       0.520   6.648  -6.130  1.00  0.00     0.049 A 
ATOM     40  N   UNL     1      -0.516   8.677  -7.875  1.00  0.00    -0.248 NA
ATOM     41  C   UNL     1      -1.305   7.156  -9.403  1.00  0.00     0.031 C 
ATOM     42  C   UNL     1       0.192   7.818  -5.318  1.00  0.00     0.029 A 
ATOM     43  N   UNL     1       1.601   6.063  -5.469  1.00  0.00    -0.354 N 
ATOM     44  C   UNL     1      -1.429   9.329  -8.660  1.00  0.00     0.074 A 
ATOM     45  C   UNL     1      -1.765   8.379  -9.690  1.00  0.00     0.031 C 
ATOM     46  C   UNL     1       1.196   8.043  -4.460  1.00  0.00     0.029 A 
ATOM     47  C   UNL     1       2.254   7.103  -4.773  1.00  0.00     0.049 A 
ATOM     48  H   UNL     1       1.858   5.113  -5.486  1.00  0.00     0.167 HD
ATOM     49  C   UNL     1      -1.895  10.542  -8.252  1.00  0.00     0.034 A 
ATOM     50  C   UNL     1       3.555   7.417  -5.043  1.00  0.00     0.034 A 
ATOM     51  C   UNL     1      -1.010  11.150  -7.248  1.00  0.00     0.049 A 
ATOM     52  C   UNL     1       3.763   8.838  -5.534  1.00  0.00     0.074 A 
ATOM     53  C   UNL     1      -1.109  11.503  -5.913  1.00  0.00     0.029 A 
ATOM     54  N   UNL     1       0.332  11.311  -7.575  1.00  0.00    -0.354 N 
ATOM     55  N   UNL     1       2.811   9.719  -5.686  1.00  0.00    -0.248 NA
ATOM     56  C   UNL     1       5.059   9.346  -5.984  1.00  0.00     0.031 C 
ATOM     57  C   UNL     1       0.202  11.834  -5.440  1.00  0.00     0.029 A 
ATOM     58  C   UNL     1       1.089  11.719  -6.495  1.00  0.00     0.049 A 
ATOM     59  H   UNL     1       0.700  11.151  -8.474  1.00  0.00     0.167 HD
ATOM     60  C   UNL     1       3.313  10.838  -6.303  1.00  0.00     0.074 A 
ATOM     61  C   UNL     1       4.729  10.557  -6.464  1.00  0.00     0.031 C 
ATOM     62  C   UNL     1       2.526  11.890  -6.686  1.00  0.00     0.034 A 
BRANCH  49  63
ATOM     63  C   UNL     1      -3.239  11.129  -8.657  1.00  0.00     0.023 A 
ATOM     64  C   UNL     1      -3.633  12.376  -8.124  1.00  0.00     0.031 A 
ATOM     65  C   UNL     1      -4.229  10.475  -9.429  1.00  0.00     0.131 A 
ATOM     66  C   UNL     1      -4.923  12.901  -8.355  1.00  0.00     0.055 A 
ATOM     67  C   UNL     1      -5.482  11.030  -9.714  1.00  0.00     0.041 A 
ATOM     68  F   UNL     1      -4.084   9.232  -9.898  1.00  0.00    -0.206 F 
ATOM     69  C   UNL     1      -5.841  12.245  -9.169  1.00  0.00     0.022 A 
BRANCH  66  70
ATOM     70  S   UNL     1      -5.440  14.414  -7.497  1.00  0.00     0.124 S 
ATOM     71  O   UNL     1      -5.320  14.027  -6.095  1.00  0.00    -0.237 OA
ATOM     72  O   UNL     1      -4.477  15.393  -7.986  1.00  0.00    -0.237 OA
ATOM     73  O   UNL     1      -6.813  14.615  -7.961  1.00  0.00    -0.744 OA
ENDBRANCH  66  70
ENDBRANCH  49  63
BRANCH  50  74
ATOM     74  C   UNL     1       4.365   6.216  -5.411  1.00  0.00     0.023 A 
ATOM     75  C   UNL     1       4.341   5.139  -4.496  1.00  0.00     0.031 A 
ATOM     76  C   UNL     1       4.783   5.951  -6.720  1.00  0.00     0.131 A 
ATOM     77  C   UNL     1       4.518   3.825  -4.946  1.00  0.00     0.055 A 
ATOM     78  C   UNL     1       5.066   4.644  -7.141  1.00  0.00     0.041 A 
ATOM     79  F   UNL     1       4.795   6.919  -7.648  1.00  0.00    -0.206 F 
ATOM     80  C   UNL     1       4.882   3.569  -6.268  1.00  0.00     0.022 A 
BRANCH  77  81
ATOM     81  S   UNL     1       3.939   2.465  -3.882  1.00  0.00     0.124 S 
ATOM     82  O   UNL     1       5.141   2.125  -3.132  1.00  0.00    -0.237 OA
ATOM     83  O   UNL     1       2.862   3.088  -3.112  1.00  0.00    -0.237 OA
ATOM     84  O   UNL     1       3.481   1.458  -4.837  1.00  0.00    -0.744 OA
ENDBRANCH  77  81
ENDBRANCH  50  74
BRANCH  62  85
ATOM     85  C   UNL     1       3.061  13.144  -7.346  1.00  0.00     0.023 A 
ATOM     86  C   UNL     1       4.329  13.672  -7.049  1.00  0.00     0.031 A 
ATOM     87  C   UNL     1       2.283  13.894  -8.259  1.00  0.00     0.131 A 
ATOM     88  C   UNL     1       4.812  14.818  -7.710  1.00  0.00     0.055 A 
ATOM     89  C   UNL     1       2.734  15.076  -8.854  1.00  0.00     0.041 A 
ATOM     90  F   UNL     1       1.060  13.497  -8.639  1.00  0.00    -0.206 F 
ATOM     91  C   UNL     1       4.015  15.537  -8.597  1.00  0.00     0.022 A 
BRANCH  88  92
ATOM     92  S   UNL     1       6.535  15.313  -7.441  1.00  0.00     0.124 S 
ATOM     93  O   UNL     1       6.608  15.438  -5.990  1.00  0.00    -0.237 OA
ATOM     94  O   UNL     1       7.261  14.184  -8.018  1.00  0.00    -0.237 OA
ATOM     95  O   UNL     1       6.655  16.568  -8.181  1.00  0.00    -0.744 OA
ENDBRANCH  88  92
ENDBRANCH  62  85
ENDBRANCH  36  37
ENDBRANCH  28  31
ENDBRANCH  26  27
ENDBRANCH  25  26
ENDBRANCH   1  25
TORSDOF 17
