REMARK SMILES O=C(Cc1ccccc1)Nc1cc(Cl)ccc1C(=O)NCCCCNC(=O)c1ccc(-c2c3nc(c(-c4cc(S(=O)(=O)[O-])ccc4F)c4ccc([nH]4)c(-c4cc(S(=O)(=O)[O-])ccc4F)c4nc(c(-c5cc(S(=O)(=O)[O-])ccc5F)c5ccc2[nH]5)C=C4)C=C3)cc1
REMARK SMILES IDX 22 1 21 2 20 3 18 4 19 5 17 7 11 8 12 9 13 10 16 11 14 12
REMARK SMILES IDX 15 13 10 14 1 15 2 16 3 18 4 19 5 20 9 21 6 22 8 23 7 24
REMARK SMILES IDX 23 25 24 26 25 27 26 28 27 30 28 31 29 32 90 33 30 34 89 35
REMARK SMILES IDX 31 36 32 37 33 38 83 39 34 40 88 41 82 42 84 43 35 44 87 45
REMARK SMILES IDX 81 46 80 47 36 49 68 50 48 51 67 52 49 53 52 54 66 55 85 56
REMARK SMILES IDX 50 57 51 58 65 60 86 61 53 62 37 63 38 64 46 65 39 66 45 67
REMARK SMILES IDX 47 68 44 69 40 70 41 71 42 72 43 73 69 74 70 75 78 76 71 77
REMARK SMILES IDX 77 78 79 79 76 80 72 81 73 82 74 83 75 84 54 85 55 86 63 87
REMARK SMILES IDX 56 88 62 89 64 90 61 91 57 92 58 93 59 94 60 95
REMARK H PARENT 20 6 10 17 25 29 84 48 52 59
REMARK Flexibility Score: inf
ROOT
ATOM      1  C   UNL     1       4.209   2.732  -1.303  1.00  0.00     0.023 C 
ENDROOT
BRANCH   1   2
ATOM      2  C   UNL     1       3.288   1.519  -1.269  1.00  0.00     0.116 C 
BRANCH   2   3
ATOM      3  N   UNL     1       1.901   1.777  -1.587  1.00  0.00    -0.352 N 
ATOM      4  C   UNL     1       0.936   0.917  -2.076  1.00  0.00     0.253 C 
ATOM      5  O   UNL     1      -0.190   1.369  -2.289  1.00  0.00    -0.269 OA
ATOM      6  H   UNL     1       1.599   2.701  -1.433  1.00  0.00     0.163 HD
BRANCH   4   7
ATOM      7  C   UNL     1       1.251  -0.477  -2.519  1.00  0.00     0.063 A 
ATOM      8  C   UNL     1       2.075  -1.416  -1.864  1.00  0.00     0.055 A 
ATOM      9  C   UNL     1       2.476  -2.573  -2.556  1.00  0.00     0.047 A 
ATOM     10  C   UNL     1       1.959  -2.861  -3.821  1.00  0.00     0.043 A 
ATOM     11  C   UNL     1       0.720  -0.805  -3.786  1.00  0.00     0.017 A 
ATOM     12  Cl  UNL     1       2.417  -4.315  -4.622  1.00  0.00    -0.084 Cl
ATOM     13  C   UNL     1       1.058  -1.997  -4.428  1.00  0.00     0.021 A 
BRANCH   8  14
ATOM     14  N   UNL     1       2.525  -1.323  -0.524  1.00  0.00    -0.325 N 
ATOM     15  O   UNL     1       0.521  -0.673   0.403  1.00  0.00    -0.274 OA
ATOM     16  C   UNL     1       1.725  -0.895   0.522  1.00  0.00     0.228 C 
ATOM     17  H   UNL     1       3.456  -1.576  -0.326  1.00  0.00     0.169 HD
BRANCH  16  18
ATOM     18  C   UNL     1       2.434  -0.618   1.838  1.00  0.00     0.135 C 
BRANCH  18  19
ATOM     19  C   UNL     1       3.506  -1.564   2.327  1.00  0.00    -0.039 A 
ATOM     20  C   UNL     1       3.507  -2.940   2.073  1.00  0.00     0.004 A 
ATOM     21  C   UNL     1       4.488  -1.047   3.191  1.00  0.00     0.004 A 
ATOM     22  C   UNL     1       4.497  -3.762   2.625  1.00  0.00     0.000 A 
ATOM     23  C   UNL     1       5.466  -1.867   3.752  1.00  0.00     0.000 A 
ATOM     24  C   UNL     1       5.474  -3.226   3.463  1.00  0.00     0.000 A 
ENDBRANCH  18  19
ENDBRANCH  16  18
ENDBRANCH   8  14
ENDBRANCH   4   7
ENDBRANCH   2   3
ENDBRANCH   1   2
BRANCH   1  25
ATOM     25  C   UNL     1       3.962   3.825  -0.259  1.00  0.00     0.023 C 
BRANCH  25  26
ATOM     26  C   UNL     1       3.821   3.406   1.206  1.00  0.00     0.116 C 
BRANCH  26  27
ATOM     27  N   UNL     1       4.915   2.601   1.724  1.00  0.00    -0.352 N 
ATOM     28  C   UNL     1       5.522   2.610   2.965  1.00  0.00     0.251 C 
ATOM     29  H   UNL     1       5.282   1.945   1.089  1.00  0.00     0.163 HD
ATOM     30  O   UNL     1       6.444   1.833   3.174  1.00  0.00    -0.269 OA
BRANCH  28  31
ATOM     31  C   UNL     1       5.115   3.572   4.023  1.00  0.00     0.039 A 
ATOM     32  C   UNL     1       6.127   4.179   4.776  1.00  0.00     0.014 A 
ATOM     33  C   UNL     1       3.782   3.908   4.269  1.00  0.00     0.014 A 
ATOM     34  C   UNL     1       5.814   5.207   5.670  1.00  0.00     0.010 A 
ATOM     35  C   UNL     1       3.476   4.984   5.107  1.00  0.00     0.010 A 
ATOM     36  C   UNL     1       4.493   5.670   5.786  1.00  0.00    -0.014 A 
BRANCH  36  37
ATOM     37  C   UNL     1       4.208   6.940   6.508  1.00  0.00     0.031 A 
ATOM     38  C   UNL     1       3.359   6.974   7.746  1.00  0.00     0.074 A 
ATOM     39  C   UNL     1       4.680   8.092   5.987  1.00  0.00     0.049 A 
ATOM     40  N   UNL     1       3.058   7.993   8.512  1.00  0.00    -0.248 NA
ATOM     41  C   UNL     1       2.741   5.708   8.158  1.00  0.00     0.031 C 
ATOM     42  C   UNL     1       5.434   8.201   4.735  1.00  0.00     0.029 A 
ATOM     43  N   UNL     1       4.600   9.387   6.435  1.00  0.00    -0.354 N 
ATOM     44  C   UNL     1       2.215   7.495   9.498  1.00  0.00     0.074 A 
ATOM     45  C   UNL     1       2.004   6.094   9.190  1.00  0.00     0.031 C 
ATOM     46  C   UNL     1       5.779   9.482   4.536  1.00  0.00     0.029 A 
ATOM     47  C   UNL     1       5.246  10.292   5.626  1.00  0.00     0.049 A 
ATOM     48  H   UNL     1       4.125   9.643   7.259  1.00  0.00     0.167 HD
ATOM     49  C   UNL     1       1.684   8.140  10.569  1.00  0.00     0.034 A 
ATOM     50  C   UNL     1       5.403  11.625   5.745  1.00  0.00     0.034 A 
ATOM     51  C   UNL     1       1.898   9.542  10.851  1.00  0.00     0.049 A 
ATOM     52  C   UNL     1       4.840  12.316   6.957  1.00  0.00     0.074 A 
ATOM     53  C   UNL     1       1.467  10.281  11.940  1.00  0.00     0.029 A 
ATOM     54  N   UNL     1       2.586  10.425  10.026  1.00  0.00    -0.354 N 
ATOM     55  N   UNL     1       4.131  11.810   7.939  1.00  0.00    -0.248 NA
ATOM     56  C   UNL     1       5.120  13.750   7.088  1.00  0.00     0.031 C 
ATOM     57  C   UNL     1       1.835  11.618  11.741  1.00  0.00     0.029 A 
ATOM     58  C   UNL     1       2.564  11.704  10.566  1.00  0.00     0.049 A 
ATOM     59  H   UNL     1       3.026  10.179   9.180  1.00  0.00     0.167 HD
ATOM     60  C   UNL     1       3.900  12.861   8.820  1.00  0.00     0.074 A 
ATOM     61  C   UNL     1       4.563  14.023   8.259  1.00  0.00     0.031 C 
ATOM     62  C   UNL     1       3.208  12.864   9.988  1.00  0.00     0.034 A 
BRANCH  49  63
ATOM     63  C   UNL     1       0.799   7.332  11.494  1.00  0.00     0.023 A 
ATOM     64  C   UNL     1       1.285   6.206  12.183  1.00  0.00     0.031 A 
ATOM     65  C   UNL     1      -0.558   7.662  11.657  1.00  0.00     0.131 A 
ATOM     66  C   UNL     1       0.406   5.399  12.922  1.00  0.00     0.055 A 
ATOM     67  C   UNL     1      -1.409   6.905  12.467  1.00  0.00     0.041 A 
ATOM     68  F   UNL     1      -1.089   8.715  11.016  1.00  0.00    -0.206 F 
ATOM     69  C   UNL     1      -0.933   5.754  13.089  1.00  0.00     0.022 A 
BRANCH  66  70
ATOM     70  S   UNL     1       1.002   3.792  13.516  1.00  0.00     0.124 S 
ATOM     71  O   UNL     1       1.455   3.167  12.276  1.00  0.00    -0.237 OA
ATOM     72  O   UNL     1       2.048   4.172  14.459  1.00  0.00    -0.237 OA
ATOM     73  O   UNL     1      -0.186   3.184  14.113  1.00  0.00    -0.744 OA
ENDBRANCH  66  70
ENDBRANCH  49  63
BRANCH  50  74
ATOM     74  C   UNL     1       6.141  12.383   4.696  1.00  0.00     0.023 A 
ATOM     75  C   UNL     1       7.390  12.965   4.961  1.00  0.00     0.031 A 
ATOM     76  C   UNL     1       5.604  12.530   3.405  1.00  0.00     0.131 A 
ATOM     77  C   UNL     1       8.049  13.693   3.958  1.00  0.00     0.055 A 
ATOM     78  C   UNL     1       6.282  13.219   2.398  1.00  0.00     0.041 A 
ATOM     79  F   UNL     1       4.419  11.979   3.096  1.00  0.00    -0.206 F 
ATOM     80  C   UNL     1       7.509  13.813   2.675  1.00  0.00     0.022 A 
BRANCH  77  81
ATOM     81  S   UNL     1       9.609  14.524   4.367  1.00  0.00     0.124 S 
ATOM     82  O   UNL     1       9.194  15.431   5.431  1.00  0.00    -0.237 OA
ATOM     83  O   UNL     1      10.453  13.404   4.770  1.00  0.00    -0.237 OA
ATOM     84  O   UNL     1       9.991  15.167   3.111  1.00  0.00    -0.744 OA
ENDBRANCH  77  81
ENDBRANCH  50  74
BRANCH  62  85
ATOM     85  C   UNL     1       3.166  14.167  10.752  1.00  0.00     0.023 A 
ATOM     86  C   UNL     1       2.513  15.304  10.243  1.00  0.00     0.031 A 
ATOM     87  C   UNL     1       3.819  14.280  11.992  1.00  0.00     0.131 A 
ATOM     88  C   UNL     1       2.583  16.521  10.939  1.00  0.00     0.055 A 
ATOM     89  C   UNL     1       3.831  15.477  12.710  1.00  0.00     0.041 A 
ATOM     90  F   UNL     1       4.463  13.229  12.524  1.00  0.00    -0.206 F 
ATOM     91  C   UNL     1       3.224  16.610  12.177  1.00  0.00     0.022 A 
BRANCH  88  92
ATOM     92  S   UNL     1       1.920  18.015  10.151  1.00  0.00     0.124 S 
ATOM     93  O   UNL     1       2.658  18.047   8.892  1.00  0.00    -0.237 OA
ATOM     94  O   UNL     1       0.497  17.708  10.048  1.00  0.00    -0.237 OA
ATOM     95  O   UNL     1       2.258  19.079  11.095  1.00  0.00    -0.744 OA
ENDBRANCH  88  92
ENDBRANCH  62  85
ENDBRANCH  36  37
ENDBRANCH  28  31
ENDBRANCH  26  27
ENDBRANCH  25  26
ENDBRANCH   1  25
TORSDOF 17
