REMARK SMILES Cc1c(C(=O)NCCCCNC(=O)c2ccc(-c3c4nc(c(-c5cc(S(=O)(=O)[O-])ccc5F)c5ccc([nH]5)c(-c5cc(S(=O)(=O)[O-])ccc5F)c5nc(c(-c6cc(S(=O)(=O)[O-])ccc6F)c6ccc3[nH]6)C=C5)C=C4)cc2)sc2ncnc(NCc3cn4c(n3)SCC4)c12
REMARK SMILES IDX 8 1 7 2 6 3 4 4 5 5 3 7 1 8 2 9 93 10 77 11 78 12 82 13
REMARK SMILES IDX 79 14 81 15 80 16 83 17 84 19 85 20 86 21 89 22 87 23 88 24
REMARK SMILES IDX 92 25 90 26 91 27 9 28 10 29 11 30 12 31 13 33 14 34 15 35
REMARK SMILES IDX 76 36 16 37 75 38 17 39 18 40 19 41 69 42 20 43 74 44 68 45
REMARK SMILES IDX 70 46 21 47 73 48 67 49 66 50 22 52 54 53 34 54 53 55 35 56
REMARK SMILES IDX 38 57 52 58 71 59 36 60 37 61 51 63 72 64 39 65 23 66 24 67
REMARK SMILES IDX 32 68 25 69 31 70 33 71 30 72 26 73 27 74 28 75 29 76 55 77
REMARK SMILES IDX 56 78 64 79 57 80 63 81 65 82 62 83 58 84 59 85 60 86 61 87
REMARK SMILES IDX 40 88 41 89 49 90 42 91 48 92 50 93 47 94 43 95 44 96 45 97
REMARK SMILES IDX 46 98
REMARK H PARENT 6 6 83 18 11 32 70 51 38 62
REMARK Flexibility Score: inf
ROOT
ATOM      1  C   UNL     1       0.757   4.127   4.922  1.00  0.00     0.023 C 
ENDROOT
BRANCH   1   2
ATOM      2  C   UNL     1      -0.357   3.863   3.907  1.00  0.00     0.116 C 
BRANCH   2   3
ATOM      3  N   UNL     1       0.192   3.726   2.576  1.00  0.00    -0.351 N 
ATOM      4  C   UNL     1       0.592   2.631   1.857  1.00  0.00     0.261 C 
ATOM      5  O   UNL     1       1.154   2.890   0.788  1.00  0.00    -0.268 OA
ATOM      6  H   UNL     1       0.297   4.580   2.098  1.00  0.00     0.163 HD
BRANCH   4   7
ATOM      7  C   UNL     1       0.326   1.255   2.274  1.00  0.00     0.098 A 
ATOM      8  C   UNL     1      -0.009   0.401  -0.076  1.00  0.00     0.047 C 
ATOM      9  C   UNL     1       0.106   0.178   1.409  1.00  0.00    -0.014 A 
ATOM     10  C   UNL     1      -0.021  -1.097   2.132  1.00  0.00     0.057 A 
ATOM     11  S   UNL     1       0.343   0.744   3.894  1.00  0.00    -0.110 S 
ATOM     12  C   UNL     1      -0.095  -0.836   3.494  1.00  0.00     0.129 A 
ATOM     13  C   UNL     1      -0.110  -2.478   1.806  1.00  0.00     0.138 A 
ATOM     14  N   UNL     1      -0.397  -1.692   4.482  1.00  0.00    -0.225 NA
ATOM     15  N   UNL     1      -0.474  -3.351   2.777  1.00  0.00    -0.219 NA
ATOM     16  C   UNL     1      -0.626  -2.918   4.031  1.00  0.00     0.225 A 
BRANCH  13  17
ATOM     17  N   UNL     1       0.157  -3.109   0.613  1.00  0.00    -0.364 N 
ATOM     18  H   UNL     1      -0.295  -3.966   0.437  1.00  0.00     0.162 HD
BRANCH  17  19
ATOM     19  C   UNL     1       1.049  -2.605  -0.392  1.00  0.00     0.172 C 
BRANCH  19  20
ATOM     20  C   UNL     1       2.455  -3.086  -0.491  1.00  0.00     0.079 A 
ATOM     21  C   UNL     1       3.429  -2.506  -1.296  1.00  0.00     0.113 A 
ATOM     22  N   UNL     1       2.921  -4.243   0.114  1.00  0.00    -0.226 NA
ATOM     23  N   UNL     1       4.461  -3.367  -1.221  1.00  0.00    -0.325 N 
ATOM     24  C   UNL     1       4.133  -4.365  -0.356  1.00  0.00     0.168 A 
ATOM     25  C   UNL     1       5.563  -3.614  -2.125  1.00  0.00     0.135 C 
ATOM     26  S   UNL     1       5.181  -5.725  -0.514  1.00  0.00    -0.086 SA
ATOM     27  C   UNL     1       5.673  -5.137  -2.189  1.00  0.00     0.100 C 
ENDBRANCH  19  20
ENDBRANCH  17  19
ENDBRANCH  13  17
ENDBRANCH   4   7
ENDBRANCH   2   3
ENDBRANCH   1   2
BRANCH   1  28
ATOM     28  C   UNL     1       1.440   5.498   4.789  1.00  0.00     0.023 C 
BRANCH  28  29
ATOM     29  C   UNL     1       0.512   6.692   4.972  1.00  0.00     0.116 C 
BRANCH  29  30
ATOM     30  N   UNL     1      -0.180   6.670   6.258  1.00  0.00    -0.352 N 
ATOM     31  C   UNL     1      -1.252   7.441   6.676  1.00  0.00     0.251 C 
ATOM     32  H   UNL     1       0.162   6.022   6.916  1.00  0.00     0.163 HD
ATOM     33  O   UNL     1      -1.456   7.619   7.865  1.00  0.00    -0.269 OA
BRANCH  31  34
ATOM     34  C   UNL     1      -2.139   8.031   5.653  1.00  0.00     0.039 A 
ATOM     35  C   UNL     1      -2.664   9.315   5.782  1.00  0.00     0.014 A 
ATOM     36  C   UNL     1      -2.430   7.262   4.530  1.00  0.00     0.014 A 
ATOM     37  C   UNL     1      -3.412   9.837   4.726  1.00  0.00     0.010 A 
ATOM     38  C   UNL     1      -3.012   7.829   3.428  1.00  0.00     0.010 A 
ATOM     39  C   UNL     1      -3.560   9.095   3.540  1.00  0.00    -0.014 A 
BRANCH  39  40
ATOM     40  C   UNL     1      -4.191   9.670   2.359  1.00  0.00     0.031 A 
ATOM     41  C   UNL     1      -3.635  10.983   1.956  1.00  0.00     0.074 A 
ATOM     42  C   UNL     1      -5.088   9.024   1.583  1.00  0.00     0.049 A 
ATOM     43  N   UNL     1      -4.176  12.134   2.162  1.00  0.00    -0.248 NA
ATOM     44  C   UNL     1      -2.261  11.059   1.437  1.00  0.00     0.031 C 
ATOM     45  C   UNL     1      -5.570   7.642   1.678  1.00  0.00     0.029 A 
ATOM     46  N   UNL     1      -5.718   9.478   0.466  1.00  0.00    -0.354 N 
ATOM     47  C   UNL     1      -3.337  13.069   1.575  1.00  0.00     0.074 A 
ATOM     48  C   UNL     1      -2.095  12.382   1.336  1.00  0.00     0.031 C 
ATOM     49  C   UNL     1      -6.243   7.313   0.551  1.00  0.00     0.029 A 
ATOM     50  C   UNL     1      -6.388   8.504  -0.269  1.00  0.00     0.049 A 
ATOM     51  H   UNL     1      -5.702  10.425   0.198  1.00  0.00     0.167 HD
ATOM     52  C   UNL     1      -3.832  14.259   1.134  1.00  0.00     0.034 A 
ATOM     53  C   UNL     1      -7.035   8.669  -1.456  1.00  0.00     0.034 A 
ATOM     54  C   UNL     1      -5.167  14.483   1.649  1.00  0.00     0.049 A 
ATOM     55  C   UNL     1      -7.435  10.099  -1.500  1.00  0.00     0.074 A 
ATOM     56  C   UNL     1      -5.709  14.568   2.918  1.00  0.00     0.029 A 
ATOM     57  N   UNL     1      -6.232  14.219   0.813  1.00  0.00    -0.354 N 
ATOM     58  N   UNL     1      -8.283  10.622  -0.653  1.00  0.00    -0.248 NA
ATOM     59  C   UNL     1      -6.521  11.046  -2.123  1.00  0.00     0.031 C 
ATOM     60  C   UNL     1      -6.933  13.837   2.840  1.00  0.00     0.029 A 
ATOM     61  C   UNL     1      -7.118  13.436   1.515  1.00  0.00     0.049 A 
ATOM     62  H   UNL     1      -6.338  14.533  -0.114  1.00  0.00     0.167 HD
ATOM     63  C   UNL     1      -7.730  11.845  -0.302  1.00  0.00     0.074 A 
ATOM     64  C   UNL     1      -6.694  12.092  -1.307  1.00  0.00     0.031 C 
ATOM     65  C   UNL     1      -7.958  12.411   0.920  1.00  0.00     0.034 A 
BRANCH  52  66
ATOM     66  C   UNL     1      -3.291  15.051  -0.030  1.00  0.00     0.023 A 
ATOM     67  C   UNL     1      -3.908  16.286  -0.310  1.00  0.00     0.031 A 
ATOM     68  C   UNL     1      -2.426  14.553  -1.030  1.00  0.00     0.131 A 
ATOM     69  C   UNL     1      -3.741  16.910  -1.557  1.00  0.00     0.055 A 
ATOM     70  C   UNL     1      -2.215  15.210  -2.245  1.00  0.00     0.041 A 
ATOM     71  F   UNL     1      -1.815  13.367  -0.933  1.00  0.00    -0.206 F 
ATOM     72  C   UNL     1      -2.900  16.379  -2.529  1.00  0.00     0.022 A 
BRANCH  69  73
ATOM     73  S   UNL     1      -4.772  18.348  -1.940  1.00  0.00     0.124 S 
ATOM     74  O   UNL     1      -6.114  17.805  -1.762  1.00  0.00    -0.237 OA
ATOM     75  O   UNL     1      -4.328  19.312  -0.938  1.00  0.00    -0.237 OA
ATOM     76  O   UNL     1      -4.406  18.670  -3.317  1.00  0.00    -0.744 OA
ENDBRANCH  69  73
ENDBRANCH  52  66
BRANCH  53  77
ATOM     77  C   UNL     1      -7.017   7.760  -2.642  1.00  0.00     0.023 A 
ATOM     78  C   UNL     1      -7.880   7.923  -3.751  1.00  0.00     0.031 A 
ATOM     79  C   UNL     1      -5.952   6.845  -2.809  1.00  0.00     0.131 A 
ATOM     80  C   UNL     1      -7.655   7.199  -4.950  1.00  0.00     0.055 A 
ATOM     81  C   UNL     1      -5.735   6.136  -3.994  1.00  0.00     0.041 A 
ATOM     82  F   UNL     1      -5.026   6.672  -1.854  1.00  0.00    -0.206 F 
ATOM     83  C   UNL     1      -6.580   6.318  -5.075  1.00  0.00     0.022 A 
BRANCH  80  84
ATOM     84  S   UNL     1      -8.697   7.474  -6.424  1.00  0.00     0.124 S 
ATOM     85  O   UNL     1      -9.928   6.778  -6.066  1.00  0.00    -0.237 OA
ATOM     86  O   UNL     1      -8.771   8.929  -6.495  1.00  0.00    -0.237 OA
ATOM     87  O   UNL     1      -7.931   6.851  -7.505  1.00  0.00    -0.744 OA
ENDBRANCH  80  84
ENDBRANCH  53  77
BRANCH  65  88
ATOM     88  C   UNL     1      -9.028  11.816   1.817  1.00  0.00     0.023 A 
ATOM     89  C   UNL     1      -9.003  10.506   2.352  1.00  0.00     0.031 A 
ATOM     90  C   UNL     1     -10.028  12.689   2.278  1.00  0.00     0.131 A 
ATOM     91  C   UNL     1      -9.961  10.120   3.315  1.00  0.00     0.055 A 
ATOM     92  C   UNL     1     -10.958  12.311   3.246  1.00  0.00     0.041 A 
ATOM     93  F   UNL     1     -10.084  13.954   1.830  1.00  0.00    -0.206 F 
ATOM     94  C   UNL     1     -10.928  11.024   3.768  1.00  0.00     0.022 A 
BRANCH  91  95
ATOM     95  S   UNL     1      -9.947   8.438   4.023  1.00  0.00     0.124 S 
ATOM     96  O   UNL     1     -10.076   7.581   2.850  1.00  0.00    -0.237 OA
ATOM     97  O   UNL     1      -8.662   8.388   4.715  1.00  0.00    -0.237 OA
ATOM     98  O   UNL     1     -11.112   8.431   4.911  1.00  0.00    -0.744 OA
ENDBRANCH  91  95
ENDBRANCH  65  88
ENDBRANCH  39  40
ENDBRANCH  31  34
ENDBRANCH  29  30
ENDBRANCH  28  29
ENDBRANCH   1  28
TORSDOF 17
