REMARK SMILES CO[C@H]1C[C@@H](C(=O)NCCCCNC(=O)c2ccc(-c3c4nc(c(-c5cc(S(=O)(=O)[O-])ccc5F)c5ccc([nH]5)c(-c5cc(S(=O)(=O)[O-])ccc5F)c5nc(c(-c6cc(S(=O)(=O)[O-])ccc6F)c6ccc3[nH]6)C=C5)C=C4)cc2)N(C(=O)c2cc(SC)ccc2C)C1
REMARK SMILES IDX 10 1 9 2 8 3 6 4 7 5 5 7 3 8 4 9 91 10 79 11 2 12 1 13 80 14
REMARK SMILES IDX 81 15 82 16 83 17 89 18 84 19 88 20 90 21 87 22 85 23 86 24
REMARK SMILES IDX 11 25 12 26 13 27 14 28 15 30 16 31 17 32 78 33 18 34 77 35
REMARK SMILES IDX 19 36 20 37 21 38 71 39 22 40 76 41 70 42 72 43 23 44 75 45
REMARK SMILES IDX 69 46 68 47 24 49 56 50 36 51 55 52 37 53 40 54 54 55 73 56
REMARK SMILES IDX 38 57 39 58 53 60 74 61 41 62 25 63 26 64 34 65 27 66 33 67
REMARK SMILES IDX 35 68 32 69 28 70 29 71 30 72 31 73 57 74 58 75 66 76 59 77
REMARK SMILES IDX 65 78 67 79 64 80 60 81 61 82 62 83 63 84 42 85 43 86 51 87
REMARK SMILES IDX 44 88 50 89 52 90 49 91 45 92 46 93 47 94 48 95
REMARK H PARENT 8 6 13 29 72 48 40 59
REMARK Flexibility Score: inf
ROOT
ATOM      1  C   UNL     1       5.347   0.028   2.292  1.00  0.00     0.023 C 
ENDROOT
BRANCH   1   2
ATOM      2  C   UNL     1       4.651   0.589   1.057  1.00  0.00     0.116 C 
BRANCH   2   3
ATOM      3  N   UNL     1       4.691  -0.308  -0.081  1.00  0.00    -0.354 N 
ATOM      4  C   UNL     1       3.732  -0.997  -0.748  1.00  0.00     0.242 C 
ATOM      5  O   UNL     1       4.020  -1.274  -1.920  1.00  0.00    -0.273 OA
ATOM      6  H   UNL     1       5.596  -0.444  -0.443  1.00  0.00     0.163 HD
BRANCH   4   7
ATOM      7  C   UNL     1       2.371  -1.478  -0.179  1.00  0.00     0.177 C 
ATOM      8  C   UNL     1       0.653  -1.671   1.491  1.00  0.00     0.139 C 
ATOM      9  C   UNL     1       1.912  -0.883   1.148  1.00  0.00     0.069 C 
ATOM     10  C   UNL     1       0.986  -3.071   0.983  1.00  0.00     0.152 C 
ATOM     11  N   UNL     1       2.091  -2.920   0.044  1.00  0.00    -0.324 N 
BRANCH   8  12
ATOM     12  O   UNL     1       0.434  -1.614   2.897  1.00  0.00    -0.380 OA
ATOM     13  C   UNL     1      -0.840  -2.124   3.270  1.00  0.00     0.195 C 
ENDBRANCH   8  12
BRANCH  11  14
ATOM     14  C   UNL     1       2.381  -4.029  -0.738  1.00  0.00     0.254 C 
ATOM     15  O   UNL     1       1.669  -5.035  -0.735  1.00  0.00    -0.269 OA
BRANCH  14  16
ATOM     16  C   UNL     1       3.623  -4.103  -1.531  1.00  0.00     0.044 A 
ATOM     17  C   UNL     1       3.478  -4.384  -2.900  1.00  0.00     0.029 A 
ATOM     18  C   UNL     1       4.900  -4.053  -0.945  1.00  0.00    -0.038 A 
ATOM     19  C   UNL     1       4.596  -4.557  -3.724  1.00  0.00     0.008 A 
ATOM     20  C   UNL     1       6.016  -4.192  -1.785  1.00  0.00     0.005 A 
ATOM     21  C   UNL     1       5.151  -3.896   0.527  1.00  0.00     0.045 C 
ATOM     22  C   UNL     1       5.865  -4.431  -3.156  1.00  0.00     0.015 A 
BRANCH  19  23
ATOM     23  S   UNL     1       4.293  -4.931  -5.449  1.00  0.00    -0.130 SA
ATOM     24  C   UNL     1       5.896  -5.561  -6.015  1.00  0.00     0.091 C 
ENDBRANCH  19  23
ENDBRANCH  14  16
ENDBRANCH  11  14
ENDBRANCH   4   7
ENDBRANCH   2   3
ENDBRANCH   1   2
BRANCH   1  25
ATOM     25  C   UNL     1       6.873  -0.070   2.195  1.00  0.00     0.023 C 
BRANCH  25  26
ATOM     26  C   UNL     1       7.612   1.198   1.767  1.00  0.00     0.116 C 
BRANCH  26  27
ATOM     27  N   UNL     1       7.269   2.375   2.550  1.00  0.00    -0.352 N 
ATOM     28  C   UNL     1       8.082   3.404   2.974  1.00  0.00     0.251 C 
ATOM     29  H   UNL     1       6.323   2.447   2.815  1.00  0.00     0.163 HD
ATOM     30  O   UNL     1       7.624   4.293   3.680  1.00  0.00    -0.269 OA
BRANCH  28  31
ATOM     31  C   UNL     1       9.518   3.394   2.618  1.00  0.00     0.039 A 
ATOM     32  C   UNL     1      10.462   3.522   3.641  1.00  0.00     0.014 A 
ATOM     33  C   UNL     1       9.931   3.202   1.297  1.00  0.00     0.014 A 
ATOM     34  C   UNL     1      11.819   3.349   3.356  1.00  0.00     0.010 A 
ATOM     35  C   UNL     1      11.280   2.979   1.024  1.00  0.00     0.010 A 
ATOM     36  C   UNL     1      12.231   3.019   2.056  1.00  0.00    -0.014 A 
BRANCH  36  37
ATOM     37  C   UNL     1      13.636   2.630   1.765  1.00  0.00     0.031 A 
ATOM     38  C   UNL     1      14.485   3.471   0.856  1.00  0.00     0.074 A 
ATOM     39  C   UNL     1      14.101   1.454   2.235  1.00  0.00     0.049 A 
ATOM     40  N   UNL     1      15.677   3.223   0.377  1.00  0.00    -0.248 NA
ATOM     41  C   UNL     1      13.907   4.746   0.406  1.00  0.00     0.031 C 
ATOM     42  C   UNL     1      13.351   0.532   3.093  1.00  0.00     0.029 A 
ATOM     43  N   UNL     1      15.301   0.817   2.038  1.00  0.00    -0.354 N 
ATOM     44  C   UNL     1      15.987   4.299  -0.446  1.00  0.00     0.074 A 
ATOM     45  C   UNL     1      14.841   5.185  -0.427  1.00  0.00     0.031 C 
ATOM     46  C   UNL     1      14.104  -0.551   3.341  1.00  0.00     0.029 A 
ATOM     47  C   UNL     1      15.369  -0.427   2.625  1.00  0.00     0.049 A 
ATOM     48  H   UNL     1      16.043   1.211   1.525  1.00  0.00     0.167 HD
ATOM     49  C   UNL     1      17.127   4.529  -1.143  1.00  0.00     0.034 A 
ATOM     50  C   UNL     1      16.325  -1.376   2.566  1.00  0.00     0.034 A 
ATOM     51  C   UNL     1      18.268   3.645  -1.133  1.00  0.00     0.049 A 
ATOM     52  C   UNL     1      17.569  -1.108   1.759  1.00  0.00     0.074 A 
ATOM     53  C   UNL     1      19.510   3.837  -1.714  1.00  0.00     0.029 A 
ATOM     54  N   UNL     1      18.301   2.396  -0.530  1.00  0.00    -0.354 N 
ATOM     55  N   UNL     1      17.878  -0.047   1.050  1.00  0.00    -0.248 NA
ATOM     56  C   UNL     1      18.591  -2.163   1.743  1.00  0.00     0.031 C 
ATOM     57  C   UNL     1      20.268   2.677  -1.521  1.00  0.00     0.029 A 
ATOM     58  C   UNL     1      19.523   1.785  -0.766  1.00  0.00     0.049 A 
ATOM     59  H   UNL     1      17.564   2.000  -0.010  1.00  0.00     0.167 HD
ATOM     60  C   UNL     1      19.137  -0.303   0.517  1.00  0.00     0.074 A 
ATOM     61  C   UNL     1      19.538  -1.608   1.001  1.00  0.00     0.031 C 
ATOM     62  C   UNL     1      19.897   0.472  -0.298  1.00  0.00     0.034 A 
BRANCH  49  63
ATOM     63  C   UNL     1      17.188   5.769  -1.997  1.00  0.00     0.023 A 
ATOM     64  C   UNL     1      17.175   7.057  -1.435  1.00  0.00     0.031 A 
ATOM     65  C   UNL     1      17.266   5.660  -3.397  1.00  0.00     0.131 A 
ATOM     66  C   UNL     1      17.180   8.184  -2.271  1.00  0.00     0.055 A 
ATOM     67  C   UNL     1      17.339   6.785  -4.220  1.00  0.00     0.041 A 
ATOM     68  F   UNL     1      17.264   4.455  -3.989  1.00  0.00    -0.206 F 
ATOM     69  C   UNL     1      17.285   8.057  -3.658  1.00  0.00     0.022 A 
BRANCH  66  70
ATOM     70  S   UNL     1      16.938   9.819  -1.524  1.00  0.00     0.124 S 
ATOM     71  O   UNL     1      15.623   9.668  -0.905  1.00  0.00    -0.237 OA
ATOM     72  O   UNL     1      18.067   9.918  -0.607  1.00  0.00    -0.237 OA
ATOM     73  O   UNL     1      16.980  10.728  -2.667  1.00  0.00    -0.744 OA
ENDBRANCH  66  70
ENDBRANCH  49  63
BRANCH  50  74
ATOM     74  C   UNL     1      16.130  -2.689   3.245  1.00  0.00     0.023 A 
ATOM     75  C   UNL     1      16.956  -3.085   4.307  1.00  0.00     0.031 A 
ATOM     76  C   UNL     1      15.142  -3.589   2.805  1.00  0.00     0.131 A 
ATOM     77  C   UNL     1      16.811  -4.365   4.866  1.00  0.00     0.055 A 
ATOM     78  C   UNL     1      14.968  -4.841   3.397  1.00  0.00     0.041 A 
ATOM     79  F   UNL     1      14.322  -3.257   1.795  1.00  0.00    -0.206 F 
ATOM     80  C   UNL     1      15.815  -5.240   4.426  1.00  0.00     0.022 A 
BRANCH  77  81
ATOM     81  S   UNL     1      18.003  -4.904   6.121  1.00  0.00     0.124 S 
ATOM     82  O   UNL     1      19.270  -4.741   5.418  1.00  0.00    -0.237 OA
ATOM     83  O   UNL     1      17.745  -3.963   7.206  1.00  0.00    -0.237 OA
ATOM     84  O   UNL     1      17.612  -6.286   6.391  1.00  0.00    -0.744 OA
ENDBRANCH  77  81
ENDBRANCH  50  74
BRANCH  62  85
ATOM     85  C   UNL     1      21.243  -0.074  -0.698  1.00  0.00     0.023 A 
ATOM     86  C   UNL     1      21.359  -1.167  -1.574  1.00  0.00     0.031 A 
ATOM     87  C   UNL     1      22.422   0.503  -0.194  1.00  0.00     0.131 A 
ATOM     88  C   UNL     1      22.627  -1.677  -1.888  1.00  0.00     0.055 A 
ATOM     89  C   UNL     1      23.682   0.023  -0.551  1.00  0.00     0.041 A 
ATOM     90  F   UNL     1      22.365   1.547   0.648  1.00  0.00    -0.206 F 
ATOM     91  C   UNL     1      23.790  -1.079  -1.395  1.00  0.00     0.022 A 
BRANCH  88  92
ATOM     92  S   UNL     1      22.737  -3.175  -2.905  1.00  0.00     0.124 S 
ATOM     93  O   UNL     1      22.066  -4.161  -2.063  1.00  0.00    -0.237 OA
ATOM     94  O   UNL     1      22.027  -2.784  -4.118  1.00  0.00    -0.237 OA
ATOM     95  O   UNL     1      24.176  -3.374  -3.067  1.00  0.00    -0.744 OA
ENDBRANCH  88  92
ENDBRANCH  62  85
ENDBRANCH  36  37
ENDBRANCH  28  31
ENDBRANCH  26  27
ENDBRANCH  25  26
ENDBRANCH   1  25
TORSDOF 18
