REMARK SMILES CCCC(=O)N(c1cc2sc(=O)oc2c2ccccc12)S(=O)(=O)c1ccc(C(=O)NCCCCNC(=O)c2ccc(-c3c4nc(c(-c5cc(S(=O)(=O)[O-])ccc5F)c5ccc([nH]5)c(-c5cc(S(=O)(=O)[O-])ccc5F)c5nc(c(-c6cc(S(=O)(=O)[O-])ccc6F)c6ccc3[nH]6)C=C5)C=C4)cc2)cc1
REMARK SMILES IDX 31 1 30 2 28 3 29 4 27 6 24 7 25 8 102 9 26 10 101 11 21 12
REMARK SMILES IDX 22 13 23 14 6 15 4 16 5 17 3 18 2 19 1 20 7 21 8 22 20 23
REMARK SMILES IDX 9 24 15 25 19 26 10 27 14 28 16 29 18 30 11 31 13 32 17 33
REMARK SMILES IDX 12 34 32 35 33 36 34 37 35 38 36 39 37 41 38 42 39 43 100 44
REMARK SMILES IDX 40 45 99 46 41 47 42 48 43 49 93 50 44 51 98 52 92 53 94 54
REMARK SMILES IDX 45 55 97 56 91 57 90 58 46 60 78 61 58 62 77 63 59 64 62 65
REMARK SMILES IDX 76 66 95 67 60 68 61 69 75 71 96 72 63 73 47 74 48 75 56 76
REMARK SMILES IDX 49 77 55 78 57 79 54 80 50 81 51 82 52 83 53 84 79 85 80 86
REMARK SMILES IDX 88 87 81 88 87 89 89 90 86 91 82 92 83 93 84 94 85 95 64 96
REMARK SMILES IDX 65 97 73 98 66 99 72 100 74 101 71 102 67 103 68 104 69 105
REMARK SMILES IDX 70 106
REMARK H PARENT 30 5 35 40 94 59 62 70
REMARK Flexibility Score: inf
ROOT
ATOM      1  C   UNL     1       1.745  -9.165   2.648  1.00  0.00     0.116 C 
ENDROOT
BRANCH   1   2
ATOM      2  N   UNL     1       2.055  -8.207   3.692  1.00  0.00    -0.352 N 
ATOM      3  C   UNL     1       1.716  -6.886   3.832  1.00  0.00     0.251 C 
ATOM      4  O   UNL     1       2.027  -6.319   4.881  1.00  0.00    -0.269 OA
ATOM      5  H   UNL     1       2.604  -8.568   4.426  1.00  0.00     0.163 HD
BRANCH   3   6
ATOM      6  C   UNL     1       1.056  -6.091   2.754  1.00  0.00     0.039 A 
ATOM      7  C   UNL     1       0.097  -4.420   0.690  1.00  0.00     0.088 A 
ATOM      8  C   UNL     1       0.620  -3.869   1.859  1.00  0.00     0.023 A 
ATOM      9  C   UNL     1      -0.085  -5.802   0.623  1.00  0.00     0.023 A 
ATOM     10  C   UNL     1       1.153  -4.697   2.851  1.00  0.00     0.015 A 
ATOM     11  C   UNL     1       0.345  -6.620   1.674  1.00  0.00     0.015 A 
BRANCH   7  12
ATOM     12  S   UNL     1      -0.525  -3.407  -0.653  1.00  0.00     0.270 S 
ATOM     13  O   UNL     1      -1.633  -2.669  -0.082  1.00  0.00    -0.201 OA
ATOM     14  O   UNL     1      -0.735  -4.323  -1.759  1.00  0.00    -0.201 OA
BRANCH  12  15
ATOM     15  N   UNL     1       0.710  -2.316  -1.151  1.00  0.00    -0.202 N 
BRANCH  15  16
ATOM     16  C   UNL     1       0.451  -1.521  -2.326  1.00  0.00     0.241 C 
ATOM     17  O   UNL     1      -0.605  -1.601  -2.950  1.00  0.00    -0.273 OA
BRANCH  16  18
ATOM     18  C   UNL     1       1.515  -0.542  -2.815  1.00  0.00     0.101 C 
BRANCH  18  19
ATOM     19  C   UNL     1       1.172   0.911  -2.473  1.00  0.00     0.006 C 
ATOM     20  C   UNL     1       2.292   1.619  -1.722  1.00  0.00     0.004 C 
ENDBRANCH  18  19
ENDBRANCH  16  18
ENDBRANCH  15  16
BRANCH  15  21
ATOM     21  C   UNL     1       1.500  -1.675  -0.131  1.00  0.00     0.070 A 
ATOM     22  C   UNL     1       2.774  -2.229   0.085  1.00  0.00     0.051 A 
ATOM     23  C   UNL     1       1.013  -0.593   0.676  1.00  0.00     0.010 A 
ATOM     24  C   UNL     1       3.543  -1.747   1.127  1.00  0.00     0.080 A 
ATOM     25  C   UNL     1       1.850  -0.083   1.704  1.00  0.00     0.028 A 
ATOM     26  C   UNL     1      -0.263   0.002   0.531  1.00  0.00     0.011 A 
ATOM     27  S   UNL     1       5.091  -2.345   1.689  1.00  0.00    -0.052 S 
ATOM     28  C   UNL     1       3.091  -0.700   1.920  1.00  0.00     0.157 A 
ATOM     29  C   UNL     1       1.419   1.006   2.488  1.00  0.00     0.013 A 
ATOM     30  C   UNL     1      -0.678   1.075   1.319  1.00  0.00     0.001 A 
ATOM     31  C   UNL     1       5.021  -1.168   3.004  1.00  0.00     0.396 A 
ATOM     32  O   UNL     1       3.917  -0.318   2.984  1.00  0.00    -0.413 OA
ATOM     33  C   UNL     1       0.169   1.587   2.289  1.00  0.00     0.001 A 
ATOM     34  O   UNL     1       5.889  -1.093   3.862  1.00  0.00    -0.233 OA
ENDBRANCH  15  21
ENDBRANCH  12  15
ENDBRANCH   7  12
ENDBRANCH   3   6
ENDBRANCH   1   2
BRANCH   1  35
ATOM     35  C   UNL     1       2.517 -10.475   2.724  1.00  0.00     0.023 C 
BRANCH  35  36
ATOM     36  C   UNL     1       2.555 -11.147   4.096  1.00  0.00     0.023 C 
BRANCH  36  37
ATOM     37  C   UNL     1       1.212 -11.229   4.825  1.00  0.00     0.116 C 
BRANCH  37  38
ATOM     38  N   UNL     1       0.281 -12.206   4.285  1.00  0.00    -0.352 N 
ATOM     39  C   UNL     1       0.313 -13.583   4.370  1.00  0.00     0.251 C 
ATOM     40  H   UNL     1      -0.482 -11.831   3.788  1.00  0.00     0.163 HD
ATOM     41  O   UNL     1      -0.570 -14.258   3.869  1.00  0.00    -0.269 OA
BRANCH  39  42
ATOM     42  C   UNL     1       1.473 -14.216   5.027  1.00  0.00     0.039 A 
ATOM     43  C   UNL     1       1.804 -13.879   6.341  1.00  0.00     0.014 A 
ATOM     44  C   UNL     1       2.299 -15.045   4.265  1.00  0.00     0.014 A 
ATOM     45  C   UNL     1       3.052 -14.226   6.835  1.00  0.00     0.010 A 
ATOM     46  C   UNL     1       3.526 -15.443   4.785  1.00  0.00     0.010 A 
ATOM     47  C   UNL     1       3.927 -14.979   6.044  1.00  0.00    -0.014 A 
BRANCH  47  48
ATOM     48  C   UNL     1       5.247 -15.255   6.628  1.00  0.00     0.031 A 
ATOM     49  C   UNL     1       5.455 -16.701   6.947  1.00  0.00     0.074 A 
ATOM     50  C   UNL     1       6.313 -14.534   6.224  1.00  0.00     0.049 A 
ATOM     51  N   UNL     1       5.813 -17.602   6.081  1.00  0.00    -0.248 NA
ATOM     52  C   UNL     1       4.990 -17.250   8.222  1.00  0.00     0.031 C 
ATOM     53  C   UNL     1       6.623 -14.202   4.829  1.00  0.00     0.029 A 
ATOM     54  N   UNL     1       7.440 -14.172   6.926  1.00  0.00    -0.354 N 
ATOM     55  C   UNL     1       5.579 -18.836   6.666  1.00  0.00     0.074 A 
ATOM     56  C   UNL     1       5.065 -18.568   7.990  1.00  0.00     0.031 C 
ATOM     57  C   UNL     1       7.918 -13.842   4.750  1.00  0.00     0.029 A 
ATOM     58  C   UNL     1       8.495 -13.809   6.091  1.00  0.00     0.049 A 
ATOM     59  H   UNL     1       7.495 -14.170   7.909  1.00  0.00     0.167 HD
ATOM     60  C   UNL     1       5.819 -20.020   6.044  1.00  0.00     0.034 A 
ATOM     61  C   UNL     1       9.803 -14.029   6.393  1.00  0.00     0.034 A 
ATOM     62  C   UNL     1       6.438 -19.921   4.758  1.00  0.00     0.049 A 
ATOM     63  C   UNL     1       9.945 -15.481   6.000  1.00  0.00     0.074 A 
ATOM     64  C   UNL     1       6.049 -19.963   3.440  1.00  0.00     0.029 A 
ATOM     65  N   UNL     1       7.789 -19.661   4.726  1.00  0.00    -0.354 N 
ATOM     66  N   UNL     1      10.101 -15.934   4.780  1.00  0.00    -0.248 NA
ATOM     67  C   UNL     1       9.512 -16.494   6.965  1.00  0.00     0.031 C 
ATOM     68  C   UNL     1       7.097 -19.321   2.710  1.00  0.00     0.029 A 
ATOM     69  C   UNL     1       8.037 -18.865   3.637  1.00  0.00     0.049 A 
ATOM     70  H   UNL     1       8.458 -19.988   5.370  1.00  0.00     0.167 HD
ATOM     71  C   UNL     1       9.479 -17.188   4.766  1.00  0.00     0.074 A 
ATOM     72  C   UNL     1       9.185 -17.490   6.151  1.00  0.00     0.031 C 
ATOM     73  C   UNL     1       9.043 -17.817   3.633  1.00  0.00     0.034 A 
BRANCH  60  74
ATOM     74  C   UNL     1       5.659 -21.342   6.692  1.00  0.00     0.023 A 
ATOM     75  C   UNL     1       4.426 -22.004   6.784  1.00  0.00     0.031 A 
ATOM     76  C   UNL     1       6.823 -22.015   7.103  1.00  0.00     0.131 A 
ATOM     77  C   UNL     1       4.398 -23.327   7.256  1.00  0.00     0.055 A 
ATOM     78  C   UNL     1       6.790 -23.329   7.560  1.00  0.00     0.041 A 
ATOM     79  F   UNL     1       8.018 -21.403   7.034  1.00  0.00    -0.206 F 
ATOM     80  C   UNL     1       5.572 -23.994   7.632  1.00  0.00     0.022 A 
BRANCH  77  81
ATOM     81  S   UNL     1       2.845 -24.258   7.388  1.00  0.00     0.124 S 
ATOM     82  O   UNL     1       3.071 -25.366   6.463  1.00  0.00    -0.237 OA
ATOM     83  O   UNL     1       2.830 -24.621   8.804  1.00  0.00    -0.237 OA
ATOM     84  O   UNL     1       1.826 -23.297   6.982  1.00  0.00    -0.744 OA
ENDBRANCH  77  81
ENDBRANCH  60  74
BRANCH  61  85
ATOM     85  C   UNL     1      10.211 -13.406   7.690  1.00  0.00     0.023 A 
ATOM     86  C   UNL     1      10.480 -14.083   8.885  1.00  0.00     0.031 A 
ATOM     87  C   UNL     1      10.194 -11.991   7.750  1.00  0.00     0.131 A 
ATOM     88  C   UNL     1      10.562 -13.373  10.096  1.00  0.00     0.055 A 
ATOM     89  C   UNL     1      10.335 -11.283   8.947  1.00  0.00     0.041 A 
ATOM     90  F   UNL     1      10.000 -11.270   6.633  1.00  0.00    -0.206 F 
ATOM     91  C   UNL     1      10.490 -11.979  10.137  1.00  0.00     0.022 A 
BRANCH  88  92
ATOM     92  S   UNL     1      10.669 -14.265  11.673  1.00  0.00     0.124 S 
ATOM     93  O   UNL     1      11.710 -13.526  12.382  1.00  0.00    -0.237 OA
ATOM     94  O   UNL     1       9.312 -14.102  12.187  1.00  0.00    -0.237 OA
ATOM     95  O   UNL     1      11.028 -15.620  11.267  1.00  0.00    -0.744 OA
ENDBRANCH  88  92
ENDBRANCH  61  85
BRANCH  73  96
ATOM     96  C   UNL     1       9.462 -17.223   2.323  1.00  0.00     0.023 A 
ATOM     97  C   UNL     1       8.505 -16.747   1.407  1.00  0.00     0.031 A 
ATOM     98  C   UNL     1      10.805 -17.258   1.922  1.00  0.00     0.131 A 
ATOM     99  C   UNL     1       8.888 -16.419   0.102  1.00  0.00     0.055 A 
ATOM    100  C   UNL     1      11.193 -16.862   0.641  1.00  0.00     0.041 A 
ATOM    101  F   UNL     1      11.754 -17.736   2.745  1.00  0.00    -0.206 F 
ATOM    102  C   UNL     1      10.231 -16.460  -0.282  1.00  0.00     0.022 A 
BRANCH  99 103
ATOM    103  S   UNL     1       7.647 -16.021  -1.159  1.00  0.00     0.124 S 
ATOM    104  O   UNL     1       8.192 -14.810  -1.769  1.00  0.00    -0.237 OA
ATOM    105  O   UNL     1       7.684 -17.214  -2.003  1.00  0.00    -0.237 OA
ATOM    106  O   UNL     1       6.416 -15.830  -0.399  1.00  0.00    -0.744 OA
ENDBRANCH  99 103
ENDBRANCH  73  96
ENDBRANCH  47  48
ENDBRANCH  39  42
ENDBRANCH  37  38
ENDBRANCH  36  37
ENDBRANCH  35  36
ENDBRANCH   1  35
TORSDOF 20
