REMARK SMILES Cc1c(C(=O)NCCCCNC(=O)c2ccc(-c3c4nc(c(-c5cc(S(=O)(=O)[O-])ccc5F)c5ccc([nH]5)c(-c5cc(S(=O)(=O)[O-])ccc5F)c5nc(c(-c6cc(S(=O)(=O)[O-])ccc6F)c6ccc3[nH]6)C=C5)C=C4)cc2)sc2nc3n(c(=O)c12)CC/C3=C\c1ccc(OC(F)F)cc1
REMARK SMILES IDX 8 1 7 2 6 3 4 4 5 5 3 7 1 8 2 9 84 10 77 11 78 12 82 13
REMARK SMILES IDX 79 14 81 15 83 16 80 17 85 18 87 19 86 20 88 21 89 22 90 23
REMARK SMILES IDX 98 24 91 25 97 26 92 27 93 28 94 29 95 30 96 31 9 32 10 33
REMARK SMILES IDX 11 34 12 35 13 37 14 38 15 39 76 40 16 41 75 42 17 43 18 44
REMARK SMILES IDX 19 45 69 46 20 47 74 48 68 49 70 50 21 51 73 52 67 53 66 54
REMARK SMILES IDX 22 56 54 57 34 58 53 59 35 60 38 61 52 62 71 63 36 64 37 65
REMARK SMILES IDX 51 67 72 68 39 69 23 70 24 71 32 72 25 73 31 74 33 75 30 76
REMARK SMILES IDX 26 77 27 78 28 79 29 80 55 81 56 82 64 83 57 84 63 85 65 86
REMARK SMILES IDX 62 87 58 88 59 89 60 90 61 91 40 92 41 93 49 94 42 95 48 96
REMARK SMILES IDX 50 97 47 98 43 99 44 100 45 101 46 102
REMARK H PARENT 6 6 11 36 70 55 38 66
REMARK Flexibility Score: inf
ROOT
ATOM      1  C   UNL     1       0.224   2.091  -1.641  1.00  0.00     0.023 C 
ENDROOT
BRANCH   1   2
ATOM      2  C   UNL     1       1.138   2.330  -0.426  1.00  0.00     0.116 C 
BRANCH   2   3
ATOM      3  N   UNL     1       0.370   2.633   0.772  1.00  0.00    -0.351 N 
ATOM      4  C   UNL     1      -0.087   1.901   1.848  1.00  0.00     0.261 C 
ATOM      5  O   UNL     1      -0.657   2.596   2.699  1.00  0.00    -0.268 OA
ATOM      6  H   UNL     1       0.118   3.583   0.828  1.00  0.00     0.163 HD
BRANCH   4   7
ATOM      7  C   UNL     1       0.082   0.448   2.011  1.00  0.00     0.098 A 
ATOM      8  C   UNL     1       0.235  -0.683  -0.331  1.00  0.00     0.047 C 
ATOM      9  C   UNL     1       0.295  -0.625   1.152  1.00  0.00    -0.012 A 
ATOM     10  C   UNL     1       0.519  -1.841   1.874  1.00  0.00     0.081 A 
ATOM     11  S   UNL     1      -0.170  -0.176   3.639  1.00  0.00    -0.110 S 
ATOM     12  C   UNL     1       0.110  -1.796   3.187  1.00  0.00     0.132 A 
ATOM     13  C   UNL     1       0.922  -3.111   1.323  1.00  0.00     0.262 A 
ATOM     14  N   UNL     1      -0.082  -2.875   4.016  1.00  0.00    -0.219 NA
ATOM     15  N   UNL     1       0.586  -4.158   2.131  1.00  0.00    -0.292 N 
ATOM     16  O   UNL     1       1.488  -3.244   0.239  1.00  0.00    -0.269 OA
ATOM     17  C   UNL     1       0.127  -4.014   3.436  1.00  0.00     0.140 A 
ATOM     18  C   UNL     1       0.734  -5.503   1.678  1.00  0.00     0.132 C 
ATOM     19  C   UNL     1      -0.030  -5.407   3.945  1.00  0.00    -0.002 C 
ATOM     20  C   UNL     1       0.334  -6.371   2.838  1.00  0.00     0.061 C 
ATOM     21  C   UNL     1      -0.416  -5.764   5.181  1.00  0.00     0.015 C 
BRANCH  21  22
ATOM     22  C   UNL     1      -0.439  -7.195   5.520  1.00  0.00    -0.025 A 
ATOM     23  C   UNL     1      -1.639  -7.905   5.585  1.00  0.00     0.012 A 
ATOM     24  C   UNL     1       0.771  -7.902   5.583  1.00  0.00     0.012 A 
ATOM     25  C   UNL     1      -1.619  -9.305   5.647  1.00  0.00     0.047 A 
ATOM     26  C   UNL     1       0.787  -9.299   5.610  1.00  0.00     0.047 A 
ATOM     27  C   UNL     1      -0.409 -10.011   5.626  1.00  0.00     0.126 A 
BRANCH  27  28
ATOM     28  O   UNL     1      -0.534 -11.371   5.615  1.00  0.00    -0.435 OA
BRANCH  28  29
ATOM     29  C   UNL     1       0.642 -12.150   5.428  1.00  0.00     0.542 C 
ATOM     30  F   UNL     1       1.244 -11.815   4.261  1.00  0.00    -0.167 F 
ATOM     31  F   UNL     1       1.515 -11.930   6.439  1.00  0.00    -0.167 F 
ENDBRANCH  28  29
ENDBRANCH  27  28
ENDBRANCH  21  22
ENDBRANCH   4   7
ENDBRANCH   2   3
ENDBRANCH   1   2
BRANCH   1  32
ATOM     32  C   UNL     1       0.010   3.251  -2.613  1.00  0.00     0.023 C 
BRANCH  32  33
ATOM     33  C   UNL     1       1.222   3.578  -3.471  1.00  0.00     0.116 C 
BRANCH  33  34
ATOM     34  N   UNL     1       1.589   2.506  -4.399  1.00  0.00    -0.352 N 
ATOM     35  C   UNL     1       2.723   2.458  -5.194  1.00  0.00     0.251 C 
ATOM     36  H   UNL     1       0.968   1.744  -4.465  1.00  0.00     0.163 HD
ATOM     37  O   UNL     1       2.757   1.776  -6.211  1.00  0.00    -0.269 OA
BRANCH  35  38
ATOM     38  C   UNL     1       3.889   3.247  -4.762  1.00  0.00     0.039 A 
ATOM     39  C   UNL     1       4.561   4.108  -5.632  1.00  0.00     0.014 A 
ATOM     40  C   UNL     1       4.224   3.178  -3.411  1.00  0.00     0.014 A 
ATOM     41  C   UNL     1       5.516   4.978  -5.104  1.00  0.00     0.010 A 
ATOM     42  C   UNL     1       5.061   4.125  -2.876  1.00  0.00     0.010 A 
ATOM     43  C   UNL     1       5.740   5.005  -3.716  1.00  0.00    -0.014 A 
BRANCH  43  44
ATOM     44  C   UNL     1       6.543   6.065  -3.100  1.00  0.00     0.031 A 
ATOM     45  C   UNL     1       6.103   7.448  -3.459  1.00  0.00     0.074 A 
ATOM     46  C   UNL     1       7.429   5.824  -2.104  1.00  0.00     0.049 A 
ATOM     47  N   UNL     1       6.765   8.348  -4.107  1.00  0.00    -0.248 NA
ATOM     48  C   UNL     1       4.701   7.830  -3.197  1.00  0.00     0.031 C 
ATOM     49  C   UNL     1       7.741   4.535  -1.472  1.00  0.00     0.029 A 
ATOM     50  N   UNL     1       8.163   6.694  -1.354  1.00  0.00    -0.354 N 
ATOM     51  C   UNL     1       5.964   9.486  -4.117  1.00  0.00     0.074 A 
ATOM     52  C   UNL     1       4.647   9.053  -3.730  1.00  0.00     0.031 C 
ATOM     53  C   UNL     1       8.389   4.739  -0.303  1.00  0.00     0.029 A 
ATOM     54  C   UNL     1       8.697   6.152  -0.180  1.00  0.00     0.049 A 
ATOM     55  H   UNL     1       8.306   7.632  -1.618  1.00  0.00     0.167 HD
ATOM     56  C   UNL     1       6.506  10.734  -4.194  1.00  0.00     0.034 A 
ATOM     57  C   UNL     1       9.342   6.812   0.823  1.00  0.00     0.034 A 
ATOM     58  C   UNL     1       7.876  10.678  -4.642  1.00  0.00     0.049 A 
ATOM     59  C   UNL     1       9.843   8.070   0.224  1.00  0.00     0.074 A 
ATOM     60  C   UNL     1       8.507  10.235  -5.788  1.00  0.00     0.029 A 
ATOM     61  N   UNL     1       8.853  10.741  -3.678  1.00  0.00    -0.354 N 
ATOM     62  N   UNL     1      10.724   8.108  -0.737  1.00  0.00    -0.248 NA
ATOM     63  C   UNL     1       9.015   9.256   0.361  1.00  0.00     0.031 C 
ATOM     64  C   UNL     1       9.697   9.597  -5.328  1.00  0.00     0.029 A 
ATOM     65  C   UNL     1       9.777   9.760  -3.943  1.00  0.00     0.049 A 
ATOM     66  H   UNL     1       8.885  11.377  -2.927  1.00  0.00     0.167 HD
ATOM     67  C   UNL     1      10.273   9.103  -1.589  1.00  0.00     0.074 A 
ATOM     68  C   UNL     1       9.276   9.840  -0.811  1.00  0.00     0.031 C 
ATOM     69  C   UNL     1      10.541   9.058  -2.927  1.00  0.00     0.034 A 
BRANCH  56  70
ATOM     70  C   UNL     1       5.931  11.958  -3.519  1.00  0.00     0.023 A 
ATOM     71  C   UNL     1       6.496  13.216  -3.810  1.00  0.00     0.031 A 
ATOM     72  C   UNL     1       5.052  11.918  -2.411  1.00  0.00     0.131 A 
ATOM     73  C   UNL     1       6.216  14.336  -3.003  1.00  0.00     0.055 A 
ATOM     74  C   UNL     1       4.733  13.044  -1.649  1.00  0.00     0.041 A 
ATOM     75  F   UNL     1       4.535  10.774  -1.946  1.00  0.00    -0.206 F 
ATOM     76  C   UNL     1       5.332  14.259  -1.929  1.00  0.00     0.022 A 
BRANCH  73  77
ATOM     77  S   UNL     1       7.121  15.878  -3.301  1.00  0.00     0.124 S 
ATOM     78  O   UNL     1       8.503  15.456  -3.107  1.00  0.00    -0.237 OA
ATOM     79  O   UNL     1       6.730  16.198  -4.670  1.00  0.00    -0.237 OA
ATOM     80  O   UNL     1       6.596  16.783  -2.280  1.00  0.00    -0.744 OA
ENDBRANCH  73  77
ENDBRANCH  56  70
BRANCH  57  81
ATOM     81  C   UNL     1       9.265   6.600   2.302  1.00  0.00     0.023 A 
ATOM     82  C   UNL     1      10.144   7.250   3.203  1.00  0.00     0.031 A 
ATOM     83  C   UNL     1       8.134   5.978   2.873  1.00  0.00     0.131 A 
ATOM     84  C   UNL     1       9.864   7.278   4.591  1.00  0.00     0.055 A 
ATOM     85  C   UNL     1       7.862   6.011   4.245  1.00  0.00     0.041 A 
ATOM     86  F   UNL     1       7.199   5.396   2.107  1.00  0.00    -0.206 F 
ATOM     87  C   UNL     1       8.718   6.674   5.109  1.00  0.00     0.022 A 
BRANCH  84  88
ATOM     88  S   UNL     1      10.924   8.220   5.742  1.00  0.00     0.124 S 
ATOM     89  O   UNL     1      12.066   7.327   5.906  1.00  0.00    -0.237 OA
ATOM     90  O   UNL     1      11.169   9.458   5.012  1.00  0.00    -0.237 OA
ATOM     91  O   UNL     1      10.084   8.369   6.931  1.00  0.00    -0.744 OA
ENDBRANCH  84  88
ENDBRANCH  57  81
BRANCH  69  92
ATOM     92  C   UNL     1      11.605   8.091  -3.416  1.00  0.00     0.023 A 
ATOM     93  C   UNL     1      11.538   6.679  -3.342  1.00  0.00     0.031 A 
ATOM     94  C   UNL     1      12.686   8.657  -4.114  1.00  0.00     0.131 A 
ATOM     95  C   UNL     1      12.538   5.895  -3.961  1.00  0.00     0.055 A 
ATOM     96  C   UNL     1      13.657   7.880  -4.740  1.00  0.00     0.041 A 
ATOM     97  F   UNL     1      12.790   9.991  -4.236  1.00  0.00    -0.206 F 
ATOM     98  C   UNL     1      13.588   6.495  -4.665  1.00  0.00     0.022 A 
BRANCH  95  99
ATOM     99  S   UNL     1      12.488   4.071  -3.881  1.00  0.00     0.124 S 
ATOM    100  O   UNL     1      12.465   3.798  -2.448  1.00  0.00    -0.237 OA
ATOM    101  O   UNL     1      11.268   3.748  -4.615  1.00  0.00    -0.237 OA
ATOM    102  O   UNL     1      13.723   3.663  -4.555  1.00  0.00    -0.744 OA
ENDBRANCH  95  99
ENDBRANCH  69  92
ENDBRANCH  43  44
ENDBRANCH  35  38
ENDBRANCH  33  34
ENDBRANCH  32  33
ENDBRANCH   1  32
TORSDOF 17
