REMARK SMILES CC(C)CN(C)c1cc2c(cc1Cl)C=C(C(=O)NCCCCNC(=O)c1ccc(-c3c4nc(c(-c5cc(S(=O)(=O)[O-])ccc5F)c5ccc([nH]5)c(-c5cc(S(=O)(=O)[O-])ccc5F)c5nc(c(-c6cc(S(=O)(=O)[O-])ccc6F)c6ccc3[nH]6)C=C5)C=C4)cc1)[C@@H](C(F)(F)F)O2
REMARK SMILES IDX 20 1 19 2 18 3 16 4 17 5 15 7 7 8 8 9 12 10 9 11 11 12 13 13
REMARK SMILES IDX 10 14 94 15 14 16 89 17 5 18 6 19 4 20 2 21 1 22 3 23 90 24
REMARK SMILES IDX 91 25 92 26 93 27 21 28 22 29 23 30 24 31 25 33 26 34 27 35
REMARK SMILES IDX 88 36 28 37 87 38 29 39 30 40 31 41 81 42 32 43 86 44 80 45
REMARK SMILES IDX 82 46 33 47 85 48 79 49 78 50 34 52 66 53 46 54 65 55 47 56
REMARK SMILES IDX 50 57 64 58 83 59 48 60 49 61 63 63 84 64 51 65 35 66 36 67
REMARK SMILES IDX 44 68 37 69 43 70 45 71 42 72 38 73 39 74 40 75 41 76 67 77
REMARK SMILES IDX 68 78 76 79 69 80 75 81 77 82 74 83 70 84 71 85 72 86 73 87
REMARK SMILES IDX 52 88 53 89 61 90 54 91 60 92 62 93 59 94 55 95 56 96 57 97
REMARK SMILES IDX 58 98
REMARK H PARENT 18 6 23 32 82 51 50 62
REMARK Flexibility Score: inf
ROOT
ATOM      1  C   UNL     1      -4.264   2.797   8.025  1.00  0.00     0.023 C 
ENDROOT
BRANCH   1   2
ATOM      2  C   UNL     1      -3.378   3.882   7.420  1.00  0.00     0.116 C 
BRANCH   2   3
ATOM      3  N   UNL     1      -1.975   3.512   7.452  1.00  0.00    -0.352 N 
ATOM      4  C   UNL     1      -1.034   3.154   6.547  1.00  0.00     0.251 C 
ATOM      5  O   UNL     1       0.095   2.949   7.004  1.00  0.00    -0.270 OA
ATOM      6  H   UNL     1      -1.614   3.526   8.368  1.00  0.00     0.163 HD
BRANCH   4   7
ATOM      7  C   UNL     1      -1.274   2.978   5.087  1.00  0.00     0.067 C 
ATOM      8  C   UNL     1      -0.798   1.742   0.215  1.00  0.00     0.059 A 
ATOM      9  C   UNL     1      -1.845   1.694   1.148  1.00  0.00     0.074 A 
ATOM     10  C   UNL     1       0.445   2.260   0.648  1.00  0.00     0.065 A 
ATOM     11  C   UNL     1      -1.642   2.103   2.463  1.00  0.00     0.130 A 
ATOM     12  C   UNL     1       0.665   2.590   1.991  1.00  0.00     0.034 A 
ATOM     13  Cl  UNL     1       1.758   2.517  -0.451  1.00  0.00    -0.082 Cl
ATOM     14  C   UNL     1      -0.378   2.493   2.907  1.00  0.00     0.019 A 
ATOM     15  O   UNL     1      -2.727   2.089   3.300  1.00  0.00    -0.475 OA
ATOM     16  C   UNL     1      -0.183   2.744   4.331  1.00  0.00     0.025 C 
ATOM     17  C   UNL     1      -2.619   3.021   4.419  1.00  0.00     0.314 C 
BRANCH   8  18
ATOM     18  N   UNL     1      -0.991   1.250  -1.087  1.00  0.00    -0.373 N 
ATOM     19  C   UNL     1      -2.029   1.934  -1.855  1.00  0.00     0.143 C 
BRANCH  18  20
ATOM     20  C   UNL     1      -0.920  -0.219  -1.236  1.00  0.00     0.119 C 
BRANCH  20  21
ATOM     21  C   UNL     1       0.532  -0.738  -1.283  1.00  0.00     0.002 C 
ATOM     22  C   UNL     1       1.038  -1.179   0.094  1.00  0.00     0.009 C 
ATOM     23  C   UNL     1       0.655  -1.919  -2.251  1.00  0.00     0.009 C 
ENDBRANCH  20  21
ENDBRANCH  18  20
ENDBRANCH   8  18
BRANCH  17  24
ATOM     24  C   UNL     1      -3.001   4.453   3.977  1.00  0.00     0.429 C 
ATOM     25  F   UNL     1      -4.329   4.530   3.714  1.00  0.00    -0.167 F 
ATOM     26  F   UNL     1      -2.741   5.374   4.937  1.00  0.00    -0.167 F 
ATOM     27  F   UNL     1      -2.348   4.860   2.866  1.00  0.00    -0.167 F 
ENDBRANCH  17  24
ENDBRANCH   4   7
ENDBRANCH   2   3
ENDBRANCH   1   2
BRANCH   1  28
ATOM     28  C   UNL     1      -4.384   2.861   9.548  1.00  0.00     0.023 C 
BRANCH  28  29
ATOM     29  C   UNL     1      -4.888   4.190  10.105  1.00  0.00     0.116 C 
BRANCH  29  30
ATOM     30  N   UNL     1      -6.142   4.647   9.520  1.00  0.00    -0.352 N 
ATOM     31  C   UNL     1      -7.094   5.455  10.104  1.00  0.00     0.251 C 
ATOM     32  H   UNL     1      -6.331   4.345   8.602  1.00  0.00     0.163 HD
ATOM     33  O   UNL     1      -8.145   5.704   9.523  1.00  0.00    -0.269 OA
BRANCH  31  34
ATOM     34  C   UNL     1      -6.839   5.960  11.467  1.00  0.00     0.039 A 
ATOM     35  C   UNL     1      -5.631   6.596  11.755  1.00  0.00     0.014 A 
ATOM     36  C   UNL     1      -7.754   5.674  12.482  1.00  0.00     0.014 A 
ATOM     37  C   UNL     1      -5.256   6.774  13.079  1.00  0.00     0.010 A 
ATOM     38  C   UNL     1      -7.409   5.938  13.810  1.00  0.00     0.010 A 
ATOM     39  C   UNL     1      -6.133   6.433  14.123  1.00  0.00    -0.014 A 
BRANCH  39  40
ATOM     40  C   UNL     1      -5.684   6.598  15.530  1.00  0.00     0.031 A 
ATOM     41  C   UNL     1      -5.510   5.406  16.433  1.00  0.00     0.074 A 
ATOM     42  C   UNL     1      -5.368   7.831  15.969  1.00  0.00     0.049 A 
ATOM     43  N   UNL     1      -5.080   5.368  17.668  1.00  0.00    -0.248 NA
ATOM     44  C   UNL     1      -5.865   4.086  15.886  1.00  0.00     0.031 C 
ATOM     45  C   UNL     1      -5.491   9.053  15.173  1.00  0.00     0.029 A 
ATOM     46  N   UNL     1      -4.852   8.262  17.165  1.00  0.00    -0.354 N 
ATOM     47  C   UNL     1      -5.133   4.033  18.053  1.00  0.00     0.074 A 
ATOM     48  C   UNL     1      -5.664   3.293  16.930  1.00  0.00     0.031 C 
ATOM     49  C   UNL     1      -5.002  10.083  15.875  1.00  0.00     0.029 A 
ATOM     50  C   UNL     1      -4.602   9.614  17.199  1.00  0.00     0.049 A 
ATOM     51  H   UNL     1      -4.678   7.661  17.925  1.00  0.00     0.167 HD
ATOM     52  C   UNL     1      -4.761   3.478  19.232  1.00  0.00     0.034 A 
ATOM     53  C   UNL     1      -4.114  10.395  18.183  1.00  0.00     0.034 A 
ATOM     54  C   UNL     1      -4.207   4.228  20.331  1.00  0.00     0.049 A 
ATOM     55  C   UNL     1      -3.723   9.756  19.489  1.00  0.00     0.074 A 
ATOM     56  C   UNL     1      -3.768   3.751  21.554  1.00  0.00     0.029 A 
ATOM     57  N   UNL     1      -4.007   5.601  20.345  1.00  0.00    -0.354 N 
ATOM     58  N   UNL     1      -3.747   8.487  19.822  1.00  0.00    -0.248 NA
ATOM     59  C   UNL     1      -3.243  10.647  20.553  1.00  0.00     0.031 C 
ATOM     60  C   UNL     1      -3.359   4.838  22.327  1.00  0.00     0.029 A 
ATOM     61  C   UNL     1      -3.477   5.990  21.565  1.00  0.00     0.049 A 
ATOM     62  H   UNL     1      -4.212   6.210  19.599  1.00  0.00     0.167 HD
ATOM     63  C   UNL     1      -3.276   8.425  21.130  1.00  0.00     0.074 A 
ATOM     64  C   UNL     1      -2.945   9.782  21.515  1.00  0.00     0.031 C 
ATOM     65  C   UNL     1      -3.142   7.344  21.939  1.00  0.00     0.034 A 
BRANCH  52  66
ATOM     66  C   UNL     1      -4.920   1.989  19.417  1.00  0.00     0.023 A 
ATOM     67  C   UNL     1      -5.798   1.493  20.401  1.00  0.00     0.031 A 
ATOM     68  C   UNL     1      -4.114   1.071  18.722  1.00  0.00     0.131 A 
ATOM     69  C   UNL     1      -5.824   0.122  20.685  1.00  0.00     0.055 A 
ATOM     70  C   UNL     1      -4.171  -0.299  18.983  1.00  0.00     0.041 A 
ATOM     71  F   UNL     1      -3.262   1.493  17.774  1.00  0.00    -0.206 F 
ATOM     72  C   UNL     1      -5.019  -0.777  19.978  1.00  0.00     0.022 A 
BRANCH  69  73
ATOM     73  S   UNL     1      -6.854  -0.542  22.022  1.00  0.00     0.124 S 
ATOM     74  O   UNL     1      -7.712  -1.480  21.301  1.00  0.00    -0.237 OA
ATOM     75  O   UNL     1      -5.859  -1.155  22.898  1.00  0.00    -0.237 OA
ATOM     76  O   UNL     1      -7.532   0.632  22.560  1.00  0.00    -0.744 OA
ENDBRANCH  69  73
ENDBRANCH  52  66
BRANCH  53  77
ATOM     77  C   UNL     1      -3.933  11.853  17.925  1.00  0.00     0.023 A 
ATOM     78  C   UNL     1      -5.031  12.667  17.589  1.00  0.00     0.031 A 
ATOM     79  C   UNL     1      -2.650  12.421  17.876  1.00  0.00     0.131 A 
ATOM     80  C   UNL     1      -4.817  13.974  17.133  1.00  0.00     0.055 A 
ATOM     81  C   UNL     1      -2.448  13.749  17.496  1.00  0.00     0.041 A 
ATOM     82  F   UNL     1      -1.571  11.682  18.176  1.00  0.00    -0.206 F 
ATOM     83  C   UNL     1      -3.533  14.526  17.100  1.00  0.00     0.022 A 
BRANCH  80  84
ATOM     84  S   UNL     1      -6.176  14.939  16.416  1.00  0.00     0.124 S 
ATOM     85  O   UNL     1      -6.238  16.089  17.312  1.00  0.00    -0.237 OA
ATOM     86  O   UNL     1      -5.671  15.212  15.072  1.00  0.00    -0.237 OA
ATOM     87  O   UNL     1      -7.314  14.028  16.475  1.00  0.00    -0.744 OA
ENDBRANCH  80  84
ENDBRANCH  53  77
BRANCH  65  88
ATOM     88  C   UNL     1      -2.619   7.555  23.339  1.00  0.00     0.023 A 
ATOM     89  C   UNL     1      -1.401   6.968  23.733  1.00  0.00     0.031 A 
ATOM     90  C   UNL     1      -3.396   8.200  24.316  1.00  0.00     0.131 A 
ATOM     91  C   UNL     1      -1.015   7.004  25.078  1.00  0.00     0.055 A 
ATOM     92  C   UNL     1      -2.984   8.272  25.648  1.00  0.00     0.041 A 
ATOM     93  F   UNL     1      -4.569   8.765  23.991  1.00  0.00    -0.206 F 
ATOM     94  C   UNL     1      -1.796   7.659  26.036  1.00  0.00     0.022 A 
BRANCH  91  95
ATOM     95  S   UNL     1       0.466   6.126  25.650  1.00  0.00     0.124 S 
ATOM     96  O   UNL     1       1.282   7.220  26.172  1.00  0.00    -0.237 OA
ATOM     97  O   UNL     1      -0.082   5.221  26.657  1.00  0.00    -0.237 OA
ATOM     98  O   UNL     1       0.983   5.484  24.446  1.00  0.00    -0.744 OA
ENDBRANCH  91  95
ENDBRANCH  65  88
ENDBRANCH  39  40
ENDBRANCH  31  34
ENDBRANCH  29  30
ENDBRANCH  28  29
ENDBRANCH   1  28
TORSDOF 18
