REMARK SMILES Cc1ccc(C(C)(C)C)c(OCC(=O)c2nc(C)c(C(=O)NCCCCNC(=O)c3ccc(-c4c5nc(c(-c6cc(S(=O)(=O)[O-])ccc6F)c6ccc([nH]6)c(-c6cc(S(=O)(=O)[O-])ccc6F)c6nc(c(-c7cc(S(=O)(=O)[O-])ccc7F)c7ccc4[nH]7)C=C6)C=C5)cc3)s2)c1
REMARK SMILES IDX 23 1 22 2 20 3 21 4 19 6 15 7 16 8 93 9 17 10 18 11 13 12
REMARK SMILES IDX 14 13 12 14 11 15 10 16 1 17 2 18 3 19 94 20 4 21 5 22 6 23
REMARK SMILES IDX 7 24 8 25 9 26 24 27 25 28 26 29 27 30 28 31 29 33 30 34
REMARK SMILES IDX 31 35 92 36 32 37 91 38 33 39 34 40 35 41 85 42 36 43 90 44
REMARK SMILES IDX 84 45 86 46 37 47 89 48 83 49 82 50 38 52 70 53 50 54 69 55
REMARK SMILES IDX 51 56 54 57 68 58 87 59 52 60 53 61 67 63 88 64 55 65 39 66
REMARK SMILES IDX 40 67 48 68 41 69 47 70 49 71 46 72 42 73 43 74 44 75 45 76
REMARK SMILES IDX 71 77 72 78 80 79 73 80 79 81 81 82 78 83 74 84 75 85 76 86
REMARK SMILES IDX 77 87 56 88 57 89 65 90 58 91 64 92 66 93 63 94 59 95 60 96
REMARK SMILES IDX 61 97 62 98
REMARK H PARENT 22 5 27 32 86 51 54 62
REMARK Flexibility Score: inf
ROOT
ATOM      1  C   UNL     1      -2.168   4.298   7.587  1.00  0.00     0.116 C 
ENDROOT
BRANCH   1   2
ATOM      2  N   UNL     1      -2.916   3.451   6.679  1.00  0.00    -0.351 N 
ATOM      3  C   UNL     1      -2.821   3.154   5.346  1.00  0.00     0.263 C 
ATOM      4  O   UNL     1      -3.692   2.343   4.990  1.00  0.00    -0.268 OA
ATOM      5  H   UNL     1      -3.662   2.985   7.122  1.00  0.00     0.163 HD
BRANCH   3   6
ATOM      6  C   UNL     1      -1.840   3.692   4.399  1.00  0.00     0.115 A 
ATOM      7  C   UNL     1      -0.639   3.925   2.249  1.00  0.00     0.164 A 
ATOM      8  N   UNL     1      -0.173   4.768   3.131  1.00  0.00    -0.237 NA
ATOM      9  S   UNL     1      -1.901   2.946   2.807  1.00  0.00    -0.105 S 
ATOM     10  C   UNL     1      -0.840   4.664   4.350  1.00  0.00     0.062 A 
ATOM     11  C   UNL     1      -0.326   5.632   5.349  1.00  0.00     0.068 C 
BRANCH   7  12
ATOM     12  C   UNL     1      -0.076   3.872   0.910  1.00  0.00     0.228 C 
ATOM     13  O   UNL     1       1.096   4.179   0.654  1.00  0.00    -0.288 OA
BRANCH  12  14
ATOM     14  C   UNL     1      -1.002   3.551  -0.269  1.00  0.00     0.313 C 
BRANCH  14  15
ATOM     15  O   UNL     1      -1.712   2.336  -0.357  1.00  0.00    -0.485 OA
BRANCH  15  16
ATOM     16  C   UNL     1      -1.050   1.145  -0.281  1.00  0.00     0.123 A 
ATOM     17  C   UNL     1       2.516  -0.226  -0.140  1.00  0.00     0.044 C 
ATOM     18  C   UNL     1       1.018  -0.161  -0.150  1.00  0.00    -0.047 A 
ATOM     19  C   UNL     1       0.262  -1.314   0.020  1.00  0.00     0.004 A 
ATOM     20  C   UNL     1       0.352   1.054  -0.337  1.00  0.00     0.050 A 
ATOM     21  C   UNL     1      -1.132  -1.244   0.016  1.00  0.00     0.008 A 
ATOM     22  C   UNL     1      -1.832  -0.021  -0.126  1.00  0.00    -0.000 A 
BRANCH  22  23
ATOM     23  C   UNL     1      -3.383  -0.074  -0.111  1.00  0.00    -0.010 C 
ATOM     24  C   UNL     1      -3.856  -0.886  -1.340  1.00  0.00     0.016 C 
ATOM     25  C   UNL     1      -3.871  -0.776   1.180  1.00  0.00     0.016 C 
ATOM     26  C   UNL     1      -4.141   1.272  -0.173  1.00  0.00     0.016 C 
ENDBRANCH  22  23
ENDBRANCH  15  16
ENDBRANCH  14  15
ENDBRANCH  12  14
ENDBRANCH   7  12
ENDBRANCH   3   6
ENDBRANCH   1   2
BRANCH   1  27
ATOM     27  C   UNL     1      -2.761   5.713   7.659  1.00  0.00     0.023 C 
BRANCH  27  28
ATOM     28  C   UNL     1      -3.985   5.851   8.563  1.00  0.00     0.023 C 
BRANCH  28  29
ATOM     29  C   UNL     1      -3.648   5.741  10.044  1.00  0.00     0.116 C 
BRANCH  29  30
ATOM     30  N   UNL     1      -3.352   6.992  10.727  1.00  0.00    -0.352 N 
ATOM     31  C   UNL     1      -2.911   7.177  12.033  1.00  0.00     0.251 C 
ATOM     32  H   UNL     1      -3.479   7.811  10.197  1.00  0.00     0.163 HD
ATOM     33  O   UNL     1      -2.842   8.286  12.533  1.00  0.00    -0.269 OA
BRANCH  31  34
ATOM     34  C   UNL     1      -2.401   5.996  12.780  1.00  0.00     0.039 A 
ATOM     35  C   UNL     1      -1.108   6.078  13.310  1.00  0.00     0.014 A 
ATOM     36  C   UNL     1      -3.057   4.770  12.721  1.00  0.00     0.014 A 
ATOM     37  C   UNL     1      -0.388   4.907  13.538  1.00  0.00     0.010 A 
ATOM     38  C   UNL     1      -2.309   3.614  12.832  1.00  0.00     0.010 A 
ATOM     39  C   UNL     1      -0.957   3.683  13.180  1.00  0.00    -0.014 A 
BRANCH  39  40
ATOM     40  C   UNL     1      -0.172   2.466  12.998  1.00  0.00     0.031 A 
ATOM     41  C   UNL     1      -0.284   1.338  13.945  1.00  0.00     0.074 A 
ATOM     42  C   UNL     1       0.684   2.348  11.959  1.00  0.00     0.049 A 
ATOM     43  N   UNL     1       0.701   0.563  14.259  1.00  0.00    -0.248 NA
ATOM     44  C   UNL     1      -1.523   1.010  14.639  1.00  0.00     0.031 C 
ATOM     45  C   UNL     1       1.384   1.142  11.521  1.00  0.00     0.029 A 
ATOM     46  N   UNL     1       1.262   3.351  11.204  1.00  0.00    -0.354 N 
ATOM     47  C   UNL     1       0.175  -0.512  14.934  1.00  0.00     0.074 A 
ATOM     48  C   UNL     1      -1.196  -0.151  15.215  1.00  0.00     0.031 C 
ATOM     49  C   UNL     1       2.443   1.498  10.777  1.00  0.00     0.029 A 
ATOM     50  C   UNL     1       2.540   2.947  10.819  1.00  0.00     0.049 A 
ATOM     51  H   UNL     1       0.840   4.211  10.976  1.00  0.00     0.167 HD
ATOM     52  C   UNL     1       0.886  -1.668  15.052  1.00  0.00     0.034 A 
ATOM     53  C   UNL     1       3.655   3.654  11.169  1.00  0.00     0.034 A 
ATOM     54  C   UNL     1       2.175  -1.598  14.370  1.00  0.00     0.049 A 
ATOM     55  C   UNL     1       4.635   2.859  12.007  1.00  0.00     0.074 A 
ATOM     56  C   UNL     1       2.604  -2.071  13.141  1.00  0.00     0.029 A 
ATOM     57  N   UNL     1       3.164  -0.735  14.825  1.00  0.00    -0.354 N 
ATOM     58  N   UNL     1       4.342   1.743  12.615  1.00  0.00    -0.248 NA
ATOM     59  C   UNL     1       6.010   3.280  12.252  1.00  0.00     0.031 C 
ATOM     60  C   UNL     1       3.847  -1.462  12.842  1.00  0.00     0.029 A 
ATOM     61  C   UNL     1       4.185  -0.634  13.898  1.00  0.00     0.049 A 
ATOM     62  H   UNL     1       3.142  -0.261  15.688  1.00  0.00     0.167 HD
ATOM     63  C   UNL     1       5.421   1.319  13.351  1.00  0.00     0.074 A 
ATOM     64  C   UNL     1       6.452   2.300  13.061  1.00  0.00     0.031 C 
ATOM     65  C   UNL     1       5.350   0.208  14.148  1.00  0.00     0.034 A 
BRANCH  52  66
ATOM     66  C   UNL     1       0.246  -2.962  15.492  1.00  0.00     0.023 A 
ATOM     67  C   UNL     1       0.632  -4.175  14.888  1.00  0.00     0.031 A 
ATOM     68  C   UNL     1      -0.767  -3.060  16.464  1.00  0.00     0.131 A 
ATOM     69  C   UNL     1      -0.046  -5.376  15.156  1.00  0.00     0.055 A 
ATOM     70  C   UNL     1      -1.484  -4.242  16.691  1.00  0.00     0.041 A 
ATOM     71  F   UNL     1      -1.084  -2.016  17.246  1.00  0.00    -0.206 F 
ATOM     72  C   UNL     1      -1.136  -5.407  16.021  1.00  0.00     0.022 A 
BRANCH  69  73
ATOM     73  S   UNL     1       0.522  -6.901  14.356  1.00  0.00     0.124 S 
ATOM     74  O   UNL     1       0.427  -6.563  12.939  1.00  0.00    -0.237 OA
ATOM     75  O   UNL     1       1.870  -7.047  14.895  1.00  0.00    -0.237 OA
ATOM     76  O   UNL     1      -0.438  -7.903  14.816  1.00  0.00    -0.744 OA
ENDBRANCH  69  73
ENDBRANCH  52  66
BRANCH  53  77
ATOM     77  C   UNL     1       3.411   5.120  11.303  1.00  0.00     0.023 A 
ATOM     78  C   UNL     1       2.901   5.790  10.171  1.00  0.00     0.031 A 
ATOM     79  C   UNL     1       3.278   5.742  12.550  1.00  0.00     0.131 A 
ATOM     80  C   UNL     1       2.121   6.944  10.328  1.00  0.00     0.055 A 
ATOM     81  C   UNL     1       2.567   6.942  12.691  1.00  0.00     0.041 A 
ATOM     82  F   UNL     1       3.713   5.140  13.666  1.00  0.00    -0.206 F 
ATOM     83  C   UNL     1       1.944   7.522  11.584  1.00  0.00     0.022 A 
BRANCH  80  84
ATOM     84  S   UNL     1       1.088   7.477   8.931  1.00  0.00     0.124 S 
ATOM     85  O   UNL     1       1.985   8.363   8.201  1.00  0.00    -0.237 OA
ATOM     86  O   UNL     1       0.766   6.211   8.276  1.00  0.00    -0.237 OA
ATOM     87  O   UNL     1      -0.059   8.117   9.569  1.00  0.00    -0.744 OA
ENDBRANCH  80  84
ENDBRANCH  53  77
BRANCH  65  88
ATOM     88  C   UNL     1       6.386  -0.251  15.160  1.00  0.00     0.023 A 
ATOM     89  C   UNL     1       7.461   0.539  15.591  1.00  0.00     0.031 A 
ATOM     90  C   UNL     1       6.279  -1.518  15.790  1.00  0.00     0.131 A 
ATOM     91  C   UNL     1       8.402   0.057  16.522  1.00  0.00     0.055 A 
ATOM     92  C   UNL     1       7.171  -1.968  16.770  1.00  0.00     0.041 A 
ATOM     93  F   UNL     1       5.294  -2.379  15.493  1.00  0.00    -0.206 F 
ATOM     94  C   UNL     1       8.254  -1.184  17.132  1.00  0.00     0.022 A 
BRANCH  91  95
ATOM     95  S   UNL     1       9.862   1.072  16.871  1.00  0.00     0.124 S 
ATOM     96  O   UNL     1      10.493   1.154  15.556  1.00  0.00    -0.237 OA
ATOM     97  O   UNL     1       9.271   2.310  17.368  1.00  0.00    -0.237 OA
ATOM     98  O   UNL     1      10.598   0.292  17.864  1.00  0.00    -0.744 OA
ENDBRANCH  91  95
ENDBRANCH  65  88
ENDBRANCH  39  40
ENDBRANCH  31  34
ENDBRANCH  29  30
ENDBRANCH  28  29
ENDBRANCH  27  28
ENDBRANCH   1  27
TORSDOF 19
