REMARK SMILES O=C(NCCCCNC(=O)c1cccc2cccc([S@](=O)c3ccccc3CO)c12)c1ccc(-c2c3nc(c(-c4cc(S(=O)(=O)[O-])ccc4F)c4ccc([nH]4)c(-c4cc(S(=O)(=O)[O-])ccc4F)c4nc(c(-c5cc(S(=O)(=O)[O-])ccc5F)c5ccc2[nH]5)C=C4)C=C3)cc1
REMARK SMILES IDX 6 1 5 2 4 3 3 4 1 5 2 6 31 8 32 9 93 10 33 11 92 12 34 13
REMARK SMILES IDX 35 14 36 15 86 16 37 17 91 18 85 19 87 20 38 21 90 22 84 23
REMARK SMILES IDX 83 24 39 26 71 27 51 28 70 29 52 30 55 31 69 32 88 33 53 34
REMARK SMILES IDX 54 35 68 37 89 38 56 39 40 40 41 41 49 42 42 43 48 44 50 45
REMARK SMILES IDX 47 46 43 47 44 48 45 49 46 50 72 51 73 52 81 53 74 54 80 55
REMARK SMILES IDX 82 56 79 57 75 58 76 59 77 60 78 61 57 62 58 63 66 64 59 65
REMARK SMILES IDX 65 66 67 67 64 68 60 69 61 70 62 71 63 72 7 73 8 74 9 75
REMARK SMILES IDX 10 77 11 78 12 79 30 80 13 81 15 82 19 83 14 84 16 85 18 86
REMARK SMILES IDX 17 87 20 88 21 89 22 90 23 91 27 92 24 93 26 94 25 95 28 96
REMARK SMILES IDX 29 97
REMARK H PARENT 3 7 87 25 55 36 8 76 29 98
REMARK Flexibility Score: inf
ROOT
ATOM      1  C   UNL     1       9.327  -2.127  10.962  1.00  0.00     0.023 C 
ENDROOT
BRANCH   1   2
ATOM      2  C   UNL     1       8.044  -1.414  11.389  1.00  0.00     0.023 C 
BRANCH   2   3
ATOM      3  C   UNL     1       7.120  -2.189  12.324  1.00  0.00     0.116 C 
BRANCH   3   4
ATOM      4  N   UNL     1       7.752  -2.579  13.576  1.00  0.00    -0.352 N 
ATOM      5  O   UNL     1       8.085  -2.702  15.798  1.00  0.00    -0.269 OA
ATOM      6  C   UNL     1       7.346  -2.367  14.872  1.00  0.00     0.251 C 
ATOM      7  H   UNL     1       8.600  -3.070  13.480  1.00  0.00     0.163 HD
BRANCH   6   8
ATOM      8  C   UNL     1       6.049  -1.714  15.164  1.00  0.00     0.039 A 
ATOM      9  C   UNL     1       4.877  -2.087  14.500  1.00  0.00     0.014 A 
ATOM     10  C   UNL     1       6.007  -0.718  16.146  1.00  0.00     0.014 A 
ATOM     11  C   UNL     1       3.696  -1.378  14.721  1.00  0.00     0.010 A 
ATOM     12  C   UNL     1       4.807  -0.053  16.413  1.00  0.00     0.010 A 
ATOM     13  C   UNL     1       3.648  -0.354  15.679  1.00  0.00    -0.014 A 
BRANCH  13  14
ATOM     14  C   UNL     1       2.384   0.385  15.930  1.00  0.00     0.031 A 
ATOM     15  C   UNL     1       2.279   1.851  15.611  1.00  0.00     0.074 A 
ATOM     16  C   UNL     1       1.337  -0.262  16.477  1.00  0.00     0.049 A 
ATOM     17  N   UNL     1       1.294   2.681  15.842  1.00  0.00    -0.248 NA
ATOM     18  C   UNL     1       3.444   2.464  14.959  1.00  0.00     0.031 C 
ATOM     19  C   UNL     1       1.322  -1.682  16.834  1.00  0.00     0.029 A 
ATOM     20  N   UNL     1       0.095   0.189  16.844  1.00  0.00    -0.354 N 
ATOM     21  C   UNL     1       1.725   3.922  15.383  1.00  0.00     0.074 A 
ATOM     22  C   UNL     1       3.076   3.736  14.894  1.00  0.00     0.031 C 
ATOM     23  C   UNL     1       0.132  -1.984  17.373  1.00  0.00     0.029 A 
ATOM     24  C   UNL     1      -0.677  -0.772  17.453  1.00  0.00     0.049 A 
ATOM     25  H   UNL     1      -0.213   1.110  16.686  1.00  0.00     0.167 HD
ATOM     26  C   UNL     1       1.052   5.101  15.366  1.00  0.00     0.034 A 
ATOM     27  C   UNL     1      -1.881  -0.683  18.049  1.00  0.00     0.034 A 
ATOM     28  C   UNL     1      -0.295   5.264  15.861  1.00  0.00     0.049 A 
ATOM     29  C   UNL     1      -2.593   0.641  18.069  1.00  0.00     0.074 A 
ATOM     30  C   UNL     1      -1.091   6.397  15.843  1.00  0.00     0.029 A 
ATOM     31  N   UNL     1      -1.041   4.269  16.482  1.00  0.00    -0.354 N 
ATOM     32  N   UNL     1      -2.187   1.800  17.604  1.00  0.00    -0.248 NA
ATOM     33  C   UNL     1      -3.925   0.670  18.686  1.00  0.00     0.031 C 
ATOM     34  C   UNL     1      -2.286   6.107  16.514  1.00  0.00     0.029 A 
ATOM     35  C   UNL     1      -2.269   4.772  16.886  1.00  0.00     0.049 A 
ATOM     36  H   UNL     1      -0.741   3.341  16.617  1.00  0.00     0.167 HD
ATOM     37  C   UNL     1      -3.224   2.693  17.854  1.00  0.00     0.074 A 
ATOM     38  C   UNL     1      -4.274   1.938  18.509  1.00  0.00     0.031 C 
ATOM     39  C   UNL     1      -3.302   4.014  17.555  1.00  0.00     0.034 A 
BRANCH  26  40
ATOM     40  C   UNL     1       1.791   6.312  14.842  1.00  0.00     0.023 A 
ATOM     41  C   UNL     1       2.251   6.385  13.516  1.00  0.00     0.031 A 
ATOM     42  C   UNL     1       2.081   7.391  15.697  1.00  0.00     0.131 A 
ATOM     43  C   UNL     1       3.051   7.465  13.109  1.00  0.00     0.055 A 
ATOM     44  C   UNL     1       2.806   8.503  15.261  1.00  0.00     0.041 A 
ATOM     45  F   UNL     1       1.685   7.374  16.979  1.00  0.00    -0.206 F 
ATOM     46  C   UNL     1       3.313   8.535  13.966  1.00  0.00     0.022 A 
BRANCH  43  47
ATOM     47  S   UNL     1       3.889   7.363  11.502  1.00  0.00     0.124 S 
ATOM     48  O   UNL     1       4.590   6.085  11.612  1.00  0.00    -0.237 OA
ATOM     49  O   UNL     1       2.775   7.402  10.563  1.00  0.00    -0.237 OA
ATOM     50  O   UNL     1       4.757   8.539  11.493  1.00  0.00    -0.744 OA
ENDBRANCH  43  47
ENDBRANCH  26  40
BRANCH  27  51
ATOM     51  C   UNL     1      -2.451  -1.881  18.723  1.00  0.00     0.023 A 
ATOM     52  C   UNL     1      -3.569  -2.550  18.205  1.00  0.00     0.031 A 
ATOM     53  C   UNL     1      -1.851  -2.392  19.889  1.00  0.00     0.131 A 
ATOM     54  C   UNL     1      -4.064  -3.688  18.861  1.00  0.00     0.055 A 
ATOM     55  C   UNL     1      -2.322  -3.546  20.514  1.00  0.00     0.041 A 
ATOM     56  F   UNL     1      -0.771  -1.792  20.414  1.00  0.00    -0.206 F 
ATOM     57  C   UNL     1      -3.439  -4.199  20.003  1.00  0.00     0.022 A 
BRANCH  54  58
ATOM     58  S   UNL     1      -5.559  -4.485  18.215  1.00  0.00     0.124 S 
ATOM     59  O   UNL     1      -6.547  -3.422  18.357  1.00  0.00    -0.237 OA
ATOM     60  O   UNL     1      -5.163  -4.815  16.850  1.00  0.00    -0.237 OA
ATOM     61  O   UNL     1      -5.743  -5.632  19.101  1.00  0.00    -0.744 OA
ENDBRANCH  54  58
ENDBRANCH  27  51
BRANCH  39  62
ATOM     62  C   UNL     1      -4.590   4.719  17.895  1.00  0.00     0.023 A 
ATOM     63  C   UNL     1      -4.951   5.008  19.222  1.00  0.00     0.031 A 
ATOM     64  C   UNL     1      -5.460   5.121  16.866  1.00  0.00     0.131 A 
ATOM     65  C   UNL     1      -6.170   5.653  19.487  1.00  0.00     0.055 A 
ATOM     66  C   UNL     1      -6.648   5.803  17.133  1.00  0.00     0.041 A 
ATOM     67  F   UNL     1      -5.162   4.867  15.582  1.00  0.00    -0.206 F 
ATOM     68  C   UNL     1      -7.011   6.066  18.450  1.00  0.00     0.022 A 
BRANCH  65  69
ATOM     69  S   UNL     1      -6.669   5.910  21.212  1.00  0.00     0.124 S 
ATOM     70  O   UNL     1      -6.804   4.539  21.695  1.00  0.00    -0.237 OA
ATOM     71  O   UNL     1      -5.548   6.670  21.755  1.00  0.00    -0.237 OA
ATOM     72  O   UNL     1      -7.922   6.654  21.100  1.00  0.00    -0.744 OA
ENDBRANCH  65  69
ENDBRANCH  39  62
ENDBRANCH  13  14
ENDBRANCH   6   8
ENDBRANCH   3   4
ENDBRANCH   2   3
ENDBRANCH   1   2
BRANCH   1  73
ATOM     73  C   UNL     1       9.162  -3.546  10.430  1.00  0.00     0.116 C 
BRANCH  73  74
ATOM     74  N   UNL     1       8.330  -3.648   9.236  1.00  0.00    -0.352 N 
ATOM     75  C   UNL     1       8.658  -4.121   7.987  1.00  0.00     0.251 C 
ATOM     76  H   UNL     1       7.402  -3.334   9.339  1.00  0.00     0.163 HD
ATOM     77  O   UNL     1       7.802  -4.317   7.123  1.00  0.00    -0.269 OA
BRANCH  75  78
ATOM     78  C   UNL     1      10.043  -4.539   7.724  1.00  0.00     0.048 A 
ATOM     79  C   UNL     1      10.373  -5.739   8.398  1.00  0.00     0.014 A 
ATOM     80  C   UNL     1      10.974  -3.836   6.871  1.00  0.00     0.011 A 
ATOM     81  C   UNL     1      11.650  -6.255   8.333  1.00  0.00     0.001 A 
ATOM     82  C   UNL     1      12.276  -4.436   6.832  1.00  0.00    -0.016 A 
ATOM     83  C   UNL     1      10.819  -2.639   6.062  1.00  0.00     0.052 A 
ATOM     84  C   UNL     1      12.591  -5.598   7.558  1.00  0.00     0.009 A 
ATOM     85  C   UNL     1      13.318  -3.897   6.066  1.00  0.00     0.009 A 
ATOM     86  C   UNL     1      11.915  -2.127   5.321  1.00  0.00     0.019 A 
ATOM     87  C   UNL     1      13.146  -2.753   5.311  1.00  0.00     0.002 A 
BRANCH  83  88
ATOM     88  S   UNL     1       9.363  -1.573   5.865  1.00  0.00     0.086 S 
ATOM     89  O   UNL     1       8.574  -1.592   7.130  1.00  0.00    -0.249 OA
BRANCH  88  90
ATOM     90  C   UNL     1       8.465  -2.439   4.524  1.00  0.00     0.049 A 
ATOM     91  C   UNL     1       9.175  -3.192   3.564  1.00  0.00     0.018 A 
ATOM     92  C   UNL     1       7.093  -2.200   4.280  1.00  0.00    -0.006 A 
ATOM     93  C   UNL     1       8.566  -3.677   2.400  1.00  0.00     0.001 A 
ATOM     94  C   UNL     1       6.499  -2.690   3.092  1.00  0.00     0.007 A 
ATOM     95  C   UNL     1       7.229  -3.416   2.157  1.00  0.00     0.000 A 
BRANCH  92  96
ATOM     96  C   UNL     1       6.207  -1.355   5.157  1.00  0.00     0.192 C 
BRANCH  96  97
ATOM     97  O   UNL     1       6.131  -0.062   4.566  1.00  0.00    -0.392 OA
ATOM     98  H   UNL     1       7.022   0.316   4.500  1.00  0.00     0.211 HD
ENDBRANCH  96  97
ENDBRANCH  92  96
ENDBRANCH  88  90
ENDBRANCH  83  88
ENDBRANCH  75  78
ENDBRANCH  73  74
ENDBRANCH   1  73
TORSDOF 18
