REMARK SMILES CCCN(CCC)c1cc(C(=O)NCCCCNC(=O)c2ccc(-c3c4nc(c(-c5cc(S(=O)(=O)[O-])ccc5F)c5ccc([nH]5)c(-c5cc(S(=O)(=O)[O-])ccc5F)c5nc(c(-c6cc(S(=O)(=O)[O-])ccc6F)c6ccc3[nH]6)C=C5)C=C4)cc2)cc(C(F)(F)F)c1
REMARK SMILES IDX 15 1 14 2 13 3 11 4 12 5 10 7 8 8 9 9 90 10 85 11 84 12 4 13
REMARK SMILES IDX 3 14 2 15 1 16 5 17 6 18 7 19 86 20 87 21 88 22 89 23 16 24
REMARK SMILES IDX 17 25 18 26 19 27 20 29 21 30 22 31 83 32 23 33 82 34 24 35
REMARK SMILES IDX 25 36 26 37 76 38 27 39 81 40 75 41 77 42 28 43 80 44 74 45
REMARK SMILES IDX 73 46 29 48 61 49 41 50 60 51 42 52 45 53 59 54 78 55 43 56
REMARK SMILES IDX 44 57 58 59 79 60 46 61 30 62 31 63 39 64 32 65 38 66 40 67
REMARK SMILES IDX 37 68 33 69 34 70 35 71 36 72 62 73 63 74 71 75 64 76 70 77
REMARK SMILES IDX 72 78 69 79 65 80 66 81 67 82 68 83 47 84 48 85 56 86 49 87
REMARK SMILES IDX 55 88 57 89 54 90 50 91 51 92 52 93 53 94
REMARK H PARENT 13 6 18 28 77 47 45 58
REMARK Flexibility Score: inf
ROOT
ATOM      1  C   UNL     1       0.383   1.873  -7.406  1.00  0.00     0.023 C 
ENDROOT
BRANCH   1   2
ATOM      2  C   UNL     1       1.478   1.665  -6.373  1.00  0.00     0.116 C 
BRANCH   2   3
ATOM      3  N   UNL     1       2.113   2.866  -5.850  1.00  0.00    -0.352 N 
ATOM      4  C   UNL     1       2.486   3.187  -4.558  1.00  0.00     0.251 C 
ATOM      5  O   UNL     1       3.088   4.234  -4.341  1.00  0.00    -0.269 OA
ATOM      6  H   UNL     1       2.307   3.559  -6.522  1.00  0.00     0.163 HD
BRANCH   4   7
ATOM      7  C   UNL     1       2.065   2.333  -3.416  1.00  0.00     0.042 A 
ATOM      8  C   UNL     1       0.885   2.252  -1.289  1.00  0.00     0.038 A 
ATOM      9  C   UNL     1       1.601   2.962  -2.254  1.00  0.00     0.039 A 
ATOM     10  C   UNL     1       0.595   0.911  -1.568  1.00  0.00     0.039 A 
ATOM     11  C   UNL     1       1.190   0.231  -2.637  1.00  0.00     0.058 A 
ATOM     12  C   UNL     1       2.009   0.947  -3.508  1.00  0.00     0.027 A 
BRANCH   8  13
ATOM     13  N   UNL     1       0.476   2.812  -0.093  1.00  0.00    -0.372 N 
BRANCH  13  14
ATOM     14  C   UNL     1       1.163   2.407   1.146  1.00  0.00     0.116 C 
BRANCH  14  15
ATOM     15  C   UNL     1       0.726   1.022   1.647  1.00  0.00     0.018 C 
ATOM     16  C   UNL     1       1.696  -0.098   1.269  1.00  0.00     0.006 C 
ENDBRANCH  14  15
ENDBRANCH  13  14
BRANCH  13  17
ATOM     17  C   UNL     1      -0.504   3.904  -0.052  1.00  0.00     0.116 C 
BRANCH  17  18
ATOM     18  C   UNL     1       0.089   5.277  -0.385  1.00  0.00     0.018 C 
ATOM     19  C   UNL     1      -0.339   5.775  -1.763  1.00  0.00     0.006 C 
ENDBRANCH  17  18
ENDBRANCH  13  17
ENDBRANCH   8  13
BRANCH  11  20
ATOM     20  C   UNL     1       0.876  -1.212  -2.914  1.00  0.00     0.416 C 
ATOM     21  F   UNL     1      -0.007  -1.349  -3.942  1.00  0.00    -0.166 F 
ATOM     22  F   UNL     1       1.975  -1.931  -3.271  1.00  0.00    -0.166 F 
ATOM     23  F   UNL     1       0.325  -1.867  -1.856  1.00  0.00    -0.166 F 
ENDBRANCH  11  20
ENDBRANCH   4   7
ENDBRANCH   2   3
ENDBRANCH   1   2
BRANCH   1  24
ATOM     24  C   UNL     1       0.777   2.578  -8.692  1.00  0.00     0.023 C 
BRANCH  24  25
ATOM     25  C   UNL     1       2.084   2.131  -9.328  1.00  0.00     0.116 C 
BRANCH  25  26
ATOM     26  N   UNL     1       2.146   0.709  -9.636  1.00  0.00    -0.352 N 
ATOM     27  C   UNL     1       2.482   0.086 -10.821  1.00  0.00     0.251 C 
ATOM     28  H   UNL     1       1.915   0.106  -8.894  1.00  0.00     0.163 HD
ATOM     29  O   UNL     1       2.434  -1.131 -10.911  1.00  0.00    -0.269 OA
BRANCH  27  30
ATOM     30  C   UNL     1       2.840   0.916 -11.994  1.00  0.00     0.039 A 
ATOM     31  C   UNL     1       2.168   0.702 -13.200  1.00  0.00     0.014 A 
ATOM     32  C   UNL     1       3.765   1.954 -11.875  1.00  0.00     0.014 A 
ATOM     33  C   UNL     1       2.340   1.603 -14.253  1.00  0.00     0.010 A 
ATOM     34  C   UNL     1       3.866   2.898 -12.891  1.00  0.00     0.010 A 
ATOM     35  C   UNL     1       3.142   2.743 -14.085  1.00  0.00    -0.014 A 
BRANCH  35  36
ATOM     36  C   UNL     1       3.238   3.800 -15.126  1.00  0.00     0.031 A 
ATOM     37  C   UNL     1       4.574   4.119 -15.738  1.00  0.00     0.074 A 
ATOM     38  C   UNL     1       2.156   4.543 -15.437  1.00  0.00     0.049 A 
ATOM     39  N   UNL     1       4.915   5.112 -16.516  1.00  0.00    -0.248 NA
ATOM     40  C   UNL     1       5.682   3.216 -15.390  1.00  0.00     0.031 C 
ATOM     41  C   UNL     1       0.811   4.355 -14.886  1.00  0.00     0.029 A 
ATOM     42  N   UNL     1       2.020   5.622 -16.275  1.00  0.00    -0.354 N 
ATOM     43  C   UNL     1       6.283   4.973 -16.727  1.00  0.00     0.074 A 
ATOM     44  C   UNL     1       6.713   3.830 -15.949  1.00  0.00     0.031 C 
ATOM     45  C   UNL     1      -0.013   5.277 -15.411  1.00  0.00     0.029 A 
ATOM     46  C   UNL     1       0.751   6.156 -16.291  1.00  0.00     0.049 A 
ATOM     47  H   UNL     1       2.761   5.980 -16.815  1.00  0.00     0.167 HD
ATOM     48  C   UNL     1       7.100   5.719 -17.512  1.00  0.00     0.034 A 
ATOM     49  C   UNL     1       0.263   7.243 -16.922  1.00  0.00     0.034 A 
ATOM     50  C   UNL     1       6.649   6.839 -18.299  1.00  0.00     0.049 A 
ATOM     51  C   UNL     1       1.191   8.065 -17.781  1.00  0.00     0.074 A 
ATOM     52  C   UNL     1       7.378   7.631 -19.169  1.00  0.00     0.029 A 
ATOM     53  N   UNL     1       5.349   7.329 -18.312  1.00  0.00    -0.354 N 
ATOM     54  N   UNL     1       2.477   7.904 -17.994  1.00  0.00    -0.248 NA
ATOM     55  C   UNL     1       0.603   9.210 -18.489  1.00  0.00     0.031 C 
ATOM     56  C   UNL     1       6.534   8.632 -19.664  1.00  0.00     0.029 A 
ATOM     57  C   UNL     1       5.261   8.423 -19.159  1.00  0.00     0.049 A 
ATOM     58  H   UNL     1       4.599   6.954 -17.796  1.00  0.00     0.167 HD
ATOM     59  C   UNL     1       2.840   8.903 -18.892  1.00  0.00     0.074 A 
ATOM     60  C   UNL     1       1.640   9.662 -19.179  1.00  0.00     0.031 C 
ATOM     61  C   UNL     1       4.054   9.164 -19.439  1.00  0.00     0.034 A 
BRANCH  48  62
ATOM     62  C   UNL     1       8.565   5.355 -17.529  1.00  0.00     0.023 A 
ATOM     63  C   UNL     1       9.009   4.106 -17.998  1.00  0.00     0.031 A 
ATOM     64  C   UNL     1       9.528   6.252 -17.036  1.00  0.00     0.131 A 
ATOM     65  C   UNL     1      10.362   3.756 -17.884  1.00  0.00     0.055 A 
ATOM     66  C   UNL     1      10.887   5.931 -17.006  1.00  0.00     0.041 A 
ATOM     67  F   UNL     1       9.163   7.452 -16.556  1.00  0.00    -0.206 F 
ATOM     68  C   UNL     1      11.309   4.669 -17.416  1.00  0.00     0.022 A 
BRANCH  65  69
ATOM     69  S   UNL     1      10.840   2.038 -18.215  1.00  0.00     0.124 S 
ATOM     70  O   UNL     1      10.035   1.315 -17.233  1.00  0.00    -0.237 OA
ATOM     71  O   UNL     1      10.452   1.865 -19.610  1.00  0.00    -0.237 OA
ATOM     72  O   UNL     1      12.279   2.027 -17.960  1.00  0.00    -0.744 OA
ENDBRANCH  65  69
ENDBRANCH  48  62
BRANCH  49  73
ATOM     73  C   UNL     1      -1.167   7.634 -16.760  1.00  0.00     0.023 A 
ATOM     74  C   UNL     1      -2.054   7.591 -17.846  1.00  0.00     0.031 A 
ATOM     75  C   UNL     1      -1.659   8.091 -15.524  1.00  0.00     0.131 A 
ATOM     76  C   UNL     1      -3.375   8.040 -17.690  1.00  0.00     0.055 A 
ATOM     77  C   UNL     1      -2.987   8.491 -15.361  1.00  0.00     0.041 A 
ATOM     78  F   UNL     1      -0.854   8.146 -14.451  1.00  0.00    -0.206 F 
ATOM     79  C   UNL     1      -3.850   8.478 -16.452  1.00  0.00     0.022 A 
BRANCH  76  80
ATOM     80  S   UNL     1      -4.444   8.119 -19.153  1.00  0.00     0.124 S 
ATOM     81  O   UNL     1      -3.686   9.007 -20.027  1.00  0.00    -0.237 OA
ATOM     82  O   UNL     1      -4.506   6.718 -19.558  1.00  0.00    -0.237 OA
ATOM     83  O   UNL     1      -5.693   8.671 -18.633  1.00  0.00    -0.744 OA
ENDBRANCH  76  80
ENDBRANCH  49  73
BRANCH  61  84
ATOM     84  C   UNL     1       4.129  10.271 -20.459  1.00  0.00     0.023 A 
ATOM     85  C   UNL     1       3.993  11.623 -20.104  1.00  0.00     0.031 A 
ATOM     86  C   UNL     1       4.359   9.958 -21.811  1.00  0.00     0.131 A 
ATOM     87  C   UNL     1       4.053  12.613 -21.097  1.00  0.00     0.055 A 
ATOM     88  C   UNL     1       4.466  10.949 -22.786  1.00  0.00     0.041 A 
ATOM     89  F   UNL     1       4.495   8.680 -22.202  1.00  0.00    -0.206 F 
ATOM     90  C   UNL     1       4.304  12.285 -22.432  1.00  0.00     0.022 A 
BRANCH  87  91
ATOM     91  S   UNL     1       3.742  14.338 -20.631  1.00  0.00     0.124 S 
ATOM     92  O   UNL     1       2.375  14.274 -20.124  1.00  0.00    -0.237 OA
ATOM     93  O   UNL     1       4.780  14.586 -19.636  1.00  0.00    -0.237 OA
ATOM     94  O   UNL     1       3.903  15.068 -21.887  1.00  0.00    -0.744 OA
ENDBRANCH  87  91
ENDBRANCH  61  84
ENDBRANCH  35  36
ENDBRANCH  27  30
ENDBRANCH  25  26
ENDBRANCH  24  25
ENDBRANCH   1  24
TORSDOF 20
