REMARK SMILES COC(=O)[C@H]1CC[C@]2(C)[C@H]3CC=C4[C@@H]5CC(C)(C)CC[C@@]5(C(=O)NCCCCNC(=O)c5ccc(-c6c7nc(c(-c8cc(S(=O)(=O)[O-])ccc8F)c8ccc([nH]8)c(-c8cc(S(=O)(=O)[O-])ccc8F)c8nc(c(-c9cc(S(=O)(=O)[O-])ccc9F)c9ccc6[nH]9)C=C8)C=C7)cc5)CC[C@@]4(C)[C@@]3(C)CC[C@H]2C1(C)C
REMARK SMILES IDX 27 1 26 2 25 3 24 4 22 5 23 6 21 8 5 9 6 10 104 11 7 12
REMARK SMILES IDX 103 13 105 14 106 15 8 16 102 17 9 18 10 19 101 20 11 21
REMARK SMILES IDX 99 22 12 23 97 24 100 25 13 26 96 27 98 28 14 29 95 30 15 31
REMARK SMILES IDX 16 32 20 33 17 34 18 35 19 36 3 37 4 38 2 39 1 40 28 41
REMARK SMILES IDX 29 42 30 43 31 45 32 46 33 47 94 48 34 49 93 50 35 51 36 52
REMARK SMILES IDX 37 53 87 54 38 55 92 56 86 57 88 58 39 59 91 60 85 61 84 62
REMARK SMILES IDX 40 64 72 65 52 66 71 67 53 68 56 69 70 70 89 71 54 72 55 73
REMARK SMILES IDX 69 75 90 76 57 77 41 78 42 79 50 80 43 81 49 82 51 83 48 84
REMARK SMILES IDX 44 85 45 86 46 87 47 88 73 89 74 90 82 91 75 92 81 93 83 94
REMARK SMILES IDX 80 95 76 96 77 97 78 98 79 99 58 100 59 101 67 102 60 103
REMARK SMILES IDX 66 104 68 105 65 106 61 107 62 108 63 109 64 110
REMARK H PARENT 24 7 29 44 88 63 56 74
REMARK Flexibility Score: inf
ROOT
ATOM      1  C   UNL     1      -0.827  -4.175  -9.906  1.00  0.00     0.023 C 
ENDROOT
BRANCH   1   2
ATOM      2  C   UNL     1      -1.310  -5.505  -9.278  1.00  0.00     0.023 C 
BRANCH   2   3
ATOM      3  C   UNL     1      -1.801  -5.355  -7.839  1.00  0.00     0.116 C 
BRANCH   3   4
ATOM      4  N   UNL     1      -2.925  -6.124  -7.371  1.00  0.00    -0.356 N 
ATOM      5  C   UNL     1      -3.437  -6.243  -6.101  1.00  0.00     0.226 C 
ATOM      6  O   UNL     1      -4.604  -6.659  -6.067  1.00  0.00    -0.274 OA
ATOM      7  H   UNL     1      -3.397  -6.642  -8.063  1.00  0.00     0.163 HD
BRANCH   5   8
ATOM      8  C   UNL     1      -2.634  -6.019  -4.753  1.00  0.00     0.056 C 
ATOM      9  C   UNL     1       0.920   1.220  -3.308  1.00  0.00     0.105 C 
ATOM     10  C   UNL     1      -0.422   2.043  -3.071  1.00  0.00     0.016 C 
ATOM     11  C   UNL     1       0.791  -0.362  -3.428  1.00  0.00    -0.019 C 
ATOM     12  C   UNL     1      -1.809   1.316  -2.964  1.00  0.00     0.008 C 
ATOM     13  C   UNL     1      -0.630  -0.745  -2.886  1.00  0.00     0.002 C 
ATOM     14  C   UNL     1       1.072  -0.930  -4.853  1.00  0.00     0.012 C 
ATOM     15  C   UNL     1       1.892  -1.004  -2.535  1.00  0.00     0.012 C 
ATOM     16  C   UNL     1      -1.798  -0.065  -3.682  1.00  0.00    -0.026 C 
ATOM     17  C   UNL     1      -0.853  -2.179  -2.459  1.00  0.00     0.005 C 
ATOM     18  C   UNL     1      -1.509   0.369  -5.159  1.00  0.00     0.012 C 
ATOM     19  C   UNL     1      -3.244  -0.836  -3.648  1.00  0.00     0.006 C 
ATOM     20  C   UNL     1      -2.190  -2.408  -1.791  1.00  0.00     0.008 C 
ATOM     21  C   UNL     1      -3.699  -1.253  -5.110  1.00  0.00     0.032 C 
ATOM     22  C   UNL     1      -3.467  -2.119  -2.627  1.00  0.00    -0.020 C 
ATOM     23  C   UNL     1      -2.995  -2.521  -5.497  1.00  0.00    -0.027 C 
ATOM     24  C   UNL     1      -4.006  -3.452  -3.456  1.00  0.00    -0.006 C 
ATOM     25  C   UNL     1      -4.532  -1.726  -1.562  1.00  0.00     0.012 C 
ATOM     26  C   UNL     1      -3.021  -3.545  -4.630  1.00  0.00    -0.064 C 
ATOM     27  C   UNL     1      -4.060  -4.847  -2.728  1.00  0.00     0.013 C 
ATOM     28  C   UNL     1      -5.512  -3.248  -3.889  1.00  0.00     0.017 C 
ATOM     29  C   UNL     1      -1.982  -4.658  -4.551  1.00  0.00     0.031 C 
ATOM     30  C   UNL     1      -3.648  -6.140  -3.518  1.00  0.00     0.018 C 
ATOM     31  C   UNL     1      -0.599  -4.441  -5.184  1.00  0.00     0.015 C 
ATOM     32  C   UNL     1       0.425  -5.554  -4.900  1.00  0.00    -0.035 C 
ATOM     33  C   UNL     1      -1.595  -7.173  -4.588  1.00  0.00     0.018 C 
ATOM     34  C   UNL     1       1.626  -5.371  -5.851  1.00  0.00     0.011 C 
ATOM     35  C   UNL     1       0.965  -5.395  -3.461  1.00  0.00     0.011 C 
ATOM     36  C   UNL     1      -0.174  -6.956  -5.116  1.00  0.00     0.007 C 
BRANCH   9  37
ATOM     37  C   UNL     1       1.754   1.824  -4.457  1.00  0.00     0.309 C 
ATOM     38  O   UNL     1       1.369   2.686  -5.233  1.00  0.00    -0.252 OA
BRANCH  37  39
ATOM     39  O   UNL     1       2.976   1.218  -4.530  1.00  0.00    -0.469 OA
ATOM     40  C   UNL     1       3.683   1.433  -5.757  1.00  0.00     0.282 C 
ENDBRANCH  37  39
ENDBRANCH   9  37
ENDBRANCH   5   8
ENDBRANCH   3   4
ENDBRANCH   2   3
ENDBRANCH   1   2
BRANCH   1  41
ATOM     41  C   UNL     1       0.101  -3.260  -9.089  1.00  0.00     0.116 C 
BRANCH  41  42
ATOM     42  N   UNL     1       1.507  -3.636  -9.082  1.00  0.00    -0.352 N 
ATOM     43  C   UNL     1       2.586  -3.087  -9.737  1.00  0.00     0.251 C 
ATOM     44  H   UNL     1       1.722  -4.411  -8.514  1.00  0.00     0.163 HD
ATOM     45  O   UNL     1       3.709  -3.555  -9.559  1.00  0.00    -0.269 OA
BRANCH  43  46
ATOM     46  C   UNL     1       2.395  -1.995 -10.713  1.00  0.00     0.039 A 
ATOM     47  C   UNL     1       2.824  -2.207 -12.027  1.00  0.00     0.014 A 
ATOM     48  C   UNL     1       1.760  -0.801 -10.367  1.00  0.00     0.014 A 
ATOM     49  C   UNL     1       2.485  -1.289 -13.023  1.00  0.00     0.010 A 
ATOM     50  C   UNL     1       1.370   0.086 -11.371  1.00  0.00     0.010 A 
ATOM     51  C   UNL     1       1.685  -0.177 -12.714  1.00  0.00    -0.014 A 
BRANCH  51  52
ATOM     52  C   UNL     1       1.060   0.637 -13.792  1.00  0.00     0.031 A 
ATOM     53  C   UNL     1       1.395   2.090 -13.959  1.00  0.00     0.074 A 
ATOM     54  C   UNL     1       0.101   0.071 -14.555  1.00  0.00     0.049 A 
ATOM     55  N   UNL     1       0.860   2.973 -14.763  1.00  0.00    -0.248 NA
ATOM     56  C   UNL     1       2.454   2.624 -13.093  1.00  0.00     0.031 C 
ATOM     57  C   UNL     1      -0.343  -1.323 -14.456  1.00  0.00     0.029 A 
ATOM     58  N   UNL     1      -0.690   0.597 -15.547  1.00  0.00    -0.354 N 
ATOM     59  C   UNL     1       1.505   4.174 -14.493  1.00  0.00     0.074 A 
ATOM     60  C   UNL     1       2.443   3.909 -13.420  1.00  0.00     0.031 C 
ATOM     61  C   UNL     1      -1.318  -1.541 -15.351  1.00  0.00     0.029 A 
ATOM     62  C   UNL     1      -1.609  -0.295 -16.051  1.00  0.00     0.049 A 
ATOM     63  H   UNL     1      -0.607   1.524 -15.867  1.00  0.00     0.167 HD
ATOM     64  C   UNL     1       1.337   5.379 -15.094  1.00  0.00     0.034 A 
ATOM     65  C   UNL     1      -2.598  -0.127 -16.951  1.00  0.00     0.034 A 
ATOM     66  C   UNL     1       0.398   5.622 -16.164  1.00  0.00     0.049 A 
ATOM     67  C   UNL     1      -2.794   1.230 -17.572  1.00  0.00     0.074 A 
ATOM     68  C   UNL     1       0.208   6.781 -16.898  1.00  0.00     0.029 A 
ATOM     69  N   UNL     1      -0.525   4.699 -16.639  1.00  0.00    -0.354 N 
ATOM     70  N   UNL     1      -2.128   2.340 -17.353  1.00  0.00    -0.248 NA
ATOM     71  C   UNL     1      -3.875   1.359 -18.558  1.00  0.00     0.031 C 
ATOM     72  C   UNL     1      -0.873   6.582 -17.764  1.00  0.00     0.029 A 
ATOM     73  C   UNL     1      -1.316   5.277 -17.622  1.00  0.00     0.049 A 
ATOM     74  H   UNL     1      -0.606   3.770 -16.325  1.00  0.00     0.167 HD
ATOM     75  C   UNL     1      -2.701   3.296 -18.186  1.00  0.00     0.074 A 
ATOM     76  C   UNL     1      -3.754   2.627 -18.924  1.00  0.00     0.031 C 
ATOM     77  C   UNL     1      -2.383   4.607 -18.329  1.00  0.00     0.034 A 
BRANCH  64  78
ATOM     78  C   UNL     1       2.166   6.532 -14.580  1.00  0.00     0.023 A 
ATOM     79  C   UNL     1       3.568   6.535 -14.677  1.00  0.00     0.031 A 
ATOM     80  C   UNL     1       1.546   7.635 -13.965  1.00  0.00     0.131 A 
ATOM     81  C   UNL     1       4.308   7.579 -14.100  1.00  0.00     0.055 A 
ATOM     82  C   UNL     1       2.284   8.708 -13.461  1.00  0.00     0.041 A 
ATOM     83  F   UNL     1       0.212   7.681 -13.830  1.00  0.00    -0.206 F 
ATOM     84  C   UNL     1       3.675   8.676 -13.513  1.00  0.00     0.022 A 
BRANCH  81  85
ATOM     85  S   UNL     1       6.111   7.410 -14.004  1.00  0.00     0.124 S 
ATOM     86  O   UNL     1       6.253   6.166 -13.250  1.00  0.00    -0.237 OA
ATOM     87  O   UNL     1       6.498   7.352 -15.409  1.00  0.00    -0.237 OA
ATOM     88  O   UNL     1       6.531   8.614 -13.290  1.00  0.00    -0.744 OA
ENDBRANCH  81  85
ENDBRANCH  64  78
BRANCH  65  89
ATOM     89  C   UNL     1      -3.508  -1.259 -17.288  1.00  0.00     0.023 A 
ATOM     90  C   UNL     1      -3.518  -1.822 -18.573  1.00  0.00     0.031 A 
ATOM     91  C   UNL     1      -4.401  -1.776 -16.332  1.00  0.00     0.131 A 
ATOM     92  C   UNL     1      -4.429  -2.845 -18.880  1.00  0.00     0.055 A 
ATOM     93  C   UNL     1      -5.272  -2.826 -16.628  1.00  0.00     0.041 A 
ATOM     94  F   UNL     1      -4.425  -1.278 -15.086  1.00  0.00    -0.206 F 
ATOM     95  C   UNL     1      -5.297  -3.359 -17.913  1.00  0.00     0.022 A 
BRANCH  92  96
ATOM     96  S   UNL     1      -4.511  -3.452 -20.587  1.00  0.00     0.124 S 
ATOM     97  O   UNL     1      -4.838  -2.235 -21.321  1.00  0.00    -0.237 OA
ATOM     98  O   UNL     1      -3.166  -3.980 -20.785  1.00  0.00    -0.237 OA
ATOM     99  O   UNL     1      -5.572  -4.457 -20.540  1.00  0.00    -0.744 OA
ENDBRANCH  92  96
ENDBRANCH  65  89
BRANCH  77 100
ATOM    100  C   UNL     1      -3.180   5.395 -19.338  1.00  0.00     0.023 A 
ATOM    101  C   UNL     1      -4.535   5.702 -19.126  1.00  0.00     0.031 A 
ATOM    102  C   UNL     1      -2.578   5.838 -20.529  1.00  0.00     0.131 A 
ATOM    103  C   UNL     1      -5.256   6.396 -20.109  1.00  0.00     0.055 A 
ATOM    104  C   UNL     1      -3.286   6.573 -21.480  1.00  0.00     0.041 A 
ATOM    105  F   UNL     1      -1.288   5.567 -20.783  1.00  0.00    -0.206 F 
ATOM    106  C   UNL     1      -4.636   6.848 -21.277  1.00  0.00     0.022 A 
BRANCH 103 107
ATOM    107  S   UNL     1      -7.038   6.645 -19.874  1.00  0.00     0.124 S 
ATOM    108  O   UNL     1      -7.533   5.273 -19.839  1.00  0.00    -0.237 OA
ATOM    109  O   UNL     1      -7.089   7.373 -18.610  1.00  0.00    -0.237 OA
ATOM    110  O   UNL     1      -7.434   7.418 -21.049  1.00  0.00    -0.744 OA
ENDBRANCH 103 107
ENDBRANCH  77 100
ENDBRANCH  51  52
ENDBRANCH  43  46
ENDBRANCH  41  42
ENDBRANCH   1  41
TORSDOF 16
