REMARK SMILES Nc1ccc(O)c(C(=O)NCCCCNC(=O)c2ccc(-c3c4nc(c(-c5cc(S(=O)(=O)[O-])ccc5F)c5ccc([nH]5)c(-c5cc(S(=O)(=O)[O-])ccc5F)c5nc(c(-c6cc(S(=O)(=O)[O-])ccc6F)c6ccc3[nH]6)C=C5)C=C4)cc2)c1
REMARK SMILES IDX 13 1 12 2 11 3 10 4 8 5 9 6 7 8 2 9 3 10 81 11 4 12 5 13
REMARK SMILES IDX 1 14 6 17 14 19 15 20 16 21 17 23 18 24 19 25 80 26 20 27
REMARK SMILES IDX 79 28 21 29 22 30 23 31 73 32 24 33 78 34 72 35 74 36 25 37
REMARK SMILES IDX 77 38 71 39 70 40 26 42 58 43 38 44 57 45 39 46 42 47 56 48
REMARK SMILES IDX 75 49 40 50 41 51 55 53 76 54 43 55 27 56 28 57 36 58 29 59
REMARK SMILES IDX 35 60 37 61 34 62 30 63 31 64 32 65 33 66 59 67 60 68 68 69
REMARK SMILES IDX 61 70 67 71 69 72 66 73 62 74 63 75 64 76 65 77 44 78 45 79
REMARK SMILES IDX 53 80 46 81 52 82 54 83 51 84 47 85 48 86 49 87 50 88
REMARK H PARENT 10 7 1 15 1 16 6 18 15 22 74 41 42 52
REMARK Flexibility Score: inf
ROOT
ATOM      1  C   UNL     1      -0.964  -5.787  -1.384  1.00  0.00     0.023 C 
ENDROOT
BRANCH   1   2
ATOM      2  C   UNL     1      -1.341  -4.375  -0.919  1.00  0.00     0.023 C 
BRANCH   2   3
ATOM      3  C   UNL     1      -0.636  -3.929   0.364  1.00  0.00     0.116 C 
BRANCH   3   4
ATOM      4  N   UNL     1       0.723  -3.512   0.079  1.00  0.00    -0.352 N 
ATOM      5  C   UNL     1       1.301  -2.288  -0.136  1.00  0.00     0.255 C 
ATOM      6  O   UNL     1       2.522  -2.271  -0.321  1.00  0.00    -0.269 OA
ATOM      7  H   UNL     1       1.361  -4.261   0.030  1.00  0.00     0.163 HD
BRANCH   5   8
ATOM      8  C   UNL     1       0.584  -0.979  -0.103  1.00  0.00     0.083 A 
ATOM      9  C   UNL     1      -1.427   0.413  -0.192  1.00  0.00     0.032 A 
ATOM     10  C   UNL     1      -0.649   1.549   0.025  1.00  0.00     0.029 A 
ATOM     11  C   UNL     1      -0.792  -0.830  -0.320  1.00  0.00     0.043 A 
ATOM     12  C   UNL     1       0.731   1.440   0.180  1.00  0.00     0.049 A 
ATOM     13  C   UNL     1       1.338   0.188   0.122  1.00  0.00     0.128 A 
BRANCH   9  14
ATOM     14  N   UNL     1      -2.791   0.531  -0.413  1.00  0.00    -0.399 N 
ATOM     15  H   UNL     1      -3.231   1.407  -0.321  1.00  0.00     0.156 HD
ATOM     16  H   UNL     1      -3.320  -0.261  -0.662  1.00  0.00     0.156 HD
ENDBRANCH   9  14
BRANCH  13  17
ATOM     17  O   UNL     1       2.701   0.190   0.281  1.00  0.00    -0.507 OA
ATOM     18  H   UNL     1       3.154   0.997   0.428  1.00  0.00     0.293 HD
ENDBRANCH  13  17
ENDBRANCH   5   8
ENDBRANCH   3   4
ENDBRANCH   2   3
ENDBRANCH   1   2
BRANCH   1  19
ATOM     19  C   UNL     1      -1.363  -6.911  -0.431  1.00  0.00     0.116 C 
BRANCH  19  20
ATOM     20  N   UNL     1      -2.788  -6.939  -0.143  1.00  0.00    -0.352 N 
ATOM     21  C   UNL     1      -3.583  -8.022   0.160  1.00  0.00     0.251 C 
ATOM     22  H   UNL     1      -3.245  -6.068  -0.167  1.00  0.00     0.163 HD
ATOM     23  O   UNL     1      -4.790  -7.880   0.268  1.00  0.00    -0.269 OA
BRANCH  21  24
ATOM     24  C   UNL     1      -2.961  -9.357   0.301  1.00  0.00     0.039 A 
ATOM     25  C   UNL     1      -3.516 -10.432  -0.398  1.00  0.00     0.014 A 
ATOM     26  C   UNL     1      -1.823  -9.540   1.091  1.00  0.00     0.014 A 
ATOM     27  C   UNL     1      -2.887 -11.678  -0.362  1.00  0.00     0.010 A 
ATOM     28  C   UNL     1      -1.164 -10.766   1.076  1.00  0.00     0.010 A 
ATOM     29  C   UNL     1      -1.685 -11.845   0.345  1.00  0.00    -0.014 A 
BRANCH  29  30
ATOM     30  C   UNL     1      -0.954 -13.137   0.326  1.00  0.00     0.031 A 
ATOM     31  C   UNL     1      -0.792 -13.930   1.593  1.00  0.00     0.074 A 
ATOM     32  C   UNL     1      -0.372 -13.555  -0.815  1.00  0.00     0.049 A 
ATOM     33  N   UNL     1      -0.117 -15.030   1.803  1.00  0.00    -0.248 NA
ATOM     34  C   UNL     1      -1.453 -13.390   2.791  1.00  0.00     0.031 C 
ATOM     35  C   UNL     1      -0.420 -12.847  -2.096  1.00  0.00     0.029 A 
ATOM     36  N   UNL     1       0.385 -14.668  -1.080  1.00  0.00    -0.354 N 
ATOM     37  C   UNL     1      -0.256 -15.308   3.158  1.00  0.00     0.074 A 
ATOM     38  C   UNL     1      -1.031 -14.225   3.728  1.00  0.00     0.031 C 
ATOM     39  C   UNL     1       0.263 -13.551  -3.014  1.00  0.00     0.029 A 
ATOM     40  C   UNL     1       0.829 -14.738  -2.380  1.00  0.00     0.049 A 
ATOM     41  H   UNL     1       0.591 -15.353  -0.404  1.00  0.00     0.167 HD
ATOM     42  C   UNL     1       0.201 -16.378   3.857  1.00  0.00     0.034 A 
ATOM     43  C   UNL     1       1.614 -15.648  -2.990  1.00  0.00     0.034 A 
ATOM     44  C   UNL     1       0.961 -17.454   3.267  1.00  0.00     0.049 A 
ATOM     45  C   UNL     1       2.116 -16.825  -2.195  1.00  0.00     0.074 A 
ATOM     46  C   UNL     1       1.424 -18.613   3.865  1.00  0.00     0.029 A 
ATOM     47  N   UNL     1       1.378 -17.500   1.942  1.00  0.00    -0.354 N 
ATOM     48  N   UNL     1       1.932 -17.103  -0.924  1.00  0.00    -0.248 NA
ATOM     49  C   UNL     1       2.920 -17.818  -2.918  1.00  0.00     0.031 C 
ATOM     50  C   UNL     1       2.169 -19.328   2.921  1.00  0.00     0.029 A 
ATOM     51  C   UNL     1       2.114 -18.652   1.712  1.00  0.00     0.049 A 
ATOM     52  H   UNL     1       1.179 -16.813   1.265  1.00  0.00     0.167 HD
ATOM     53  C   UNL     1       2.574 -18.318  -0.705  1.00  0.00     0.074 A 
ATOM     54  C   UNL     1       3.139 -18.723  -1.976  1.00  0.00     0.031 C 
ATOM     55  C   UNL     1       2.681 -19.037   0.441  1.00  0.00     0.034 A 
BRANCH  42  56
ATOM     56  C   UNL     1      -0.094 -16.412   5.338  1.00  0.00     0.023 A 
ATOM     57  C   UNL     1      -1.412 -16.455   5.827  1.00  0.00     0.031 A 
ATOM     58  C   UNL     1       0.952 -16.356   6.276  1.00  0.00     0.131 A 
ATOM     59  C   UNL     1      -1.653 -16.351   7.205  1.00  0.00     0.055 A 
ATOM     60  C   UNL     1       0.709 -16.340   7.651  1.00  0.00     0.041 A 
ATOM     61  F   UNL     1       2.231 -16.294   5.871  1.00  0.00    -0.206 F 
ATOM     62  C   UNL     1      -0.601 -16.319   8.122  1.00  0.00     0.022 A 
BRANCH  59  63
ATOM     63  S   UNL     1      -3.358 -16.095   7.766  1.00  0.00     0.124 S 
ATOM     64  O   UNL     1      -3.716 -14.862   7.069  1.00  0.00    -0.237 OA
ATOM     65  O   UNL     1      -4.027 -17.307   7.306  1.00  0.00    -0.237 OA
ATOM     66  O   UNL     1      -3.226 -15.966   9.216  1.00  0.00    -0.744 OA
ENDBRANCH  59  63
ENDBRANCH  42  56
BRANCH  43  67
ATOM     67  C   UNL     1       1.978 -15.486  -4.425  1.00  0.00     0.023 A 
ATOM     68  C   UNL     1       1.511 -16.386  -5.395  1.00  0.00     0.031 A 
ATOM     69  C   UNL     1       2.823 -14.443  -4.843  1.00  0.00     0.131 A 
ATOM     70  C   UNL     1       1.924 -16.252  -6.730  1.00  0.00     0.055 A 
ATOM     71  C   UNL     1       3.194 -14.286  -6.180  1.00  0.00     0.041 A 
ATOM     72  F   UNL     1       3.289 -13.549  -3.956  1.00  0.00    -0.206 F 
ATOM     73  C   UNL     1       2.753 -15.202  -7.130  1.00  0.00     0.022 A 
BRANCH  70  74
ATOM     74  S   UNL     1       1.413 -17.515  -7.927  1.00  0.00     0.124 S 
ATOM     75  O   UNL     1       1.972 -18.727  -7.338  1.00  0.00    -0.237 OA
ATOM     76  O   UNL     1      -0.040 -17.394  -7.892  1.00  0.00    -0.237 OA
ATOM     77  O   UNL     1       2.042 -17.077  -9.172  1.00  0.00    -0.744 OA
ENDBRANCH  70  74
ENDBRANCH  43  67
BRANCH  55  78
ATOM     78  C   UNL     1       3.402 -20.359   0.352  1.00  0.00     0.023 A 
ATOM     79  C   UNL     1       4.785 -20.434   0.112  1.00  0.00     0.031 A 
ATOM     80  C   UNL     1       2.688 -21.561   0.500  1.00  0.00     0.131 A 
ATOM     81  C   UNL     1       5.402 -21.687  -0.025  1.00  0.00     0.055 A 
ATOM     82  C   UNL     1       3.317 -22.804   0.418  1.00  0.00     0.041 A 
ATOM     83  F   UNL     1       1.365 -21.546   0.729  1.00  0.00    -0.206 F 
ATOM     84  C   UNL     1       4.679 -22.872   0.142  1.00  0.00     0.022 A 
BRANCH  81  85
ATOM     85  S   UNL     1       7.149 -21.750  -0.507  1.00  0.00     0.124 S 
ATOM     86  O   UNL     1       7.137 -21.049  -1.787  1.00  0.00    -0.237 OA
ATOM     87  O   UNL     1       7.803 -21.053   0.596  1.00  0.00    -0.237 OA
ATOM     88  O   UNL     1       7.432 -23.182  -0.587  1.00  0.00    -0.744 OA
ENDBRANCH  81  85
ENDBRANCH  55  78
ENDBRANCH  29  30
ENDBRANCH  21  24
ENDBRANCH  19  20
ENDBRANCH   1  19
TORSDOF 16
