REMARK SMILES O=C(COc1cc(-c2ccccc2)nc(Nc2ccccc2Br)n1)NCCCCNC(=O)c1ccc(-c2c3nc(c(-c4cc(S(=O)(=O)[O-])ccc4F)c4ccc([nH]4)c(-c4cc(S(=O)(=O)[O-])ccc4F)c4nc(c(-c5cc(S(=O)(=O)[O-])ccc5F)c5ccc2[nH]5)C=C4)C=C3)cc1
REMARK SMILES IDX 27 1 26 2 25 3 1 4 2 5 3 7 4 8 5 9 6 10 24 11 7 12 15 13
REMARK SMILES IDX 14 14 8 15 9 16 13 17 10 18 12 19 11 20 16 21 17 23 18 24
REMARK SMILES IDX 22 25 19 26 21 27 23 28 20 29 28 30 29 31 30 32 31 33 32 35
REMARK SMILES IDX 33 36 34 37 95 38 35 39 94 40 36 41 37 42 38 43 88 44 39 45
REMARK SMILES IDX 93 46 87 47 89 48 40 49 92 50 86 51 85 52 41 54 73 55 53 56
REMARK SMILES IDX 72 57 54 58 57 59 71 60 90 61 55 62 56 63 70 65 91 66 58 67
REMARK SMILES IDX 42 68 43 69 51 70 44 71 50 72 52 73 49 74 45 75 46 76 47 77
REMARK SMILES IDX 48 78 74 79 75 80 83 81 76 82 82 83 84 84 81 85 77 86 78 87
REMARK SMILES IDX 79 88 80 89 59 90 60 91 68 92 61 93 67 94 69 95 66 96 62 97
REMARK SMILES IDX 63 98 64 99 65 100
REMARK H PARENT 25 6 16 22 30 34 89 53 57 64
REMARK Flexibility Score: inf
ROOT
ATOM      1  C   UNL     1       2.482  -3.480   0.420  1.00  0.00     0.023 C 
ENDROOT
BRANCH   1   2
ATOM      2  C   UNL     1       2.082  -2.161   1.067  1.00  0.00     0.116 C 
BRANCH   2   3
ATOM      3  N   UNL     1       2.773  -1.018   0.505  1.00  0.00    -0.353 N 
ATOM      4  O   UNL     1       0.994  -0.205  -0.708  1.00  0.00    -0.271 OA
ATOM      5  C   UNL     1       2.131  -0.068  -0.267  1.00  0.00     0.258 C 
ATOM      6  H   UNL     1       3.736  -0.914   0.679  1.00  0.00     0.163 HD
BRANCH   5   7
ATOM      7  C   UNL     1       2.943   1.214  -0.478  1.00  0.00     0.331 C 
BRANCH   7   8
ATOM      8  O   UNL     1       3.809   1.542   0.605  1.00  0.00    -0.467 OA
BRANCH   8   9
ATOM      9  C   UNL     1       3.184   2.198   1.637  1.00  0.00     0.219 A 
ATOM     10  C   UNL     1       2.197   1.603   2.376  1.00  0.00     0.097 A 
ATOM     11  N   UNL     1       3.733   3.366   1.975  1.00  0.00    -0.177 NA
ATOM     12  C   UNL     1       1.800   2.263   3.516  1.00  0.00     0.080 A 
ATOM     13  C   UNL     1       3.268   3.971   3.081  1.00  0.00     0.231 A 
ATOM     14  N   UNL     1       2.320   3.451   3.879  1.00  0.00    -0.212 NA
BRANCH  12  15
ATOM     15  C   UNL     1       0.809   1.651   4.411  1.00  0.00     0.000 A 
ATOM     16  C   UNL     1      -0.356   2.333   4.789  1.00  0.00     0.010 A 
ATOM     17  C   UNL     1       0.978   0.327   4.863  1.00  0.00     0.010 A 
ATOM     18  C   UNL     1      -1.333   1.702   5.566  1.00  0.00     0.001 A 
ATOM     19  C   UNL     1       0.006  -0.302   5.642  1.00  0.00     0.001 A 
ATOM     20  C   UNL     1      -1.153   0.386   5.988  1.00  0.00     0.000 A 
ENDBRANCH  12  15
BRANCH  13  21
ATOM     21  N   UNL     1       3.827   5.176   3.500  1.00  0.00    -0.323 N 
ATOM     22  H   UNL     1       3.550   5.487   4.392  1.00  0.00     0.170 HD
BRANCH  21  23
ATOM     23  C   UNL     1       4.731   6.003   2.823  1.00  0.00     0.055 A 
ATOM     24  C   UNL     1       5.968   6.274   3.431  1.00  0.00     0.027 A 
ATOM     25  C   UNL     1       4.502   6.523   1.534  1.00  0.00     0.041 A 
ATOM     26  C   UNL     1       6.951   7.019   2.771  1.00  0.00     0.002 A 
ATOM     27  C   UNL     1       5.486   7.271   0.877  1.00  0.00     0.018 A 
ATOM     28  Br  UNL     1       2.817   6.369   0.655  1.00  0.00    -0.049 Br
ATOM     29  C   UNL     1       6.712   7.512   1.492  1.00  0.00     0.001 A 
ENDBRANCH  21  23
ENDBRANCH  13  21
ENDBRANCH   8   9
ENDBRANCH   7   8
ENDBRANCH   5   7
ENDBRANCH   2   3
ENDBRANCH   1   2
BRANCH   1  30
ATOM     30  C   UNL     1       3.967  -3.831   0.541  1.00  0.00     0.023 C 
BRANCH  30  31
ATOM     31  C   UNL     1       4.516  -3.899   1.964  1.00  0.00     0.116 C 
BRANCH  31  32
ATOM     32  N   UNL     1       3.897  -4.946   2.762  1.00  0.00    -0.352 N 
ATOM     33  C   UNL     1       4.485  -5.966   3.473  1.00  0.00     0.251 C 
ATOM     34  H   UNL     1       2.914  -4.921   2.798  1.00  0.00     0.163 HD
ATOM     35  O   UNL     1       3.778  -6.847   3.958  1.00  0.00    -0.269 OA
BRANCH  33  36
ATOM     36  C   UNL     1       5.958  -6.026   3.623  1.00  0.00     0.039 A 
ATOM     37  C   UNL     1       6.606  -7.252   3.445  1.00  0.00     0.014 A 
ATOM     38  C   UNL     1       6.703  -4.886   3.935  1.00  0.00     0.014 A 
ATOM     39  C   UNL     1       8.001  -7.317   3.503  1.00  0.00     0.010 A 
ATOM     40  C   UNL     1       8.096  -4.937   3.915  1.00  0.00     0.010 A 
ATOM     41  C   UNL     1       8.763  -6.153   3.695  1.00  0.00    -0.014 A 
BRANCH  41  42
ATOM     42  C   UNL     1      10.252  -6.188   3.658  1.00  0.00     0.031 A 
ATOM     43  C   UNL     1      11.051  -5.805   4.875  1.00  0.00     0.074 A 
ATOM     44  C   UNL     1      10.886  -6.508   2.512  1.00  0.00     0.049 A 
ATOM     45  N   UNL     1      12.348  -5.700   5.015  1.00  0.00    -0.248 NA
ATOM     46  C   UNL     1      10.288  -5.470   6.086  1.00  0.00     0.031 C 
ATOM     47  C   UNL     1      10.226  -6.864   1.254  1.00  0.00     0.029 A 
ATOM     48  N   UNL     1      12.224  -6.579   2.212  1.00  0.00    -0.354 N 
ATOM     49  C   UNL     1      12.557  -5.281   6.325  1.00  0.00     0.074 A 
ATOM     50  C   UNL     1      11.248  -5.086   6.912  1.00  0.00     0.031 C 
ATOM     51  C   UNL     1      11.159  -7.138   0.329  1.00  0.00     0.029 A 
ATOM     52  C   UNL     1      12.483  -6.927   0.906  1.00  0.00     0.049 A 
ATOM     53  H   UNL     1      12.933  -6.398   2.871  1.00  0.00     0.167 HD
ATOM     54  C   UNL     1      13.730  -5.099   6.984  1.00  0.00     0.034 A 
ATOM     55  C   UNL     1      13.650  -7.045   0.240  1.00  0.00     0.034 A 
ATOM     56  C   UNL     1      15.028  -5.298   6.384  1.00  0.00     0.049 A 
ATOM     57  C   UNL     1      14.940  -6.794   0.980  1.00  0.00     0.074 A 
ATOM     58  C   UNL     1      16.276  -5.184   6.973  1.00  0.00     0.029 A 
ATOM     59  N   UNL     1      15.249  -5.640   5.055  1.00  0.00    -0.354 N 
ATOM     60  N   UNL     1      15.120  -6.442   2.232  1.00  0.00    -0.248 NA
ATOM     61  C   UNL     1      16.184  -6.965   0.219  1.00  0.00     0.031 C 
ATOM     62  C   UNL     1      17.248  -5.378   5.986  1.00  0.00     0.029 A 
ATOM     63  C   UNL     1      16.611  -5.705   4.799  1.00  0.00     0.049 A 
ATOM     64  H   UNL     1      14.542  -5.812   4.392  1.00  0.00     0.167 HD
ATOM     65  C   UNL     1      16.500  -6.383   2.415  1.00  0.00     0.074 A 
ATOM     66  C   UNL     1      17.102  -6.751   1.150  1.00  0.00     0.031 C 
ATOM     67  C   UNL     1      17.204  -6.060   3.530  1.00  0.00     0.034 A 
BRANCH  54  68
ATOM     68  C   UNL     1      13.654  -4.638   8.422  1.00  0.00     0.023 A 
ATOM     69  C   UNL     1      13.025  -5.411   9.414  1.00  0.00     0.031 A 
ATOM     70  C   UNL     1      14.194  -3.397   8.804  1.00  0.00     0.131 A 
ATOM     71  C   UNL     1      12.877  -4.902  10.712  1.00  0.00     0.055 A 
ATOM     72  C   UNL     1      14.124  -2.936  10.121  1.00  0.00     0.041 A 
ATOM     73  F   UNL     1      14.789  -2.601   7.901  1.00  0.00    -0.206 F 
ATOM     74  C   UNL     1      13.447  -3.682  11.080  1.00  0.00     0.022 A 
BRANCH  71  75
ATOM     75  S   UNL     1      11.791  -5.783  11.867  1.00  0.00     0.124 S 
ATOM     76  O   UNL     1      10.526  -5.791  11.134  1.00  0.00    -0.237 OA
ATOM     77  O   UNL     1      12.457  -7.073  12.005  1.00  0.00    -0.237 OA
ATOM     78  O   UNL     1      11.804  -4.941  13.061  1.00  0.00    -0.744 OA
ENDBRANCH  71  75
ENDBRANCH  54  68
BRANCH  55  79
ATOM     79  C   UNL     1      13.659  -7.400  -1.210  1.00  0.00     0.023 A 
ATOM     80  C   UNL     1      14.248  -8.591  -1.663  1.00  0.00     0.031 A 
ATOM     81  C   UNL     1      13.116  -6.528  -2.170  1.00  0.00     0.131 A 
ATOM     82  C   UNL     1      14.323  -8.855  -3.040  1.00  0.00     0.055 A 
ATOM     83  C   UNL     1      13.139  -6.823  -3.534  1.00  0.00     0.041 A 
ATOM     84  F   UNL     1      12.539  -5.375  -1.793  1.00  0.00    -0.206 F 
ATOM     85  C   UNL     1      13.758  -7.987  -3.977  1.00  0.00     0.022 A 
BRANCH  82  86
ATOM     86  S   UNL     1      15.254 -10.309  -3.597  1.00  0.00     0.124 S 
ATOM     87  O   UNL     1      16.574 -10.048  -3.035  1.00  0.00    -0.237 OA
ATOM     88  O   UNL     1      14.502 -11.401  -2.989  1.00  0.00    -0.237 OA
ATOM     89  O   UNL     1      15.167 -10.231  -5.053  1.00  0.00    -0.744 OA
ENDBRANCH  82  86
ENDBRANCH  55  79
BRANCH  67  90
ATOM     90  C   UNL     1      18.711  -6.139   3.442  1.00  0.00     0.023 A 
ATOM     91  C   UNL     1      19.454  -5.284   2.608  1.00  0.00     0.031 A 
ATOM     92  C   UNL     1      19.413  -7.094   4.199  1.00  0.00     0.131 A 
ATOM     93  C   UNL     1      20.845  -5.439   2.508  1.00  0.00     0.055 A 
ATOM     94  C   UNL     1      20.804  -7.198   4.147  1.00  0.00     0.041 A 
ATOM     95  F   UNL     1      18.758  -7.941   5.009  1.00  0.00    -0.206 F 
ATOM     96  C   UNL     1      21.527  -6.377   3.288  1.00  0.00     0.022 A 
BRANCH  93  97
ATOM     97  S   UNL     1      21.744  -4.466   1.269  1.00  0.00     0.124 S 
ATOM     98  O   UNL     1      21.077  -4.861   0.032  1.00  0.00    -0.237 OA
ATOM     99  O   UNL     1      21.505  -3.097   1.713  1.00  0.00    -0.237 OA
ATOM    100  O   UNL     1      23.124  -4.929   1.404  1.00  0.00    -0.744 OA
ENDBRANCH  93  97
ENDBRANCH  67  90
ENDBRANCH  41  42
ENDBRANCH  33  36
ENDBRANCH  31  32
ENDBRANCH  30  31
ENDBRANCH   1  30
TORSDOF 19
