REMARK SMILES O=C(CSC(=S)N1CCCC1)NCCCCNC(=O)c1ccc(-c2c3nc(c(-c4cc(S(=O)(=O)[O-])ccc4F)c4ccc([nH]4)c(-c4cc(S(=O)(=O)[O-])ccc4F)c4nc(c(-c5cc(S(=O)(=O)[O-])ccc5F)c5ccc2[nH]5)C=C4)C=C3)cc1
REMARK SMILES IDX 14 1 13 2 12 3 1 4 2 5 3 7 4 8 5 9 6 10 7 11 8 12 11 13 9 14
REMARK SMILES IDX 10 15 15 16 16 17 17 18 18 19 19 21 20 22 21 23 82 24 22 25
REMARK SMILES IDX 81 26 23 27 24 28 25 29 75 30 26 31 80 32 74 33 76 34 27 35
REMARK SMILES IDX 79 36 73 37 72 38 28 40 60 41 40 42 59 43 41 44 44 45 58 46
REMARK SMILES IDX 77 47 42 48 43 49 57 51 78 52 45 53 29 54 30 55 38 56 31 57
REMARK SMILES IDX 37 58 39 59 36 60 32 61 33 62 34 63 35 64 61 65 62 66 70 67
REMARK SMILES IDX 63 68 69 69 71 70 68 71 64 72 65 73 66 74 67 75 46 76 47 77
REMARK SMILES IDX 55 78 48 79 54 80 56 81 53 82 49 83 50 84 51 85 52 86
REMARK H PARENT 12 6 17 20 76 39 44 50
REMARK Flexibility Score: inf
ROOT
ATOM      1  C   UNL     1       2.459   3.321  -0.379  1.00  0.00     0.023 C 
ENDROOT
BRANCH   1   2
ATOM      2  C   UNL     1       2.087   2.075  -1.180  1.00  0.00     0.116 C 
BRANCH   2   3
ATOM      3  N   UNL     1       2.742   0.873  -0.706  1.00  0.00    -0.355 N 
ATOM      4  O   UNL     1       0.962   0.131   0.530  1.00  0.00    -0.274 OA
ATOM      5  C   UNL     1       2.083  -0.066   0.060  1.00  0.00     0.230 C 
ATOM      6  H   UNL     1       3.687   0.721  -0.938  1.00  0.00     0.163 HD
BRANCH   5   7
ATOM      7  C   UNL     1       2.855  -1.336   0.386  1.00  0.00     0.177 C 
BRANCH   7   8
ATOM      8  S   UNL     1       3.950  -1.931  -0.923  1.00  0.00    -0.087 SA
BRANCH   8   9
ATOM      9  C   UNL     1       2.912  -2.526  -2.224  1.00  0.00     0.136 C 
ATOM     10  S   UNL     1       1.260  -2.248  -2.345  1.00  0.00    -0.053 S 
BRANCH   9  11
ATOM     11  N   UNL     1       3.623  -3.186  -3.223  1.00  0.00    -0.358 N 
ATOM     12  C   UNL     1       4.825  -4.000  -3.055  1.00  0.00     0.118 C 
ATOM     13  C   UNL     1       3.252  -3.136  -4.638  1.00  0.00     0.118 C 
ATOM     14  C   UNL     1       5.513  -3.928  -4.406  1.00  0.00     0.023 C 
ATOM     15  C   UNL     1       4.349  -3.886  -5.385  1.00  0.00     0.023 C 
ENDBRANCH   9  11
ENDBRANCH   8   9
ENDBRANCH   7   8
ENDBRANCH   5   7
ENDBRANCH   2   3
ENDBRANCH   1   2
BRANCH   1  16
ATOM     16  C   UNL     1       3.939   3.708  -0.428  1.00  0.00     0.023 C 
BRANCH  16  17
ATOM     17  C   UNL     1       4.527   3.914  -1.821  1.00  0.00     0.116 C 
BRANCH  17  18
ATOM     18  N   UNL     1       3.903   5.005  -2.553  1.00  0.00    -0.352 N 
ATOM     19  C   UNL     1       4.487   6.052  -3.229  1.00  0.00     0.251 C 
ATOM     20  H   UNL     1       2.919   4.993  -2.567  1.00  0.00     0.163 HD
ATOM     21  O   UNL     1       3.779   6.952  -3.675  1.00  0.00    -0.269 OA
BRANCH  19  22
ATOM     22  C   UNL     1       5.959   6.119  -3.385  1.00  0.00     0.039 A 
ATOM     23  C   UNL     1       6.605   7.340  -3.170  1.00  0.00     0.014 A 
ATOM     24  C   UNL     1       6.707   4.992  -3.738  1.00  0.00     0.014 A 
ATOM     25  C   UNL     1       8.000   7.412  -3.230  1.00  0.00     0.010 A 
ATOM     26  C   UNL     1       8.100   5.048  -3.723  1.00  0.00     0.010 A 
ATOM     27  C   UNL     1       8.765   6.256  -3.463  1.00  0.00    -0.014 A 
BRANCH  27  28
ATOM     28  C   UNL     1      10.254   6.293  -3.426  1.00  0.00     0.031 A 
ATOM     29  C   UNL     1      11.053   5.955  -4.656  1.00  0.00     0.074 A 
ATOM     30  C   UNL     1      10.888   6.573  -2.269  1.00  0.00     0.049 A 
ATOM     31  N   UNL     1      12.350   5.851  -4.799  1.00  0.00    -0.248 NA
ATOM     32  C   UNL     1      10.290   5.670  -5.880  1.00  0.00     0.031 C 
ATOM     33  C   UNL     1      10.228   6.883  -0.998  1.00  0.00     0.029 A 
ATOM     34  N   UNL     1      12.227   6.633  -1.967  1.00  0.00    -0.354 N 
ATOM     35  C   UNL     1      12.560   5.483  -6.124  1.00  0.00     0.074 A 
ATOM     36  C   UNL     1      11.251   5.318  -6.721  1.00  0.00     0.031 C 
ATOM     37  C   UNL     1      11.162   7.123  -0.064  1.00  0.00     0.029 A 
ATOM     38  C   UNL     1      12.486   6.932  -0.648  1.00  0.00     0.049 A 
ATOM     39  H   UNL     1      12.936   6.476  -2.632  1.00  0.00     0.167 HD
ATOM     40  C   UNL     1      13.733   5.322  -6.787  1.00  0.00     0.034 A 
ATOM     41  C   UNL     1      13.653   7.024   0.022  1.00  0.00     0.034 A 
ATOM     42  C   UNL     1      15.031   5.495  -6.179  1.00  0.00     0.049 A 
ATOM     43  C   UNL     1      14.943   6.798  -0.726  1.00  0.00     0.074 A 
ATOM     44  C   UNL     1      16.279   5.397  -6.771  1.00  0.00     0.029 A 
ATOM     45  N   UNL     1      15.252   5.791  -4.840  1.00  0.00    -0.354 N 
ATOM     46  N   UNL     1      15.123   6.492  -1.991  1.00  0.00    -0.248 NA
ATOM     47  C   UNL     1      16.188   6.940   0.040  1.00  0.00     0.031 C 
ATOM     48  C   UNL     1      17.251   5.558  -5.778  1.00  0.00     0.029 A 
ATOM     49  C   UNL     1      16.614   5.846  -4.582  1.00  0.00     0.049 A 
ATOM     50  H   UNL     1      14.545   5.941  -4.171  1.00  0.00     0.167 HD
ATOM     51  C   UNL     1      16.502   6.440  -2.176  1.00  0.00     0.074 A 
ATOM     52  C   UNL     1      17.105   6.761  -0.899  1.00  0.00     0.031 C 
ATOM     53  C   UNL     1      17.207   6.157  -3.302  1.00  0.00     0.034 A 
BRANCH  40  54
ATOM     54  C   UNL     1      13.660   4.914  -8.241  1.00  0.00     0.023 A 
ATOM     55  C   UNL     1      13.051   5.734  -9.207  1.00  0.00     0.031 A 
ATOM     56  C   UNL     1      14.192   3.684  -8.665  1.00  0.00     0.131 A 
ATOM     57  C   UNL     1      12.919   5.281 -10.529  1.00  0.00     0.055 A 
ATOM     58  C   UNL     1      14.136   3.278 -10.001  1.00  0.00     0.041 A 
ATOM     59  F   UNL     1      14.767   2.847  -7.787  1.00  0.00    -0.206 F 
ATOM     60  C   UNL     1      13.483   4.071 -10.939  1.00  0.00     0.022 A 
BRANCH  57  61
ATOM     61  S   UNL     1      11.871   6.227 -11.667  1.00  0.00     0.124 S 
ATOM     62  O   UNL     1      10.588   6.212 -10.966  1.00  0.00    -0.237 OA
ATOM     63  O   UNL     1      12.551   7.515 -11.726  1.00  0.00    -0.237 OA
ATOM     64  O   UNL     1      11.908   5.442 -12.899  1.00  0.00    -0.744 OA
ENDBRANCH  57  61
ENDBRANCH  40  54
BRANCH  41  65
ATOM     65  C   UNL     1      13.665   7.323   1.484  1.00  0.00     0.023 A 
ATOM     66  C   UNL     1      14.267   8.490   1.982  1.00  0.00     0.031 A 
ATOM     67  C   UNL     1      13.120   6.417   2.413  1.00  0.00     0.131 A 
ATOM     68  C   UNL     1      14.358   8.695   3.368  1.00  0.00     0.055 A 
ATOM     69  C   UNL     1      13.158   6.656   3.788  1.00  0.00     0.041 A 
ATOM     70  F   UNL     1      12.532   5.285   1.993  1.00  0.00    -0.206 F 
ATOM     71  C   UNL     1      13.794   7.794   4.274  1.00  0.00     0.022 A 
BRANCH  68  72
ATOM     72  S   UNL     1      15.317  10.110   3.976  1.00  0.00     0.124 S 
ATOM     73  O   UNL     1      16.624   9.860   3.377  1.00  0.00    -0.237 OA
ATOM     74  O   UNL     1      14.568  11.238   3.434  1.00  0.00    -0.237 OA
ATOM     75  O   UNL     1      15.257   9.962   5.428  1.00  0.00    -0.744 OA
ENDBRANCH  68  72
ENDBRANCH  41  65
BRANCH  53  76
ATOM     76  C   UNL     1      18.713   6.233  -3.210  1.00  0.00     0.023 A 
ATOM     77  C   UNL     1      19.456   5.346  -2.411  1.00  0.00     0.031 A 
ATOM     78  C   UNL     1      19.415   7.218  -3.929  1.00  0.00     0.131 A 
ATOM     79  C   UNL     1      20.847   5.498  -2.305  1.00  0.00     0.055 A 
ATOM     80  C   UNL     1      20.805   7.322  -3.872  1.00  0.00     0.041 A 
ATOM     81  F   UNL     1      18.759   8.095  -4.706  1.00  0.00    -0.206 F 
ATOM     82  C   UNL     1      21.528   6.467  -3.045  1.00  0.00     0.022 A 
BRANCH  79  83
ATOM     83  S   UNL     1      21.747   4.473  -1.108  1.00  0.00     0.124 S 
ATOM     84  O   UNL     1      21.082   4.817   0.145  1.00  0.00    -0.237 OA
ATOM     85  O   UNL     1      21.505   3.124  -1.608  1.00  0.00    -0.237 OA
ATOM     86  O   UNL     1      23.127   4.939  -1.226  1.00  0.00    -0.744 OA
ENDBRANCH  79  83
ENDBRANCH  53  76
ENDBRANCH  27  28
ENDBRANCH  19  22
ENDBRANCH  17  18
ENDBRANCH  16  17
ENDBRANCH   1  16
TORSDOF 17
