REMARK SMILES Cc1cc(C(=O)NCCCCNC(=O)c2ccc(-c3c4nc(c(-c5cc(S(=O)(=O)[O-])ccc5F)c5ccc([nH]5)c(-c5cc(S(=O)(=O)[O-])ccc5F)c5nc(c(-c6cc(S(=O)(=O)[O-])ccc6F)c6ccc3[nH]6)C=C5)C=C4)cc2)cc(S(=O)(=O)NNC(=O)c2c[nH]c3ccccc23)c1C
REMARK SMILES IDX 9 1 8 2 7 3 5 4 6 5 4 7 1 8 2 9 3 10 96 11 79 12 97 13 78 14
REMARK SMILES IDX 80 15 81 16 82 17 83 18 84 20 85 21 86 23 87 24 88 25 95 26
REMARK SMILES IDX 89 27 90 28 94 29 91 31 93 32 92 33 10 34 11 35 12 36 13 37
REMARK SMILES IDX 14 39 15 40 16 41 77 42 17 43 76 44 18 45 19 46 20 47 70 48
REMARK SMILES IDX 21 49 75 50 69 51 71 52 22 53 74 54 68 55 67 56 23 58 55 59
REMARK SMILES IDX 35 60 54 61 36 62 39 63 53 64 72 65 37 66 38 67 52 69 73 70
REMARK SMILES IDX 40 71 24 72 25 73 33 74 26 75 32 76 34 77 31 78 27 79 28 80
REMARK SMILES IDX 29 81 30 82 56 83 57 84 65 85 58 86 64 87 66 88 63 89 59 90
REMARK SMILES IDX 60 91 61 92 62 93 41 94 42 95 50 96 43 97 49 98 51 99 48 100
REMARK SMILES IDX 44 101 45 102 46 103 47 104
REMARK H PARENT 7 6 83 19 84 22 89 30 12 38 71 57 39 68
REMARK Flexibility Score: inf
ROOT
ATOM      1  C   UNL     1      -1.885   4.290  -0.738  1.00  0.00     0.023 C 
ENDROOT
BRANCH   1   2
ATOM      2  C   UNL     1      -2.334   3.491   0.490  1.00  0.00     0.116 C 
BRANCH   2   3
ATOM      3  N   UNL     1      -3.287   2.456   0.126  1.00  0.00    -0.352 N 
ATOM      4  C   UNL     1      -3.173   1.123  -0.180  1.00  0.00     0.251 C 
ATOM      5  O   UNL     1      -4.213   0.511  -0.431  1.00  0.00    -0.269 OA
ATOM      6  H   UNL     1      -4.216   2.781   0.090  1.00  0.00     0.163 HD
BRANCH   4   7
ATOM      7  C   UNL     1      -1.890   0.356  -0.208  1.00  0.00     0.041 A 
ATOM      8  C   UNL     1       1.876   0.878  -0.238  1.00  0.00     0.044 C 
ATOM      9  C   UNL     1       0.552   0.156  -0.250  1.00  0.00    -0.046 A 
ATOM     10  C   UNL     1      -0.622   0.930  -0.289  1.00  0.00     0.017 A 
ATOM     11  C   UNL     1       0.458  -1.249  -0.234  1.00  0.00    -0.028 A 
ATOM     12  C   UNL     1      -0.831  -1.839  -0.281  1.00  0.00     0.088 A 
ATOM     13  C   UNL     1       1.701  -2.106  -0.181  1.00  0.00     0.046 C 
ATOM     14  C   UNL     1      -1.983  -1.047  -0.219  1.00  0.00     0.036 A 
BRANCH  12  15
ATOM     15  S   UNL     1      -0.958  -3.590  -0.600  1.00  0.00     0.257 S 
ATOM     16  O   UNL     1      -0.439  -3.788  -1.949  1.00  0.00    -0.205 OA
ATOM     17  O   UNL     1      -0.397  -4.281   0.521  1.00  0.00    -0.205 OA
BRANCH  15  18
ATOM     18  N   UNL     1      -2.604  -4.031  -0.610  1.00  0.00    -0.123 NA
ATOM     19  H   UNL     1      -3.039  -3.548   0.176  1.00  0.00     0.167 HD
BRANCH  18  20
ATOM     20  N   UNL     1      -3.447  -3.765  -1.785  1.00  0.00    -0.273 N 
ATOM     21  C   UNL     1      -4.384  -4.704  -2.197  1.00  0.00     0.268 C 
ATOM     22  H   UNL     1      -3.348  -2.920  -2.281  1.00  0.00     0.186 HD
ATOM     23  O   UNL     1      -5.589  -4.516  -2.054  1.00  0.00    -0.268 OA
BRANCH  21  24
ATOM     24  C   UNL     1      -3.840  -5.729  -3.088  1.00  0.00     0.066 A 
ATOM     25  C   UNL     1      -2.505  -5.902  -3.410  1.00  0.00     0.097 A 
ATOM     26  C   UNL     1      -4.552  -6.609  -3.970  1.00  0.00     0.012 A 
ATOM     27  N   UNL     1      -2.472  -6.337  -4.707  1.00  0.00    -0.360 N 
ATOM     28  C   UNL     1      -3.715  -6.784  -5.075  1.00  0.00     0.046 A 
ATOM     29  C   UNL     1      -5.853  -7.150  -4.031  1.00  0.00     0.011 A 
ATOM     30  H   UNL     1      -1.677  -6.330  -5.288  1.00  0.00     0.166 HD
ATOM     31  C   UNL     1      -4.163  -7.294  -6.295  1.00  0.00     0.027 A 
ATOM     32  C   UNL     1      -6.271  -7.795  -5.203  1.00  0.00     0.001 A 
ATOM     33  C   UNL     1      -5.459  -7.811  -6.335  1.00  0.00     0.002 A 
ENDBRANCH  21  24
ENDBRANCH  18  20
ENDBRANCH  15  18
ENDBRANCH  12  15
ENDBRANCH   4   7
ENDBRANCH   2   3
ENDBRANCH   1   2
BRANCH   1  34
ATOM     34  C   UNL     1      -2.883   5.365  -1.189  1.00  0.00     0.023 C 
BRANCH  34  35
ATOM     35  C   UNL     1      -3.080   6.519  -0.207  1.00  0.00     0.116 C 
BRANCH  35  36
ATOM     36  N   UNL     1      -1.861   7.269   0.053  1.00  0.00    -0.352 N 
ATOM     37  C   UNL     1      -1.726   8.604   0.356  1.00  0.00     0.251 C 
ATOM     38  H   UNL     1      -1.024   6.753   0.006  1.00  0.00     0.163 HD
ATOM     39  O   UNL     1      -0.606   9.099   0.440  1.00  0.00    -0.269 OA
BRANCH  37  40
ATOM     40  C   UNL     1      -2.934   9.441   0.528  1.00  0.00     0.039 A 
ATOM     41  C   UNL     1      -3.009  10.663  -0.146  1.00  0.00     0.014 A 
ATOM     42  C   UNL     1      -3.999   9.011   1.323  1.00  0.00     0.014 A 
ATOM     43  C   UNL     1      -4.184  11.416  -0.084  1.00  0.00     0.010 A 
ATOM     44  C   UNL     1      -5.192   9.730   1.329  1.00  0.00     0.010 A 
ATOM     45  C   UNL     1      -5.300  10.937   0.621  1.00  0.00    -0.014 A 
BRANCH  45  46
ATOM     46  C   UNL     1      -6.589  11.675   0.622  1.00  0.00     0.031 A 
ATOM     47  C   UNL     1      -7.138  12.237   1.904  1.00  0.00     0.074 A 
ATOM     48  C   UNL     1      -7.302  11.773  -0.518  1.00  0.00     0.049 A 
ATOM     49  N   UNL     1      -8.280  12.835   2.126  1.00  0.00    -0.248 NA
ATOM     50  C   UNL     1      -6.302  12.071   3.101  1.00  0.00     0.031 C 
ATOM     51  C   UNL     1      -6.898  11.226  -1.816  1.00  0.00     0.029 A 
ATOM     52  N   UNL     1      -8.520  12.353  -0.769  1.00  0.00    -0.354 N 
ATOM     53  C   UNL     1      -8.307  13.106   3.490  1.00  0.00     0.074 A 
ATOM     54  C   UNL     1      -7.095  12.545   4.050  1.00  0.00     0.031 C 
ATOM     55  C   UNL     1      -7.842  11.512  -2.727  1.00  0.00     0.029 A 
ATOM     56  C   UNL     1      -8.935  12.225  -2.074  1.00  0.00     0.049 A 
ATOM     57  H   UNL     1      -9.047  12.817  -0.079  1.00  0.00     0.167 HD
ATOM     58  C   UNL     1      -9.244  13.780   4.205  1.00  0.00     0.034 A 
ATOM     59  C   UNL     1     -10.073  12.625  -2.675  1.00  0.00     0.034 A 
ATOM     60  C   UNL     1     -10.443  14.339   3.627  1.00  0.00     0.049 A 
ATOM     61  C   UNL     1     -11.109  13.358  -1.862  1.00  0.00     0.074 A 
ATOM     62  C   UNL     1     -11.430  15.089   4.243  1.00  0.00     0.029 A 
ATOM     63  N   UNL     1     -10.826  14.199   2.298  1.00  0.00    -0.354 N 
ATOM     64  N   UNL     1     -11.095  13.656  -0.583  1.00  0.00    -0.248 NA
ATOM     65  C   UNL     1     -12.306  13.818  -2.576  1.00  0.00     0.031 C 
ATOM     66  C   UNL     1     -12.438  15.345   3.306  1.00  0.00     0.029 A 
ATOM     67  C   UNL     1     -12.047  14.822   2.084  1.00  0.00     0.049 A 
ATOM     68  H   UNL     1     -10.306  13.726   1.609  1.00  0.00     0.167 HD
ATOM     69  C   UNL     1     -12.270  14.364  -0.347  1.00  0.00     0.074 A 
ATOM     70  C   UNL     1     -12.960  14.458  -1.617  1.00  0.00     0.031 C 
ATOM     71  C   UNL     1     -12.733  14.894   0.815  1.00  0.00     0.034 A 
BRANCH  58  72
ATOM     72  C   UNL     1      -9.009  13.919   5.691  1.00  0.00     0.023 A 
ATOM     73  C   UNL     1      -7.884  14.593   6.200  1.00  0.00     0.031 A 
ATOM     74  C   UNL     1      -9.892  13.331   6.614  1.00  0.00     0.131 A 
ATOM     75  C   UNL     1      -7.621  14.579   7.578  1.00  0.00     0.055 A 
ATOM     76  C   UNL     1      -9.672  13.400   7.992  1.00  0.00     0.041 A 
ATOM     77  F   UNL     1     -10.974  12.658   6.191  1.00  0.00    -0.206 F 
ATOM     78  C   UNL     1      -8.521  14.009   8.480  1.00  0.00     0.022 A 
BRANCH  75  79
ATOM     79  S   UNL     1      -6.003  15.165   8.153  1.00  0.00     0.124 S 
ATOM     80  O   UNL     1      -5.094  14.294   7.410  1.00  0.00    -0.237 OA
ATOM     81  O   UNL     1      -6.014  16.567   7.754  1.00  0.00    -0.237 OA
ATOM     82  O   UNL     1      -6.043  14.924   9.594  1.00  0.00    -0.744 OA
ENDBRANCH  75  79
ENDBRANCH  58  72
BRANCH  59  83
ATOM     83  C   UNL     1     -10.300  12.338  -4.120  1.00  0.00     0.023 A 
ATOM     84  C   UNL     1     -10.357  13.376  -5.064  1.00  0.00     0.031 A 
ATOM     85  C   UNL     1     -10.484  11.020  -4.575  1.00  0.00     0.131 A 
ATOM     86  C   UNL     1     -10.631  13.083  -6.409  1.00  0.00     0.055 A 
ATOM     87  C   UNL     1     -10.709  10.730  -5.921  1.00  0.00     0.041 A 
ATOM     88  F   UNL     1     -10.429   9.991  -3.714  1.00  0.00    -0.206 F 
ATOM     89  C   UNL     1     -10.795  11.766  -6.846  1.00  0.00     0.022 A 
BRANCH  86  90
ATOM     90  S   UNL     1     -10.832  14.458  -7.574  1.00  0.00     0.124 S 
ATOM     91  O   UNL     1     -11.950  15.186  -6.984  1.00  0.00    -0.237 OA
ATOM     92  O   UNL     1      -9.530  15.111  -7.499  1.00  0.00    -0.237 OA
ATOM     93  O   UNL     1     -11.119  13.791  -8.842  1.00  0.00    -0.744 OA
ENDBRANCH  86  90
ENDBRANCH  59  83
BRANCH  71  94
ATOM     94  C   UNL     1     -14.032  15.660   0.747  1.00  0.00     0.023 A 
ATOM     95  C   UNL     1     -15.255  15.024   0.470  1.00  0.00     0.031 A 
ATOM     96  C   UNL     1     -14.042  17.051   0.952  1.00  0.00     0.131 A 
ATOM     97  C   UNL     1     -16.428  15.785   0.353  1.00  0.00     0.055 A 
ATOM     98  C   UNL     1     -15.221  17.795   0.893  1.00  0.00     0.041 A 
ATOM     99  F   UNL     1     -12.903  17.711   1.217  1.00  0.00    -0.206 F 
ATOM    100  C   UNL     1     -16.421  17.164   0.579  1.00  0.00     0.022 A 
BRANCH  97 101
ATOM    101  S   UNL     1     -17.952  14.962  -0.187  1.00  0.00     0.124 S 
ATOM    102  O   UNL     1     -17.560  14.419  -1.484  1.00  0.00    -0.237 OA
ATOM    103  O   UNL     1     -18.171  13.985   0.874  1.00  0.00    -0.237 OA
ATOM    104  O   UNL     1     -18.928  16.049  -0.239  1.00  0.00    -0.744 OA
ENDBRANCH  97 101
ENDBRANCH  71  94
ENDBRANCH  45  46
ENDBRANCH  37  40
ENDBRANCH  35  36
ENDBRANCH  34  35
ENDBRANCH   1  34
TORSDOF 18
