REMARK SMILES O=C(NCCCCNC(=O)[C@@]1([NH2+]C2CC2)CC[C@H](SC2CCCC2)C1)c1ccc(-c2c3nc(c(-c4cc(S(=O)(=O)[O-])ccc4F)c4ccc([nH]4)c(-c4cc(S(=O)(=O)[O-])ccc4F)c4nc(c(-c5cc(S(=O)(=O)[O-])ccc5F)c5ccc2[nH]5)C=C4)C=C3)cc1
REMARK SMILES IDX 5 1 4 2 3 3 1 4 2 5 26 7 27 8 88 9 28 10 87 11 29 12 30 13
REMARK SMILES IDX 31 14 81 15 32 16 86 17 80 18 82 19 33 20 85 21 79 22 78 23
REMARK SMILES IDX 34 25 66 26 46 27 65 28 47 29 50 30 64 31 83 32 48 33 49 34
REMARK SMILES IDX 63 36 84 37 51 38 35 39 36 40 44 41 37 42 43 43 45 44 42 45
REMARK SMILES IDX 38 46 39 47 40 48 41 49 67 50 68 51 76 52 69 53 75 54 77 55
REMARK SMILES IDX 74 56 70 57 71 58 72 59 73 60 52 61 53 62 61 63 54 64 60 65
REMARK SMILES IDX 62 66 59 67 55 68 56 69 57 70 58 71 6 72 7 73 8 74 9 75
REMARK SMILES IDX 10 77 11 78 16 79 25 80 17 81 18 82 12 83 13 86 14 87 15 88
REMARK SMILES IDX 19 89 20 90 21 91 24 92 22 93 23 94
REMARK H PARENT 3 6 82 24 50 35 8 76 12 84 12 85
REMARK Flexibility Score: inf
ROOT
ATOM      1  C   UNL     1       4.956  -0.970   1.809  1.00  0.00     0.023 C 
ENDROOT
BRANCH   1   2
ATOM      2  C   UNL     1       4.621  -0.746   0.345  1.00  0.00     0.116 C 
BRANCH   2   3
ATOM      3  N   UNL     1       3.196  -0.904   0.066  1.00  0.00    -0.352 N 
ATOM      4  O   UNL     1       1.122  -0.192  -0.489  1.00  0.00    -0.269 OA
ATOM      5  C   UNL     1       2.327   0.009  -0.484  1.00  0.00     0.251 C 
ATOM      6  H   UNL     1       2.807  -1.777   0.302  1.00  0.00     0.163 HD
BRANCH   5   7
ATOM      7  C   UNL     1       2.898   1.241  -1.055  1.00  0.00     0.039 A 
ATOM      8  C   UNL     1       4.000   1.144  -1.908  1.00  0.00     0.014 A 
ATOM      9  C   UNL     1       2.391   2.482  -0.670  1.00  0.00     0.014 A 
ATOM     10  C   UNL     1       4.700   2.289  -2.244  1.00  0.00     0.010 A 
ATOM     11  C   UNL     1       3.034   3.639  -1.106  1.00  0.00     0.010 A 
ATOM     12  C   UNL     1       4.208   3.549  -1.872  1.00  0.00    -0.014 A 
BRANCH  12  13
ATOM     13  C   UNL     1       4.902   4.763  -2.356  1.00  0.00     0.031 A 
ATOM     14  C   UNL     1       5.524   5.731  -1.394  1.00  0.00     0.074 A 
ATOM     15  C   UNL     1       4.962   4.970  -3.685  1.00  0.00     0.049 A 
ATOM     16  N   UNL     1       6.089   6.885  -1.637  1.00  0.00    -0.248 NA
ATOM     17  C   UNL     1       5.497   5.361   0.028  1.00  0.00     0.031 C 
ATOM     18  C   UNL     1       4.400   4.073  -4.700  1.00  0.00     0.029 A 
ATOM     19  N   UNL     1       5.522   5.984  -4.413  1.00  0.00    -0.354 N 
ATOM     20  C   UNL     1       6.458   7.398  -0.399  1.00  0.00     0.074 A 
ATOM     21  C   UNL     1       6.028   6.434   0.595  1.00  0.00     0.031 C 
ATOM     22  C   UNL     1       4.672   4.560  -5.917  1.00  0.00     0.029 A 
ATOM     23  C   UNL     1       5.341   5.844  -5.768  1.00  0.00     0.049 A 
ATOM     24  H   UNL     1       6.006   6.739  -4.006  1.00  0.00     0.167 HD
ATOM     25  C   UNL     1       7.096   8.565  -0.127  1.00  0.00     0.034 A 
ATOM     26  C   UNL     1       5.636   6.680  -6.780  1.00  0.00     0.034 A 
ATOM     27  C   UNL     1       7.508   9.501  -1.149  1.00  0.00     0.049 A 
ATOM     28  C   UNL     1       6.295   7.988  -6.453  1.00  0.00     0.074 A 
ATOM     29  C   UNL     1       8.173  10.705  -1.001  1.00  0.00     0.029 A 
ATOM     30  N   UNL     1       7.283   9.340  -2.513  1.00  0.00    -0.354 N 
ATOM     31  N   UNL     1       6.625   8.470  -5.277  1.00  0.00    -0.248 NA
ATOM     32  C   UNL     1       6.620   8.862  -7.582  1.00  0.00     0.031 C 
ATOM     33  C   UNL     1       8.289  11.301  -2.263  1.00  0.00     0.029 A 
ATOM     34  C   UNL     1       7.770  10.434  -3.212  1.00  0.00     0.049 A 
ATOM     35  H   UNL     1       6.843   8.560  -2.923  1.00  0.00     0.167 HD
ATOM     36  C   UNL     1       7.220   9.700  -5.527  1.00  0.00     0.074 A 
ATOM     37  C   UNL     1       7.210   9.878  -6.967  1.00  0.00     0.031 C 
ATOM     38  C   UNL     1       7.735  10.597  -4.648  1.00  0.00     0.034 A 
BRANCH  25  39
ATOM     39  C   UNL     1       7.319   8.912   1.327  1.00  0.00     0.023 A 
ATOM     40  C   UNL     1       8.111   8.113   2.172  1.00  0.00     0.031 A 
ATOM     41  C   UNL     1       6.689  10.035   1.894  1.00  0.00     0.131 A 
ATOM     42  C   UNL     1       8.179   8.396   3.546  1.00  0.00     0.055 A 
ATOM     43  C   UNL     1       6.831  10.361   3.245  1.00  0.00     0.041 A 
ATOM     44  F   UNL     1       5.902  10.826   1.147  1.00  0.00    -0.206 F 
ATOM     45  C   UNL     1       7.565   9.528   4.084  1.00  0.00     0.022 A 
BRANCH  42  46
ATOM     46  S   UNL     1       8.938   7.167   4.646  1.00  0.00     0.124 S 
ATOM     47  O   UNL     1       8.160   5.970   4.334  1.00  0.00    -0.237 OA
ATOM     48  O   UNL     1      10.326   7.161   4.200  1.00  0.00    -0.237 OA
ATOM     49  O   UNL     1       8.711   7.716   5.981  1.00  0.00    -0.744 OA
ENDBRANCH  42  46
ENDBRANCH  25  39
BRANCH  26  50
ATOM     50  C   UNL     1       5.259   6.311  -8.171  1.00  0.00     0.023 A 
ATOM     51  C   UNL     1       6.234   6.039  -9.139  1.00  0.00     0.031 A 
ATOM     52  C   UNL     1       3.905   6.194  -8.540  1.00  0.00     0.131 A 
ATOM     53  C   UNL     1       5.842   5.681 -10.438  1.00  0.00     0.055 A 
ATOM     54  C   UNL     1       3.521   5.791  -9.818  1.00  0.00     0.041 A 
ATOM     55  F   UNL     1       2.934   6.431  -7.643  1.00  0.00    -0.206 F 
ATOM     56  C   UNL     1       4.494   5.540 -10.780  1.00  0.00     0.022 A 
BRANCH  53  57
ATOM     57  S   UNL     1       7.125   5.444 -11.696  1.00  0.00     0.124 S 
ATOM     58  O   UNL     1       7.774   6.750 -11.710  1.00  0.00    -0.237 OA
ATOM     59  O   UNL     1       7.904   4.346 -11.132  1.00  0.00    -0.237 OA
ATOM     60  O   UNL     1       6.365   5.111 -12.899  1.00  0.00    -0.744 OA
ENDBRANCH  53  57
ENDBRANCH  26  50
BRANCH  38  61
ATOM     61  C   UNL     1       8.376  11.827  -5.237  1.00  0.00     0.023 A 
ATOM     62  C   UNL     1       7.619  12.822  -5.878  1.00  0.00     0.031 A 
ATOM     63  C   UNL     1       9.770  11.995  -5.162  1.00  0.00     0.131 A 
ATOM     64  C   UNL     1       8.268  13.921  -6.463  1.00  0.00     0.055 A 
ATOM     65  C   UNL     1      10.403  13.117  -5.695  1.00  0.00     0.041 A 
ATOM     66  F   UNL     1      10.537  11.070  -4.564  1.00  0.00    -0.206 F 
ATOM     67  C   UNL     1       9.652  14.082  -6.360  1.00  0.00     0.022 A 
BRANCH  64  68
ATOM     68  S   UNL     1       7.286  15.099  -7.431  1.00  0.00     0.124 S 
ATOM     69  O   UNL     1       6.736  14.246  -8.479  1.00  0.00    -0.237 OA
ATOM     70  O   UNL     1       6.331  15.595  -6.445  1.00  0.00    -0.237 OA
ATOM     71  O   UNL     1       8.273  16.078  -7.882  1.00  0.00    -0.744 OA
ENDBRANCH  64  68
ENDBRANCH  38  61
ENDBRANCH  12  13
ENDBRANCH   5   7
ENDBRANCH   2   3
ENDBRANCH   1   2
BRANCH   1  72
ATOM     72  C   UNL     1       4.457  -2.296   2.351  1.00  0.00     0.023 C 
BRANCH  72  73
ATOM     73  C   UNL     1       4.960  -3.519   1.591  1.00  0.00     0.116 C 
BRANCH  73  74
ATOM     74  N   UNL     1       6.351  -3.850   1.851  1.00  0.00    -0.351 N 
ATOM     75  C   UNL     1       6.981  -4.934   2.399  1.00  0.00     0.281 C 
ATOM     76  H   UNL     1       6.974  -3.141   1.572  1.00  0.00     0.163 HD
ATOM     77  O   UNL     1       8.218  -4.910   2.346  1.00  0.00    -0.268 OA
BRANCH  75  78
ATOM     78  C   UNL     1       6.238  -6.125   3.072  1.00  0.00     0.176 C 
ATOM     79  C   UNL     1       4.869  -6.462   2.482  1.00  0.00     0.080 C 
ATOM     80  C   UNL     1       6.976  -7.451   2.671  1.00  0.00     0.093 C 
ATOM     81  C   UNL     1       4.600  -7.903   2.817  1.00  0.00     0.022 C 
ATOM     82  C   UNL     1       5.948  -8.598   2.844  1.00  0.00     0.054 C 
BRANCH  78  83
ATOM     83  N   UNL     1       6.366  -6.110   4.545  1.00  0.00    -0.331 N 
ATOM     84  H   UNL     1       7.371  -6.128   4.718  1.00  0.00     0.347 HD
ATOM     85  H   UNL     1       5.728  -6.875   4.763  1.00  0.00     0.347 HD
BRANCH  83  86
ATOM     86  C   UNL     1       5.852  -5.124   5.476  1.00  0.00     0.183 C 
ATOM     87  C   UNL     1       6.008  -3.650   5.295  1.00  0.00     0.071 C 
ATOM     88  C   UNL     1       4.641  -4.285   5.254  1.00  0.00     0.071 C 
ENDBRANCH  83  86
ENDBRANCH  78  83
BRANCH  82  89
ATOM     89  S   UNL     1       6.130  -9.533   4.421  1.00  0.00    -0.155 SA
BRANCH  89  90
ATOM     90  C   UNL     1       4.718 -10.717   4.406  1.00  0.00     0.047 C 
ATOM     91  C   UNL     1       3.318 -10.187   4.722  1.00  0.00     0.014 C 
ATOM     92  C   UNL     1       4.511 -11.509   3.120  1.00  0.00     0.014 C 
ATOM     93  C   UNL     1       2.411 -11.365   4.393  1.00  0.00     0.001 C 
ATOM     94  C   UNL     1       3.104 -12.102   3.248  1.00  0.00     0.001 C 
ENDBRANCH  89  90
ENDBRANCH  82  89
ENDBRANCH  75  78
ENDBRANCH  73  74
ENDBRANCH  72  73
ENDBRANCH   1  72
TORSDOF 18
