REMARK SMILES C[C@H]1CCC[C@@H]1n1c(SCC(=O)NCCCCNC(=O)c2ccc(-c3c4nc(c(-c5cc(S(=O)(=O)[O-])ccc5F)c5ccc([nH]5)c(-c5cc(S(=O)(=O)[O-])ccc5F)c5nc(c(-c6cc(S(=O)(=O)[O-])ccc6F)c6ccc3[nH]6)C=C5)C=C4)cc2)nc2cnccc21
REMARK SMILES IDX 15 1 14 2 13 3 11 4 12 5 10 7 9 8 8 9 7 10 90 11 84 12 85 13
REMARK SMILES IDX 89 14 86 15 88 16 87 17 6 18 1 19 2 20 3 21 4 22 5 23 16 24
REMARK SMILES IDX 17 25 18 26 19 27 20 29 21 30 22 31 83 32 23 33 82 34 24 35
REMARK SMILES IDX 25 36 26 37 76 38 27 39 81 40 75 41 77 42 28 43 80 44 74 45
REMARK SMILES IDX 73 46 29 48 61 49 41 50 60 51 42 52 45 53 59 54 78 55 43 56
REMARK SMILES IDX 44 57 58 59 79 60 46 61 30 62 31 63 39 64 32 65 38 66 40 67
REMARK SMILES IDX 37 68 33 69 34 70 35 71 36 72 62 73 63 74 71 75 64 76 70 77
REMARK SMILES IDX 72 78 69 79 65 80 66 81 67 82 68 83 47 84 48 85 56 86 49 87
REMARK SMILES IDX 55 88 57 89 54 90 50 91 51 92 52 93 53 94
REMARK H PARENT 13 6 18 28 77 47 45 58
REMARK Flexibility Score: inf
ROOT
ATOM      1  C   UNL     1      -0.853   4.689  -4.228  1.00  0.00     0.023 C 
ENDROOT
BRANCH   1   2
ATOM      2  C   UNL     1      -2.133   4.133  -3.625  1.00  0.00     0.116 C 
BRANCH   2   3
ATOM      3  N   UNL     1      -2.012   2.740  -3.261  1.00  0.00    -0.355 N 
ATOM      4  C   UNL     1      -2.503   2.115  -2.166  1.00  0.00     0.230 C 
ATOM      5  O   UNL     1      -2.724   0.903  -2.288  1.00  0.00    -0.274 OA
ATOM      6  H   UNL     1      -1.508   2.175  -3.889  1.00  0.00     0.163 HD
BRANCH   4   7
ATOM      7  C   UNL     1      -2.922   2.854  -0.922  1.00  0.00     0.178 C 
BRANCH   7   8
ATOM      8  S   UNL     1      -1.782   3.490   0.303  1.00  0.00    -0.078 SA
BRANCH   8   9
ATOM      9  C   UNL     1      -0.081   3.234   0.059  1.00  0.00     0.169 A 
ATOM     10  N   UNL     1       0.652   2.066   0.307  1.00  0.00    -0.315 N 
ATOM     11  C   UNL     1       1.996   2.442   0.349  1.00  0.00     0.072 A 
ATOM     12  N   UNL     1       0.703   4.293   0.115  1.00  0.00    -0.221 NA
ATOM     13  C   UNL     1       1.967   3.835   0.377  1.00  0.00     0.108 A 
ATOM     14  C   UNL     1       3.223   1.770   0.439  1.00  0.00     0.049 A 
ATOM     15  C   UNL     1       3.141   4.543   0.675  1.00  0.00     0.141 A 
ATOM     16  C   UNL     1       4.336   2.552   0.719  1.00  0.00     0.113 A 
ATOM     17  N   UNL     1       4.312   3.888   0.883  1.00  0.00    -0.262 NA
BRANCH  10  18
ATOM     18  C   UNL     1       0.095   0.789   0.764  1.00  0.00     0.093 C 
ATOM     19  C   UNL     1       1.812  -0.449   2.266  1.00  0.00     0.010 C 
ATOM     20  C   UNL     1       1.023  -0.433   0.960  1.00  0.00     0.009 C 
ATOM     21  C   UNL     1       0.072  -1.631   0.902  1.00  0.00     0.005 C 
ATOM     22  C   UNL     1      -0.886  -1.281  -0.210  1.00  0.00     0.002 C 
ATOM     23  C   UNL     1      -0.928   0.236  -0.225  1.00  0.00     0.026 C 
ENDBRANCH  10  18
ENDBRANCH   8   9
ENDBRANCH   7   8
ENDBRANCH   4   7
ENDBRANCH   2   3
ENDBRANCH   1   2
BRANCH   1  24
ATOM     24  C   UNL     1      -0.280   3.930  -5.432  1.00  0.00     0.023 C 
BRANCH  24  25
ATOM     25  C   UNL     1      -1.256   3.582  -6.559  1.00  0.00     0.116 C 
BRANCH  25  26
ATOM     26  N   UNL     1      -2.059   4.684  -7.044  1.00  0.00    -0.352 N 
ATOM     27  C   UNL     1      -1.881   5.683  -7.963  1.00  0.00     0.251 C 
ATOM     28  H   UNL     1      -2.943   4.724  -6.612  1.00  0.00     0.163 HD
ATOM     29  O   UNL     1      -2.887   6.351  -8.219  1.00  0.00    -0.269 OA
BRANCH  27  30
ATOM     30  C   UNL     1      -0.590   6.041  -8.613  1.00  0.00     0.039 A 
ATOM     31  C   UNL     1       0.601   5.330  -8.485  1.00  0.00     0.014 A 
ATOM     32  C   UNL     1      -0.585   7.217  -9.392  1.00  0.00     0.014 A 
ATOM     33  C   UNL     1       1.778   5.822  -9.039  1.00  0.00     0.010 A 
ATOM     34  C   UNL     1       0.587   7.699  -9.975  1.00  0.00     0.010 A 
ATOM     35  C   UNL     1       1.780   7.017  -9.768  1.00  0.00    -0.014 A 
BRANCH  35  36
ATOM     36  C   UNL     1       3.044   7.410 -10.389  1.00  0.00     0.031 A 
ATOM     37  C   UNL     1       3.584   6.427 -11.364  1.00  0.00     0.074 A 
ATOM     38  C   UNL     1       3.678   8.585 -10.204  1.00  0.00     0.049 A 
ATOM     39  N   UNL     1       4.634   5.681 -11.244  1.00  0.00    -0.248 NA
ATOM     40  C   UNL     1       2.779   6.147 -12.560  1.00  0.00     0.031 C 
ATOM     41  C   UNL     1       3.140   9.787  -9.566  1.00  0.00     0.029 A 
ATOM     42  N   UNL     1       4.910   8.983 -10.648  1.00  0.00    -0.354 N 
ATOM     43  C   UNL     1       4.744   4.987 -12.448  1.00  0.00     0.074 A 
ATOM     44  C   UNL     1       3.491   5.176 -13.134  1.00  0.00     0.031 C 
ATOM     45  C   UNL     1       3.936  10.837  -9.867  1.00  0.00     0.029 A 
ATOM     46  C   UNL     1       5.111  10.352 -10.576  1.00  0.00     0.049 A 
ATOM     47  H   UNL     1       5.589   8.357 -10.986  1.00  0.00     0.167 HD
ATOM     48  C   UNL     1       5.946   4.523 -12.893  1.00  0.00     0.034 A 
ATOM     49  C   UNL     1       6.131  11.060 -11.114  1.00  0.00     0.034 A 
ATOM     50  C   UNL     1       6.944   4.586 -11.860  1.00  0.00     0.049 A 
ATOM     51  C   UNL     1       7.288  10.169 -11.343  1.00  0.00     0.074 A 
ATOM     52  C   UNL     1       7.274   3.875 -10.731  1.00  0.00     0.029 A 
ATOM     53  N   UNL     1       7.623   5.774 -11.812  1.00  0.00    -0.354 N 
ATOM     54  N   UNL     1       8.011   9.650 -10.391  1.00  0.00    -0.248 NA
ATOM     55  C   UNL     1       7.515   9.608 -12.671  1.00  0.00     0.031 C 
ATOM     56  C   UNL     1       8.031   4.763  -9.912  1.00  0.00     0.029 A 
ATOM     57  C   UNL     1       8.153   5.988 -10.569  1.00  0.00     0.049 A 
ATOM     58  H   UNL     1       7.717   6.392 -12.572  1.00  0.00     0.167 HD
ATOM     59  C   UNL     1       8.408   8.430 -10.900  1.00  0.00     0.074 A 
ATOM     60  C   UNL     1       8.270   8.557 -12.343  1.00  0.00     0.031 C 
ATOM     61  C   UNL     1       8.475   7.325 -10.102  1.00  0.00     0.034 A 
BRANCH  48  62
ATOM     62  C   UNL     1       6.354   4.452 -14.355  1.00  0.00     0.023 A 
ATOM     63  C   UNL     1       5.593   5.017 -15.393  1.00  0.00     0.031 A 
ATOM     64  C   UNL     1       7.661   4.048 -14.708  1.00  0.00     0.131 A 
ATOM     65  C   UNL     1       6.113   5.180 -16.686  1.00  0.00     0.055 A 
ATOM     66  C   UNL     1       8.203   4.267 -15.983  1.00  0.00     0.041 A 
ATOM     67  F   UNL     1       8.481   3.485 -13.806  1.00  0.00    -0.206 F 
ATOM     68  C   UNL     1       7.428   4.844 -16.980  1.00  0.00     0.022 A 
BRANCH  65  69
ATOM     69  S   UNL     1       5.069   5.878 -17.996  1.00  0.00     0.124 S 
ATOM     70  O   UNL     1       5.838   7.060 -18.391  1.00  0.00    -0.237 OA
ATOM     71  O   UNL     1       5.055   4.784 -18.971  1.00  0.00    -0.237 OA
ATOM     72  O   UNL     1       3.806   6.132 -17.332  1.00  0.00    -0.744 OA
ENDBRANCH  65  69
ENDBRANCH  48  62
BRANCH  49  73
ATOM     73  C   UNL     1       6.047  12.398 -11.739  1.00  0.00     0.023 A 
ATOM     74  C   UNL     1       4.852  12.796 -12.365  1.00  0.00     0.031 A 
ATOM     75  C   UNL     1       7.199  13.159 -11.996  1.00  0.00     0.131 A 
ATOM     76  C   UNL     1       4.842  13.874 -13.257  1.00  0.00     0.055 A 
ATOM     77  C   UNL     1       7.186  14.245 -12.878  1.00  0.00     0.041 A 
ATOM     78  F   UNL     1       8.378  12.819 -11.451  1.00  0.00    -0.206 F 
ATOM     79  C   UNL     1       6.005  14.598 -13.526  1.00  0.00     0.022 A 
BRANCH  76  80
ATOM     80  S   UNL     1       3.321  14.308 -14.143  1.00  0.00     0.124 S 
ATOM     81  O   UNL     1       3.294  15.764 -14.019  1.00  0.00    -0.237 OA
ATOM     82  O   UNL     1       3.601  13.797 -15.480  1.00  0.00    -0.237 OA
ATOM     83  O   UNL     1       2.280  13.608 -13.398  1.00  0.00    -0.744 OA
ENDBRANCH  76  80
ENDBRANCH  49  73
BRANCH  61  84
ATOM     84  C   UNL     1       8.684   7.517  -8.623  1.00  0.00     0.023 A 
ATOM     85  C   UNL     1       9.744   6.806  -8.032  1.00  0.00     0.031 A 
ATOM     86  C   UNL     1       7.832   8.243  -7.772  1.00  0.00     0.131 A 
ATOM     87  C   UNL     1       9.913   6.806  -6.644  1.00  0.00     0.055 A 
ATOM     88  C   UNL     1       8.051   8.304  -6.392  1.00  0.00     0.041 A 
ATOM     89  F   UNL     1       6.731   8.854  -8.233  1.00  0.00    -0.206 F 
ATOM     90  C   UNL     1       9.086   7.571  -5.820  1.00  0.00     0.022 A 
BRANCH  87  91
ATOM     91  S   UNL     1      11.116   5.693  -5.873  1.00  0.00     0.124 S 
ATOM     92  O   UNL     1      12.107   6.626  -5.345  1.00  0.00    -0.237 OA
ATOM     93  O   UNL     1      10.306   5.003  -4.870  1.00  0.00    -0.237 OA
ATOM     94  O   UNL     1      11.574   4.850  -6.974  1.00  0.00    -0.744 OA
ENDBRANCH  87  91
ENDBRANCH  61  84
ENDBRANCH  35  36
ENDBRANCH  27  30
ENDBRANCH  25  26
ENDBRANCH  24  25
ENDBRANCH   1  24
TORSDOF 17
