REMARK SMILES O=C(NCCCCNC(=O)c1ccc(-c2c3nc(c(-c4cc(S(=O)(=O)[O-])ccc4F)c4ccc([nH]4)c(-c4cc(S(=O)(=O)[O-])ccc4F)c4nc(c(-c5cc(S(=O)(=O)[O-])ccc5F)c5ccc2[nH]5)C=C4)C=C3)cc1)C1=Cc2c(Cl)cc(Cl)cc2O[C@@H]1C(F)(F)F
REMARK SMILES IDX 6 1 5 2 4 3 3 4 1 5 2 6 74 8 75 9 85 10 76 11 84 12 77 13
REMARK SMILES IDX 83 14 78 15 79 16 82 17 80 18 81 19 86 20 87 21 88 22 89 23
REMARK SMILES IDX 7 24 8 25 9 26 10 28 11 29 12 30 73 31 13 32 72 33 14 34
REMARK SMILES IDX 15 35 16 36 66 37 17 38 71 39 65 40 67 41 18 42 70 43 64 44
REMARK SMILES IDX 63 45 19 47 51 48 31 49 50 50 32 51 35 52 49 53 68 54 33 55
REMARK SMILES IDX 34 56 48 58 69 59 36 60 20 61 21 62 29 63 22 64 28 65 30 66
REMARK SMILES IDX 27 67 23 68 24 69 25 70 26 71 52 72 53 73 61 74 54 75 60 76
REMARK SMILES IDX 62 77 59 78 55 79 56 80 57 81 58 82 37 83 38 84 46 85 39 86
REMARK SMILES IDX 45 87 47 88 44 89 40 90 41 91 42 92 43 93
REMARK H PARENT 3 7 8 27 67 46 35 57
REMARK Flexibility Score: inf
ROOT
ATOM      1  C   UNL     1       3.993  -4.099  -1.376  1.00  0.00     0.023 C 
ENDROOT
BRANCH   1   2
ATOM      2  C   UNL     1       4.204  -3.080  -0.259  1.00  0.00     0.023 C 
BRANCH   2   3
ATOM      3  C   UNL     1       3.644  -1.692  -0.572  1.00  0.00     0.116 C 
BRANCH   3   4
ATOM      4  N   UNL     1       2.491  -1.307   0.244  1.00  0.00    -0.352 N 
ATOM      5  O   UNL     1       1.083   0.180   1.242  1.00  0.00    -0.270 OA
ATOM      6  C   UNL     1       2.193  -0.083   0.802  1.00  0.00     0.251 C 
ATOM      7  H   UNL     1       1.837  -2.022   0.418  1.00  0.00     0.163 HD
BRANCH   6   8
ATOM      8  C   UNL     1       3.265   0.933   0.793  1.00  0.00     0.067 C 
ATOM      9  C   UNL     1       4.369   0.642   1.493  1.00  0.00     0.027 C 
ATOM     10  C   UNL     1       3.224   1.976  -0.276  1.00  0.00     0.314 C 
ATOM     11  C   UNL     1       5.628   0.884   0.763  1.00  0.00     0.036 A 
ATOM     12  O   UNL     1       4.413   1.943  -1.103  1.00  0.00    -0.475 OA
ATOM     13  C   UNL     1       6.813   0.234   1.158  1.00  0.00     0.053 A 
ATOM     14  C   UNL     1       5.548   1.399  -0.550  1.00  0.00     0.130 A 
ATOM     15  Cl  UNL     1       7.010  -0.457   2.734  1.00  0.00    -0.083 Cl
ATOM     16  C   UNL     1       7.838   0.011   0.235  1.00  0.00     0.042 A 
ATOM     17  C   UNL     1       6.588   1.201  -1.458  1.00  0.00     0.067 A 
ATOM     18  C   UNL     1       7.708   0.474  -1.071  1.00  0.00     0.046 A 
ATOM     19  Cl  UNL     1       8.908   0.077  -2.236  1.00  0.00    -0.084 Cl
BRANCH  10  20
ATOM     20  C   UNL     1       3.009   3.384   0.302  1.00  0.00     0.429 C 
ATOM     21  F   UNL     1       2.821   4.293  -0.686  1.00  0.00    -0.167 F 
ATOM     22  F   UNL     1       1.921   3.448   1.103  1.00  0.00    -0.167 F 
ATOM     23  F   UNL     1       4.070   3.806   1.032  1.00  0.00    -0.167 F 
ENDBRANCH  10  20
ENDBRANCH   6   8
ENDBRANCH   3   4
ENDBRANCH   2   3
ENDBRANCH   1   2
BRANCH   1  24
ATOM     24  C   UNL     1       4.575  -3.733  -2.741  1.00  0.00     0.116 C 
BRANCH  24  25
ATOM     25  N   UNL     1       6.025  -3.598  -2.766  1.00  0.00    -0.352 N 
ATOM     26  C   UNL     1       6.915  -4.144  -3.672  1.00  0.00     0.251 C 
ATOM     27  H   UNL     1       6.420  -3.051  -2.050  1.00  0.00     0.163 HD
ATOM     28  O   UNL     1       8.124  -3.987  -3.531  1.00  0.00    -0.269 OA
BRANCH  26  29
ATOM     29  C   UNL     1       6.384  -4.968  -4.778  1.00  0.00     0.039 A 
ATOM     30  C   UNL     1       6.796  -6.298  -4.891  1.00  0.00     0.014 A 
ATOM     31  C   UNL     1       5.380  -4.462  -5.605  1.00  0.00     0.014 A 
ATOM     32  C   UNL     1       6.112  -7.159  -5.755  1.00  0.00     0.010 A 
ATOM     33  C   UNL     1       4.651  -5.339  -6.403  1.00  0.00     0.010 A 
ATOM     34  C   UNL     1       4.991  -6.701  -6.466  1.00  0.00    -0.014 A 
BRANCH  34  35
ATOM     35  C   UNL     1       4.133  -7.617  -7.267  1.00  0.00     0.031 A 
ATOM     36  C   UNL     1       3.969  -7.371  -8.742  1.00  0.00     0.074 A 
ATOM     37  C   UNL     1       3.412  -8.579  -6.653  1.00  0.00     0.049 A 
ATOM     38  N   UNL     1       3.118  -7.899  -9.581  1.00  0.00    -0.248 NA
ATOM     39  C   UNL     1       4.853  -6.358  -9.339  1.00  0.00     0.031 C 
ATOM     40  C   UNL     1       3.455  -8.890  -5.221  1.00  0.00     0.029 A 
ATOM     41  N   UNL     1       2.479  -9.458  -7.149  1.00  0.00    -0.354 N 
ATOM     42  C   UNL     1       3.331  -7.251 -10.794  1.00  0.00     0.074 A 
ATOM     43  C   UNL     1       4.368  -6.267 -10.568  1.00  0.00     0.031 C 
ATOM     44  C   UNL     1       2.598  -9.891  -4.959  1.00  0.00     0.029 A 
ATOM     45  C   UNL     1       1.902 -10.260  -6.187  1.00  0.00     0.049 A 
ATOM     46  H   UNL     1       2.244  -9.510  -8.103  1.00  0.00     0.167 HD
ATOM     47  C   UNL     1       2.724  -7.467 -11.986  1.00  0.00     0.034 A 
ATOM     48  C   UNL     1       0.909 -11.169  -6.282  1.00  0.00     0.034 A 
ATOM     49  C   UNL     1       1.732  -8.489 -12.205  1.00  0.00     0.049 A 
ATOM     50  C   UNL     1       0.274 -11.412  -7.630  1.00  0.00     0.074 A 
ATOM     51  C   UNL     1       1.109  -8.845 -13.388  1.00  0.00     0.029 A 
ATOM     52  N   UNL     1       1.224  -9.324 -11.220  1.00  0.00    -0.354 N 
ATOM     53  N   UNL     1       0.520 -10.818  -8.776  1.00  0.00    -0.248 NA
ATOM     54  C   UNL     1      -0.764 -12.449  -7.703  1.00  0.00     0.031 C 
ATOM     55  C   UNL     1       0.190  -9.861 -13.110  1.00  0.00     0.029 A 
ATOM     56  C   UNL     1       0.284 -10.183 -11.765  1.00  0.00     0.049 A 
ATOM     57  H   UNL     1       1.492  -9.309 -10.272  1.00  0.00     0.167 HD
ATOM     58  C   UNL     1      -0.301 -11.444  -9.710  1.00  0.00     0.074 A 
ATOM     59  C   UNL     1      -1.046 -12.459  -8.998  1.00  0.00     0.031 C 
ATOM     60  C   UNL     1      -0.427 -11.205 -11.039  1.00  0.00     0.034 A 
BRANCH  47  61
ATOM     61  C   UNL     1       3.099  -6.566 -13.135  1.00  0.00     0.023 A 
ATOM     62  C   UNL     1       4.392  -6.565 -13.684  1.00  0.00     0.031 A 
ATOM     63  C   UNL     1       2.148  -5.689 -13.685  1.00  0.00     0.131 A 
ATOM     64  C   UNL     1       4.718  -5.657 -14.703  1.00  0.00     0.055 A 
ATOM     65  C   UNL     1       2.457  -4.842 -14.751  1.00  0.00     0.041 A 
ATOM     66  F   UNL     1       0.902  -5.633 -13.188  1.00  0.00    -0.206 F 
ATOM     67  C   UNL     1       3.752  -4.814 -15.258  1.00  0.00     0.022 A 
BRANCH  64  68
ATOM     68  S   UNL     1       6.451  -5.515 -15.214  1.00  0.00     0.124 S 
ATOM     69  O   UNL     1       7.080  -5.034 -13.986  1.00  0.00    -0.237 OA
ATOM     70  O   UNL     1       6.780  -6.880 -15.607  1.00  0.00    -0.237 OA
ATOM     71  O   UNL     1       6.408  -4.545 -16.306  1.00  0.00    -0.744 OA
ENDBRANCH  64  68
ENDBRANCH  47  61
BRANCH  48  72
ATOM     72  C   UNL     1       0.427 -11.910  -5.078  1.00  0.00     0.023 A 
ATOM     73  C   UNL     1       0.546 -13.307  -4.996  1.00  0.00     0.031 A 
ATOM     74  C   UNL     1      -0.229 -11.245  -4.027  1.00  0.00     0.131 A 
ATOM     75  C   UNL     1      -0.038 -14.000  -3.924  1.00  0.00     0.055 A 
ATOM     76  C   UNL     1      -0.757 -11.933  -2.932  1.00  0.00     0.041 A 
ATOM     77  F   UNL     1      -0.367  -9.909  -4.048  1.00  0.00    -0.206 F 
ATOM     78  C   UNL     1      -0.680 -13.322  -2.886  1.00  0.00     0.022 A 
BRANCH  75  79
ATOM     79  S   UNL     1      -0.053 -15.814  -3.970  1.00  0.00     0.124 S 
ATOM     80  O   UNL     1      -0.670 -16.073  -5.266  1.00  0.00    -0.237 OA
ATOM     81  O   UNL     1       1.367 -16.128  -3.859  1.00  0.00    -0.237 OA
ATOM     82  O   UNL     1      -0.863 -16.176  -2.808  1.00  0.00    -0.744 OA
ENDBRANCH  75  79
ENDBRANCH  48  72
BRANCH  60  83
ATOM     83  C   UNL     1      -1.342 -12.112 -11.819  1.00  0.00     0.023 A 
ATOM     84  C   UNL     1      -2.738 -12.059 -11.677  1.00  0.00     0.031 A 
ATOM     85  C   UNL     1      -0.799 -13.031 -12.734  1.00  0.00     0.131 A 
ATOM     86  C   UNL     1      -3.545 -12.940 -12.412  1.00  0.00     0.055 A 
ATOM     87  C   UNL     1      -1.609 -13.870 -13.498  1.00  0.00     0.041 A 
ATOM     88  F   UNL     1       0.530 -13.117 -12.907  1.00  0.00    -0.206 F 
ATOM     89  C   UNL     1      -2.990 -13.834 -13.333  1.00  0.00     0.022 A 
BRANCH  86  90
ATOM     90  S   UNL     1      -5.333 -12.941 -12.112  1.00  0.00     0.124 S 
ATOM     91  O   UNL     1      -5.405 -13.322 -10.705  1.00  0.00    -0.237 OA
ATOM     92  O   UNL     1      -5.704 -11.563 -12.418  1.00  0.00    -0.237 OA
ATOM     93  O   UNL     1      -5.839 -13.940 -13.051  1.00  0.00    -0.744 OA
ENDBRANCH  86  90
ENDBRANCH  60  83
ENDBRANCH  34  35
ENDBRANCH  26  29
ENDBRANCH  24  25
ENDBRANCH   1  24
TORSDOF 15
