REMARK SMILES Cc1ccc(-c2csc(NC(=O)[C@H]3[C@@H](C(=O)NCCCCNC(=O)c4ccc(-c5c6nc(c(-c7cc(S(=O)(=O)[O-])ccc7F)c7ccc([nH]7)c(-c7cc(S(=O)(=O)[O-])ccc7F)c7nc(c(-c8cc(S(=O)(=O)[O-])ccc8F)c8ccc5[nH]8)C=C7)C=C6)cc4)[C@H]4C=C[C@@H]3C4)c2C(=O)NC2CC2)cc1
REMARK SMILES IDX 19 1 18 2 17 3 15 4 16 5 14 7 13 8 91 9 88 10 90 11 92 12
REMARK SMILES IDX 89 13 11 14 10 15 12 17 9 18 6 19 7 20 93 21 8 22 5 23 1 24
REMARK SMILES IDX 2 25 3 26 101 27 4 28 100 29 94 30 95 31 96 32 97 34 98 35
REMARK SMILES IDX 99 36 20 37 21 38 22 39 23 40 24 42 25 43 26 44 87 45 27 46
REMARK SMILES IDX 86 47 28 48 29 49 30 50 80 51 31 52 85 53 79 54 81 55 32 56
REMARK SMILES IDX 84 57 78 58 77 59 33 61 65 62 45 63 64 64 46 65 49 66 63 67
REMARK SMILES IDX 82 68 47 69 48 70 62 72 83 73 50 74 34 75 35 76 43 77 36 78
REMARK SMILES IDX 42 79 44 80 41 81 37 82 38 83 39 84 40 85 66 86 67 87 75 88
REMARK SMILES IDX 68 89 74 90 76 91 73 92 69 93 70 94 71 95 72 96 51 97 52 98
REMARK SMILES IDX 60 99 53 100 59 101 61 102 58 103 54 104 55 105 56 106
REMARK SMILES IDX 57 107
REMARK H PARENT 17 6 10 16 96 33 22 41 81 60 49 71
REMARK Flexibility Score: inf
ROOT
ATOM      1  C   UNL     1      -3.703   0.250   0.773  1.00  0.00     0.023 C 
ENDROOT
BRANCH   1   2
ATOM      2  C   UNL     1      -4.335   1.545   0.246  1.00  0.00     0.116 C 
BRANCH   2   3
ATOM      3  N   UNL     1      -5.056   1.322  -1.004  1.00  0.00    -0.356 N 
ATOM      4  C   UNL     1      -6.382   1.103  -1.240  1.00  0.00     0.224 C 
ATOM      5  O   UNL     1      -6.721   0.863  -2.401  1.00  0.00    -0.275 OA
ATOM      6  H   UNL     1      -4.491   1.331  -1.810  1.00  0.00     0.163 HD
BRANCH   4   7
ATOM      7  C   UNL     1      -7.383   1.292  -0.103  1.00  0.00     0.098 C 
ATOM      8  C   UNL     1      -8.589   0.284   0.063  1.00  0.00     0.099 C 
ATOM      9  C   UNL     1      -9.809   1.239  -0.076  1.00  0.00     0.025 C 
ATOM     10  C   UNL     1      -8.104   2.664  -0.280  1.00  0.00     0.025 C 
ATOM     11  C   UNL     1      -9.883   1.805  -1.468  1.00  0.00    -0.027 C 
ATOM     12  C   UNL     1      -9.291   2.485   0.662  1.00  0.00     0.017 C 
ATOM     13  C   UNL     1      -8.879   2.683  -1.584  1.00  0.00    -0.027 C 
BRANCH   8  14
ATOM     14  C   UNL     1      -8.517  -0.978  -0.800  1.00  0.00     0.229 C 
ATOM     15  N   UNL     1      -9.637  -1.627  -1.238  1.00  0.00    -0.317 N 
ATOM     16  H   UNL     1      -9.538  -2.085  -2.104  1.00  0.00     0.170 HD
ATOM     17  O   UNL     1      -7.433  -1.500  -1.080  1.00  0.00    -0.274 OA
BRANCH  15  18
ATOM     18  C   UNL     1     -10.887  -1.743  -0.661  1.00  0.00     0.108 A 
ATOM     19  C   UNL     1     -13.178  -1.969  -0.317  1.00  0.00     0.007 A 
ATOM     20  C   UNL     1     -12.701  -1.732   0.961  1.00  0.00     0.076 A 
ATOM     21  C   UNL     1     -12.095  -2.056  -1.289  1.00  0.00     0.082 A 
ATOM     22  S   UNL     1     -11.008  -1.714   1.035  1.00  0.00    -0.125 S 
BRANCH  19  23
ATOM     23  C   UNL     1     -14.621  -2.103  -0.477  1.00  0.00    -0.017 A 
ATOM     24  C   UNL     1     -18.743  -3.041  -1.280  1.00  0.00     0.044 C 
ATOM     25  C   UNL     1     -17.351  -2.625  -0.905  1.00  0.00    -0.051 A 
ATOM     26  C   UNL     1     -16.624  -3.401  -0.001  1.00  0.00     0.004 A 
ATOM     27  C   UNL     1     -16.722  -1.540  -1.536  1.00  0.00     0.004 A 
ATOM     28  C   UNL     1     -15.280  -3.124   0.230  1.00  0.00     0.009 A 
ATOM     29  C   UNL     1     -15.360  -1.278  -1.326  1.00  0.00     0.009 A 
ENDBRANCH  19  23
BRANCH  21  30
ATOM     30  C   UNL     1     -12.132  -2.165  -2.748  1.00  0.00     0.255 C 
ATOM     31  O   UNL     1     -11.608  -1.285  -3.439  1.00  0.00    -0.269 OA
ATOM     32  N   UNL     1     -12.621  -3.228  -3.469  1.00  0.00    -0.349 N 
ATOM     33  H   UNL     1     -12.529  -3.065  -4.435  1.00  0.00     0.164 HD
BRANCH  32  34
ATOM     34  C   UNL     1     -13.222  -4.493  -3.229  1.00  0.00     0.082 C 
ATOM     35  C   UNL     1     -13.755  -5.080  -1.970  1.00  0.00     0.027 C 
ATOM     36  C   UNL     1     -14.707  -4.511  -2.984  1.00  0.00     0.027 C 
ENDBRANCH  32  34
ENDBRANCH  21  30
ENDBRANCH  15  18
ENDBRANCH   8  14
ENDBRANCH   4   7
ENDBRANCH   2   3
ENDBRANCH   1   2
BRANCH   1  37
ATOM     37  C   UNL     1      -2.698  -0.416  -0.174  1.00  0.00     0.023 C 
BRANCH  37  38
ATOM     38  C   UNL     1      -1.488   0.441  -0.536  1.00  0.00     0.116 C 
BRANCH  38  39
ATOM     39  N   UNL     1      -0.316   0.253   0.299  1.00  0.00    -0.352 N 
ATOM     40  C   UNL     1       0.916   0.897   0.226  1.00  0.00     0.251 C 
ATOM     41  H   UNL     1      -0.404  -0.419   1.013  1.00  0.00     0.163 HD
ATOM     42  O   UNL     1       1.861   0.540   0.916  1.00  0.00    -0.269 OA
BRANCH  40  43
ATOM     43  C   UNL     1       1.035   2.122  -0.605  1.00  0.00     0.039 A 
ATOM     44  C   UNL     1       1.532   3.271   0.025  1.00  0.00     0.014 A 
ATOM     45  C   UNL     1       0.458   2.213  -1.868  1.00  0.00     0.014 A 
ATOM     46  C   UNL     1       1.222   4.527  -0.493  1.00  0.00     0.010 A 
ATOM     47  C   UNL     1       0.071   3.455  -2.338  1.00  0.00     0.010 A 
ATOM     48  C   UNL     1       0.392   4.607  -1.613  1.00  0.00    -0.014 A 
BRANCH  48  49
ATOM     49  C   UNL     1      -0.332   5.822  -1.969  1.00  0.00     0.031 A 
ATOM     50  C   UNL     1       0.041   6.638  -3.138  1.00  0.00     0.074 A 
ATOM     51  C   UNL     1      -1.392   6.213  -1.226  1.00  0.00     0.049 A 
ATOM     52  N   UNL     1      -0.097   7.922  -3.186  1.00  0.00    -0.248 NA
ATOM     53  C   UNL     1       0.622   6.070  -4.349  1.00  0.00     0.031 C 
ATOM     54  C   UNL     1      -2.365   7.252  -1.551  1.00  0.00     0.029 A 
ATOM     55  N   UNL     1      -1.665   5.888   0.097  1.00  0.00    -0.354 N 
ATOM     56  C   UNL     1       0.066   8.297  -4.496  1.00  0.00     0.074 A 
ATOM     57  C   UNL     1       0.602   7.131  -5.164  1.00  0.00     0.031 C 
ATOM     58  C   UNL     1      -2.960   7.660  -0.419  1.00  0.00     0.029 A 
ATOM     59  C   UNL     1      -2.302   6.990   0.687  1.00  0.00     0.049 A 
ATOM     60  H   UNL     1      -1.450   5.036   0.541  1.00  0.00     0.167 HD
ATOM     61  C   UNL     1      -0.420   9.490  -4.937  1.00  0.00     0.034 A 
ATOM     62  C   UNL     1      -1.781   7.603   1.789  1.00  0.00     0.034 A 
ATOM     63  C   UNL     1      -1.118  10.232  -3.892  1.00  0.00     0.049 A 
ATOM     64  C   UNL     1      -1.439   9.059   1.566  1.00  0.00     0.074 A 
ATOM     65  C   UNL     1      -2.463  10.406  -3.607  1.00  0.00     0.029 A 
ATOM     66  N   UNL     1      -0.420  10.708  -2.789  1.00  0.00    -0.354 N 
ATOM     67  N   UNL     1      -1.367   9.622   0.392  1.00  0.00    -0.248 NA
ATOM     68  C   UNL     1      -1.128   9.992   2.644  1.00  0.00     0.031 C 
ATOM     69  C   UNL     1      -2.571  10.973  -2.313  1.00  0.00     0.029 A 
ATOM     70  C   UNL     1      -1.293  11.160  -1.818  1.00  0.00     0.049 A 
ATOM     71  H   UNL     1       0.562  10.722  -2.711  1.00  0.00     0.167 HD
ATOM     72  C   UNL     1      -0.988  10.937   0.524  1.00  0.00     0.074 A 
ATOM     73  C   UNL     1      -0.875  11.122   1.960  1.00  0.00     0.031 C 
ATOM     74  C   UNL     1      -0.797  11.735  -0.573  1.00  0.00     0.034 A 
BRANCH  61  75
ATOM     75  C   UNL     1      -0.536   9.809  -6.405  1.00  0.00     0.023 A 
ATOM     76  C   UNL     1      -1.681  10.468  -6.893  1.00  0.00     0.031 A 
ATOM     77  C   UNL     1       0.432   9.461  -7.364  1.00  0.00     0.131 A 
ATOM     78  C   UNL     1      -1.879  10.664  -8.270  1.00  0.00     0.055 A 
ATOM     79  C   UNL     1       0.216   9.611  -8.741  1.00  0.00     0.041 A 
ATOM     80  F   UNL     1       1.628   8.973  -6.998  1.00  0.00    -0.206 F 
ATOM     81  C   UNL     1      -0.953  10.203  -9.202  1.00  0.00     0.022 A 
BRANCH  78  82
ATOM     82  S   UNL     1      -3.372  11.535  -8.824  1.00  0.00     0.124 S 
ATOM     83  O   UNL     1      -4.438  10.697  -8.284  1.00  0.00    -0.237 OA
ATOM     84  O   UNL     1      -3.210  12.848  -8.209  1.00  0.00    -0.237 OA
ATOM     85  O   UNL     1      -3.253  11.518 -10.281  1.00  0.00    -0.744 OA
ENDBRANCH  78  82
ENDBRANCH  61  75
BRANCH  62  86
ATOM     86  C   UNL     1      -1.058   6.660   2.689  1.00  0.00     0.023 A 
ATOM     87  C   UNL     1      -1.805   5.579   3.210  1.00  0.00     0.031 A 
ATOM     88  C   UNL     1       0.338   6.555   2.689  1.00  0.00     0.131 A 
ATOM     89  C   UNL     1      -1.169   4.375   3.540  1.00  0.00     0.055 A 
ATOM     90  C   UNL     1       0.975   5.374   3.091  1.00  0.00     0.041 A 
ATOM     91  F   UNL     1       1.098   7.535   2.179  1.00  0.00    -0.206 F 
ATOM     92  C   UNL     1       0.221   4.262   3.472  1.00  0.00     0.022 A 
BRANCH  89  93
ATOM     93  S   UNL     1      -2.185   2.884   3.773  1.00  0.00     0.124 S 
ATOM     94  O   UNL     1      -2.388   2.873   5.217  1.00  0.00    -0.237 OA
ATOM     95  O   UNL     1      -3.373   3.164   2.967  1.00  0.00    -0.237 OA
ATOM     96  O   UNL     1      -1.346   1.814   3.241  1.00  0.00    -0.744 OA
ENDBRANCH  89  93
ENDBRANCH  62  86
BRANCH  74  97
ATOM     97  C   UNL     1      -0.223  13.144  -0.604  1.00  0.00     0.023 A 
ATOM     98  C   UNL     1       0.365  13.779   0.498  1.00  0.00     0.031 A 
ATOM     99  C   UNL     1      -0.207  13.897  -1.809  1.00  0.00     0.131 A 
ATOM    100  C   UNL     1       0.868  15.093   0.409  1.00  0.00     0.055 A 
ATOM    101  C   UNL     1       0.351  15.176  -1.914  1.00  0.00     0.041 A 
ATOM    102  F   UNL     1      -0.725  13.424  -2.952  1.00  0.00    -0.206 F 
ATOM    103  C   UNL     1       0.884  15.790  -0.795  1.00  0.00     0.022 A 
BRANCH 100 104
ATOM    104  S   UNL     1       1.458  15.893   1.925  1.00  0.00     0.124 S 
ATOM    105  O   UNL     1       0.246  15.928   2.738  1.00  0.00    -0.237 OA
ATOM    106  O   UNL     1       2.498  14.975   2.378  1.00  0.00    -0.237 OA
ATOM    107  O   UNL     1       1.936  17.196   1.466  1.00  0.00    -0.744 OA
ENDBRANCH 100 104
ENDBRANCH  74  97
ENDBRANCH  48  49
ENDBRANCH  40  43
ENDBRANCH  38  39
ENDBRANCH  37  38
ENDBRANCH   1  37
TORSDOF 19
