REMARK SMILES O=C(C[NH+]1CCC(C(=O)NCCCCNC(=O)c2ccc(-c3c4nc(c(-c5cc(S(=O)(=O)[O-])ccc5F)c5ccc([nH]5)c(-c5cc(S(=O)(=O)[O-])ccc5F)c5nc(c(-c6cc(S(=O)(=O)[O-])ccc6F)c6ccc3[nH]6)C=C5)C=C4)cc2)CC1)Nc1ccccc1Oc1ccccc1
REMARK SMILES IDX 11 1 10 2 8 3 9 4 7 6 4 7 5 8 82 9 6 11 81 12 3 13 2 14 1 15
REMARK SMILES IDX 83 16 84 18 85 19 89 20 86 21 88 22 87 23 90 24 91 25 92 26
REMARK SMILES IDX 96 27 93 28 95 29 94 30 12 31 13 32 14 33 15 34 16 35 17 37
REMARK SMILES IDX 18 38 19 39 80 40 20 41 79 42 21 43 22 44 23 45 73 46 24 47
REMARK SMILES IDX 78 48 72 49 74 50 25 51 77 52 71 53 70 54 26 56 58 57 38 58
REMARK SMILES IDX 57 59 39 60 42 61 56 62 75 63 40 64 41 65 55 67 76 68 43 69
REMARK SMILES IDX 27 70 28 71 36 72 29 73 35 74 37 75 34 76 30 77 31 78 32 79
REMARK SMILES IDX 33 80 59 81 60 82 68 83 61 84 67 85 69 86 66 87 62 88 63 89
REMARK SMILES IDX 64 90 65 91 44 92 45 93 53 94 46 95 52 96 54 97 51 98 47 99
REMARK SMILES IDX 48 100 49 101 50 102
REMARK H PARENT 10 5 4 10 83 17 15 36 74 55 42 66
REMARK Flexibility Score: inf
ROOT
ATOM      1  C   UNL     1       7.363  -1.866  -3.503  1.00  0.00     0.116 C 
ENDROOT
BRANCH   1   2
ATOM      2  N   UNL     1       6.954  -2.027  -4.890  1.00  0.00    -0.356 N 
ATOM      3  C   UNL     1       5.716  -2.040  -5.461  1.00  0.00     0.223 C 
ATOM      4  O   UNL     1       5.639  -2.213  -6.679  1.00  0.00    -0.275 OA
ATOM      5  H   UNL     1       7.698  -2.148  -5.524  1.00  0.00     0.163 HD
BRANCH   3   6
ATOM      6  C   UNL     1       4.459  -1.814  -4.635  1.00  0.00     0.089 C 
ATOM      7  N   UNL     1       3.787  -1.247  -1.882  1.00  0.00    -0.327 N 
ATOM      8  C   UNL     1       3.373  -2.544  -2.433  1.00  0.00     0.263 C 
ATOM      9  C   UNL     1       3.541  -0.203  -2.882  1.00  0.00     0.263 C 
ATOM     10  H   UNL     1       4.788  -1.221  -1.688  1.00  0.00     0.348 HD
ATOM     11  C   UNL     1       4.246  -2.938  -3.615  1.00  0.00     0.075 C 
ATOM     12  C   UNL     1       4.457  -0.386  -4.080  1.00  0.00     0.075 C 
BRANCH   7  13
ATOM     13  C   UNL     1       3.131  -1.027  -0.570  1.00  0.00     0.363 C 
BRANCH  13  14
ATOM     14  C   UNL     1       2.196   0.179  -0.509  1.00  0.00     0.279 C 
ATOM     15  O   UNL     1       1.021   0.120  -0.864  1.00  0.00    -0.268 OA
ATOM     16  N   UNL     1       2.859   1.329  -0.109  1.00  0.00    -0.318 N 
ATOM     17  H   UNL     1       3.837   1.289  -0.009  1.00  0.00     0.170 HD
BRANCH  16  18
ATOM     18  C   UNL     1       2.216   2.547   0.163  1.00  0.00     0.084 A 
ATOM     19  C   UNL     1       2.766   3.666  -0.486  1.00  0.00     0.030 A 
ATOM     20  C   UNL     1       1.097   2.708   0.997  1.00  0.00     0.150 A 
ATOM     21  C   UNL     1       2.149   4.914  -0.405  1.00  0.00     0.002 A 
ATOM     22  C   UNL     1       0.493   3.975   1.070  1.00  0.00     0.049 A 
ATOM     23  C   UNL     1       1.003   5.066   0.364  1.00  0.00     0.004 A 
BRANCH  20  24
ATOM     24  O   UNL     1       0.458   1.779   1.793  1.00  0.00    -0.455 OA
BRANCH  24  25
ATOM     25  C   UNL     1       1.089   0.648   2.245  1.00  0.00     0.127 A 
ATOM     26  C   UNL     1       0.382  -0.546   2.075  1.00  0.00     0.047 A 
ATOM     27  C   UNL     1       2.337   0.635   2.868  1.00  0.00     0.047 A 
ATOM     28  C   UNL     1       0.959  -1.764   2.429  1.00  0.00     0.004 A 
ATOM     29  C   UNL     1       2.916  -0.588   3.224  1.00  0.00     0.004 A 
ATOM     30  C   UNL     1       2.234  -1.786   2.991  1.00  0.00     0.000 A 
ENDBRANCH  24  25
ENDBRANCH  20  24
ENDBRANCH  16  18
ENDBRANCH  13  14
ENDBRANCH   7  13
ENDBRANCH   3   6
ENDBRANCH   1   2
BRANCH   1  31
ATOM     31  C   UNL     1       8.065  -3.111  -2.965  1.00  0.00     0.023 C 
BRANCH  31  32
ATOM     32  C   UNL     1       9.373  -3.458  -3.675  1.00  0.00     0.023 C 
BRANCH  32  33
ATOM     33  C   UNL     1      10.405  -2.339  -3.703  1.00  0.00     0.116 C 
BRANCH  33  34
ATOM     34  N   UNL     1      10.822  -1.923  -2.374  1.00  0.00    -0.352 N 
ATOM     35  C   UNL     1      12.099  -1.673  -1.916  1.00  0.00     0.251 C 
ATOM     36  H   UNL     1      10.100  -1.803  -1.716  1.00  0.00     0.163 HD
ATOM     37  O   UNL     1      12.300  -1.467  -0.733  1.00  0.00    -0.269 OA
BRANCH  35  38
ATOM     38  C   UNL     1      13.218  -1.702  -2.886  1.00  0.00     0.039 A 
ATOM     39  C   UNL     1      14.336  -2.488  -2.605  1.00  0.00     0.014 A 
ATOM     40  C   UNL     1      13.128  -0.999  -4.091  1.00  0.00     0.014 A 
ATOM     41  C   UNL     1      15.337  -2.629  -3.570  1.00  0.00     0.010 A 
ATOM     42  C   UNL     1      14.090  -1.199  -5.077  1.00  0.00     0.010 A 
ATOM     43  C   UNL     1      15.202  -2.018  -4.827  1.00  0.00    -0.014 A 
BRANCH  43  44
ATOM     44  C   UNL     1      16.215  -2.219  -5.897  1.00  0.00     0.031 A 
ATOM     45  C   UNL     1      17.010  -1.048  -6.404  1.00  0.00     0.074 A 
ATOM     46  C   UNL     1      16.366  -3.436  -6.456  1.00  0.00     0.049 A 
ATOM     47  N   UNL     1      17.871  -0.994  -7.388  1.00  0.00    -0.248 NA
ATOM     48  C   UNL     1      16.781   0.241  -5.734  1.00  0.00     0.031 C 
ATOM     49  C   UNL     1      15.622  -4.640  -6.077  1.00  0.00     0.029 A 
ATOM     50  N   UNL     1      17.188  -3.862  -7.469  1.00  0.00    -0.354 N 
ATOM     51  C   UNL     1      18.275   0.335  -7.465  1.00  0.00     0.074 A 
ATOM     52  C   UNL     1      17.515   1.061  -6.469  1.00  0.00     0.031 C 
ATOM     53  C   UNL     1      16.041  -5.671  -6.830  1.00  0.00     0.029 A 
ATOM     54  C   UNL     1      17.047  -5.196  -7.774  1.00  0.00     0.049 A 
ATOM     55  H   UNL     1      17.821  -3.268  -7.934  1.00  0.00     0.167 HD
ATOM     56  C   UNL     1      19.211   0.892  -8.273  1.00  0.00     0.034 A 
ATOM     57  C   UNL     1      17.652  -5.948  -8.715  1.00  0.00     0.034 A 
ATOM     58  C   UNL     1      19.970   0.150  -9.250  1.00  0.00     0.049 A 
ATOM     59  C   UNL     1      18.673  -5.303  -9.617  1.00  0.00     0.074 A 
ATOM     60  C   UNL     1      20.976   0.602 -10.086  1.00  0.00     0.029 A 
ATOM     61  N   UNL     1      19.802  -1.201  -9.528  1.00  0.00    -0.354 N 
ATOM     62  N   UNL     1      19.076  -4.053  -9.648  1.00  0.00    -0.248 NA
ATOM     63  C   UNL     1      19.328  -6.171 -10.603  1.00  0.00     0.031 C 
ATOM     64  C   UNL     1      21.373  -0.458 -10.909  1.00  0.00     0.029 A 
ATOM     65  C   UNL     1      20.667  -1.591 -10.539  1.00  0.00     0.049 A 
ATOM     66  H   UNL     1      19.162  -1.795  -9.073  1.00  0.00     0.167 HD
ATOM     67  C   UNL     1      20.055  -3.995 -10.636  1.00  0.00     0.074 A 
ATOM     68  C   UNL     1      20.189  -5.337 -11.166  1.00  0.00     0.031 C 
ATOM     69  C   UNL     1      20.782  -2.932 -11.063  1.00  0.00     0.034 A 
BRANCH  56  70
ATOM     70  C   UNL     1      19.443   2.378  -8.140  1.00  0.00     0.023 A 
ATOM     71  C   UNL     1      19.919   2.946  -6.945  1.00  0.00     0.031 A 
ATOM     72  C   UNL     1      19.151   3.245  -9.208  1.00  0.00     0.131 A 
ATOM     73  C   UNL     1      20.011   4.340  -6.819  1.00  0.00     0.055 A 
ATOM     74  C   UNL     1      19.327   4.626  -9.104  1.00  0.00     0.041 A 
ATOM     75  F   UNL     1      18.674   2.765 -10.368  1.00  0.00    -0.206 F 
ATOM     76  C   UNL     1      19.743   5.183  -7.899  1.00  0.00     0.022 A 
BRANCH  73  77
ATOM     77  S   UNL     1      20.342   5.040  -5.178  1.00  0.00     0.124 S 
ATOM     78  O   UNL     1      19.212   4.527  -4.407  1.00  0.00    -0.237 OA
ATOM     79  O   UNL     1      21.646   4.476  -4.851  1.00  0.00    -0.237 OA
ATOM     80  O   UNL     1      20.325   6.482  -5.411  1.00  0.00    -0.744 OA
ENDBRANCH  73  77
ENDBRANCH  56  70
BRANCH  57  81
ATOM     81  C   UNL     1      17.312  -7.392  -8.864  1.00  0.00     0.023 A 
ATOM     82  C   UNL     1      18.268  -8.388  -8.605  1.00  0.00     0.031 A 
ATOM     83  C   UNL     1      16.042  -7.798  -9.308  1.00  0.00     0.131 A 
ATOM     84  C   UNL     1      17.955  -9.736  -8.837  1.00  0.00     0.055 A 
ATOM     85  C   UNL     1      15.719  -9.144  -9.489  1.00  0.00     0.041 A 
ATOM     86  F   UNL     1      15.089  -6.887  -9.563  1.00  0.00    -0.206 F 
ATOM     87  C   UNL     1      16.683 -10.122  -9.266  1.00  0.00     0.022 A 
BRANCH  84  88
ATOM     88  S   UNL     1      19.265 -10.976  -8.647  1.00  0.00     0.124 S 
ATOM     89  O   UNL     1      20.267 -10.498  -9.593  1.00  0.00    -0.237 OA
ATOM     90  O   UNL     1      19.602 -10.845  -7.233  1.00  0.00    -0.237 OA
ATOM     91  O   UNL     1      18.605 -12.227  -9.014  1.00  0.00    -0.744 OA
ENDBRANCH  84  88
ENDBRANCH  57  81
BRANCH  69  92
ATOM     92  C   UNL     1      21.821  -3.195 -12.125  1.00  0.00     0.023 A 
ATOM     93  C   UNL     1      21.465  -3.558 -13.436  1.00  0.00     0.031 A 
ATOM     94  C   UNL     1      23.188  -3.091 -11.814  1.00  0.00     0.131 A 
ATOM     95  C   UNL     1      22.466  -3.856 -14.373  1.00  0.00     0.055 A 
ATOM     96  C   UNL     1      24.179  -3.332 -12.767  1.00  0.00     0.041 A 
ATOM     97  F   UNL     1      23.584  -2.749 -10.577  1.00  0.00    -0.206 F 
ATOM     98  C   UNL     1      23.820  -3.730 -14.051  1.00  0.00     0.022 A 
BRANCH  95  99
ATOM     99  S   UNL     1      21.975  -4.495 -15.998  1.00  0.00     0.124 S 
ATOM    100  O   UNL     1      21.238  -5.703 -15.639  1.00  0.00    -0.237 OA
ATOM    101  O   UNL     1      21.178  -3.399 -16.538  1.00  0.00    -0.237 OA
ATOM    102  O   UNL     1      23.250  -4.726 -16.675  1.00  0.00    -0.744 OA
ENDBRANCH  95  99
ENDBRANCH  69  92
ENDBRANCH  43  44
ENDBRANCH  35  38
ENDBRANCH  33  34
ENDBRANCH  32  33
ENDBRANCH  31  32
ENDBRANCH   1  31
TORSDOF 19
