REMARK SMILES C[C@H](CC(=O)NCCCCNC(=O)c1ccc(-c2c3nc(c(-c4cc(S(=O)(=O)[O-])ccc4F)c4ccc([nH]4)c(-c4cc(S(=O)(=O)[O-])ccc4F)c4nc(c(-c5cc(S(=O)(=O)[O-])ccc5F)c5ccc2[nH]5)C=C4)C=C3)cc1)NC(=O)CS[C@H]1CCS(=O)(=O)C1
REMARK SMILES IDX 7 1 6 2 4 3 5 4 3 6 2 7 1 8 77 9 78 10 79 12 80 13 81 14
REMARK SMILES IDX 82 15 83 16 88 17 84 18 85 19 86 20 87 21 8 22 9 23 10 24
REMARK SMILES IDX 11 25 12 26 13 28 14 29 15 30 76 31 16 32 75 33 17 34 18 35
REMARK SMILES IDX 19 36 69 37 20 38 74 39 68 40 70 41 21 42 73 43 67 44 66 45
REMARK SMILES IDX 22 47 54 48 34 49 53 50 35 51 38 52 52 53 71 54 36 55 37 56
REMARK SMILES IDX 51 58 72 59 39 60 23 61 24 62 32 63 25 64 31 65 33 66 30 67
REMARK SMILES IDX 26 68 27 69 28 70 29 71 55 72 56 73 64 74 57 75 63 76 65 77
REMARK SMILES IDX 62 78 58 79 59 80 60 81 61 82 40 83 41 84 49 85 42 86 48 87
REMARK SMILES IDX 50 88 47 89 43 90 44 91 45 92 46 93
REMARK H PARENT 6 5 77 11 11 27 70 46 38 57
REMARK Flexibility Score: inf
ROOT
ATOM      1  C   UNL     1      -1.268  -0.266   1.286  1.00  0.00     0.116 C 
ENDROOT
BRANCH   1   2
ATOM      2  N   UNL     1      -0.115   0.606   1.309  1.00  0.00    -0.356 N 
ATOM      3  C   UNL     1       0.736   0.913   0.292  1.00  0.00     0.222 C 
ATOM      4  O   UNL     1       1.856   1.343   0.563  1.00  0.00    -0.275 OA
ATOM      5  H   UNL     1       0.080   1.035   2.174  1.00  0.00     0.163 HD
BRANCH   3   6
ATOM      6  C   UNL     1       0.273   0.792  -1.144  1.00  0.00     0.124 C 
BRANCH   6   7
ATOM      7  C   UNL     1       0.358  -0.542  -1.893  1.00  0.00     0.088 C 
ATOM      8  C   UNL     1       1.503  -1.450  -1.459  1.00  0.00     0.031 C 
BRANCH   7   9
ATOM      9  N   UNL     1      -0.936  -1.236  -1.911  1.00  0.00    -0.352 N 
ATOM     10  C   UNL     1      -1.903  -1.320  -2.868  1.00  0.00     0.230 C 
ATOM     11  H   UNL     1      -1.142  -1.728  -1.084  1.00  0.00     0.163 HD
ATOM     12  O   UNL     1      -2.999  -1.767  -2.524  1.00  0.00    -0.274 OA
BRANCH  10  13
ATOM     13  C   UNL     1      -1.618  -0.929  -4.306  1.00  0.00     0.169 C 
BRANCH  13  14
ATOM     14  S   UNL     1      -2.553   0.547  -4.838  1.00  0.00    -0.148 SA
BRANCH  14  15
ATOM     15  C   UNL     1      -1.582   1.880  -4.072  1.00  0.00     0.063 C 
ATOM     16  C   UNL     1      -1.275   2.997  -5.080  1.00  0.00     0.031 C 
ATOM     17  C   UNL     1      -2.355   2.573  -2.954  1.00  0.00     0.151 C 
ATOM     18  C   UNL     1      -0.637   4.126  -4.272  1.00  0.00     0.138 C 
ATOM     19  S   UNL     1      -1.413   4.063  -2.664  1.00  0.00     0.151 S 
ATOM     20  O   UNL     1      -0.389   3.781  -1.684  1.00  0.00    -0.229 OA
ATOM     21  O   UNL     1      -2.325   5.180  -2.531  1.00  0.00    -0.229 OA
ENDBRANCH  14  15
ENDBRANCH  13  14
ENDBRANCH  10  13
ENDBRANCH   7   9
ENDBRANCH   6   7
ENDBRANCH   3   6
ENDBRANCH   1   2
BRANCH   1  22
ATOM     22  C   UNL     1      -0.823  -1.727   1.402  1.00  0.00     0.023 C 
BRANCH  22  23
ATOM     23  C   UNL     1       0.005  -2.030   2.648  1.00  0.00     0.023 C 
BRANCH  23  24
ATOM     24  C   UNL     1      -0.746  -1.771   3.938  1.00  0.00     0.116 C 
BRANCH  24  25
ATOM     25  N   UNL     1      -1.952  -2.581   4.021  1.00  0.00    -0.352 N 
ATOM     26  C   UNL     1      -2.392  -3.324   5.086  1.00  0.00     0.251 C 
ATOM     27  H   UNL     1      -2.520  -2.597   3.217  1.00  0.00     0.163 HD
ATOM     28  O   UNL     1      -3.296  -4.139   4.947  1.00  0.00    -0.269 OA
BRANCH  26  29
ATOM     29  C   UNL     1      -1.724  -3.131   6.385  1.00  0.00     0.039 A 
ATOM     30  C   UNL     1      -1.273  -4.245   7.091  1.00  0.00     0.014 A 
ATOM     31  C   UNL     1      -1.475  -1.835   6.848  1.00  0.00     0.014 A 
ATOM     32  C   UNL     1      -0.525  -4.054   8.250  1.00  0.00     0.010 A 
ATOM     33  C   UNL     1      -0.647  -1.649   7.944  1.00  0.00     0.010 A 
ATOM     34  C   UNL     1      -0.178  -2.756   8.666  1.00  0.00    -0.014 A 
BRANCH  34  35
ATOM     35  C   UNL     1       0.651  -2.535   9.875  1.00  0.00     0.031 A 
ATOM     36  C   UNL     1       0.073  -1.785  11.043  1.00  0.00     0.074 A 
ATOM     37  C   UNL     1       1.926  -2.968   9.897  1.00  0.00     0.049 A 
ATOM     38  N   UNL     1       0.642  -1.444  12.169  1.00  0.00    -0.248 NA
ATOM     39  C   UNL     1      -1.320  -1.330  10.912  1.00  0.00     0.031 C 
ATOM     40  C   UNL     1       2.600  -3.669   8.801  1.00  0.00     0.029 A 
ATOM     41  N   UNL     1       2.884  -2.884  10.875  1.00  0.00    -0.354 N 
ATOM     42  C   UNL     1      -0.319  -0.729  12.875  1.00  0.00     0.074 A 
ATOM     43  C   UNL     1      -1.477  -0.618  12.016  1.00  0.00     0.031 C 
ATOM     44  C   UNL     1       3.847  -3.986   9.184  1.00  0.00     0.029 A 
ATOM     45  C   UNL     1       4.081  -3.465  10.527  1.00  0.00     0.049 A 
ATOM     46  H   UNL     1       2.728  -2.449  11.744  1.00  0.00     0.167 HD
ATOM     47  C   UNL     1      -0.251  -0.238  14.137  1.00  0.00     0.034 A 
ATOM     48  C   UNL     1       5.238  -3.558  11.212  1.00  0.00     0.034 A 
ATOM     49  C   UNL     1       0.914  -0.367  14.976  1.00  0.00     0.049 A 
ATOM     50  C   UNL     1       5.303  -2.967  12.599  1.00  0.00     0.074 A 
ATOM     51  C   UNL     1       1.083   0.049  16.285  1.00  0.00     0.029 A 
ATOM     52  N   UNL     1       2.115  -0.948  14.587  1.00  0.00    -0.354 N 
ATOM     53  N   UNL     1       4.368  -2.340  13.276  1.00  0.00    -0.248 NA
ATOM     54  C   UNL     1       6.575  -3.108  13.317  1.00  0.00     0.031 C 
ATOM     55  C   UNL     1       2.406  -0.205  16.657  1.00  0.00     0.029 A 
ATOM     56  C   UNL     1       3.040  -0.866  15.617  1.00  0.00     0.049 A 
ATOM     57  H   UNL     1       2.285  -1.357  13.707  1.00  0.00     0.167 HD
ATOM     58  C   UNL     1       4.931  -2.043  14.514  1.00  0.00     0.074 A 
ATOM     59  C   UNL     1       6.278  -2.575  14.493  1.00  0.00     0.031 C 
ATOM     60  C   UNL     1       4.384  -1.394  15.575  1.00  0.00     0.034 A 
BRANCH  47  61
ATOM     61  C   UNL     1      -1.460   0.501  14.661  1.00  0.00     0.023 A 
ATOM     62  C   UNL     1      -2.712  -0.127  14.790  1.00  0.00     0.031 A 
ATOM     63  C   UNL     1      -1.370   1.861  15.005  1.00  0.00     0.131 A 
ATOM     64  C   UNL     1      -3.836   0.622  15.168  1.00  0.00     0.055 A 
ATOM     65  C   UNL     1      -2.474   2.578  15.470  1.00  0.00     0.041 A 
ATOM     66  F   UNL     1      -0.209   2.523  14.879  1.00  0.00    -0.206 F 
ATOM     67  C   UNL     1      -3.721   1.963  15.538  1.00  0.00     0.022 A 
BRANCH  64  68
ATOM     68  S   UNL     1      -5.475  -0.142  15.016  1.00  0.00     0.124 S 
ATOM     69  O   UNL     1      -5.509  -0.484  13.596  1.00  0.00    -0.237 OA
ATOM     70  O   UNL     1      -5.387  -1.265  15.942  1.00  0.00    -0.237 OA
ATOM     71  O   UNL     1      -6.389   0.927  15.414  1.00  0.00    -0.744 OA
ENDBRANCH  64  68
ENDBRANCH  47  61
BRANCH  48  72
ATOM     72  C   UNL     1       6.427  -4.223  10.606  1.00  0.00     0.023 A 
ATOM     73  C   UNL     1       6.981  -5.379  11.179  1.00  0.00     0.031 A 
ATOM     74  C   UNL     1       7.056  -3.688   9.467  1.00  0.00     0.131 A 
ATOM     75  C   UNL     1       8.157  -5.931  10.646  1.00  0.00     0.055 A 
ATOM     76  C   UNL     1       8.190  -4.276   8.904  1.00  0.00     0.041 A 
ATOM     77  F   UNL     1       6.568  -2.586   8.876  1.00  0.00    -0.206 F 
ATOM     78  C   UNL     1       8.756  -5.397   9.504  1.00  0.00     0.022 A 
BRANCH  75  79
ATOM     79  S   UNL     1       8.950  -7.302  11.530  1.00  0.00     0.124 S 
ATOM     80  O   UNL     1       9.178  -6.714  12.845  1.00  0.00    -0.237 OA
ATOM     81  O   UNL     1       7.927  -8.340  11.460  1.00  0.00    -0.237 OA
ATOM     82  O   UNL     1      10.154  -7.562  10.744  1.00  0.00    -0.744 OA
ENDBRANCH  75  79
ENDBRANCH  48  72
BRANCH  60  83
ATOM     83  C   UNL     1       5.234  -1.271  16.817  1.00  0.00     0.023 A 
ATOM     84  C   UNL     1       6.422  -0.520  16.834  1.00  0.00     0.031 A 
ATOM     85  C   UNL     1       4.850  -1.927  18.001  1.00  0.00     0.131 A 
ATOM     86  C   UNL     1       7.216  -0.495  17.990  1.00  0.00     0.055 A 
ATOM     87  C   UNL     1       5.607  -1.838  19.170  1.00  0.00     0.041 A 
ATOM     88  F   UNL     1       3.728  -2.663  18.042  1.00  0.00    -0.206 F 
ATOM     89  C   UNL     1       6.805  -1.131  19.164  1.00  0.00     0.022 A 
BRANCH  86  90
ATOM     90  S   UNL     1       8.849   0.289  17.907  1.00  0.00     0.124 S 
ATOM     91  O   UNL     1       9.490  -0.460  16.831  1.00  0.00    -0.237 OA
ATOM     92  O   UNL     1       8.514   1.677  17.605  1.00  0.00    -0.237 OA
ATOM     93  O   UNL     1       9.407   0.061  19.239  1.00  0.00    -0.744 OA
ENDBRANCH  86  90
ENDBRANCH  60  83
ENDBRANCH  34  35
ENDBRANCH  26  29
ENDBRANCH  24  25
ENDBRANCH  23  24
ENDBRANCH  22  23
ENDBRANCH   1  22
TORSDOF 19
