REMARK SMILES Cc1ncccc1OC1(C(=O)NCCCCNC(=O)c2ccc(-c3c4nc(c(-c5cc(S(=O)(=O)[O-])ccc5F)c5ccc([nH]5)c(-c5cc(S(=O)(=O)[O-])ccc5F)c5nc(c(-c6cc(S(=O)(=O)[O-])ccc6F)c6ccc3[nH]6)C=C5)C=C4)cc2)CCN(C(=O)c2ccc(O)nn2)CC1
REMARK SMILES IDX 15 1 14 2 13 3 12 4 10 5 11 6 9 8 83 9 96 10 84 11 95 12
REMARK SMILES IDX 85 13 86 14 87 15 8 16 7 17 1 18 2 19 3 20 4 21 6 22 5 23
REMARK SMILES IDX 88 24 89 25 94 26 90 27 93 28 91 29 92 30 16 32 17 33 18 34
REMARK SMILES IDX 19 36 20 37 21 38 82 39 22 40 81 41 23 42 24 43 25 44 75 45
REMARK SMILES IDX 26 46 80 47 74 48 76 49 27 50 79 51 73 52 72 53 28 55 60 56
REMARK SMILES IDX 40 57 59 58 41 59 44 60 58 61 77 62 42 63 43 64 57 66 78 67
REMARK SMILES IDX 45 68 29 69 30 70 38 71 31 72 37 73 39 74 36 75 32 76 33 77
REMARK SMILES IDX 34 78 35 79 61 80 62 81 70 82 63 83 69 84 71 85 68 86 64 87
REMARK SMILES IDX 65 88 66 89 67 90 46 91 47 92 55 93 48 94 54 95 56 96 53 97
REMARK SMILES IDX 49 98 50 99 51 100 52 101
REMARK H PARENT 12 7 92 31 17 35 76 54 44 65
REMARK Flexibility Score: inf
ROOT
ATOM      1  C   UNL     1       6.656  -4.752   1.618  1.00  0.00     0.023 C 
ENDROOT
BRANCH   1   2
ATOM      2  C   UNL     1       5.830  -3.482   1.428  1.00  0.00     0.023 C 
BRANCH   2   3
ATOM      3  C   UNL     1       5.017  -3.433   0.138  1.00  0.00     0.116 C 
BRANCH   3   4
ATOM      4  N   UNL     1       3.728  -4.082   0.255  1.00  0.00    -0.353 N 
ATOM      5  C   UNL     1       2.450  -3.591   0.195  1.00  0.00     0.264 C 
ATOM      6  O   UNL     1       1.557  -4.446   0.244  1.00  0.00    -0.270 OA
ATOM      7  H   UNL     1       3.779  -5.054   0.406  1.00  0.00     0.163 HD
BRANCH   5   8
ATOM      8  C   UNL     1       2.132  -2.046   0.075  1.00  0.00     0.190 C 
ATOM      9  C   UNL     1       2.593  -1.391   1.372  1.00  0.00     0.080 C 
ATOM     10  C   UNL     1       2.673  -1.572  -1.269  1.00  0.00     0.080 C 
ATOM     11  C   UNL     1       3.769  -0.437   1.294  1.00  0.00     0.124 C 
ATOM     12  C   UNL     1       3.732  -0.484  -1.266  1.00  0.00     0.124 C 
ATOM     13  N   UNL     1       4.132   0.125   0.003  1.00  0.00    -0.337 N 
ATOM     14  C   UNL     1       5.040   1.204   0.042  1.00  0.00     0.274 C 
ATOM     15  O   UNL     1       5.548   1.619   1.082  1.00  0.00    -0.267 OA
BRANCH   8  16
ATOM     16  O   UNL     1       0.680  -2.059   0.016  1.00  0.00    -0.475 OA
BRANCH  16  17
ATOM     17  C   UNL     1      -0.257  -1.074   0.008  1.00  0.00     0.142 A 
ATOM     18  C   UNL     1       0.988   1.192  -0.053  1.00  0.00     0.071 C 
ATOM     19  C   UNL     1      -0.214   0.323  -0.013  1.00  0.00     0.079 A 
ATOM     20  N   UNL     1      -1.344   1.098  -0.001  1.00  0.00    -0.258 NA
ATOM     21  C   UNL     1      -2.545   0.500   0.023  1.00  0.00     0.111 A 
ATOM     22  C   UNL     1      -1.542  -1.643   0.024  1.00  0.00     0.050 A 
ATOM     23  C   UNL     1      -2.696  -0.865   0.032  1.00  0.00     0.024 A 
ENDBRANCH  16  17
ENDBRANCH   8  16
BRANCH  14  24
ATOM     24  C   UNL     1       5.448   1.831  -1.235  1.00  0.00     0.151 A 
ATOM     25  C   UNL     1       6.759   1.722  -1.667  1.00  0.00     0.042 A 
ATOM     26  N   UNL     1       4.468   2.419  -1.968  1.00  0.00    -0.142 NA
ATOM     27  C   UNL     1       7.060   2.216  -2.928  1.00  0.00     0.072 A 
ATOM     28  N   UNL     1       4.769   2.904  -3.200  1.00  0.00    -0.112 NA
ATOM     29  C   UNL     1       6.034   2.790  -3.648  1.00  0.00     0.230 A 
BRANCH  29  30
ATOM     30  O   UNL     1       6.253   3.268  -4.900  1.00  0.00    -0.492 OA
ATOM     31  H   UNL     1       7.110   3.221  -5.277  1.00  0.00     0.295 HD
ENDBRANCH  29  30
ENDBRANCH  14  24
ENDBRANCH   5   8
ENDBRANCH   3   4
ENDBRANCH   2   3
ENDBRANCH   1   2
BRANCH   1  32
ATOM     32  C   UNL     1       7.691  -5.037   0.531  1.00  0.00     0.116 C 
BRANCH  32  33
ATOM     33  N   UNL     1       8.650  -3.960   0.333  1.00  0.00    -0.352 N 
ATOM     34  C   UNL     1      10.003  -4.049   0.088  1.00  0.00     0.251 C 
ATOM     35  H   UNL     1       8.284  -3.048   0.379  1.00  0.00     0.163 HD
ATOM     36  O   UNL     1      10.680  -3.026   0.021  1.00  0.00    -0.269 OA
BRANCH  34  37
ATOM     37  C   UNL     1      10.633  -5.381  -0.045  1.00  0.00     0.039 A 
ATOM     38  C   UNL     1      11.771  -5.671   0.713  1.00  0.00     0.014 A 
ATOM     39  C   UNL     1      10.069  -6.357  -0.869  1.00  0.00     0.014 A 
ATOM     40  C   UNL     1      12.290  -6.969   0.710  1.00  0.00     0.010 A 
ATOM     41  C   UNL     1      10.542  -7.665  -0.812  1.00  0.00     0.010 A 
ATOM     42  C   UNL     1      11.651  -7.988  -0.015  1.00  0.00    -0.014 A 
BRANCH  42  43
ATOM     43  C   UNL     1      12.117  -9.400   0.052  1.00  0.00     0.031 A 
ATOM     44  C   UNL     1      12.616 -10.087  -1.190  1.00  0.00     0.074 A 
ATOM     45  C   UNL     1      12.012 -10.086   1.208  1.00  0.00     0.049 A 
ATOM     46  N   UNL     1      12.960 -11.336  -1.365  1.00  0.00    -0.248 NA
ATOM     47  C   UNL     1      12.703  -9.263  -2.405  1.00  0.00     0.031 C 
ATOM     48  C   UNL     1      11.501  -9.546   2.470  1.00  0.00     0.029 A 
ATOM     49  N   UNL     1      12.315 -11.391   1.508  1.00  0.00    -0.354 N 
ATOM     50  C   UNL     1      13.288 -11.454  -2.712  1.00  0.00     0.074 A 
ATOM     51  C   UNL     1      13.040 -10.162  -3.316  1.00  0.00     0.031 C 
ATOM     52  C   UNL     1      11.546 -10.504   3.410  1.00  0.00     0.029 A 
ATOM     53  C   UNL     1      12.044 -11.738   2.812  1.00  0.00     0.049 A 
ATOM     54  H   UNL     1      12.691 -12.021   0.851  1.00  0.00     0.167 HD
ATOM     55  C   UNL     1      13.774 -12.532  -3.377  1.00  0.00     0.034 A 
ATOM     56  C   UNL     1      12.169 -12.919   3.451  1.00  0.00     0.034 A 
ATOM     57  C   UNL     1      14.034 -13.808  -2.756  1.00  0.00     0.049 A 
ATOM     58  C   UNL     1      12.700 -14.107   2.689  1.00  0.00     0.074 A 
ATOM     59  C   UNL     1      14.577 -14.948  -3.321  1.00  0.00     0.029 A 
ATOM     60  N   UNL     1      13.764 -14.116  -1.428  1.00  0.00    -0.354 N 
ATOM     61  N   UNL     1      13.052 -14.189   1.426  1.00  0.00    -0.248 NA
ATOM     62  C   UNL     1      12.863 -15.358   3.441  1.00  0.00     0.031 C 
ATOM     63  C   UNL     1      14.579 -15.961  -2.356  1.00  0.00     0.029 A 
ATOM     64  C   UNL     1      14.105 -15.434  -1.165  1.00  0.00     0.049 A 
ATOM     65  H   UNL     1      13.385 -13.490  -0.769  1.00  0.00     0.167 HD
ATOM     66  C   UNL     1      13.510 -15.491   1.244  1.00  0.00     0.074 A 
ATOM     67  C   UNL     1      13.399 -16.154   2.527  1.00  0.00     0.031 C 
ATOM     68  C   UNL     1      13.985 -16.084   0.119  1.00  0.00     0.034 A 
BRANCH  55  69
ATOM     69  C   UNL     1      14.031 -12.375  -4.857  1.00  0.00     0.023 A 
ATOM     70  C   UNL     1      14.976 -11.456  -5.347  1.00  0.00     0.031 A 
ATOM     71  C   UNL     1      13.302 -13.128  -5.793  1.00  0.00     0.131 A 
ATOM     72  C   UNL     1      15.106 -11.254  -6.729  1.00  0.00     0.055 A 
ATOM     73  C   UNL     1      13.498 -12.984  -7.168  1.00  0.00     0.041 A 
ATOM     74  F   UNL     1      12.372 -14.007  -5.388  1.00  0.00    -0.206 F 
ATOM     75  C   UNL     1      14.392 -12.030  -7.644  1.00  0.00     0.022 A 
BRANCH  72  76
ATOM     76  S   UNL     1      16.107  -9.856  -7.307  1.00  0.00     0.124 S 
ATOM     77  O   UNL     1      15.426  -8.727  -6.678  1.00  0.00    -0.237 OA
ATOM     78  O   UNL     1      17.430 -10.177  -6.784  1.00  0.00    -0.237 OA
ATOM     79  O   UNL     1      15.977  -9.920  -8.761  1.00  0.00    -0.744 OA
ENDBRANCH  72  76
ENDBRANCH  55  69
BRANCH  56  80
ATOM     80  C   UNL     1      11.781 -13.049   4.885  1.00  0.00     0.023 A 
ATOM     81  C   UNL     1      12.741 -13.334   5.869  1.00  0.00     0.031 A 
ATOM     82  C   UNL     1      10.439 -12.933   5.287  1.00  0.00     0.131 A 
ATOM     83  C   UNL     1      12.340 -13.540   7.199  1.00  0.00     0.055 A 
ATOM     84  C   UNL     1      10.052 -13.089   6.619  1.00  0.00     0.041 A 
ATOM     85  F   UNL     1       9.482 -12.655   4.387  1.00  0.00    -0.206 F 
ATOM     86  C   UNL     1      11.004 -13.408   7.582  1.00  0.00     0.022 A 
BRANCH  83  87
ATOM     87  S   UNL     1      13.585 -14.069   8.408  1.00  0.00     0.124 S 
ATOM     88  O   UNL     1      14.081 -15.301   7.804  1.00  0.00    -0.237 OA
ATOM     89  O   UNL     1      14.506 -12.938   8.407  1.00  0.00    -0.237 OA
ATOM     90  O   UNL     1      12.813 -14.241   9.636  1.00  0.00    -0.744 OA
ENDBRANCH  83  87
ENDBRANCH  56  80
BRANCH  68  91
ATOM     91  C   UNL     1      14.472 -17.506   0.246  1.00  0.00     0.023 A 
ATOM     92  C   UNL     1      13.592 -18.572   0.505  1.00  0.00     0.031 A 
ATOM     93  C   UNL     1      15.841 -17.795   0.111  1.00  0.00     0.131 A 
ATOM     94  C   UNL     1      14.099 -19.870   0.671  1.00  0.00     0.055 A 
ATOM     95  C   UNL     1      16.332 -19.096   0.221  1.00  0.00     0.041 A 
ATOM     96  F   UNL     1      16.726 -16.815  -0.135  1.00  0.00    -0.206 F 
ATOM     97  C   UNL     1      15.461 -20.141   0.515  1.00  0.00     0.022 A 
BRANCH  94  98
ATOM     98  S   UNL     1      12.963 -21.190   1.178  1.00  0.00     0.124 S 
ATOM     99  O   UNL     1      12.448 -20.679   2.444  1.00  0.00    -0.237 OA
ATOM    100  O   UNL     1      12.012 -21.226   0.071  1.00  0.00    -0.237 OA
ATOM    101  O   UNL     1      13.828 -22.363   1.288  1.00  0.00    -0.744 OA
ENDBRANCH  94  98
ENDBRANCH  68  91
ENDBRANCH  42  43
ENDBRANCH  34  37
ENDBRANCH  32  33
ENDBRANCH   1  32
TORSDOF 18
