REMARK SMILES O=C(NCCCCNC(=O)[C@@H]1CCCCC[C@H]1NC(=O)N1CCS(=O)(=O)CC1)c1ccc(-c2c3nc(c(-c4cc(S(=O)(=O)[O-])ccc4F)c4ccc([nH]4)c(-c4cc(S(=O)(=O)[O-])ccc4F)c4nc(c(-c5cc(S(=O)(=O)[O-])ccc5F)c5ccc2[nH]5)C=C4)C=C3)cc1
REMARK SMILES IDX 5 1 4 2 3 3 1 4 2 5 29 7 30 8 91 9 31 10 90 11 32 12 33 13
REMARK SMILES IDX 34 14 84 15 35 16 89 17 83 18 85 19 36 20 88 21 82 22 81 23
REMARK SMILES IDX 37 25 69 26 49 27 68 28 50 29 53 30 67 31 86 32 51 33 52 34
REMARK SMILES IDX 66 36 87 37 54 38 38 39 39 40 47 41 40 42 46 43 48 44 45 45
REMARK SMILES IDX 41 46 42 47 43 48 44 49 70 50 71 51 79 52 72 53 78 54 80 55
REMARK SMILES IDX 77 56 73 57 74 58 75 59 76 60 55 61 56 62 64 63 57 64 63 65
REMARK SMILES IDX 65 66 62 67 58 68 59 69 60 70 61 71 6 72 7 73 8 74 9 75
REMARK SMILES IDX 10 77 11 78 12 79 13 80 14 81 17 83 16 84 15 85 18 87 19 88
REMARK SMILES IDX 20 90 21 91 22 92 28 93 23 94 27 95 24 96 25 97 26 98
REMARK H PARENT 3 6 85 24 53 35 8 76 18 89
REMARK Flexibility Score: 90.00
ROOT
ATOM      1  C   UNL     1       5.072   2.477  -1.232  1.00  0.00     0.023 C 
ENDROOT
BRANCH   1   2
ATOM      2  C   UNL     1       4.697   1.298  -0.342  1.00  0.00     0.116 C 
BRANCH   2   3
ATOM      3  N   UNL     1       3.263   1.169  -0.119  1.00  0.00    -0.352 N 
ATOM      4  O   UNL     1       1.282   0.088  -0.005  1.00  0.00    -0.269 OA
ATOM      5  C   UNL     1       2.499   0.024  -0.148  1.00  0.00     0.251 C 
ATOM      6  H   UNL     1       2.780   2.004   0.078  1.00  0.00     0.163 HD
BRANCH   5   7
ATOM      7  C   UNL     1       3.165  -1.271  -0.394  1.00  0.00     0.039 A 
ATOM      8  C   UNL     1       4.290  -1.632   0.352  1.00  0.00     0.014 A 
ATOM      9  C   UNL     1       2.700  -2.096  -1.422  1.00  0.00     0.014 A 
ATOM     10  C   UNL     1       5.031  -2.744  -0.025  1.00  0.00     0.010 A 
ATOM     11  C   UNL     1       3.401  -3.264  -1.740  1.00  0.00     0.010 A 
ATOM     12  C   UNL     1       4.587  -3.584  -1.061  1.00  0.00    -0.014 A 
BRANCH  12  13
ATOM     13  C   UNL     1       5.335  -4.836  -1.349  1.00  0.00     0.031 A 
ATOM     14  C   UNL     1       6.018  -5.060  -2.670  1.00  0.00     0.074 A 
ATOM     15  C   UNL     1       5.407  -5.769  -0.378  1.00  0.00     0.049 A 
ATOM     16  N   UNL     1       6.707  -6.097  -3.073  1.00  0.00    -0.248 NA
ATOM     17  C   UNL     1       5.910  -3.988  -3.672  1.00  0.00     0.031 C 
ATOM     18  C   UNL     1       4.780  -5.653   0.944  1.00  0.00     0.029 A 
ATOM     19  N   UNL     1       6.042  -6.983  -0.335  1.00  0.00    -0.354 N 
ATOM     20  C   UNL     1       7.107  -5.814  -4.375  1.00  0.00     0.074 A 
ATOM     21  C   UNL     1       6.558  -4.515  -4.704  1.00  0.00     0.031 C 
ATOM     22  C   UNL     1       5.098  -6.727   1.678  1.00  0.00     0.029 A 
ATOM     23  C   UNL     1       5.876  -7.647   0.859  1.00  0.00     0.049 A 
ATOM     24  H   UNL     1       6.566  -7.344  -1.085  1.00  0.00     0.167 HD
ATOM     25  C   UNL     1       7.864  -6.570  -5.209  1.00  0.00     0.034 A 
ATOM     26  C   UNL     1       6.273  -8.875   1.243  1.00  0.00     0.034 A 
ATOM     27  C   UNL     1       8.402  -7.865  -4.856  1.00  0.00     0.049 A 
ATOM     28  C   UNL     1       7.060  -9.713   0.271  1.00  0.00     0.074 A 
ATOM     29  C   UNL     1       9.216  -8.692  -5.613  1.00  0.00     0.029 A 
ATOM     30  N   UNL     1       8.173  -8.529  -3.658  1.00  0.00    -0.354 N 
ATOM     31  N   UNL     1       7.457  -9.413  -0.945  1.00  0.00    -0.248 NA
ATOM     32  C   UNL     1       7.458 -11.051   0.723  1.00  0.00     0.031 C 
ATOM     33  C   UNL     1       9.405  -9.886  -4.911  1.00  0.00     0.029 A 
ATOM     34  C   UNL     1       8.791  -9.771  -3.674  1.00  0.00     0.049 A 
ATOM     35  H   UNL     1       7.648  -8.170  -2.906  1.00  0.00     0.167 HD
ATOM     36  C   UNL     1       8.176 -10.518  -1.390  1.00  0.00     0.074 A 
ATOM     37  C   UNL     1       8.180 -11.475  -0.303  1.00  0.00     0.031 C 
ATOM     38  C   UNL     1       8.778 -10.723  -2.588  1.00  0.00     0.034 A 
BRANCH  25  39
ATOM     39  C   UNL     1       8.123  -6.050  -6.604  1.00  0.00     0.023 A 
ATOM     40  C   UNL     1       8.889  -4.896  -6.842  1.00  0.00     0.031 A 
ATOM     41  C   UNL     1       7.622  -6.748  -7.720  1.00  0.00     0.131 A 
ATOM     42  C   UNL     1       9.098  -4.452  -8.158  1.00  0.00     0.055 A 
ATOM     43  C   UNL     1       7.893  -6.342  -9.028  1.00  0.00     0.041 A 
ATOM     44  F   UNL     1       6.866  -7.845  -7.556  1.00  0.00    -0.206 F 
ATOM     45  C   UNL     1       8.629  -5.183  -9.253  1.00  0.00     0.022 A 
BRANCH  42  46
ATOM     46  S   UNL     1       9.903  -2.848  -8.420  1.00  0.00     0.124 S 
ATOM     47  O   UNL     1       9.004  -1.945  -7.704  1.00  0.00    -0.237 OA
ATOM     48  O   UNL     1      11.216  -3.051  -7.819  1.00  0.00    -0.237 OA
ATOM     49  O   UNL     1       9.899  -2.695  -9.873  1.00  0.00    -0.744 OA
ENDBRANCH  42  46
ENDBRANCH  25  39
BRANCH  26  50
ATOM     50  C   UNL     1       5.892  -9.409   2.583  1.00  0.00     0.023 A 
ATOM     51  C   UNL     1       6.868  -9.793   3.514  1.00  0.00     0.031 A 
ATOM     52  C   UNL     1       4.542  -9.606   2.926  1.00  0.00     0.131 A 
ATOM     53  C   UNL     1       6.484 -10.415   4.712  1.00  0.00     0.055 A 
ATOM     54  C   UNL     1       4.162 -10.154   4.152  1.00  0.00     0.041 A 
ATOM     55  F   UNL     1       3.564  -9.261   2.072  1.00  0.00    -0.206 F 
ATOM     56  C   UNL     1       5.138 -10.581   5.045  1.00  0.00     0.022 A 
BRANCH  53  57
ATOM     57  S   UNL     1       7.775 -11.128   5.767  1.00  0.00     0.124 S 
ATOM     58  O   UNL     1       8.464 -12.012   4.834  1.00  0.00    -0.237 OA
ATOM     59  O   UNL     1       8.511  -9.941   6.189  1.00  0.00    -0.237 OA
ATOM     60  O   UNL     1       7.019 -11.800   6.821  1.00  0.00    -0.744 OA
ENDBRANCH  53  57
ENDBRANCH  26  50
BRANCH  38  61
ATOM     61  C   UNL     1       9.531 -12.021  -2.760  1.00  0.00     0.023 A 
ATOM     62  C   UNL     1       8.875 -13.265  -2.748  1.00  0.00     0.031 A 
ATOM     63  C   UNL     1      10.929 -12.013  -2.909  1.00  0.00     0.131 A 
ATOM     64  C   UNL     1       9.623 -14.450  -2.817  1.00  0.00     0.055 A 
ATOM     65  C   UNL     1      11.661 -13.193  -3.048  1.00  0.00     0.041 A 
ATOM     66  F   UNL     1      11.609 -10.855  -2.920  1.00  0.00    -0.206 F 
ATOM     67  C   UNL     1      11.009 -14.421  -2.987  1.00  0.00     0.022 A 
BRANCH  64  68
ATOM     68  S   UNL     1       8.771 -16.032  -2.569  1.00  0.00     0.124 S 
ATOM     69  O   UNL     1       8.187 -15.858  -1.244  1.00  0.00    -0.237 OA
ATOM     70  O   UNL     1       7.829 -16.058  -3.683  1.00  0.00    -0.237 OA
ATOM     71  O   UNL     1       9.849 -17.017  -2.647  1.00  0.00    -0.744 OA
ENDBRANCH  64  68
ENDBRANCH  38  61
ENDBRANCH  12  13
ENDBRANCH   5   7
ENDBRANCH   2   3
ENDBRANCH   1   2
BRANCH   1  72
ATOM     72  C   UNL     1       4.627   3.847  -0.724  1.00  0.00     0.023 C 
BRANCH  72  73
ATOM     73  C   UNL     1       5.159   4.213   0.654  1.00  0.00     0.116 C 
BRANCH  73  74
ATOM     74  N   UNL     1       6.575   4.519   0.655  1.00  0.00    -0.356 N 
ATOM     75  C   UNL     1       7.206   5.644   1.102  1.00  0.00     0.225 C 
ATOM     76  H   UNL     1       7.162   3.821   0.284  1.00  0.00     0.163 HD
ATOM     77  O   UNL     1       8.436   5.664   1.125  1.00  0.00    -0.275 OA
BRANCH  75  78
ATOM     78  C   UNL     1       6.367   6.807   1.629  1.00  0.00     0.101 C 
BRANCH  78  79
ATOM     79  C   UNL     1       7.076   8.124   1.292  1.00  0.00     0.015 C 
BRANCH  79  80
ATOM     80  C   UNL     1       6.292   9.352   1.736  1.00  0.00     0.001 C 
BRANCH  80  81
ATOM     81  C   UNL     1       6.678   9.822   3.131  1.00  0.00     0.000 CG0
ATOM     82  G   UNL     1       6.316   8.874   4.268  1.00  0.00     0.000 G0
ENDBRANCH  80  81
ENDBRANCH  79  80
ENDBRANCH  78  79
BRANCH  78  83
ATOM     83  C   UNL     1       6.065   6.541   3.129  1.00  0.00     0.096 C 
BRANCH  83  84
ATOM     84  C   UNL     1       6.823   7.437   4.128  1.00  0.00     0.026 C 
BRANCH  84  85
ATOM     85  C   UNL     1       6.316   8.874   4.268  1.00  0.00     0.002 CG0
ATOM     86  G   UNL     1       6.678   9.822   3.131  1.00  0.00     0.000 G0
ENDBRANCH  84  85
ENDBRANCH  83  84
BRANCH  83  87
ATOM     87  N   UNL     1       4.613   6.595   3.385  1.00  0.00    -0.334 N 
ATOM     88  C   UNL     1       3.669   5.659   3.621  1.00  0.00     0.317 C 
ATOM     89  H   UNL     1       4.255   7.512   3.382  1.00  0.00     0.165 HD
ATOM     90  O   UNL     1       2.518   5.959   3.297  1.00  0.00    -0.249 OA
ATOM     91  N   UNL     1       3.980   4.436   4.154  1.00  0.00    -0.323 N 
ATOM     92  C   UNL     1       5.104   4.151   5.042  1.00  0.00     0.137 C 
ATOM     93  C   UNL     1       2.965   3.373   4.122  1.00  0.00     0.137 C 
ATOM     94  C   UNL     1       5.964   3.045   4.478  1.00  0.00     0.158 C 
ATOM     95  C   UNL     1       3.498   2.085   3.534  1.00  0.00     0.158 C 
ATOM     96  S   UNL     1       5.000   1.560   4.322  1.00  0.00     0.153 S 
ATOM     97  O   UNL     1       5.693   0.690   3.394  1.00  0.00    -0.229 OA
ATOM     98  O   UNL     1       4.667   1.112   5.662  1.00  0.00    -0.229 OA
ENDBRANCH  83  87
ENDBRANCH  78  83
ENDBRANCH  75  78
ENDBRANCH  73  74
ENDBRANCH  72  73
ENDBRANCH   1  72
TORSDOF 15
