REMARK SMILES C[C@@H]1CC(C)(C)C[C@@](CC(=O)Nc2cccc(C(F)(F)F)c2)(C(=O)NCCCCNC(=O)c2ccc(-c3c4nc(c(-c5cc(S(=O)(=O)[O-])ccc5F)c5ccc([nH]5)c(-c5cc(S(=O)(=O)[O-])ccc5F)c5nc(c(-c6cc(S(=O)(=O)[O-])ccc6F)c6ccc3[nH]6)C=C5)C=C4)cc2)C1
REMARK SMILES IDX 27 1 26 2 25 3 23 4 24 5 8 7 1 8 2 9 3 10 96 11 4 12 5 13
REMARK SMILES IDX 6 14 7 15 9 16 10 17 11 18 12 19 13 21 14 22 22 23 15 24
REMARK SMILES IDX 17 25 16 26 18 27 19 28 20 29 21 30 28 31 29 32 30 33 31 34
REMARK SMILES IDX 32 36 33 37 34 38 95 39 35 40 94 41 36 42 37 43 38 44 88 45
REMARK SMILES IDX 39 46 93 47 87 48 89 49 40 50 92 51 86 52 85 53 41 55 73 56
REMARK SMILES IDX 53 57 72 58 54 59 57 60 71 61 90 62 55 63 56 64 70 66 91 67
REMARK SMILES IDX 58 68 42 69 43 70 51 71 44 72 50 73 52 74 49 75 45 76 46 77
REMARK SMILES IDX 47 78 48 79 74 80 75 81 83 82 76 83 82 84 84 85 81 86 77 87
REMARK SMILES IDX 78 88 79 89 80 90 59 91 60 92 68 93 61 94 67 95 69 96 66 97
REMARK SMILES IDX 62 98 63 99 64 100 65 101
REMARK H PARENT 25 6 12 20 30 35 89 54 57 65
REMARK Flexibility Score: inf
ROOT
ATOM      1  C   UNL     1       0.330  -5.086   3.444  1.00  0.00     0.023 C 
ENDROOT
BRANCH   1   2
ATOM      2  C   UNL     1       0.213  -3.713   2.760  1.00  0.00     0.116 C 
BRANCH   2   3
ATOM      3  N   UNL     1       0.647  -3.703   1.359  1.00  0.00    -0.356 N 
ATOM      4  C   UNL     1       0.746  -2.723   0.397  1.00  0.00     0.226 C 
ATOM      5  O   UNL     1       1.166  -3.103  -0.701  1.00  0.00    -0.274 OA
ATOM      6  H   UNL     1       0.928  -4.590   1.036  1.00  0.00     0.163 HD
BRANCH   4   7
ATOM      7  C   UNL     1       0.356  -1.207   0.638  1.00  0.00     0.059 C 
ATOM      8  C   UNL     1       0.616   2.169   0.155  1.00  0.00     0.008 C 
ATOM      9  C   UNL     1       0.178   1.047  -0.778  1.00  0.00    -0.013 C 
ATOM     10  C   UNL     1      -1.328   0.928  -0.863  1.00  0.00     0.009 C 
ATOM     11  C   UNL     1       0.778  -0.347  -0.580  1.00  0.00     0.020 C 
ATOM     12  C   UNL     1      -1.993   0.103   0.259  1.00  0.00    -0.034 C 
ATOM     13  C   UNL     1      -2.225   0.941   1.526  1.00  0.00     0.011 C 
ATOM     14  C   UNL     1      -3.394  -0.257  -0.305  1.00  0.00     0.011 C 
ATOM     15  C   UNL     1      -1.218  -1.204   0.642  1.00  0.00     0.024 C 
BRANCH   7  16
ATOM     16  C   UNL     1       1.114  -0.875   1.947  1.00  0.00     0.117 C 
BRANCH  16  17
ATOM     17  C   UNL     1       1.881   0.369   2.314  1.00  0.00     0.225 C 
ATOM     18  O   UNL     1       1.410   1.077   3.220  1.00  0.00    -0.275 OA
ATOM     19  N   UNL     1       3.083   0.781   1.851  1.00  0.00    -0.326 N 
ATOM     20  H   UNL     1       3.445   1.484   2.438  1.00  0.00     0.169 HD
BRANCH  19  21
ATOM     21  C   UNL     1       3.983   0.527   0.797  1.00  0.00     0.041 A 
ATOM     22  C   UNL     1       4.879   1.585   0.555  1.00  0.00     0.026 A 
ATOM     23  C   UNL     1       3.983  -0.546  -0.091  1.00  0.00     0.039 A 
ATOM     24  C   UNL     1       5.645   1.648  -0.607  1.00  0.00     0.003 A 
ATOM     25  C   UNL     1       4.668  -0.442  -1.329  1.00  0.00     0.058 A 
ATOM     26  C   UNL     1       5.512   0.655  -1.565  1.00  0.00     0.013 A 
BRANCH  25  27
ATOM     27  C   UNL     1       4.443  -1.436  -2.450  1.00  0.00     0.416 C 
ATOM     28  F   UNL     1       4.673  -0.892  -3.684  1.00  0.00    -0.166 F 
ATOM     29  F   UNL     1       5.252  -2.524  -2.371  1.00  0.00    -0.166 F 
ATOM     30  F   UNL     1       3.167  -1.901  -2.505  1.00  0.00    -0.166 F 
ENDBRANCH  25  27
ENDBRANCH  19  21
ENDBRANCH  16  17
ENDBRANCH   7  16
ENDBRANCH   4   7
ENDBRANCH   2   3
ENDBRANCH   1   2
BRANCH   1  31
ATOM     31  C   UNL     1       1.752  -5.593   3.735  1.00  0.00     0.023 C 
BRANCH  31  32
ATOM     32  C   UNL     1       2.627  -4.743   4.662  1.00  0.00     0.116 C 
BRANCH  32  33
ATOM     33  N   UNL     1       2.074  -4.576   5.997  1.00  0.00    -0.352 N 
ATOM     34  C   UNL     1       2.606  -4.834   7.243  1.00  0.00     0.251 C 
ATOM     35  H   UNL     1       1.158  -4.216   6.014  1.00  0.00     0.163 HD
ATOM     36  O   UNL     1       1.878  -4.714   8.222  1.00  0.00    -0.269 OA
BRANCH  34  37
ATOM     37  C   UNL     1       4.014  -5.278   7.426  1.00  0.00     0.039 A 
ATOM     38  C   UNL     1       4.287  -6.229   8.418  1.00  0.00     0.014 A 
ATOM     39  C   UNL     1       5.072  -4.741   6.689  1.00  0.00     0.014 A 
ATOM     40  C   UNL     1       5.596  -6.684   8.622  1.00  0.00     0.010 A 
ATOM     41  C   UNL     1       6.367  -5.249   6.843  1.00  0.00     0.010 A 
ATOM     42  C   UNL     1       6.648  -6.226   7.812  1.00  0.00    -0.014 A 
BRANCH  42  43
ATOM     43  C   UNL     1       8.031  -6.762   7.977  1.00  0.00     0.031 A 
ATOM     44  C   UNL     1       9.165  -5.857   8.385  1.00  0.00     0.074 A 
ATOM     45  C   UNL     1       8.281  -8.062   7.717  1.00  0.00     0.049 A 
ATOM     46  N   UNL     1      10.435  -6.137   8.550  1.00  0.00    -0.248 NA
ATOM     47  C   UNL     1       8.831  -4.444   8.606  1.00  0.00     0.031 C 
ATOM     48  C   UNL     1       7.286  -9.035   7.261  1.00  0.00     0.029 A 
ATOM     49  N   UNL     1       9.444  -8.790   7.790  1.00  0.00    -0.354 N 
ATOM     50  C   UNL     1      11.051  -4.936   8.887  1.00  0.00     0.074 A 
ATOM     51  C   UNL     1      10.025  -3.916   8.827  1.00  0.00     0.031 C 
ATOM     52  C   UNL     1       7.875 -10.232   7.116  1.00  0.00     0.029 A 
ATOM     53  C   UNL     1       9.296 -10.109   7.426  1.00  0.00     0.049 A 
ATOM     54  H   UNL     1      10.303  -8.404   8.075  1.00  0.00     0.167 HD
ATOM     55  C   UNL     1      12.343  -4.707   9.239  1.00  0.00     0.034 A 
ATOM     56  C   UNL     1      10.198 -11.108   7.340  1.00  0.00     0.034 A 
ATOM     57  C   UNL     1      13.357  -5.735   9.291  1.00  0.00     0.049 A 
ATOM     58  C   UNL     1      11.631 -10.833   7.722  1.00  0.00     0.074 A 
ATOM     59  C   UNL     1      14.681  -5.623   9.681  1.00  0.00     0.029 A 
ATOM     60  N   UNL     1      13.167  -7.063   8.927  1.00  0.00    -0.354 N 
ATOM     61  N   UNL     1      12.183  -9.704   8.103  1.00  0.00    -0.248 NA
ATOM     62  C   UNL     1      12.555 -11.973   7.682  1.00  0.00     0.031 C 
ATOM     63  C   UNL     1      15.307  -6.859   9.480  1.00  0.00     0.029 A 
ATOM     64  C   UNL     1      14.355  -7.770   9.051  1.00  0.00     0.049 A 
ATOM     65  H   UNL     1      12.312  -7.447   8.624  1.00  0.00     0.167 HD
ATOM     66  C   UNL     1      13.516 -10.006   8.374  1.00  0.00     0.074 A 
ATOM     67  C   UNL     1      13.674 -11.426   8.134  1.00  0.00     0.031 C 
ATOM     68  C   UNL     1      14.515  -9.184   8.789  1.00  0.00     0.034 A 
BRANCH  55  69
ATOM     69  C   UNL     1      12.727  -3.279   9.567  1.00  0.00     0.023 A 
ATOM     70  C   UNL     1      12.110  -2.569  10.613  1.00  0.00     0.031 A 
ATOM     71  C   UNL     1      13.687  -2.598   8.795  1.00  0.00     0.131 A 
ATOM     72  C   UNL     1      12.379  -1.203  10.792  1.00  0.00     0.055 A 
ATOM     73  C   UNL     1      14.023  -1.264   9.042  1.00  0.00     0.041 A 
ATOM     74  F   UNL     1      14.301  -3.210   7.770  1.00  0.00    -0.206 F 
ATOM     75  C   UNL     1      13.352  -0.552  10.032  1.00  0.00     0.022 A 
BRANCH  72  76
ATOM     76  S   UNL     1      11.306  -0.251  11.903  1.00  0.00     0.124 S 
ATOM     77  O   UNL     1       9.987  -0.504  11.327  1.00  0.00    -0.237 OA
ATOM     78  O   UNL     1      11.568  -0.866  13.199  1.00  0.00    -0.237 OA
ATOM     79  O   UNL     1      11.788   1.121  11.752  1.00  0.00    -0.744 OA
ENDBRANCH  72  76
ENDBRANCH  55  69
BRANCH  56  80
ATOM     80  C   UNL     1       9.779 -12.456   6.858  1.00  0.00     0.023 A 
ATOM     81  C   UNL     1       9.822 -13.582   7.697  1.00  0.00     0.031 A 
ATOM     82  C   UNL     1       9.348 -12.640   5.531  1.00  0.00     0.131 A 
ATOM     83  C   UNL     1       9.478 -14.845   7.190  1.00  0.00     0.055 A 
ATOM     84  C   UNL     1       8.956 -13.889   5.048  1.00  0.00     0.041 A 
ATOM     85  F   UNL     1       9.285 -11.597   4.688  1.00  0.00    -0.206 F 
ATOM     86  C   UNL     1       9.030 -15.004   5.876  1.00  0.00     0.022 A 
BRANCH  83  87
ATOM     87  S   UNL     1       9.691 -16.299   8.254  1.00  0.00     0.124 S 
ATOM     88  O   UNL     1      11.117 -16.242   8.554  1.00  0.00    -0.237 OA
ATOM     89  O   UNL     1       8.790 -16.000   9.362  1.00  0.00    -0.237 OA
ATOM     90  O   UNL     1       9.276 -17.410   7.400  1.00  0.00    -0.744 OA
ENDBRANCH  83  87
ENDBRANCH  56  80
BRANCH  68  91
ATOM     91  C   UNL     1      15.863  -9.818   9.049  1.00  0.00     0.023 A 
ATOM     92  C   UNL     1      16.614 -10.417   8.022  1.00  0.00     0.031 A 
ATOM     93  C   UNL     1      16.390  -9.851  10.353  1.00  0.00     0.131 A 
ATOM     94  C   UNL     1      17.811 -11.085   8.326  1.00  0.00     0.055 A 
ATOM     95  C   UNL     1      17.616 -10.453  10.638  1.00  0.00     0.041 A 
ATOM     96  F   UNL     1      15.717  -9.301  11.377  1.00  0.00    -0.206 F 
ATOM     97  C   UNL     1      18.326 -11.090   9.625  1.00  0.00     0.022 A 
BRANCH  94  98
ATOM     98  S   UNL     1      18.624 -12.054   7.026  1.00  0.00     0.124 S 
ATOM     99  O   UNL     1      17.559 -12.963   6.615  1.00  0.00    -0.237 OA
ATOM    100  O   UNL     1      18.995 -11.027   6.058  1.00  0.00    -0.237 OA
ATOM    101  O   UNL     1      19.745 -12.686   7.719  1.00  0.00    -0.744 OA
ENDBRANCH  94  98
ENDBRANCH  68  91
ENDBRANCH  42  43
ENDBRANCH  34  37
ENDBRANCH  32  33
ENDBRANCH  31  32
ENDBRANCH   1  31
TORSDOF 18
