REMARK SMILES COc1ccc(CNC(=O)[C@H]2CC(C)=C(C)C[C@@H]2C(=O)NCCCCNC(=O)c2ccc(-c3c4nc(c(-c5cc(S(=O)(=O)[O-])ccc5F)c5ccc([nH]5)c(-c5cc(S(=O)(=O)[O-])ccc5F)c5nc(c(-c6cc(S(=O)(=O)[O-])ccc6F)c6ccc3[nH]6)C=C5)C=C4)cc2)cc1OC
REMARK SMILES IDX 23 1 22 2 21 3 19 4 20 5 18 7 11 8 12 9 13 10 17 11 14 12
REMARK SMILES IDX 15 13 16 14 9 15 8 16 10 18 7 19 6 20 3 21 4 22 93 23 5 24
REMARK SMILES IDX 92 25 2 26 1 27 94 28 95 29 24 30 25 31 26 32 27 33 28 35
REMARK SMILES IDX 29 36 30 37 91 38 31 39 90 40 32 41 33 42 34 43 84 44 35 45
REMARK SMILES IDX 89 46 83 47 85 48 36 49 88 50 82 51 81 52 37 54 69 55 49 56
REMARK SMILES IDX 68 57 50 58 53 59 67 60 86 61 51 62 52 63 66 65 87 66 54 67
REMARK SMILES IDX 38 68 39 69 47 70 40 71 46 72 48 73 45 74 41 75 42 76 43 77
REMARK SMILES IDX 44 78 70 79 71 80 79 81 72 82 78 83 80 84 77 85 73 86 74 87
REMARK SMILES IDX 75 88 76 89 55 90 56 91 64 92 57 93 63 94 65 95 62 96 58 97
REMARK SMILES IDX 59 98 60 99 61 100
REMARK H PARENT 21 6 8 17 26 34 85 53 53 64
REMARK Flexibility Score: inf
ROOT
ATOM      1  C   UNL     1      -2.968  -5.533   9.262  1.00  0.00     0.023 C 
ENDROOT
BRANCH   1   2
ATOM      2  C   UNL     1      -2.461  -4.114   9.487  1.00  0.00     0.116 C 
BRANCH   2   3
ATOM      3  N   UNL     1      -1.387  -4.040  10.452  1.00  0.00    -0.356 N 
ATOM      4  C   UNL     1      -0.074  -3.713  10.292  1.00  0.00     0.224 C 
ATOM      5  O   UNL     1       0.643  -3.749  11.296  1.00  0.00    -0.275 OA
ATOM      6  H   UNL     1      -1.647  -4.261  11.375  1.00  0.00     0.163 HD
BRANCH   4   7
ATOM      7  C   UNL     1       0.529  -3.329   8.931  1.00  0.00     0.095 C 
ATOM      8  C   UNL     1      -0.016  -1.989   8.415  1.00  0.00     0.095 C 
ATOM      9  C   UNL     1      -0.950  -2.027   7.205  1.00  0.00     0.045 C 
ATOM     10  C   UNL     1      -0.959  -3.277   6.354  1.00  0.00    -0.074 C 
ATOM     11  C   UNL     1       0.505  -4.524   7.973  1.00  0.00     0.045 C 
ATOM     12  C   UNL     1      -1.762  -3.130   5.086  1.00  0.00     0.039 C 
ATOM     13  C   UNL     1      -0.326  -4.412   6.717  1.00  0.00    -0.074 C 
ATOM     14  C   UNL     1      -0.397  -5.685   5.911  1.00  0.00     0.039 C 
BRANCH   8  15
ATOM     15  C   UNL     1       1.071  -0.915   8.291  1.00  0.00     0.224 C 
ATOM     16  N   UNL     1       1.871  -0.759   7.207  1.00  0.00    -0.352 N 
ATOM     17  H   UNL     1       2.392   0.076   7.210  1.00  0.00     0.163 HD
ATOM     18  O   UNL     1       1.253  -0.121   9.221  1.00  0.00    -0.275 OA
BRANCH  16  19
ATOM     19  C   UNL     1       2.102  -1.590   6.047  1.00  0.00     0.151 C 
BRANCH  19  20
ATOM     20  C   UNL     1       1.863  -0.887   4.727  1.00  0.00    -0.025 A 
ATOM     21  C   UNL     1       1.367   0.162   2.148  1.00  0.00     0.160 A 
ATOM     22  C   UNL     1       0.477   0.404   3.197  1.00  0.00     0.051 A 
ATOM     23  C   UNL     1       2.544  -0.555   2.385  1.00  0.00     0.161 A 
ATOM     24  C   UNL     1       0.732  -0.104   4.475  1.00  0.00     0.009 A 
ATOM     25  C   UNL     1       2.762  -1.090   3.667  1.00  0.00     0.056 A 
BRANCH  21  26
ATOM     26  O   UNL     1       1.082   0.712   0.927  1.00  0.00    -0.493 OA
ATOM     27  C   UNL     1       0.056  -0.018   0.251  1.00  0.00     0.278 C 
ENDBRANCH  21  26
BRANCH  23  28
ATOM     28  O   UNL     1       3.562  -0.840   1.516  1.00  0.00    -0.493 OA
ATOM     29  C   UNL     1       3.471  -0.361   0.184  1.00  0.00     0.278 C 
ENDBRANCH  23  28
ENDBRANCH  19  20
ENDBRANCH  16  19
ENDBRANCH   8  15
ENDBRANCH   4   7
ENDBRANCH   2   3
ENDBRANCH   1   2
BRANCH   1  30
ATOM     30  C   UNL     1      -3.986  -6.002  10.296  1.00  0.00     0.023 C 
BRANCH  30  31
ATOM     31  C   UNL     1      -5.238  -5.136  10.411  1.00  0.00     0.116 C 
BRANCH  31  32
ATOM     32  N   UNL     1      -5.969  -4.996   9.159  1.00  0.00    -0.352 N 
ATOM     33  C   UNL     1      -7.333  -4.965   8.973  1.00  0.00     0.251 C 
ATOM     34  H   UNL     1      -5.421  -4.913   8.345  1.00  0.00     0.163 HD
ATOM     35  O   UNL     1      -7.804  -4.947   7.841  1.00  0.00    -0.269 OA
BRANCH  33  36
ATOM     36  C   UNL     1      -8.212  -5.001  10.161  1.00  0.00     0.039 A 
ATOM     37  C   UNL     1      -9.215  -5.970  10.233  1.00  0.00     0.014 A 
ATOM     38  C   UNL     1      -7.987  -4.132  11.231  1.00  0.00     0.014 A 
ATOM     39  C   UNL     1      -9.941  -6.120  11.417  1.00  0.00     0.010 A 
ATOM     40  C   UNL     1      -8.656  -4.334  12.433  1.00  0.00     0.010 A 
ATOM     41  C   UNL     1      -9.636  -5.334  12.541  1.00  0.00    -0.014 A 
BRANCH  41  42
ATOM     42  C   UNL     1     -10.329  -5.540  13.839  1.00  0.00     0.031 A 
ATOM     43  C   UNL     1     -11.169  -4.437  14.423  1.00  0.00     0.074 A 
ATOM     44  C   UNL     1     -10.144  -6.686  14.524  1.00  0.00     0.049 A 
ATOM     45  N   UNL     1     -11.779  -4.383  15.579  1.00  0.00    -0.248 NA
ATOM     46  C   UNL     1     -11.313  -3.221  13.609  1.00  0.00     0.031 C 
ATOM     47  C   UNL     1      -9.312  -7.809  14.084  1.00  0.00     0.029 A 
ATOM     48  N   UNL     1     -10.631  -7.095  15.740  1.00  0.00    -0.354 N 
ATOM     49  C   UNL     1     -12.368  -3.124  15.637  1.00  0.00     0.074 A 
ATOM     50  C   UNL     1     -11.982  -2.426  14.429  1.00  0.00     0.031 C 
ATOM     51  C   UNL     1      -9.365  -8.784  15.006  1.00  0.00     0.029 A 
ATOM     52  C   UNL     1     -10.195  -8.343  16.122  1.00  0.00     0.049 A 
ATOM     53  H   UNL     1     -11.237  -6.546  16.289  1.00  0.00     0.167 HD
ATOM     54  C   UNL     1     -13.179  -2.609  16.594  1.00  0.00     0.034 A 
ATOM     55  C   UNL     1     -10.426  -9.046  17.249  1.00  0.00     0.034 A 
ATOM     56  C   UNL     1     -13.561  -3.324  17.788  1.00  0.00     0.049 A 
ATOM     57  C   UNL     1     -11.315  -8.447  18.310  1.00  0.00     0.074 A 
ATOM     58  C   UNL     1     -14.413  -2.918  18.801  1.00  0.00     0.029 A 
ATOM     59  N   UNL     1     -13.111  -4.592  18.134  1.00  0.00    -0.354 N 
ATOM     60  N   UNL     1     -11.907  -7.274  18.326  1.00  0.00    -0.248 NA
ATOM     61  C   UNL     1     -11.579  -9.271  19.496  1.00  0.00     0.031 C 
ATOM     62  C   UNL     1     -14.428  -3.911  19.786  1.00  0.00     0.029 A 
ATOM     63  C   UNL     1     -13.647  -4.971  19.356  1.00  0.00     0.049 A 
ATOM     64  H   UNL     1     -12.501  -5.141  17.591  1.00  0.00     0.167 HD
ATOM     65  C   UNL     1     -12.636  -7.234  19.511  1.00  0.00     0.074 A 
ATOM     66  C   UNL     1     -12.422  -8.505  20.173  1.00  0.00     0.031 C 
ATOM     67  C   UNL     1     -13.416  -6.240  20.007  1.00  0.00     0.034 A 
BRANCH  54  68
ATOM     68  C   UNL     1     -13.683  -1.200  16.389  1.00  0.00     0.023 A 
ATOM     69  C   UNL     1     -14.497  -0.863  15.292  1.00  0.00     0.031 A 
ATOM     70  C   UNL     1     -13.319  -0.173  17.276  1.00  0.00     0.131 A 
ATOM     71  C   UNL     1     -14.848   0.476  15.065  1.00  0.00     0.055 A 
ATOM     72  C   UNL     1     -13.744   1.145  17.092  1.00  0.00     0.041 A 
ATOM     73  F   UNL     1     -12.527  -0.428  18.330  1.00  0.00    -0.206 F 
ATOM     74  C   UNL     1     -14.500   1.479  15.971  1.00  0.00     0.022 A 
BRANCH  71  75
ATOM     75  S   UNL     1     -15.635   0.906  13.488  1.00  0.00     0.124 S 
ATOM     76  O   UNL     1     -14.629   0.462  12.526  1.00  0.00    -0.237 OA
ATOM     77  O   UNL     1     -16.868   0.130  13.528  1.00  0.00    -0.237 OA
ATOM     78  O   UNL     1     -15.806   2.355  13.575  1.00  0.00    -0.744 OA
ENDBRANCH  71  75
ENDBRANCH  54  68
BRANCH  55  79
ATOM     79  C   UNL     1      -9.802 -10.386  17.446  1.00  0.00     0.023 A 
ATOM     80  C   UNL     1     -10.589 -11.546  17.534  1.00  0.00     0.031 A 
ATOM     81  C   UNL     1      -8.410 -10.522  17.592  1.00  0.00     0.131 A 
ATOM     82  C   UNL     1      -9.984 -12.782  17.809  1.00  0.00     0.055 A 
ATOM     83  C   UNL     1      -7.808 -11.762  17.813  1.00  0.00     0.041 A 
ATOM     84  F   UNL     1      -7.610  -9.446  17.509  1.00  0.00    -0.206 F 
ATOM     85  C   UNL     1      -8.598 -12.900  17.937  1.00  0.00     0.022 A 
BRANCH  82  86
ATOM     86  S   UNL     1     -11.047 -14.227  18.083  1.00  0.00     0.124 S 
ATOM     87  O   UNL     1     -11.877 -13.778  19.195  1.00  0.00    -0.237 OA
ATOM     88  O   UNL     1     -11.717 -14.358  16.794  1.00  0.00    -0.237 OA
ATOM     89  O   UNL     1     -10.098 -15.292  18.401  1.00  0.00    -0.744 OA
ENDBRANCH  82  86
ENDBRANCH  55  79
BRANCH  67  90
ATOM     90  C   UNL     1     -14.131  -6.513  21.308  1.00  0.00     0.023 A 
ATOM     91  C   UNL     1     -13.434  -6.668  22.519  1.00  0.00     0.031 A 
ATOM     92  C   UNL     1     -15.532  -6.629  21.331  1.00  0.00     0.131 A 
ATOM     93  C   UNL     1     -14.135  -6.985  23.692  1.00  0.00     0.055 A 
ATOM     94  C   UNL     1     -16.229  -6.885  22.512  1.00  0.00     0.041 A 
ATOM     95  F   UNL     1     -16.248  -6.492  20.203  1.00  0.00    -0.206 F 
ATOM     96  C   UNL     1     -15.529  -7.078  23.700  1.00  0.00     0.022 A 
BRANCH  93  97
ATOM     97  S   UNL     1     -13.192  -7.365  25.195  1.00  0.00     0.124 S 
ATOM     98  O   UNL     1     -12.373  -8.492  24.762  1.00  0.00    -0.237 OA
ATOM     99  O   UNL     1     -12.479  -6.115  25.440  1.00  0.00    -0.237 OA
ATOM    100  O   UNL     1     -14.226  -7.690  26.175  1.00  0.00    -0.744 OA
ENDBRANCH  93  97
ENDBRANCH  67  90
ENDBRANCH  41  42
ENDBRANCH  33  36
ENDBRANCH  31  32
ENDBRANCH  30  31
ENDBRANCH   1  30
TORSDOF 19
