REMARK SMILES N#Cc1cnc2cc(C(=O)NCCCCNC(=O)c3ccc(-c4c5nc(c(-c6cc(S(=O)(=O)[O-])ccc6F)c6ccc([nH]6)c(-c6cc(S(=O)(=O)[O-])ccc6F)c6nc(c(-c7cc(S(=O)(=O)[O-])ccc7F)c7ccc4[nH]7)C=C6)C=C5)cc3)[nH]c2c1
REMARK SMILES IDX 14 1 13 2 12 3 11 4 9 5 10 6 8 8 3 9 4 10 84 11 5 12 83 13
REMARK SMILES IDX 6 14 82 15 7 16 2 18 1 19 15 20 16 21 17 22 18 24 19 25
REMARK SMILES IDX 20 26 81 27 21 28 80 29 22 30 23 31 24 32 74 33 25 34 79 35
REMARK SMILES IDX 73 36 75 37 26 38 78 39 72 40 71 41 27 43 59 44 39 45 58 46
REMARK SMILES IDX 40 47 43 48 57 49 76 50 41 51 42 52 56 54 77 55 44 56 28 57
REMARK SMILES IDX 29 58 37 59 30 60 36 61 38 62 35 63 31 64 32 65 33 66 34 67
REMARK SMILES IDX 60 68 61 69 69 70 62 71 68 72 70 73 67 74 63 75 64 76 65 77
REMARK SMILES IDX 66 78 45 79 46 80 54 81 47 82 53 83 55 84 52 85 48 86 49 87
REMARK SMILES IDX 50 88 51 89
REMARK H PARENT 11 7 82 17 16 23 75 42 43 53
REMARK Flexibility Score: inf
ROOT
ATOM      1  C   UNL     1      12.126   0.027  -3.304  1.00  0.00     0.023 C 
ENDROOT
BRANCH   1   2
ATOM      2  C   UNL     1      10.883  -0.398  -2.509  1.00  0.00     0.023 C 
BRANCH   2   3
ATOM      3  C   UNL     1      10.747   0.207  -1.109  1.00  0.00     0.116 C 
BRANCH   3   4
ATOM      4  N   UNL     1      10.294   1.585  -1.111  1.00  0.00    -0.351 N 
ATOM      5  C   UNL     1       9.109   2.176  -0.755  1.00  0.00     0.267 C 
ATOM      6  O   UNL     1       9.049   3.404  -0.859  1.00  0.00    -0.268 OA
ATOM      7  H   UNL     1      10.972   2.223  -1.431  1.00  0.00     0.163 HD
BRANCH   5   8
ATOM      8  C   UNL     1       7.939   1.424  -0.351  1.00  0.00     0.107 A 
ATOM      9  C   UNL     1       3.579   0.092  -0.011  1.00  0.00     0.072 A 
ATOM     10  C   UNL     1       4.269  -1.111   0.103  1.00  0.00     0.131 A 
ATOM     11  C   UNL     1       4.298   1.290  -0.100  1.00  0.00     0.049 A 
ATOM     12  N   UNL     1       5.609  -1.242   0.160  1.00  0.00    -0.253 NA
ATOM     13  C   UNL     1       5.689   1.159  -0.105  1.00  0.00     0.066 A 
ATOM     14  C   UNL     1       6.293  -0.081   0.038  1.00  0.00     0.089 A 
ATOM     15  N   UNL     1       6.709   2.068  -0.246  1.00  0.00    -0.349 N 
ATOM     16  C   UNL     1       7.687   0.109   0.001  1.00  0.00     0.062 A 
ATOM     17  H   UNL     1       6.587   3.044  -0.270  1.00  0.00     0.167 HD
BRANCH   9  18
ATOM     18  C   UNL     1       2.156   0.079  -0.055  1.00  0.00     0.101 C 
ATOM     19  N   UNL     1       0.991   0.047  -0.097  1.00  0.00    -0.192 NA
ENDBRANCH   9  18
ENDBRANCH   5   8
ENDBRANCH   3   4
ENDBRANCH   2   3
ENDBRANCH   1   2
BRANCH   1  20
ATOM     20  C   UNL     1      13.454  -0.199  -2.591  1.00  0.00     0.116 C 
BRANCH  20  21
ATOM     21  N   UNL     1      13.749  -1.602  -2.309  1.00  0.00    -0.352 N 
ATOM     22  C   UNL     1      14.935  -2.119  -1.806  1.00  0.00     0.251 C 
ATOM     23  H   UNL     1      13.031  -2.249  -2.496  1.00  0.00     0.163 HD
ATOM     24  O   UNL     1      15.236  -3.288  -2.022  1.00  0.00    -0.269 OA
BRANCH  22  25
ATOM     25  C   UNL     1      15.810  -1.244  -0.988  1.00  0.00     0.039 A 
ATOM     26  C   UNL     1      17.203  -1.327  -1.028  1.00  0.00     0.014 A 
ATOM     27  C   UNL     1      15.197  -0.307  -0.156  1.00  0.00     0.014 A 
ATOM     28  C   UNL     1      17.953  -0.433  -0.253  1.00  0.00     0.010 A 
ATOM     29  C   UNL     1      15.929   0.686   0.453  1.00  0.00     0.010 A 
ATOM     30  C   UNL     1      17.308   0.589   0.483  1.00  0.00    -0.014 A 
BRANCH  30  31
ATOM     31  C   UNL     1      18.048   1.732   1.043  1.00  0.00     0.031 A 
ATOM     32  C   UNL     1      18.872   2.357  -0.028  1.00  0.00     0.074 A 
ATOM     33  C   UNL     1      17.866   2.277   2.278  1.00  0.00     0.049 A 
ATOM     34  N   UNL     1      20.135   2.168  -0.221  1.00  0.00    -0.248 NA
ATOM     35  C   UNL     1      18.205   2.998  -1.180  1.00  0.00     0.031 C 
ATOM     36  C   UNL     1      16.919   1.853   3.318  1.00  0.00     0.029 A 
ATOM     37  N   UNL     1      18.454   3.372   2.872  1.00  0.00    -0.354 N 
ATOM     38  C   UNL     1      20.465   2.986  -1.293  1.00  0.00     0.074 A 
ATOM     39  C   UNL     1      19.239   3.221  -1.998  1.00  0.00     0.031 C 
ATOM     40  C   UNL     1      16.842   2.786   4.301  1.00  0.00     0.029 A 
ATOM     41  C   UNL     1      17.829   3.826   4.058  1.00  0.00     0.049 A 
ATOM     42  H   UNL     1      19.254   3.808   2.498  1.00  0.00     0.167 HD
ATOM     43  C   UNL     1      21.617   3.710  -1.240  1.00  0.00     0.034 A 
ATOM     44  C   UNL     1      18.154   4.914   4.835  1.00  0.00     0.034 A 
ATOM     45  C   UNL     1      22.474   3.188  -0.197  1.00  0.00     0.049 A 
ATOM     46  C   UNL     1      19.579   5.175   4.549  1.00  0.00     0.074 A 
ATOM     47  C   UNL     1      23.152   2.013   0.052  1.00  0.00     0.029 A 
ATOM     48  N   UNL     1      22.276   3.804   1.012  1.00  0.00    -0.354 N 
ATOM     49  N   UNL     1      20.533   4.340   4.862  1.00  0.00    -0.248 NA
ATOM     50  C   UNL     1      19.884   6.130   3.499  1.00  0.00     0.031 C 
ATOM     51  C   UNL     1      23.120   1.840   1.470  1.00  0.00     0.029 A 
ATOM     52  C   UNL     1      22.527   2.960   2.054  1.00  0.00     0.049 A 
ATOM     53  H   UNL     1      21.989   4.740   1.115  1.00  0.00     0.167 HD
ATOM     54  C   UNL     1      21.376   4.363   3.766  1.00  0.00     0.074 A 
ATOM     55  C   UNL     1      20.996   5.568   3.020  1.00  0.00     0.031 C 
ATOM     56  C   UNL     1      22.066   3.242   3.402  1.00  0.00     0.034 A 
BRANCH  43  57
ATOM     57  C   UNL     1      21.725   5.168  -1.666  1.00  0.00     0.023 A 
ATOM     58  C   UNL     1      22.987   5.784  -1.542  1.00  0.00     0.031 A 
ATOM     59  C   UNL     1      20.637   6.047  -1.883  1.00  0.00     0.131 A 
ATOM     60  C   UNL     1      23.120   7.185  -1.590  1.00  0.00     0.055 A 
ATOM     61  C   UNL     1      20.780   7.435  -1.971  1.00  0.00     0.041 A 
ATOM     62  F   UNL     1      19.365   5.637  -1.927  1.00  0.00    -0.206 F 
ATOM     63  C   UNL     1      22.023   8.014  -1.807  1.00  0.00     0.022 A 
BRANCH  60  64
ATOM     64  S   UNL     1      24.746   7.918  -1.277  1.00  0.00     0.124 S 
ATOM     65  O   UNL     1      25.000   7.507   0.098  1.00  0.00    -0.237 OA
ATOM     66  O   UNL     1      25.564   7.281  -2.304  1.00  0.00    -0.237 OA
ATOM     67  O   UNL     1      24.514   9.348  -1.471  1.00  0.00    -0.744 OA
ENDBRANCH  60  64
ENDBRANCH  43  57
BRANCH  44  68
ATOM     68  C   UNL     1      17.274   5.983   5.456  1.00  0.00     0.023 A 
ATOM     69  C   UNL     1      17.773   7.072   6.242  1.00  0.00     0.031 A 
ATOM     70  C   UNL     1      15.937   6.107   5.030  1.00  0.00     0.131 A 
ATOM     71  C   UNL     1      16.957   8.206   6.531  1.00  0.00     0.055 A 
ATOM     72  C   UNL     1      15.148   7.233   5.303  1.00  0.00     0.041 A 
ATOM     73  F   UNL     1      15.370   5.172   4.256  1.00  0.00    -0.206 F 
ATOM     74  C   UNL     1      15.656   8.291   6.039  1.00  0.00     0.022 A 
BRANCH  71  75
ATOM     75  S   UNL     1      17.582   9.662   7.464  1.00  0.00     0.124 S 
ATOM     76  O   UNL     1      17.584   9.173   8.838  1.00  0.00    -0.237 OA
ATOM     77  O   UNL     1      18.886   9.900   6.858  1.00  0.00    -0.237 OA
ATOM     78  O   UNL     1      16.585  10.699   7.188  1.00  0.00    -0.744 OA
ENDBRANCH  71  75
ENDBRANCH  44  68
BRANCH  56  79
ATOM     79  C   UNL     1      22.353   2.181   4.439  1.00  0.00     0.023 A 
ATOM     80  C   UNL     1      21.435   1.259   4.990  1.00  0.00     0.031 A 
ATOM     81  C   UNL     1      23.718   2.010   4.733  1.00  0.00     0.131 A 
ATOM     82  C   UNL     1      21.919   0.191   5.782  1.00  0.00     0.055 A 
ATOM     83  C   UNL     1      24.190   0.941   5.485  1.00  0.00     0.041 A 
ATOM     84  F   UNL     1      24.630   2.854   4.222  1.00  0.00    -0.206 F 
ATOM     85  C   UNL     1      23.291   0.023   6.009  1.00  0.00     0.022 A 
BRANCH  82  86
ATOM     86  S   UNL     1      20.782  -1.043   6.502  1.00  0.00     0.124 S 
ATOM     87  O   UNL     1      19.929  -0.239   7.370  1.00  0.00    -0.237 OA
ATOM     88  O   UNL     1      20.137  -1.617   5.325  1.00  0.00    -0.237 OA
ATOM     89  O   UNL     1      21.674  -1.963   7.211  1.00  0.00    -0.744 OA
ENDBRANCH  82  86
ENDBRANCH  56  79
ENDBRANCH  30  31
ENDBRANCH  22  25
ENDBRANCH  20  21
ENDBRANCH   1  20
TORSDOF 15
