REMARK SMILES Cc1cc(C)c2c(O[C@@H](C)C(=O)NCCCCNC(=O)c3ccc(-c4c5nc(c(-c6cc(S(=O)(=O)[O-])ccc6F)c6ccc([nH]6)c(-c6cc(S(=O)(=O)[O-])ccc6F)c6nc(c(-c7cc(S(=O)(=O)[O-])ccc7F)c7ccc4[nH]7)C=C6)C=C5)cc3)nsc2n1
REMARK SMILES IDX 16 1 15 2 14 3 13 4 11 5 12 6 9 8 10 9 8 10 7 11 1 12 2 13
REMARK SMILES IDX 3 14 87 15 4 16 86 17 5 18 6 19 85 20 84 21 17 22 18 23
REMARK SMILES IDX 19 24 20 26 21 27 22 28 83 29 23 30 82 31 24 32 25 33 26 34
REMARK SMILES IDX 76 35 27 36 81 37 75 38 77 39 28 40 80 41 74 42 73 43 29 45
REMARK SMILES IDX 61 46 41 47 60 48 42 49 45 50 59 51 78 52 43 53 44 54 58 56
REMARK SMILES IDX 79 57 46 58 30 59 31 60 39 61 32 62 38 63 40 64 37 65 33 66
REMARK SMILES IDX 34 67 35 68 36 69 62 70 63 71 71 72 64 73 70 74 72 75 69 76
REMARK SMILES IDX 65 77 66 78 67 79 68 80 47 81 48 82 56 83 49 84 55 85 57 86
REMARK SMILES IDX 54 87 50 88 51 89 52 90 53 91
REMARK H PARENT 13 7 18 25 77 44 45 55
REMARK Flexibility Score: inf
ROOT
ATOM      1  C   UNL     1      -2.854  -2.345   0.648  1.00  0.00     0.023 C 
ENDROOT
BRANCH   1   2
ATOM      2  C   UNL     1      -2.323  -3.472  -0.264  1.00  0.00     0.023 C 
BRANCH   2   3
ATOM      3  C   UNL     1      -1.062  -4.161   0.271  1.00  0.00     0.116 C 
BRANCH   3   4
ATOM      4  N   UNL     1      -1.115  -5.595   0.445  1.00  0.00    -0.353 N 
ATOM      5  C   UNL     1      -0.209  -6.515  -0.016  1.00  0.00     0.260 C 
ATOM      6  O   UNL     1       0.068  -7.449   0.746  1.00  0.00    -0.271 OA
ATOM      7  H   UNL     1      -1.883  -5.948   0.949  1.00  0.00     0.163 HD
BRANCH   5   8
ATOM      8  C   UNL     1       0.336  -6.511  -1.482  1.00  0.00     0.260 C 
ATOM      9  C   UNL     1       1.804  -6.909  -1.677  1.00  0.00     0.064 C 
BRANCH   8  10
ATOM     10  O   UNL     1      -0.177  -5.731  -2.515  1.00  0.00    -0.463 OA
BRANCH  10  11
ATOM     11  C   UNL     1       0.250  -4.497  -2.860  1.00  0.00     0.235 A 
ATOM     12  C   UNL     1       2.365   0.550  -1.312  1.00  0.00     0.067 C 
ATOM     13  C   UNL     1       1.958  -0.853  -1.653  1.00  0.00     0.039 A 
ATOM     14  C   UNL     1       2.405  -1.917  -0.887  1.00  0.00     0.027 A 
ATOM     15  N   UNL     1       1.173  -1.011  -2.722  1.00  0.00    -0.240 NA
ATOM     16  C   UNL     1       1.982  -3.244  -1.146  1.00  0.00    -0.034 A 
ATOM     17  C   UNL     1       0.797  -2.274  -2.975  1.00  0.00     0.147 A 
ATOM     18  C   UNL     1       2.543  -4.263  -0.183  1.00  0.00     0.045 C 
ATOM     19  C   UNL     1       1.091  -3.447  -2.260  1.00  0.00     0.078 A 
ATOM     20  S   UNL     1      -0.198  -2.593  -4.309  1.00  0.00    -0.012 S 
ATOM     21  N   UNL     1      -0.399  -4.182  -3.982  1.00  0.00    -0.153 NA
ENDBRANCH  10  11
ENDBRANCH   8  10
ENDBRANCH   5   8
ENDBRANCH   3   4
ENDBRANCH   2   3
ENDBRANCH   1   2
BRANCH   1  22
ATOM     22  C   UNL     1      -1.835  -1.250   0.962  1.00  0.00     0.116 C 
BRANCH  22  23
ATOM     23  N   UNL     1      -1.797  -0.114   0.053  1.00  0.00    -0.352 N 
ATOM     24  C   UNL     1      -1.186   1.120   0.265  1.00  0.00     0.251 C 
ATOM     25  H   UNL     1      -2.255  -0.231  -0.811  1.00  0.00     0.163 HD
ATOM     26  O   UNL     1      -1.452   2.068  -0.457  1.00  0.00    -0.269 OA
BRANCH  24  27
ATOM     27  C   UNL     1      -0.181   1.272   1.356  1.00  0.00     0.039 A 
ATOM     28  C   UNL     1       0.012   2.486   2.028  1.00  0.00     0.014 A 
ATOM     29  C   UNL     1       0.649   0.194   1.653  1.00  0.00     0.014 A 
ATOM     30  C   UNL     1       0.988   2.571   3.032  1.00  0.00     0.010 A 
ATOM     31  C   UNL     1       1.563   0.246   2.673  1.00  0.00     0.010 A 
ATOM     32  C   UNL     1       1.754   1.441   3.349  1.00  0.00    -0.014 A 
BRANCH  32  33
ATOM     33  C   UNL     1       2.600   1.355   4.534  1.00  0.00     0.031 A 
ATOM     34  C   UNL     1       1.804   1.276   5.793  1.00  0.00     0.074 A 
ATOM     35  C   UNL     1       3.898   0.981   4.479  1.00  0.00     0.049 A 
ATOM     36  N   UNL     1       1.701   2.162   6.727  1.00  0.00    -0.248 NA
ATOM     37  C   UNL     1       0.851   0.157   5.943  1.00  0.00     0.031 C 
ATOM     38  C   UNL     1       4.704   0.656   3.298  1.00  0.00     0.029 A 
ATOM     39  N   UNL     1       4.750   0.690   5.499  1.00  0.00    -0.354 N 
ATOM     40  C   UNL     1       0.869   1.598   7.689  1.00  0.00     0.074 A 
ATOM     41  C   UNL     1       0.178   0.521   7.036  1.00  0.00     0.031 C 
ATOM     42  C   UNL     1       5.836   0.017   3.681  1.00  0.00     0.029 A 
ATOM     43  C   UNL     1       5.907  -0.000   5.134  1.00  0.00     0.049 A 
ATOM     44  H   UNL     1       4.563   0.948   6.431  1.00  0.00     0.167 HD
ATOM     45  C   UNL     1       1.019   1.869   9.015  1.00  0.00     0.034 A 
ATOM     46  C   UNL     1       6.823  -0.565   5.975  1.00  0.00     0.034 A 
ATOM     47  C   UNL     1       1.893   3.000   9.216  1.00  0.00     0.049 A 
ATOM     48  C   UNL     1       6.638   0.105   7.290  1.00  0.00     0.074 A 
ATOM     49  C   UNL     1       1.868   4.321   8.810  1.00  0.00     0.029 A 
ATOM     50  N   UNL     1       3.208   2.738   9.536  1.00  0.00    -0.354 N 
ATOM     51  N   UNL     1       6.838   1.382   7.477  1.00  0.00    -0.248 NA
ATOM     52  C   UNL     1       5.743  -0.529   8.247  1.00  0.00     0.031 C 
ATOM     53  C   UNL     1       3.209   4.605   8.414  1.00  0.00     0.029 A 
ATOM     54  C   UNL     1       3.996   3.485   8.692  1.00  0.00     0.049 A 
ATOM     55  H   UNL     1       3.525   2.128  10.240  1.00  0.00     0.167 HD
ATOM     56  C   UNL     1       5.783   1.797   8.275  1.00  0.00     0.074 A 
ATOM     57  C   UNL     1       5.184   0.561   8.782  1.00  0.00     0.031 C 
ATOM     58  C   UNL     1       5.304   3.076   8.212  1.00  0.00     0.034 A 
BRANCH  45  59
ATOM     59  C   UNL     1       0.660   0.917  10.132  1.00  0.00     0.023 A 
ATOM     60  C   UNL     1       0.680   1.407  11.451  1.00  0.00     0.031 A 
ATOM     61  C   UNL     1       0.534  -0.487  10.000  1.00  0.00     0.131 A 
ATOM     62  C   UNL     1       0.617   0.529  12.548  1.00  0.00     0.055 A 
ATOM     63  C   UNL     1       0.404  -1.349  11.091  1.00  0.00     0.041 A 
ATOM     64  F   UNL     1       0.629  -1.113   8.821  1.00  0.00    -0.206 F 
ATOM     65  C   UNL     1       0.467  -0.846  12.377  1.00  0.00     0.022 A 
BRANCH  62  66
ATOM     66  S   UNL     1       0.859   1.200  14.213  1.00  0.00     0.124 S 
ATOM     67  O   UNL     1       2.182   1.803  14.101  1.00  0.00    -0.237 OA
ATOM     68  O   UNL     1      -0.264   2.124  14.331  1.00  0.00    -0.237 OA
ATOM     69  O   UNL     1       0.783   0.018  15.069  1.00  0.00    -0.744 OA
ENDBRANCH  62  66
ENDBRANCH  45  59
BRANCH  46  70
ATOM     70  C   UNL     1       7.584  -1.849   5.829  1.00  0.00     0.023 A 
ATOM     71  C   UNL     1       8.651  -2.210   6.691  1.00  0.00     0.031 A 
ATOM     72  C   UNL     1       7.083  -2.876   4.999  1.00  0.00     0.131 A 
ATOM     73  C   UNL     1       9.153  -3.538   6.704  1.00  0.00     0.055 A 
ATOM     74  C   UNL     1       7.580  -4.184   5.019  1.00  0.00     0.041 A 
ATOM     75  F   UNL     1       6.024  -2.671   4.200  1.00  0.00    -0.206 F 
ATOM     76  C   UNL     1       8.609  -4.524   5.881  1.00  0.00     0.022 A 
BRANCH  73  77
ATOM     77  S   UNL     1      10.450  -4.046   7.888  1.00  0.00     0.124 S 
ATOM     78  O   UNL     1      11.656  -3.501   7.273  1.00  0.00    -0.237 OA
ATOM     79  O   UNL     1      10.014  -3.419   9.129  1.00  0.00    -0.237 OA
ATOM     80  O   UNL     1      10.363  -5.508   7.879  1.00  0.00    -0.744 OA
ENDBRANCH  73  77
ENDBRANCH  46  70
BRANCH  58  81
ATOM     81  C   UNL     1       6.096   4.107   7.425  1.00  0.00     0.023 A 
ATOM     82  C   UNL     1       6.343   4.060   6.030  1.00  0.00     0.031 A 
ATOM     83  C   UNL     1       6.484   5.268   8.113  1.00  0.00     0.131 A 
ATOM     84  C   UNL     1       6.957   5.156   5.384  1.00  0.00     0.055 A 
ATOM     85  C   UNL     1       7.071   6.356   7.468  1.00  0.00     0.041 A 
ATOM     86  F   UNL     1       6.251   5.384   9.431  1.00  0.00    -0.206 F 
ATOM     87  C   UNL     1       7.311   6.303   6.100  1.00  0.00     0.022 A 
BRANCH  84  88
ATOM     88  S   UNL     1       7.287   5.118   3.588  1.00  0.00     0.124 S 
ATOM     89  O   UNL     1       8.109   3.925   3.423  1.00  0.00    -0.237 OA
ATOM     90  O   UNL     1       5.946   5.054   3.014  1.00  0.00    -0.237 OA
ATOM     91  O   UNL     1       7.991   6.379   3.342  1.00  0.00    -0.744 OA
ENDBRANCH  84  88
ENDBRANCH  58  81
ENDBRANCH  32  33
ENDBRANCH  24  27
ENDBRANCH  22  23
ENDBRANCH   1  22
TORSDOF 16
