REMARK SMILES O=C(NCCCCNC(=O)c1cccc(Cl)c1C(=O)c1ccccc1)c1ccc(-c2c3nc(c(-c4cc(S(=O)(=O)[O-])ccc4F)c4ccc([nH]4)c(-c4cc(S(=O)(=O)[O-])ccc4F)c4nc(c(-c5cc(S(=O)(=O)[O-])ccc5F)c5ccc2[nH]5)C=C4)C=C3)cc1
REMARK SMILES IDX 5 1 4 2 3 3 1 4 2 5 26 7 27 8 88 9 28 10 87 11 29 12 30 13
REMARK SMILES IDX 31 14 81 15 32 16 86 17 80 18 82 19 33 20 85 21 79 22 78 23
REMARK SMILES IDX 34 25 66 26 46 27 65 28 47 29 50 30 64 31 83 32 48 33 49 34
REMARK SMILES IDX 63 36 84 37 51 38 35 39 36 40 44 41 37 42 43 43 45 44 42 45
REMARK SMILES IDX 38 46 39 47 40 48 41 49 67 50 68 51 76 52 69 53 75 54 77 55
REMARK SMILES IDX 74 56 70 57 71 58 72 59 73 60 52 61 53 62 61 63 54 64 60 65
REMARK SMILES IDX 62 66 59 67 55 68 56 69 57 70 58 71 6 72 7 73 8 74 9 75
REMARK SMILES IDX 10 77 11 78 12 79 17 80 13 81 15 82 14 83 16 84 18 85 19 86
REMARK SMILES IDX 20 87 21 88 25 89 22 90 24 91 23 92
REMARK H PARENT 3 6 82 24 50 35 8 76
REMARK Flexibility Score: inf
ROOT
ATOM      1  C   UNL     1       5.050  -0.498   2.342  1.00  0.00     0.023 C 
ENDROOT
BRANCH   1   2
ATOM      2  C   UNL     1       4.643  -0.769   0.897  1.00  0.00     0.116 C 
BRANCH   2   3
ATOM      3  N   UNL     1       3.201  -0.828   0.708  1.00  0.00    -0.352 N 
ATOM      4  O   UNL     1       1.169  -0.201  -0.031  1.00  0.00    -0.269 OA
ATOM      5  C   UNL     1       2.389  -0.077  -0.110  1.00  0.00     0.251 C 
ATOM      6  H   UNL     1       2.736  -1.509   1.247  1.00  0.00     0.163 HD
BRANCH   5   7
ATOM      7  C   UNL     1       2.974   0.891  -1.065  1.00  0.00     0.039 A 
ATOM      8  C   UNL     1       4.054   0.542  -1.881  1.00  0.00     0.014 A 
ATOM      9  C   UNL     1       2.414   2.168  -1.156  1.00  0.00     0.014 A 
ATOM     10  C   UNL     1       4.656   1.506  -2.688  1.00  0.00     0.010 A 
ATOM     11  C   UNL     1       2.975   3.112  -2.021  1.00  0.00     0.010 A 
ATOM     12  C   UNL     1       4.120   2.799  -2.772  1.00  0.00    -0.014 A 
BRANCH  12  13
ATOM     13  C   UNL     1       4.734   3.815  -3.667  1.00  0.00     0.031 A 
ATOM     14  C   UNL     1       5.345   5.064  -3.096  1.00  0.00     0.074 A 
ATOM     15  C   UNL     1       4.708   3.626  -4.999  1.00  0.00     0.049 A 
ATOM     16  N   UNL     1       5.822   6.113  -3.718  1.00  0.00    -0.248 NA
ATOM     17  C   UNL     1       5.415   5.148  -1.632  1.00  0.00     0.031 C 
ATOM     18  C   UNL     1       4.151   2.449  -5.670  1.00  0.00     0.029 A 
ATOM     19  N   UNL     1       5.140   4.423  -6.029  1.00  0.00    -0.354 N 
ATOM     20  C   UNL     1       6.229   6.995  -2.722  1.00  0.00     0.074 A 
ATOM     21  C   UNL     1       5.905   6.367  -1.456  1.00  0.00     0.031 C 
ATOM     22  C   UNL     1       4.276   2.601  -6.996  1.00  0.00     0.029 A 
ATOM     23  C   UNL     1       4.853   3.913  -7.273  1.00  0.00     0.049 A 
ATOM     24  H   UNL     1       5.611   5.277  -5.891  1.00  0.00     0.167 HD
ATOM     25  C   UNL     1       6.820   8.210  -2.854  1.00  0.00     0.034 A 
ATOM     26  C   UNL     1       4.989   4.454  -8.499  1.00  0.00     0.034 A 
ATOM     27  C   UNL     1       7.122   8.819  -4.130  1.00  0.00     0.049 A 
ATOM     28  C   UNL     1       5.578   5.832  -8.629  1.00  0.00     0.074 A 
ATOM     29  C   UNL     1       7.751  10.026  -4.383  1.00  0.00     0.029 A 
ATOM     30  N   UNL     1       6.796   8.278  -5.369  1.00  0.00    -0.354 N 
ATOM     31  N   UNL     1       5.973   6.650  -7.681  1.00  0.00    -0.248 NA
ATOM     32  C   UNL     1       5.746   6.358  -9.989  1.00  0.00     0.031 C 
ATOM     33  C   UNL     1       7.729  10.253  -5.763  1.00  0.00     0.029 A 
ATOM     34  C   UNL     1       7.174   9.145  -6.384  1.00  0.00     0.049 A 
ATOM     35  H   UNL     1       6.361   7.406  -5.506  1.00  0.00     0.167 HD
ATOM     36  C   UNL     1       6.467   7.776  -8.333  1.00  0.00     0.074 A 
ATOM     37  C   UNL     1       6.316   7.533  -9.754  1.00  0.00     0.031 C 
ATOM     38  C   UNL     1       7.011   8.900  -7.800  1.00  0.00     0.034 A 
BRANCH  25  39
ATOM     39  C   UNL     1       7.116   8.980  -1.586  1.00  0.00     0.023 A 
ATOM     40  C   UNL     1       7.975   8.475  -0.593  1.00  0.00     0.031 A 
ATOM     41  C   UNL     1       6.487  10.214  -1.338  1.00  0.00     0.131 A 
ATOM     42  C   UNL     1       8.099   9.144   0.634  1.00  0.00     0.055 A 
ATOM     43  C   UNL     1       6.691  10.923  -0.152  1.00  0.00     0.041 A 
ATOM     44  F   UNL     1       5.641  10.743  -2.236  1.00  0.00    -0.206 F 
ATOM     45  C   UNL     1       7.483  10.378   0.853  1.00  0.00     0.022 A 
BRANCH  42  46
ATOM     46  S   UNL     1       8.915   8.282   2.008  1.00  0.00     0.124 S 
ATOM     47  O   UNL     1       8.158   7.033   2.064  1.00  0.00    -0.237 OA
ATOM     48  O   UNL     1      10.291   8.175   1.539  1.00  0.00    -0.237 OA
ATOM     49  O   UNL     1       8.708   9.176   3.145  1.00  0.00    -0.744 OA
ENDBRANCH  42  46
ENDBRANCH  25  39
BRANCH  26  50
ATOM     50  C   UNL     1       4.504   3.699  -9.688  1.00  0.00     0.023 A 
ATOM     51  C   UNL     1       5.395   3.199 -10.649  1.00  0.00     0.031 A 
ATOM     52  C   UNL     1       3.130   3.446  -9.862  1.00  0.00     0.131 A 
ATOM     53  C   UNL     1       4.899   2.485 -11.752  1.00  0.00     0.055 A 
ATOM     54  C   UNL     1       2.648   2.695 -10.933  1.00  0.00     0.041 A 
ATOM     55  F   UNL     1       2.239   3.897  -8.965  1.00  0.00    -0.206 F 
ATOM     56  C   UNL     1       3.535   2.214 -11.890  1.00  0.00     0.022 A 
BRANCH  53  57
ATOM     57  S   UNL     1       6.063   1.945 -13.033  1.00  0.00     0.124 S 
ATOM     58  O   UNL     1       6.604   3.217 -13.497  1.00  0.00    -0.237 OA
ATOM     59  O   UNL     1       6.977   1.096 -12.276  1.00  0.00    -0.237 OA
ATOM     60  O   UNL     1       5.213   1.240 -13.990  1.00  0.00    -0.744 OA
ENDBRANCH  53  57
ENDBRANCH  26  50
BRANCH  38  61
ATOM     61  C   UNL     1       7.551   9.933  -8.759  1.00  0.00     0.023 A 
ATOM     62  C   UNL     1       6.712  10.712  -9.575  1.00  0.00     0.031 A 
ATOM     63  C   UNL     1       8.938  10.160  -8.827  1.00  0.00     0.131 A 
ATOM     64  C   UNL     1       7.272  11.663 -10.444  1.00  0.00     0.055 A 
ATOM     65  C   UNL     1       9.484  11.143  -9.653  1.00  0.00     0.041 A 
ATOM     66  F   UNL     1       9.785   9.440  -8.075  1.00  0.00    -0.206 F 
ATOM     67  C   UNL     1       8.650  11.897 -10.472  1.00  0.00     0.022 A 
BRANCH  64  68
ATOM     68  S   UNL     1       6.182  12.561 -11.583  1.00  0.00     0.124 S 
ATOM     69  O   UNL     1       5.621  11.477 -12.383  1.00  0.00    -0.237 OA
ATOM     70  O   UNL     1       5.256  13.228 -10.672  1.00  0.00    -0.237 OA
ATOM     71  O   UNL     1       7.093  13.452 -12.299  1.00  0.00    -0.744 OA
ENDBRANCH  64  68
ENDBRANCH  38  61
ENDBRANCH  12  13
ENDBRANCH   5   7
ENDBRANCH   2   3
ENDBRANCH   1   2
BRANCH   1  72
ATOM     72  C   UNL     1       4.595  -1.535   3.368  1.00  0.00     0.023 C 
BRANCH  72  73
ATOM     73  C   UNL     1       4.949  -2.985   3.050  1.00  0.00     0.116 C 
BRANCH  73  74
ATOM     74  N   UNL     1       6.380  -3.250   2.997  1.00  0.00    -0.352 N 
ATOM     75  C   UNL     1       7.110  -4.163   3.726  1.00  0.00     0.252 C 
ATOM     76  H   UNL     1       6.893  -2.706   2.357  1.00  0.00     0.163 HD
ATOM     77  O   UNL     1       8.303  -4.363   3.527  1.00  0.00    -0.269 OA
BRANCH  75  78
ATOM     78  C   UNL     1       6.407  -4.991   4.720  1.00  0.00     0.052 A 
ATOM     79  C   UNL     1       5.548  -5.978   4.205  1.00  0.00     0.015 A 
ATOM     80  C   UNL     1       6.542  -4.783   6.106  1.00  0.00     0.054 A 
ATOM     81  C   UNL     1       4.749  -6.721   5.064  1.00  0.00     0.002 A 
ATOM     82  C   UNL     1       5.687  -5.508   6.954  1.00  0.00     0.053 A 
ATOM     83  C   UNL     1       4.810  -6.475   6.432  1.00  0.00     0.021 A 
ATOM     84  Cl  UNL     1       5.518  -5.205   8.651  1.00  0.00    -0.084 Cl
BRANCH  80  85
ATOM     85  C   UNL     1       7.457  -3.723   6.609  1.00  0.00     0.195 C 
ATOM     86  O   UNL     1       7.474  -2.640   6.029  1.00  0.00    -0.289 OA
BRANCH  85  87
ATOM     87  C   UNL     1       8.274  -3.880   7.847  1.00  0.00     0.023 A 
ATOM     88  C   UNL     1       8.465  -2.737   8.637  1.00  0.00     0.012 A 
ATOM     89  C   UNL     1       8.783  -5.110   8.281  1.00  0.00     0.012 A 
ATOM     90  C   UNL     1       9.085  -2.833   9.883  1.00  0.00     0.001 A 
ATOM     91  C   UNL     1       9.400  -5.203   9.535  1.00  0.00     0.001 A 
ATOM     92  C   UNL     1       9.535  -4.070  10.340  1.00  0.00     0.000 A 
ENDBRANCH  85  87
ENDBRANCH  80  85
ENDBRANCH  75  78
ENDBRANCH  73  74
ENDBRANCH  72  73
ENDBRANCH   1  72
TORSDOF 16
