REMARK SMILES Cc1cc(Cl)c(C)c2c1O[C@H](C(F)(F)F)C(C(=O)NCCCCNC(=O)c1ccc(-c3c4nc(c(-c5cc(S(=O)(=O)[O-])ccc5F)c5ccc([nH]5)c(-c5cc(S(=O)(=O)[O-])ccc5F)c5nc(c(-c6cc(S(=O)(=O)[O-])ccc6F)c6ccc3[nH]6)C=C5)C=C4)cc1)=C2
REMARK SMILES IDX 22 1 21 2 20 3 19 4 17 5 18 6 16 8 1 9 2 10 3 11 9 12 4 13
REMARK SMILES IDX 8 14 10 15 5 16 6 17 90 18 11 19 7 20 12 21 13 22 14 23
REMARK SMILES IDX 15 24 23 25 24 26 25 27 26 29 27 30 28 31 89 32 29 33 88 34
REMARK SMILES IDX 30 35 31 36 32 37 82 38 33 39 87 40 81 41 83 42 34 43 86 44
REMARK SMILES IDX 80 45 79 46 35 48 67 49 47 50 66 51 48 52 51 53 65 54 84 55
REMARK SMILES IDX 49 56 50 57 64 59 85 60 52 61 36 62 37 63 45 64 38 65 44 66
REMARK SMILES IDX 46 67 43 68 39 69 40 70 41 71 42 72 68 73 69 74 77 75 70 76
REMARK SMILES IDX 76 77 78 78 75 79 71 80 72 81 73 82 74 83 53 84 54 85 62 86
REMARK SMILES IDX 55 87 61 88 63 89 60 90 56 91 57 92 58 93 59 94
REMARK H PARENT 19 7 24 28 83 47 51 58
REMARK Flexibility Score: inf
ROOT
ATOM      1  C   UNL     1      -0.955  -5.556   6.632  1.00  0.00     0.023 C 
ENDROOT
BRANCH   1   2
ATOM      2  C   UNL     1      -0.722  -4.620   5.443  1.00  0.00     0.023 C 
BRANCH   2   3
ATOM      3  C   UNL     1      -1.918  -3.735   5.105  1.00  0.00     0.116 C 
BRANCH   3   4
ATOM      4  N   UNL     1      -1.946  -2.530   5.915  1.00  0.00    -0.352 N 
ATOM      5  C   UNL     1      -1.602  -1.231   5.761  1.00  0.00     0.251 C 
ATOM      6  O   UNL     1      -1.785  -0.516   6.752  1.00  0.00    -0.270 OA
ATOM      7  H   UNL     1      -2.311  -2.705   6.812  1.00  0.00     0.163 HD
BRANCH   5   8
ATOM      8  C   UNL     1      -1.042  -0.627   4.515  1.00  0.00     0.067 C 
ATOM      9  C   UNL     1       1.112   0.352  -0.047  1.00  0.00     0.048 C 
ATOM     10  C   UNL     1       0.712   1.172   1.147  1.00  0.00    -0.007 A 
ATOM     11  C   UNL     1       0.907   2.555   1.127  1.00  0.00     0.028 A 
ATOM     12  C   UNL     1       0.191   0.589   2.308  1.00  0.00     0.131 A 
ATOM     13  C   UNL     1       0.571   3.344   2.233  1.00  0.00     0.045 A 
ATOM     14  C   UNL     1      -0.148   1.365   3.430  1.00  0.00     0.022 A 
ATOM     15  O   UNL     1       0.076  -0.776   2.313  1.00  0.00    -0.475 OA
ATOM     16  Cl  UNL     1       0.867   5.043   2.083  1.00  0.00    -0.084 Cl
ATOM     17  C   UNL     1       0.032   2.769   3.400  1.00  0.00    -0.021 A 
ATOM     18  C   UNL     1      -0.653   0.659   4.614  1.00  0.00     0.026 C 
ATOM     19  C   UNL     1      -0.932  -1.332   3.198  1.00  0.00     0.314 C 
ATOM     20  C   UNL     1      -0.338   3.606   4.599  1.00  0.00     0.047 C 
BRANCH  19  21
ATOM     21  C   UNL     1      -2.278  -1.433   2.456  1.00  0.00     0.429 C 
ATOM     22  F   UNL     1      -2.187  -2.314   1.429  1.00  0.00    -0.167 F 
ATOM     23  F   UNL     1      -3.279  -1.874   3.254  1.00  0.00    -0.167 F 
ATOM     24  F   UNL     1      -2.680  -0.250   1.938  1.00  0.00    -0.167 F 
ENDBRANCH  19  21
ENDBRANCH   5   8
ENDBRANCH   3   4
ENDBRANCH   2   3
ENDBRANCH   1   2
BRANCH   1  25
ATOM     25  C   UNL     1      -2.178  -6.465   6.521  1.00  0.00     0.116 C 
BRANCH  25  26
ATOM     26  N   UNL     1      -2.254  -7.196   5.264  1.00  0.00    -0.352 N 
ATOM     27  C   UNL     1      -2.772  -8.451   5.047  1.00  0.00     0.251 C 
ATOM     28  H   UNL     1      -1.891  -6.735   4.473  1.00  0.00     0.163 HD
ATOM     29  O   UNL     1      -2.703  -8.970   3.939  1.00  0.00    -0.269 OA
BRANCH  27  30
ATOM     30  C   UNL     1      -3.364  -9.170   6.189  1.00  0.00     0.039 A 
ATOM     31  C   UNL     1      -2.832 -10.408   6.551  1.00  0.00     0.014 A 
ATOM     32  C   UNL     1      -4.371  -8.569   6.951  1.00  0.00     0.014 A 
ATOM     33  C   UNL     1      -3.261 -11.015   7.731  1.00  0.00     0.010 A 
ATOM     34  C   UNL     1      -4.753  -9.148   8.157  1.00  0.00     0.010 A 
ATOM     35  C   UNL     1      -4.194 -10.370   8.560  1.00  0.00    -0.014 A 
BRANCH  35  36
ATOM     36  C   UNL     1      -4.595 -10.971   9.854  1.00  0.00     0.031 A 
ATOM     37  C   UNL     1      -5.998 -11.471  10.042  1.00  0.00     0.074 A 
ATOM     38  C   UNL     1      -3.705 -11.034  10.863  1.00  0.00     0.049 A 
ATOM     39  N   UNL     1      -6.546 -12.009  11.099  1.00  0.00    -0.248 NA
ATOM     40  C   UNL     1      -6.911 -11.323   8.898  1.00  0.00     0.031 C 
ATOM     41  C   UNL     1      -2.326 -10.541  10.807  1.00  0.00     0.029 A 
ATOM     42  N   UNL     1      -3.821 -11.547  12.130  1.00  0.00    -0.354 N 
ATOM     43  C   UNL     1      -7.867 -12.263  10.750  1.00  0.00     0.074 A 
ATOM     44  C   UNL     1      -8.053 -11.761   9.406  1.00  0.00     0.031 C 
ATOM     45  C   UNL     1      -1.714 -10.815  11.971  1.00  0.00     0.029 A 
ATOM     46  C   UNL     1      -2.662 -11.473  12.865  1.00  0.00     0.049 A 
ATOM     47  H   UNL     1      -4.657 -11.932  12.480  1.00  0.00     0.167 HD
ATOM     48  C   UNL     1      -8.827 -12.887  11.473  1.00  0.00     0.034 A 
ATOM     49  C   UNL     1      -2.393 -11.896  14.116  1.00  0.00     0.034 A 
ATOM     50  C   UNL     1      -8.622 -13.409  12.797  1.00  0.00     0.049 A 
ATOM     51  C   UNL     1      -3.483 -12.562  14.910  1.00  0.00     0.074 A 
ATOM     52  C   UNL     1      -9.505 -14.117  13.592  1.00  0.00     0.029 A 
ATOM     53  N   UNL     1      -7.446 -13.278  13.523  1.00  0.00    -0.354 N 
ATOM     54  N   UNL     1      -4.719 -12.820  14.553  1.00  0.00    -0.248 NA
ATOM     55  C   UNL     1      -3.147 -12.987  16.276  1.00  0.00     0.031 C 
ATOM     56  C   UNL     1      -8.879 -14.375  14.816  1.00  0.00     0.029 A 
ATOM     57  C   UNL     1      -7.590 -13.868  14.767  1.00  0.00     0.049 A 
ATOM     58  H   UNL     1      -6.630 -12.831  13.201  1.00  0.00     0.167 HD
ATOM     59  C   UNL     1      -5.305 -13.449  15.646  1.00  0.00     0.074 A 
ATOM     60  C   UNL     1      -4.288 -13.534  16.674  1.00  0.00     0.031 C 
ATOM     61  C   UNL     1      -6.569 -13.919  15.783  1.00  0.00     0.034 A 
BRANCH  48  62
ATOM     62  C   UNL     1     -10.181 -13.034  10.834  1.00  0.00     0.023 A 
ATOM     63  C   UNL     1     -10.372 -13.864   9.716  1.00  0.00     0.031 A 
ATOM     64  C   UNL     1     -11.286 -12.322  11.329  1.00  0.00     0.131 A 
ATOM     65  C   UNL     1     -11.624 -13.912   9.089  1.00  0.00     0.055 A 
ATOM     66  C   UNL     1     -12.547 -12.426  10.741  1.00  0.00     0.041 A 
ATOM     67  F   UNL     1     -11.153 -11.501  12.383  1.00  0.00    -0.206 F 
ATOM     68  C   UNL     1     -12.719 -13.216   9.607  1.00  0.00     0.022 A 
BRANCH  65  69
ATOM     69  S   UNL     1     -11.777 -14.819   7.527  1.00  0.00     0.124 S 
ATOM     70  O   UNL     1     -10.948 -14.009   6.637  1.00  0.00    -0.237 OA
ATOM     71  O   UNL     1     -11.248 -16.134   7.869  1.00  0.00    -0.237 OA
ATOM     72  O   UNL     1     -13.210 -14.777   7.246  1.00  0.00    -0.744 OA
ENDBRANCH  65  69
ENDBRANCH  48  62
BRANCH  49  73
ATOM     73  C   UNL     1      -1.036 -11.706  14.692  1.00  0.00     0.023 A 
ATOM     74  C   UNL     1      -0.172 -12.798  14.868  1.00  0.00     0.031 A 
ATOM     75  C   UNL     1      -0.583 -10.431  15.072  1.00  0.00     0.131 A 
ATOM     76  C   UNL     1       1.097 -12.598  15.432  1.00  0.00     0.055 A 
ATOM     77  C   UNL     1       0.691 -10.233  15.606  1.00  0.00     0.041 A 
ATOM     78  F   UNL     1      -1.371  -9.356  14.909  1.00  0.00    -0.206 F 
ATOM     79  C   UNL     1       1.538 -11.322  15.793  1.00  0.00     0.022 A 
BRANCH  76  80
ATOM     80  S   UNL     1       2.168 -14.037  15.701  1.00  0.00     0.124 S 
ATOM     81  O   UNL     1       1.417 -14.783  16.703  1.00  0.00    -0.237 OA
ATOM     82  O   UNL     1       2.225 -14.629  14.368  1.00  0.00    -0.237 OA
ATOM     83  O   UNL     1       3.420 -13.446  16.169  1.00  0.00    -0.744 OA
ENDBRANCH  76  80
ENDBRANCH  49  73
BRANCH  61  84
ATOM     84  C   UNL     1      -6.922 -14.574  17.087  1.00  0.00     0.023 A 
ATOM     85  C   UNL     1      -7.195 -13.807  18.231  1.00  0.00     0.031 A 
ATOM     86  C   UNL     1      -7.048 -15.971  17.167  1.00  0.00     0.131 A 
ATOM     87  C   UNL     1      -7.569 -14.448  19.421  1.00  0.00     0.055 A 
ATOM     88  C   UNL     1      -7.453 -16.600  18.343  1.00  0.00     0.041 A 
ATOM     89  F   UNL     1      -6.802 -16.740  16.094  1.00  0.00    -0.206 F 
ATOM     90  C   UNL     1      -7.716 -15.838  19.479  1.00  0.00     0.022 A 
BRANCH  87  91
ATOM     91  S   UNL     1      -7.874 -13.443  20.899  1.00  0.00     0.124 S 
ATOM     92  O   UNL     1      -6.524 -13.018  21.257  1.00  0.00    -0.237 OA
ATOM     93  O   UNL     1      -8.759 -12.396  20.398  1.00  0.00    -0.237 OA
ATOM     94  O   UNL     1      -8.497 -14.383  21.828  1.00  0.00    -0.744 OA
ENDBRANCH  87  91
ENDBRANCH  61  84
ENDBRANCH  35  36
ENDBRANCH  27  30
ENDBRANCH  25  26
ENDBRANCH   1  25
TORSDOF 15
