REMARK SMILES O=C(NCCCCNC(=O)[C@]1(CCc2cccnc2)C[C@H]2CC[C@@H]1O2)c1ccc(-c2c3nc(c(-c4cc(S(=O)(=O)[O-])ccc4F)c4ccc([nH]4)c(-c4cc(S(=O)(=O)[O-])ccc4F)c4nc(c(-c5cc(S(=O)(=O)[O-])ccc5F)c5ccc2[nH]5)C=C4)C=C3)cc1
REMARK SMILES IDX 5 1 4 2 3 3 1 4 2 5 26 7 27 8 88 9 28 10 87 11 29 12 30 13
REMARK SMILES IDX 31 14 81 15 32 16 86 17 80 18 82 19 33 20 85 21 79 22 78 23
REMARK SMILES IDX 34 25 66 26 46 27 65 28 47 29 50 30 64 31 83 32 48 33 49 34
REMARK SMILES IDX 63 36 84 37 51 38 35 39 36 40 44 41 37 42 43 43 45 44 42 45
REMARK SMILES IDX 38 46 39 47 40 48 41 49 67 50 68 51 76 52 69 53 75 54 77 55
REMARK SMILES IDX 74 56 70 57 71 58 72 59 73 60 52 61 53 62 61 63 54 64 60 65
REMARK SMILES IDX 62 66 59 67 55 68 56 69 57 70 58 71 6 72 7 73 8 74 9 75
REMARK SMILES IDX 10 77 11 78 20 79 24 80 21 81 23 82 25 83 22 84 12 85 13 86
REMARK SMILES IDX 14 87 15 88 19 89 16 90 18 91 17 92
REMARK H PARENT 3 6 82 24 50 35 8 76
REMARK Flexibility Score: inf
ROOT
ATOM      1  C   UNL     1       3.705   1.864  -2.205  1.00  0.00     0.023 C 
ENDROOT
BRANCH   1   2
ATOM      2  C   UNL     1       3.739   1.585  -0.714  1.00  0.00     0.116 C 
BRANCH   2   3
ATOM      3  N   UNL     1       2.417   1.260  -0.192  1.00  0.00    -0.352 N 
ATOM      4  O   UNL     1       0.793  -0.019   0.685  1.00  0.00    -0.269 OA
ATOM      5  C   UNL     1       2.001   0.173   0.550  1.00  0.00     0.251 C 
ATOM      6  H   UNL     1       1.714   1.916  -0.401  1.00  0.00     0.163 HD
BRANCH   5   7
ATOM      7  C   UNL     1       2.971  -0.754   1.196  1.00  0.00     0.039 A 
ATOM      8  C   UNL     1       4.208  -0.303   1.655  1.00  0.00     0.014 A 
ATOM      9  C   UNL     1       2.604  -2.088   1.438  1.00  0.00     0.014 A 
ATOM     10  C   UNL     1       5.108  -1.185   2.244  1.00  0.00     0.010 A 
ATOM     11  C   UNL     1       3.466  -2.949   2.137  1.00  0.00     0.010 A 
ATOM     12  C   UNL     1       4.728  -2.501   2.552  1.00  0.00    -0.014 A 
BRANCH  12  13
ATOM     13  C   UNL     1       5.620  -3.304   3.436  1.00  0.00     0.031 A 
ATOM     14  C   UNL     1       6.261  -4.582   2.975  1.00  0.00     0.074 A 
ATOM     15  C   UNL     1       5.890  -2.817   4.667  1.00  0.00     0.049 A 
ATOM     16  N   UNL     1       7.096  -5.360   3.618  1.00  0.00    -0.248 NA
ATOM     17  C   UNL     1       5.914  -5.057   1.629  1.00  0.00     0.031 C 
ATOM     18  C   UNL     1       5.301  -1.597   5.231  1.00  0.00     0.029 A 
ATOM     19  N   UNL     1       6.742  -3.249   5.651  1.00  0.00    -0.354 N 
ATOM     20  C   UNL     1       7.375  -6.419   2.761  1.00  0.00     0.074 A 
ATOM     21  C   UNL     1       6.585  -6.200   1.565  1.00  0.00     0.031 C 
ATOM     22  C   UNL     1       5.861  -1.341   6.420  1.00  0.00     0.029 A 
ATOM     23  C   UNL     1       6.777  -2.423   6.753  1.00  0.00     0.049 A 
ATOM     24  H   UNL     1       7.276  -4.073   5.578  1.00  0.00     0.167 HD
ATOM     25  C   UNL     1       8.217  -7.466   2.954  1.00  0.00     0.034 A 
ATOM     26  C   UNL     1       7.448  -2.530   7.916  1.00  0.00     0.034 A 
ATOM     27  C   UNL     1       8.988  -7.669   4.161  1.00  0.00     0.049 A 
ATOM     28  C   UNL     1       8.353  -3.716   8.109  1.00  0.00     0.074 A 
ATOM     29  C   UNL     1       9.869  -8.695   4.461  1.00  0.00     0.029 A 
ATOM     30  N   UNL     1       8.971  -6.832   5.272  1.00  0.00    -0.354 N 
ATOM     31  N   UNL     1       8.606  -4.703   7.281  1.00  0.00    -0.248 NA
ATOM     32  C   UNL     1       9.066  -3.799   9.388  1.00  0.00     0.031 C 
ATOM     33  C   UNL     1      10.332  -8.514   5.769  1.00  0.00     0.029 A 
ATOM     34  C   UNL     1       9.806  -7.332   6.263  1.00  0.00     0.049 A 
ATOM     35  H   UNL     1       8.442  -6.005   5.346  1.00  0.00     0.167 HD
ATOM     36  C   UNL     1       9.515  -5.523   7.939  1.00  0.00     0.074 A 
ATOM     37  C   UNL     1       9.799  -4.887   9.211  1.00  0.00     0.031 C 
ATOM     38  C   UNL     1      10.059  -6.700   7.537  1.00  0.00     0.034 A 
BRANCH  25  39
ATOM     39  C   UNL     1       8.323  -8.492   1.849  1.00  0.00     0.023 A 
ATOM     40  C   UNL     1       8.844  -8.166   0.585  1.00  0.00     0.031 A 
ATOM     41  C   UNL     1       7.899  -9.817   2.061  1.00  0.00     0.131 A 
ATOM     42  C   UNL     1       8.874  -9.133  -0.434  1.00  0.00     0.055 A 
ATOM     43  C   UNL     1       8.001 -10.793   1.067  1.00  0.00     0.041 A 
ATOM     44  F   UNL     1       7.375 -10.186   3.240  1.00  0.00    -0.206 F 
ATOM     45  C   UNL     1       8.480 -10.450  -0.193  1.00  0.00     0.022 A 
BRANCH  42  46
ATOM     46  S   UNL     1       9.334  -8.609  -2.109  1.00  0.00     0.124 S 
ATOM     47  O   UNL     1       8.294  -7.614  -2.396  1.00  0.00    -0.237 OA
ATOM     48  O   UNL     1      10.673  -8.104  -1.932  1.00  0.00    -0.237 OA
ATOM     49  O   UNL     1       9.220  -9.846  -2.894  1.00  0.00    -0.744 OA
ENDBRANCH  42  46
ENDBRANCH  25  39
BRANCH  26  50
ATOM     50  C   UNL     1       7.248  -1.524   9.001  1.00  0.00     0.023 A 
ATOM     51  C   UNL     1       8.313  -0.754   9.492  1.00  0.00     0.031 A 
ATOM     52  C   UNL     1       5.984  -1.353   9.597  1.00  0.00     0.131 A 
ATOM     53  C   UNL     1       8.106   0.113  10.578  1.00  0.00     0.055 A 
ATOM     54  C   UNL     1       5.769  -0.440  10.629  1.00  0.00     0.041 A 
ATOM     55  F   UNL     1       4.928  -2.064   9.169  1.00  0.00    -0.206 F 
ATOM     56  C   UNL     1       6.839   0.288  11.137  1.00  0.00     0.022 A 
BRANCH  53  57
ATOM     57  S   UNL     1       9.544   0.928  11.325  1.00  0.00     0.124 S 
ATOM     58  O   UNL     1      10.405  -0.208  11.632  1.00  0.00    -0.237 OA
ATOM     59  O   UNL     1       9.993   1.798  10.243  1.00  0.00    -0.237 OA
ATOM     60  O   UNL     1       8.980   1.617  12.484  1.00  0.00    -0.744 OA
ENDBRANCH  53  57
ENDBRANCH  26  50
BRANCH  38  61
ATOM     61  C   UNL     1      11.035  -7.348   8.489  1.00  0.00     0.023 A 
ATOM     62  C   UNL     1      10.630  -7.810   9.755  1.00  0.00     0.031 A 
ATOM     63  C   UNL     1      12.396  -7.451   8.153  1.00  0.00     0.131 A 
ATOM     64  C   UNL     1      11.588  -8.276  10.668  1.00  0.00     0.055 A 
ATOM     65  C   UNL     1      13.333  -7.983   9.039  1.00  0.00     0.041 A 
ATOM     66  F   UNL     1      12.840  -7.021   6.961  1.00  0.00    -0.206 F 
ATOM     67  C   UNL     1      12.934  -8.381  10.312  1.00  0.00     0.022 A 
BRANCH  64  68
ATOM     68  S   UNL     1      11.068  -8.614  12.373  1.00  0.00     0.124 S 
ATOM     69  O   UNL     1      10.497  -7.333  12.775  1.00  0.00    -0.237 OA
ATOM     70  O   UNL     1      10.119  -9.709  12.198  1.00  0.00    -0.237 OA
ATOM     71  O   UNL     1      12.314  -8.977  13.045  1.00  0.00    -0.744 OA
ENDBRANCH  64  68
ENDBRANCH  38  61
ENDBRANCH  12  13
ENDBRANCH   5   7
ENDBRANCH   2   3
ENDBRANCH   1   2
BRANCH   1  72
ATOM     72  C   UNL     1       3.489   3.307  -2.660  1.00  0.00     0.023 C 
BRANCH  72  73
ATOM     73  C   UNL     1       4.535   4.444  -2.434  1.00  0.00     0.116 C 
BRANCH  73  74
ATOM     74  N   UNL     1       5.982   4.332  -2.707  1.00  0.00    -0.356 N 
ATOM     75  C   UNL     1       6.888   4.409  -3.743  1.00  0.00     0.228 C 
ATOM     76  H   UNL     1       6.460   4.136  -1.869  1.00  0.00     0.163 HD
ATOM     77  O   UNL     1       8.075   4.446  -3.398  1.00  0.00    -0.274 OA
BRANCH  75  78
ATOM     78  C   UNL     1       6.518   4.473  -5.227  1.00  0.00     0.078 C 
ATOM     79  C   UNL     1       7.586   4.048  -6.278  1.00  0.00     0.051 C 
ATOM     80  C   UNL     1       6.487   6.013  -5.492  1.00  0.00     0.134 C 
ATOM     81  C   UNL     1       7.818   5.334  -7.069  1.00  0.00     0.120 C 
ATOM     82  C   UNL     1       5.734   6.453  -6.732  1.00  0.00     0.036 C 
ATOM     83  O   UNL     1       7.844   6.276  -5.985  1.00  0.00    -0.374 OA
ATOM     84  C   UNL     1       6.567   5.800  -7.835  1.00  0.00     0.035 C 
BRANCH  78  85
ATOM     85  C   UNL     1       5.301   3.599  -5.479  1.00  0.00     0.024 C 
BRANCH  85  86
ATOM     86  C   UNL     1       5.466   2.037  -5.377  1.00  0.00     0.038 C 
BRANCH  86  87
ATOM     87  C   UNL     1       6.322   1.136  -4.487  1.00  0.00    -0.030 A 
ATOM     88  C   UNL     1       6.941   1.397  -3.263  1.00  0.00     0.007 A 
ATOM     89  C   UNL     1       6.390  -0.212  -4.853  1.00  0.00     0.114 A 
ATOM     90  C   UNL     1       7.532   0.400  -2.479  1.00  0.00     0.020 A 
ATOM     91  N   UNL     1       6.959  -1.213  -4.131  1.00  0.00    -0.264 NA
ATOM     92  C   UNL     1       7.513  -0.888  -2.950  1.00  0.00     0.111 A 
ENDBRANCH  86  87
ENDBRANCH  85  86
ENDBRANCH  78  85
ENDBRANCH  75  78
ENDBRANCH  73  74
ENDBRANCH  72  73
ENDBRANCH   1  72
TORSDOF 17
