REMARK SMILES COc1cc2cc(C(=O)NCCCCNC(=O)c3ccc(-c4c5nc(c(-c6cc(S(=O)(=O)[O-])ccc6F)c6ccc([nH]6)c(-c6cc(S(=O)(=O)[O-])ccc6F)c6nc(c(-c7cc(S(=O)(=O)[O-])ccc7F)c7ccc4[nH]7)C=C6)C=C5)cc3)n(Cc3ccccc3)c2c(OC)c1OC
REMARK SMILES IDX 13 1 12 2 11 3 10 4 8 5 9 6 7 8 3 9 4 10 93 11 5 12 90 13
REMARK SMILES IDX 6 14 89 15 81 16 2 17 1 18 94 19 95 20 91 21 92 22 82 23
REMARK SMILES IDX 83 24 84 25 88 26 85 27 87 28 86 29 14 30 15 31 16 32 17 34
REMARK SMILES IDX 18 35 19 36 80 37 20 38 79 39 21 40 22 41 23 42 73 43 24 44
REMARK SMILES IDX 78 45 72 46 74 47 25 48 77 49 71 50 70 51 26 53 58 54 38 55
REMARK SMILES IDX 57 56 39 57 42 58 56 59 75 60 40 61 41 62 55 64 76 65 43 66
REMARK SMILES IDX 27 67 28 68 36 69 29 70 35 71 37 72 34 73 30 74 31 75 32 76
REMARK SMILES IDX 33 77 59 78 60 79 68 80 61 81 67 82 69 83 66 84 62 85 63 86
REMARK SMILES IDX 64 87 65 88 44 89 45 90 53 91 46 92 52 93 54 94 51 95 47 96
REMARK SMILES IDX 48 97 49 98 50 99
REMARK H PARENT 10 7 15 33 74 52 42 63
REMARK Flexibility Score: inf
ROOT
ATOM      1  C   UNL     1       2.548 -10.443   5.603  1.00  0.00     0.023 C 
ENDROOT
BRANCH   1   2
ATOM      2  C   UNL     1       2.631  -9.096   4.882  1.00  0.00     0.023 C 
BRANCH   2   3
ATOM      3  C   UNL     1       1.645  -8.857   3.736  1.00  0.00     0.116 C 
BRANCH   3   4
ATOM      4  N   UNL     1       0.387  -8.336   4.223  1.00  0.00    -0.351 N 
ATOM      5  C   UNL     1      -0.270  -7.142   4.110  1.00  0.00     0.267 C 
ATOM      6  O   UNL     1      -1.427  -7.173   4.547  1.00  0.00    -0.268 OA
ATOM      7  H   UNL     1      -0.112  -8.993   4.760  1.00  0.00     0.163 HD
BRANCH   5   8
ATOM      8  C   UNL     1       0.252  -5.917   3.506  1.00  0.00     0.108 A 
ATOM      9  C   UNL     1       0.913  -1.689   1.636  1.00  0.00     0.165 A 
ATOM     10  C   UNL     1      -0.136  -2.505   2.104  1.00  0.00     0.061 A 
ATOM     11  C   UNL     1       2.228  -2.174   1.529  1.00  0.00     0.205 A 
ATOM     12  C   UNL     1       0.157  -3.799   2.576  1.00  0.00     0.008 A 
ATOM     13  C   UNL     1       2.506  -3.510   1.908  1.00  0.00     0.189 A 
ATOM     14  C   UNL     1      -0.596  -4.872   3.110  1.00  0.00     0.042 A 
ATOM     15  C   UNL     1       1.469  -4.237   2.545  1.00  0.00     0.096 A 
ATOM     16  N   UNL     1       1.524  -5.378   3.366  1.00  0.00    -0.329 N 
BRANCH   9  17
ATOM     17  O   UNL     1       0.616  -0.362   1.434  1.00  0.00    -0.493 OA
ATOM     18  C   UNL     1       0.034  -0.126   0.154  1.00  0.00     0.278 C 
ENDBRANCH   9  17
BRANCH  11  19
ATOM     19  O   UNL     1       3.325  -1.433   1.181  1.00  0.00    -0.490 OA
ATOM     20  C   UNL     1       3.204  -0.238   0.439  1.00  0.00     0.278 C 
ENDBRANCH  11  19
BRANCH  13  21
ATOM     21  O   UNL     1       3.669  -4.204   1.720  1.00  0.00    -0.491 OA
ATOM     22  C   UNL     1       4.856  -3.537   1.329  1.00  0.00     0.278 C 
ENDBRANCH  13  21
BRANCH  16  23
ATOM     23  C   UNL     1       2.795  -5.733   4.004  1.00  0.00     0.158 C 
BRANCH  23  24
ATOM     24  C   UNL     1       2.901  -5.902   5.499  1.00  0.00    -0.028 A 
ATOM     25  C   UNL     1       1.843  -5.942   6.411  1.00  0.00     0.005 A 
ATOM     26  C   UNL     1       4.208  -6.137   5.983  1.00  0.00     0.005 A 
ATOM     27  C   UNL     1       2.073  -6.336   7.735  1.00  0.00     0.000 A 
ATOM     28  C   UNL     1       4.438  -6.500   7.307  1.00  0.00     0.000 A 
ATOM     29  C   UNL     1       3.363  -6.630   8.176  1.00  0.00     0.000 A 
ENDBRANCH  23  24
ENDBRANCH  16  23
ENDBRANCH   5   8
ENDBRANCH   3   4
ENDBRANCH   2   3
ENDBRANCH   1   2
BRANCH   1  30
ATOM     30  C   UNL     1       2.902 -11.643   4.731  1.00  0.00     0.116 C 
BRANCH  30  31
ATOM     31  N   UNL     1       4.187 -11.499   4.083  1.00  0.00    -0.352 N 
ATOM     32  C   UNL     1       5.475 -11.809   4.414  1.00  0.00     0.251 C 
ATOM     33  H   UNL     1       4.117 -11.079   3.195  1.00  0.00     0.163 HD
ATOM     34  O   UNL     1       6.315 -11.569   3.542  1.00  0.00    -0.269 OA
BRANCH  32  35
ATOM     35  C   UNL     1       5.928 -12.350   5.724  1.00  0.00     0.039 A 
ATOM     36  C   UNL     1       5.128 -12.536   6.853  1.00  0.00     0.014 A 
ATOM     37  C   UNL     1       7.308 -12.617   5.825  1.00  0.00     0.014 A 
ATOM     38  C   UNL     1       5.703 -12.880   8.072  1.00  0.00     0.010 A 
ATOM     39  C   UNL     1       7.885 -12.976   7.034  1.00  0.00     0.010 A 
ATOM     40  C   UNL     1       7.085 -13.052   8.168  1.00  0.00    -0.014 A 
BRANCH  40  41
ATOM     41  C   UNL     1       7.643 -13.416   9.465  1.00  0.00     0.031 A 
ATOM     42  C   UNL     1       7.175 -14.737   9.977  1.00  0.00     0.074 A 
ATOM     43  C   UNL     1       8.587 -12.679  10.082  1.00  0.00     0.049 A 
ATOM     44  N   UNL     1       6.464 -14.984  11.030  1.00  0.00    -0.248 NA
ATOM     45  C   UNL     1       7.383 -15.910   9.113  1.00  0.00     0.031 C 
ATOM     46  C   UNL     1       9.333 -11.536   9.546  1.00  0.00     0.029 A 
ATOM     47  N   UNL     1       9.166 -12.865  11.299  1.00  0.00    -0.354 N 
ATOM     48  C   UNL     1       6.311 -16.372  11.073  1.00  0.00     0.074 A 
ATOM     49  C   UNL     1       6.734 -16.859   9.786  1.00  0.00     0.031 C 
ATOM     50  C   UNL     1      10.422 -11.311  10.317  1.00  0.00     0.029 A 
ATOM     51  C   UNL     1      10.365 -12.187  11.474  1.00  0.00     0.049 A 
ATOM     52  H   UNL     1       8.768 -13.433  11.998  1.00  0.00     0.167 HD
ATOM     53  C   UNL     1       6.052 -17.032  12.239  1.00  0.00     0.034 A 
ATOM     54  C   UNL     1      11.284 -12.400  12.452  1.00  0.00     0.034 A 
ATOM     55  C   UNL     1       5.610 -16.122  13.260  1.00  0.00     0.049 A 
ATOM     56  C   UNL     1      10.623 -13.159  13.543  1.00  0.00     0.074 A 
ATOM     57  C   UNL     1       4.507 -15.314  13.440  1.00  0.00     0.029 A 
ATOM     58  N   UNL     1       6.550 -15.684  14.161  1.00  0.00    -0.354 N 
ATOM     59  N   UNL     1       9.700 -12.664  14.317  1.00  0.00    -0.248 NA
ATOM     60  C   UNL     1      10.657 -14.612  13.457  1.00  0.00     0.031 C 
ATOM     61  C   UNL     1       5.004 -14.152  14.095  1.00  0.00     0.029 A 
ATOM     62  C   UNL     1       6.367 -14.338  14.337  1.00  0.00     0.049 A 
ATOM     63  H   UNL     1       7.234 -16.238  14.601  1.00  0.00     0.167 HD
ATOM     64  C   UNL     1       8.765 -13.681  14.434  1.00  0.00     0.074 A 
ATOM     65  C   UNL     1       9.450 -14.884  13.959  1.00  0.00     0.031 C 
ATOM     66  C   UNL     1       7.440 -13.407  14.622  1.00  0.00     0.034 A 
BRANCH  53  67
ATOM     67  C   UNL     1       6.556 -18.425  12.560  1.00  0.00     0.023 A 
ATOM     68  C   UNL     1       7.468 -19.125  11.749  1.00  0.00     0.031 A 
ATOM     69  C   UNL     1       6.320 -18.986  13.834  1.00  0.00     0.131 A 
ATOM     70  C   UNL     1       8.114 -20.287  12.196  1.00  0.00     0.055 A 
ATOM     71  C   UNL     1       7.012 -20.109  14.306  1.00  0.00     0.041 A 
ATOM     72  F   UNL     1       5.455 -18.421  14.692  1.00  0.00    -0.206 F 
ATOM     73  C   UNL     1       7.923 -20.762  13.487  1.00  0.00     0.022 A 
BRANCH  70  74
ATOM     74  S   UNL     1       9.245 -21.183  11.095  1.00  0.00     0.124 S 
ATOM     75  O   UNL     1      10.500 -21.124  11.845  1.00  0.00    -0.237 OA
ATOM     76  O   UNL     1       8.611 -22.500  11.034  1.00  0.00    -0.237 OA
ATOM     77  O   UNL     1       9.203 -20.418   9.860  1.00  0.00    -0.744 OA
ENDBRANCH  70  74
ENDBRANCH  53  67
BRANCH  54  78
ATOM     78  C   UNL     1      12.754 -12.465  12.258  1.00  0.00     0.023 A 
ATOM     79  C   UNL     1      13.270 -12.869  11.012  1.00  0.00     0.031 A 
ATOM     80  C   UNL     1      13.638 -12.459  13.351  1.00  0.00     0.131 A 
ATOM     81  C   UNL     1      14.597 -13.301  10.895  1.00  0.00     0.055 A 
ATOM     82  C   UNL     1      14.972 -12.871  13.227  1.00  0.00     0.041 A 
ATOM     83  F   UNL     1      13.204 -12.124  14.576  1.00  0.00    -0.206 F 
ATOM     84  C   UNL     1      15.453 -13.310  11.997  1.00  0.00     0.022 A 
BRANCH  81  85
ATOM     85  S   UNL     1      15.205 -13.960   9.318  1.00  0.00     0.124 S 
ATOM     86  O   UNL     1      16.475 -13.256   9.158  1.00  0.00    -0.237 OA
ATOM     87  O   UNL     1      15.308 -15.385   9.613  1.00  0.00    -0.237 OA
ATOM     88  O   UNL     1      14.165 -13.581   8.366  1.00  0.00    -0.744 OA
ENDBRANCH  81  85
ENDBRANCH  54  78
BRANCH  66  89
ATOM     89  C   UNL     1       7.027 -11.981  14.917  1.00  0.00     0.023 A 
ATOM     90  C   UNL     1       6.151 -11.775  15.995  1.00  0.00     0.031 A 
ATOM     91  C   UNL     1       7.281 -10.883  14.071  1.00  0.00     0.131 A 
ATOM     92  C   UNL     1       5.537 -10.531  16.182  1.00  0.00     0.055 A 
ATOM     93  C   UNL     1       6.721  -9.622  14.302  1.00  0.00     0.041 A 
ATOM     94  F   UNL     1       8.004 -11.012  12.952  1.00  0.00    -0.206 F 
ATOM     95  C   UNL     1       5.831  -9.445  15.354  1.00  0.00     0.022 A 
BRANCH  92  96
ATOM     96  S   UNL     1       4.218 -10.345  17.408  1.00  0.00     0.124 S 
ATOM     97  O   UNL     1       4.816  -9.417  18.364  1.00  0.00    -0.237 OA
ATOM     98  O   UNL     1       3.124  -9.800  16.606  1.00  0.00    -0.237 OA
ATOM     99  O   UNL     1       4.001 -11.701  17.903  1.00  0.00    -0.744 OA
ENDBRANCH  92  96
ENDBRANCH  66  89
ENDBRANCH  40  41
ENDBRANCH  32  35
ENDBRANCH  30  31
ENDBRANCH   1  30
TORSDOF 19
