REMARK SMILES C[C@H]1[C@H](C(=O)NCCCCNC(=O)c2ccc(-c3c4nc(c(-c5cc(S(=O)(=O)[O-])ccc5F)c5ccc([nH]5)c(-c5cc(S(=O)(=O)[O-])ccc5F)c5nc(c(-c6cc(S(=O)(=O)[O-])ccc6F)c6ccc3[nH]6)C=C5)C=C4)cc2)CC[N@@H+]1[C@@H](c1ccccc1)c1ccco1
REMARK SMILES IDX 9 1 8 2 7 3 6 4 4 5 5 6 3 8 1 9 2 10 79 11 77 12 78 13 80 15
REMARK SMILES IDX 81 16 82 17 86 18 83 19 85 20 84 21 87 22 88 23 91 24 89 25
REMARK SMILES IDX 90 26 10 27 11 28 12 29 13 31 14 32 15 33 76 34 16 35 75 36
REMARK SMILES IDX 17 37 18 38 19 39 69 40 20 41 74 42 68 43 70 44 21 45 73 46
REMARK SMILES IDX 67 47 66 48 22 50 54 51 34 52 53 53 35 54 38 55 52 56 71 57
REMARK SMILES IDX 36 58 37 59 51 61 72 62 39 63 23 64 24 65 32 66 25 67 31 68
REMARK SMILES IDX 33 69 30 70 26 71 27 72 28 73 29 74 55 75 56 76 64 77 57 78
REMARK SMILES IDX 63 79 65 80 62 81 58 82 59 83 60 84 61 85 40 86 41 87 49 88
REMARK SMILES IDX 42 89 48 90 50 91 47 92 43 93 44 94 45 95 46 96
REMARK H PARENT 6 7 79 14 11 30 70 49 38 60
REMARK Flexibility Score: inf
ROOT
ATOM      1  C   UNL     1       0.500   1.490   5.593  1.00  0.00     0.023 C 
ENDROOT
BRANCH   1   2
ATOM      2  C   UNL     1       0.572   0.837   4.206  1.00  0.00     0.023 C 
BRANCH   2   3
ATOM      3  C   UNL     1      -0.403   1.402   3.168  1.00  0.00     0.116 C 
BRANCH   3   4
ATOM      4  N   UNL     1       0.212   2.408   2.325  1.00  0.00    -0.356 N 
ATOM      5  C   UNL     1       0.481   2.434   0.995  1.00  0.00     0.229 C 
ATOM      6  O   UNL     1       0.960   3.489   0.559  1.00  0.00    -0.275 OA
ATOM      7  H   UNL     1       0.486   3.222   2.806  1.00  0.00     0.163 HD
BRANCH   5   8
ATOM      8  C   UNL     1       0.195   1.298   0.011  1.00  0.00     0.142 C 
ATOM      9  C   UNL     1       2.012  -0.402  -0.330  1.00  0.00     0.076 C 
ATOM     10  C   UNL     1       0.674  -0.118   0.365  1.00  0.00     0.194 C 
ATOM     11  N   UNL     1      -0.344  -1.062  -0.165  1.00  0.00    -0.319 N 
ATOM     12  C   UNL     1      -1.262   1.125  -0.377  1.00  0.00     0.081 C 
ATOM     13  C   UNL     1      -1.287  -0.286  -0.961  1.00  0.00     0.264 C 
ATOM     14  H   UNL     1       0.083  -1.742  -0.794  1.00  0.00     0.349 HD
BRANCH  11  15
ATOM     15  C   UNL     1      -0.878  -2.034   0.821  1.00  0.00     0.283 C 
BRANCH  15  16
ATOM     16  C   UNL     1      -1.836  -1.576   1.929  1.00  0.00     0.017 A 
ATOM     17  C   UNL     1      -1.644  -2.104   3.219  1.00  0.00     0.010 A 
ATOM     18  C   UNL     1      -2.999  -0.818   1.714  1.00  0.00     0.010 A 
ATOM     19  C   UNL     1      -2.551  -1.841   4.244  1.00  0.00     0.001 A 
ATOM     20  C   UNL     1      -3.859  -0.482   2.763  1.00  0.00     0.001 A 
ATOM     21  C   UNL     1      -3.630  -0.990   4.033  1.00  0.00     0.000 A 
ENDBRANCH  15  16
BRANCH  15  22
ATOM     22  C   UNL     1      -1.356  -3.347   0.233  1.00  0.00     0.165 A 
ATOM     23  C   UNL     1      -0.683  -4.464  -0.229  1.00  0.00     0.052 A 
ATOM     24  O   UNL     1      -2.683  -3.655   0.382  1.00  0.00    -0.463 OA
ATOM     25  C   UNL     1      -1.626  -5.524  -0.248  1.00  0.00     0.042 A 
ATOM     26  C   UNL     1      -2.825  -4.979   0.141  1.00  0.00     0.195 A 
ENDBRANCH  15  22
ENDBRANCH  11  15
ENDBRANCH   5   8
ENDBRANCH   3   4
ENDBRANCH   2   3
ENDBRANCH   1   2
BRANCH   1  27
ATOM     27  C   UNL     1      -0.816   1.317   6.355  1.00  0.00     0.116 C 
BRANCH  27  28
ATOM     28  N   UNL     1      -1.184  -0.071   6.585  1.00  0.00    -0.352 N 
ATOM     29  C   UNL     1      -1.932  -0.638   7.596  1.00  0.00     0.251 C 
ATOM     30  H   UNL     1      -0.847  -0.707   5.912  1.00  0.00     0.163 HD
ATOM     31  O   UNL     1      -2.142  -1.842   7.607  1.00  0.00    -0.269 OA
BRANCH  29  32
ATOM     32  C   UNL     1      -2.400   0.202   8.716  1.00  0.00     0.039 A 
ATOM     33  C   UNL     1      -2.152  -0.253  10.015  1.00  0.00     0.014 A 
ATOM     34  C   UNL     1      -2.967   1.457   8.499  1.00  0.00     0.014 A 
ATOM     35  C   UNL     1      -2.332   0.613  11.090  1.00  0.00     0.010 A 
ATOM     36  C   UNL     1      -3.069   2.346   9.561  1.00  0.00     0.010 A 
ATOM     37  C   UNL     1      -2.711   1.942  10.856  1.00  0.00    -0.014 A 
BRANCH  37  38
ATOM     38  C   UNL     1      -2.655   2.950  11.941  1.00  0.00     0.031 A 
ATOM     39  C   UNL     1      -3.910   3.635  12.392  1.00  0.00     0.074 A 
ATOM     40  C   UNL     1      -1.450   3.304  12.431  1.00  0.00     0.049 A 
ATOM     41  N   UNL     1      -4.058   4.604  13.254  1.00  0.00    -0.248 NA
ATOM     42  C   UNL     1      -5.159   3.197  11.752  1.00  0.00     0.031 C 
ATOM     43  C   UNL     1      -0.165   2.741  11.998  1.00  0.00     0.029 A 
ATOM     44  N   UNL     1      -1.098   4.221  13.387  1.00  0.00    -0.354 N 
ATOM     45  C   UNL     1      -5.415   4.906  13.251  1.00  0.00     0.074 A 
ATOM     46  C   UNL     1      -6.030   4.061  12.250  1.00  0.00     0.031 C 
ATOM     47  C   UNL     1       0.826   3.302  12.709  1.00  0.00     0.029 A 
ATOM     48  C   UNL     1       0.258   4.292  13.615  1.00  0.00     0.049 A 
ATOM     49  H   UNL     1      -1.754   4.777  13.866  1.00  0.00     0.167 HD
ATOM     50  C   UNL     1      -6.083   5.791  14.032  1.00  0.00     0.034 A 
ATOM     51  C   UNL     1       0.960   5.072  14.460  1.00  0.00     0.034 A 
ATOM     52  C   UNL     1      -5.433   6.613  15.024  1.00  0.00     0.049 A 
ATOM     53  C   UNL     1       0.194   6.032  15.333  1.00  0.00     0.074 A 
ATOM     54  C   UNL     1      -5.996   7.516  15.907  1.00  0.00     0.029 A 
ATOM     55  N   UNL     1      -4.062   6.630  15.260  1.00  0.00    -0.354 N 
ATOM     56  N   UNL     1      -1.100   6.264  15.364  1.00  0.00    -0.248 NA
ATOM     57  C   UNL     1       0.973   6.820  16.293  1.00  0.00     0.031 C 
ATOM     58  C   UNL     1      -4.963   8.116  16.637  1.00  0.00     0.029 A 
ATOM     59  C   UNL     1      -3.760   7.541  16.260  1.00  0.00     0.049 A 
ATOM     60  H   UNL     1      -3.401   6.075  14.786  1.00  0.00     0.167 HD
ATOM     61  C   UNL     1      -1.291   7.209  16.365  1.00  0.00     0.074 A 
ATOM     62  C   UNL     1       0.018   7.485  16.926  1.00  0.00     0.031 C 
ATOM     63  C   UNL     1      -2.439   7.798  16.787  1.00  0.00     0.034 A 
BRANCH  50  64
ATOM     64  C   UNL     1      -7.573   5.918  13.812  1.00  0.00     0.023 A 
ATOM     65  C   UNL     1      -8.438   4.823  13.995  1.00  0.00     0.031 A 
ATOM     66  C   UNL     1      -8.131   7.123  13.352  1.00  0.00     0.131 A 
ATOM     67  C   UNL     1      -9.788   4.925  13.627  1.00  0.00     0.055 A 
ATOM     68  C   UNL     1      -9.495   7.244  13.073  1.00  0.00     0.041 A 
ATOM     69  F   UNL     1      -7.357   8.198  13.138  1.00  0.00    -0.206 F 
ATOM     70  C   UNL     1     -10.329   6.136  13.191  1.00  0.00     0.022 A 
BRANCH  67  71
ATOM     71  S   UNL     1     -10.785   3.410  13.570  1.00  0.00     0.124 S 
ATOM     72  O   UNL     1     -10.057   2.618  12.582  1.00  0.00    -0.237 OA
ATOM     73  O   UNL     1     -10.716   2.934  14.947  1.00  0.00    -0.237 OA
ATOM     74  O   UNL     1     -12.099   3.880  13.136  1.00  0.00    -0.744 OA
ENDBRANCH  67  71
ENDBRANCH  50  64
BRANCH  51  75
ATOM     75  C   UNL     1       2.446   4.971  14.534  1.00  0.00     0.023 A 
ATOM     76  C   UNL     1       3.083   4.514  15.699  1.00  0.00     0.031 A 
ATOM     77  C   UNL     1       3.257   5.345  13.447  1.00  0.00     0.131 A 
ATOM     78  C   UNL     1       4.485   4.481  15.767  1.00  0.00     0.055 A 
ATOM     79  C   UNL     1       4.651   5.266  13.502  1.00  0.00     0.041 A 
ATOM     80  F   UNL     1       2.703   5.778  12.303  1.00  0.00    -0.206 F 
ATOM     81  C   UNL     1       5.273   4.843  14.673  1.00  0.00     0.022 A 
BRANCH  78  82
ATOM     82  S   UNL     1       5.269   4.026  17.339  1.00  0.00     0.124 S 
ATOM     83  O   UNL     1       4.690   5.002  18.255  1.00  0.00    -0.237 OA
ATOM     84  O   UNL     1       4.827   2.646  17.508  1.00  0.00    -0.237 OA
ATOM     85  O   UNL     1       6.695   4.193  17.069  1.00  0.00    -0.744 OA
ENDBRANCH  78  82
ENDBRANCH  51  75
BRANCH  63  86
ATOM     86  C   UNL     1      -2.315   8.769  17.932  1.00  0.00     0.023 A 
ATOM     87  C   UNL     1      -1.656  10.001  17.782  1.00  0.00     0.031 A 
ATOM     88  C   UNL     1      -2.851   8.449  19.192  1.00  0.00     0.131 A 
ATOM     89  C   UNL     1      -1.498  10.845  18.890  1.00  0.00     0.055 A 
ATOM     90  C   UNL     1      -2.744   9.320  20.275  1.00  0.00     0.041 A 
ATOM     91  F   UNL     1      -3.488   7.283  19.386  1.00  0.00    -0.206 F 
ATOM     92  C   UNL     1      -2.053  10.520  20.131  1.00  0.00     0.022 A 
BRANCH  89  93
ATOM     93  S   UNL     1      -0.479  12.333  18.709  1.00  0.00     0.124 S 
ATOM     94  O   UNL     1       0.809  11.772  18.314  1.00  0.00    -0.237 OA
ATOM     95  O   UNL     1      -1.194  13.077  17.676  1.00  0.00    -0.237 OA
ATOM     96  O   UNL     1      -0.512  12.935  20.040  1.00  0.00    -0.744 OA
ENDBRANCH  89  93
ENDBRANCH  63  86
ENDBRANCH  37  38
ENDBRANCH  29  32
ENDBRANCH  27  28
ENDBRANCH   1  27
TORSDOF 17
