REMARK SMILES C[C@H](C(=O)NCCCCNC(=O)c1ccc(-c2c3nc(c(-c4cc(S(=O)(=O)[O-])ccc4F)c4ccc([nH]4)c(-c4cc(S(=O)(=O)[O-])ccc4F)c4nc(c(-c5cc(S(=O)(=O)[O-])ccc5F)c5ccc2[nH]5)C=C4)C=C3)cc1)c1ccc(-c2ccccc2)c(F)c1
REMARK SMILES IDX 8 1 7 2 6 3 5 4 3 5 4 6 2 8 1 9 76 10 77 11 88 12 78 13
REMARK SMILES IDX 86 14 79 15 87 16 80 17 81 18 85 19 82 20 84 21 83 22 9 23
REMARK SMILES IDX 10 24 11 25 12 27 13 28 14 29 75 30 15 31 74 32 16 33 17 34
REMARK SMILES IDX 18 35 68 36 19 37 73 38 67 39 69 40 20 41 72 42 66 43 65 44
REMARK SMILES IDX 21 46 53 47 33 48 52 49 34 50 37 51 51 52 70 53 35 54 36 55
REMARK SMILES IDX 50 57 71 58 38 59 22 60 23 61 31 62 24 63 30 64 32 65 29 66
REMARK SMILES IDX 25 67 26 68 27 69 28 70 54 71 55 72 63 73 56 74 62 75 64 76
REMARK SMILES IDX 61 77 57 78 58 79 59 80 60 81 39 82 40 83 48 84 41 85 47 86
REMARK SMILES IDX 49 87 46 88 42 89 43 90 44 91 45 92
REMARK H PARENT 5 7 10 26 69 45 37 56
REMARK Flexibility Score: inf
ROOT
ATOM      1  C   UNL     1      -1.265  -3.220  -2.277  1.00  0.00     0.023 C 
ENDROOT
BRANCH   1   2
ATOM      2  C   UNL     1      -1.697  -1.753  -2.289  1.00  0.00     0.023 C 
BRANCH   2   3
ATOM      3  C   UNL     1      -1.295  -0.915  -1.077  1.00  0.00     0.116 C 
BRANCH   3   4
ATOM      4  N   UNL     1       0.123  -0.918  -0.767  1.00  0.00    -0.356 N 
ATOM      5  C   UNL     1       0.845  -0.114   0.066  1.00  0.00     0.227 C 
ATOM      6  O   UNL     1       1.982  -0.510   0.355  1.00  0.00    -0.274 OA
ATOM      7  H   UNL     1       0.647  -1.610  -1.231  1.00  0.00     0.163 HD
BRANCH   5   8
ATOM      8  C   UNL     1       0.400   1.282   0.540  1.00  0.00     0.105 C 
ATOM      9  C   UNL     1       0.998   2.285  -0.460  1.00  0.00     0.023 C 
BRANCH   8  10
ATOM     10  C   UNL     1      -1.077   1.479   0.848  1.00  0.00    -0.033 A 
ATOM     11  C   UNL     1      -1.823   2.540   0.321  1.00  0.00     0.005 A 
ATOM     12  C   UNL     1      -1.754   0.560   1.659  1.00  0.00     0.044 A 
ATOM     13  C   UNL     1      -3.216   2.582   0.460  1.00  0.00     0.012 A 
ATOM     14  C   UNL     1      -3.151   0.580   1.747  1.00  0.00     0.131 A 
ATOM     15  C   UNL     1      -3.929   1.558   1.106  1.00  0.00     0.017 A 
ATOM     16  F   UNL     1      -3.726  -0.441   2.401  1.00  0.00    -0.206 F 
BRANCH  15  17
ATOM     17  C   UNL     1      -5.414   1.502   1.032  1.00  0.00    -0.015 A 
ATOM     18  C   UNL     1      -6.103   2.030  -0.082  1.00  0.00     0.009 A 
ATOM     19  C   UNL     1      -6.199   0.888   2.022  1.00  0.00     0.009 A 
ATOM     20  C   UNL     1      -7.495   1.958  -0.196  1.00  0.00     0.001 A 
ATOM     21  C   UNL     1      -7.591   0.797   1.904  1.00  0.00     0.001 A 
ATOM     22  C   UNL     1      -8.239   1.336   0.798  1.00  0.00     0.000 A 
ENDBRANCH  15  17
ENDBRANCH   8  10
ENDBRANCH   5   8
ENDBRANCH   3   4
ENDBRANCH   2   3
ENDBRANCH   1   2
BRANCH   1  23
ATOM     23  C   UNL     1      -1.587  -4.009  -1.010  1.00  0.00     0.116 C 
BRANCH  23  24
ATOM     24  N   UNL     1      -3.013  -4.211  -0.795  1.00  0.00    -0.352 N 
ATOM     25  C   UNL     1      -3.768  -5.362  -0.879  1.00  0.00     0.251 C 
ATOM     26  H   UNL     1      -3.517  -3.401  -0.553  1.00  0.00     0.163 HD
ATOM     27  O   UNL     1      -4.990  -5.299  -0.776  1.00  0.00    -0.269 OA
BRANCH  25  28
ATOM     28  C   UNL     1      -3.114  -6.663  -1.141  1.00  0.00     0.039 A 
ATOM     29  C   UNL     1      -3.615  -7.486  -2.155  1.00  0.00     0.014 A 
ATOM     30  C   UNL     1      -1.989  -7.058  -0.415  1.00  0.00     0.014 A 
ATOM     31  C   UNL     1      -2.917  -8.642  -2.521  1.00  0.00     0.010 A 
ATOM     32  C   UNL     1      -1.251  -8.160  -0.836  1.00  0.00     0.010 A 
ATOM     33  C   UNL     1      -1.694  -8.954  -1.907  1.00  0.00    -0.014 A 
BRANCH  33  34
ATOM     34  C   UNL     1      -0.833 -10.078  -2.369  1.00  0.00     0.031 A 
ATOM     35  C   UNL     1      -0.468 -11.180  -1.415  1.00  0.00     0.074 A 
ATOM     36  C   UNL     1      -0.267 -10.032  -3.592  1.00  0.00     0.049 A 
ATOM     37  N   UNL     1       0.439 -12.116  -1.531  1.00  0.00    -0.248 NA
ATOM     38  C   UNL     1      -1.192 -11.195  -0.137  1.00  0.00     0.031 C 
ATOM     39  C   UNL     1      -0.503  -8.994  -4.598  1.00  0.00     0.029 A 
ATOM     40  N   UNL     1       0.655 -10.862  -4.184  1.00  0.00    -0.354 N 
ATOM     41  C   UNL     1       0.426 -12.806  -0.324  1.00  0.00     0.074 A 
ATOM     42  C   UNL     1      -0.545 -12.142   0.523  1.00  0.00     0.031 C 
ATOM     43  C   UNL     1       0.256  -9.245  -5.676  1.00  0.00     0.029 A 
ATOM     44  C   UNL     1       1.072 -10.428  -5.421  1.00  0.00     0.049 A 
ATOM     45  H   UNL     1       0.986 -11.688  -3.762  1.00  0.00     0.167 HD
ATOM     46  C   UNL     1       1.146 -13.898   0.040  1.00  0.00     0.034 A 
ATOM     47  C   UNL     1       2.027 -10.903  -6.245  1.00  0.00     0.034 A 
ATOM     48  C   UNL     1       2.092 -14.558  -0.828  1.00  0.00     0.049 A 
ATOM     49  C   UNL     1       2.814 -12.118  -5.832  1.00  0.00     0.074 A 
ATOM     50  C   UNL     1       2.821 -15.711  -0.595  1.00  0.00     0.029 A 
ATOM     51  N   UNL     1       2.449 -14.117  -2.098  1.00  0.00    -0.354 N 
ATOM     52  N   UNL     1       2.764 -12.788  -4.705  1.00  0.00    -0.248 NA
ATOM     53  C   UNL     1       3.779 -12.646  -6.806  1.00  0.00     0.031 C 
ATOM     54  C   UNL     1       3.660 -15.933  -1.693  1.00  0.00     0.029 A 
ATOM     55  C   UNL     1       3.405 -14.959  -2.646  1.00  0.00     0.049 A 
ATOM     56  H   UNL     1       2.077 -13.321  -2.543  1.00  0.00     0.167 HD
ATOM     57  C   UNL     1       3.672 -13.834  -4.844  1.00  0.00     0.074 A 
ATOM     58  C   UNL     1       4.253 -13.707  -6.165  1.00  0.00     0.031 C 
ATOM     59  C   UNL     1       3.985 -14.817  -3.962  1.00  0.00     0.034 A 
BRANCH  46  60
ATOM     60  C   UNL     1       0.956 -14.410   1.449  1.00  0.00     0.023 A 
ATOM     61  C   UNL     1      -0.298 -14.846   1.914  1.00  0.00     0.031 A 
ATOM     62  C   UNL     1       2.024 -14.396   2.364  1.00  0.00     0.131 A 
ATOM     63  C   UNL     1      -0.480 -15.135   3.275  1.00  0.00     0.055 A 
ATOM     64  C   UNL     1       1.858 -14.782   3.696  1.00  0.00     0.041 A 
ATOM     65  F   UNL     1       3.242 -13.977   1.988  1.00  0.00    -0.206 F 
ATOM     66  C   UNL     1       0.595 -15.131   4.165  1.00  0.00     0.022 A 
BRANCH  63  67
ATOM     67  S   UNL     1      -2.175 -15.320   3.895  1.00  0.00     0.124 S 
ATOM     68  O   UNL     1      -2.781 -14.057   3.478  1.00  0.00    -0.237 OA
ATOM     69  O   UNL     1      -2.638 -16.513   3.196  1.00  0.00    -0.237 OA
ATOM     70  O   UNL     1      -1.998 -15.469   5.338  1.00  0.00    -0.744 OA
ENDBRANCH  63  67
ENDBRANCH  46  60
BRANCH  47  71
ATOM     71  C   UNL     1       2.311 -10.206  -7.530  1.00  0.00     0.023 A 
ATOM     72  C   UNL     1       1.975 -10.790  -8.761  1.00  0.00     0.031 A 
ATOM     73  C   UNL     1       2.916  -8.936  -7.541  1.00  0.00     0.131 A 
ATOM     74  C   UNL     1       2.269 -10.115  -9.956  1.00  0.00     0.055 A 
ATOM     75  C   UNL     1       3.171  -8.252  -8.731  1.00  0.00     0.041 A 
ATOM     76  F   UNL     1       3.243  -8.331  -6.389  1.00  0.00    -0.206 F 
ATOM     77  C   UNL     1       2.853  -8.845  -9.949  1.00  0.00     0.022 A 
BRANCH  74  78
ATOM     78  S   UNL     1       1.907 -10.937 -11.532  1.00  0.00     0.124 S 
ATOM     79  O   UNL     1       2.776 -12.106 -11.464  1.00  0.00    -0.237 OA
ATOM     80  O   UNL     1       0.475 -11.193 -11.419  1.00  0.00    -0.237 OA
ATOM     81  O   UNL     1       2.280  -9.938 -12.531  1.00  0.00    -0.744 OA
ENDBRANCH  74  78
ENDBRANCH  47  71
BRANCH  59  82
ATOM     82  C   UNL     1       4.962 -15.870  -4.421  1.00  0.00     0.023 A 
ATOM     83  C   UNL     1       6.327 -15.591  -4.607  1.00  0.00     0.031 A 
ATOM     84  C   UNL     1       4.514 -17.182  -4.662  1.00  0.00     0.131 A 
ATOM     85  C   UNL     1       7.191 -16.603  -5.055  1.00  0.00     0.055 A 
ATOM     86  C   UNL     1       5.386 -18.195  -5.060  1.00  0.00     0.041 A 
ATOM     87  F   UNL     1       3.219 -17.500  -4.503  1.00  0.00    -0.206 F 
ATOM     88  C   UNL     1       6.731 -17.906  -5.266  1.00  0.00     0.022 A 
BRANCH  85  89
ATOM     89  S   UNL     1       8.918 -16.184  -5.415  1.00  0.00     0.124 S 
ATOM     90  O   UNL     1       8.774 -15.188  -6.472  1.00  0.00    -0.237 OA
ATOM     91  O   UNL     1       9.396 -15.686  -4.130  1.00  0.00    -0.237 OA
ATOM     92  O   UNL     1       9.499 -17.457  -5.839  1.00  0.00    -0.744 OA
ENDBRANCH  85  89
ENDBRANCH  59  82
ENDBRANCH  33  34
ENDBRANCH  25  28
ENDBRANCH  23  24
ENDBRANCH   1  23
TORSDOF 16
