REMARK SMILES CC1(C)OC(=O)C(=CNc2ccccc2C(=O)NCCCCNC(=O)c2ccc(-c3c4nc(c(-c5cc(S(=O)(=O)[O-])ccc5F)c5ccc([nH]5)c(-c5cc(S(=O)(=O)[O-])ccc5F)c5nc(c(-c6cc(S(=O)(=O)[O-])ccc6F)c6ccc3[nH]6)C=C5)C=C4)cc2)C(=O)O1
REMARK SMILES IDX 21 1 20 2 19 3 18 4 16 5 17 6 15 8 10 9 11 10 12 11 14 12
REMARK SMILES IDX 13 13 9 14 8 16 1 17 2 18 3 19 4 20 91 21 5 22 89 23 6 24
REMARK SMILES IDX 7 25 90 26 22 27 23 28 24 29 25 31 26 32 27 33 88 34 28 35
REMARK SMILES IDX 87 36 29 37 30 38 31 39 81 40 32 41 86 42 80 43 82 44 33 45
REMARK SMILES IDX 85 46 79 47 78 48 34 50 66 51 46 52 65 53 47 54 50 55 64 56
REMARK SMILES IDX 83 57 48 58 49 59 63 61 84 62 51 63 35 64 36 65 44 66 37 67
REMARK SMILES IDX 43 68 45 69 42 70 38 71 39 72 40 73 41 74 67 75 68 76 76 77
REMARK SMILES IDX 69 78 75 79 77 80 74 81 70 82 71 83 72 84 73 85 52 86 53 87
REMARK SMILES IDX 61 88 54 89 60 90 62 91 59 92 55 93 56 94 57 95 58 96
REMARK H PARENT 18 7 9 15 23 30 82 49 50 60
REMARK Flexibility Score: inf
ROOT
ATOM      1  C   UNL     1       0.034  -1.716  -3.196  1.00  0.00     0.023 C 
ENDROOT
BRANCH   1   2
ATOM      2  C   UNL     1      -1.236  -2.595  -3.189  1.00  0.00     0.023 C 
BRANCH   2   3
ATOM      3  C   UNL     1      -2.620  -2.027  -2.874  1.00  0.00     0.116 C 
BRANCH   3   4
ATOM      4  N   UNL     1      -2.832  -0.658  -3.297  1.00  0.00    -0.352 N 
ATOM      5  C   UNL     1      -3.808   0.209  -2.849  1.00  0.00     0.253 C 
ATOM      6  O   UNL     1      -3.932   1.318  -3.376  1.00  0.00    -0.269 OA
ATOM      7  H   UNL     1      -2.213  -0.308  -3.977  1.00  0.00     0.163 HD
BRANCH   5   8
ATOM      8  C   UNL     1      -4.800  -0.233  -1.830  1.00  0.00     0.063 A 
ATOM      9  C   UNL     1      -4.498  -0.570  -0.489  1.00  0.00     0.051 A 
ATOM     10  C   UNL     1      -5.547  -1.076   0.320  1.00  0.00     0.027 A 
ATOM     11  C   UNL     1      -6.854  -1.214  -0.169  1.00  0.00     0.002 A 
ATOM     12  C   UNL     1      -6.121  -0.353  -2.311  1.00  0.00     0.016 A 
ATOM     13  C   UNL     1      -7.144  -0.843  -1.482  1.00  0.00     0.001 A 
BRANCH   9  14
ATOM     14  N   UNL     1      -3.223  -0.467   0.114  1.00  0.00    -0.360 N 
ATOM     15  H   UNL     1      -3.029  -1.089   0.852  1.00  0.00     0.166 HD
BRANCH  14  16
ATOM     16  C   UNL     1      -2.228   0.417  -0.229  1.00  0.00     0.106 C 
ATOM     17  C   UNL     1       2.948  -0.965  -3.171  1.00  0.00     0.106 C 
ATOM     18  C   UNL     1       2.426  -0.711  -1.725  1.00  0.00     0.252 C 
ATOM     19  C   UNL     1       3.671  -0.917  -0.823  1.00  0.00     0.106 C 
ATOM     20  O   UNL     1       1.792   1.016  -1.649  1.00  0.00    -0.419 OA
ATOM     21  O   UNL     1       1.197  -1.979  -1.147  1.00  0.00    -0.419 OA
ATOM     22  C   UNL     1       0.207   1.478  -1.119  1.00  0.00     0.350 C 
ATOM     23  C   UNL     1      -0.386  -1.656  -0.502  1.00  0.00     0.350 C 
ATOM     24  O   UNL     1      -0.197   2.614  -1.342  1.00  0.00    -0.246 OA
ATOM     25  C   UNL     1      -0.934   0.132  -0.442  1.00  0.00     0.161 C 
ATOM     26  O   UNL     1      -1.069  -2.595  -0.099  1.00  0.00    -0.246 OA
ENDBRANCH  14  16
ENDBRANCH   9  14
ENDBRANCH   5   8
ENDBRANCH   3   4
ENDBRANCH   2   3
ENDBRANCH   1   2
BRANCH   1  27
ATOM     27  C   UNL     1       0.309  -0.390  -2.234  1.00  0.00     0.116 C 
BRANCH  27  28
ATOM     28  N   UNL     1       1.053  -0.237  -0.328  1.00  0.00    -0.352 N 
ATOM     29  C   UNL     1       1.519   0.470   0.849  1.00  0.00     0.251 C 
ATOM     30  H   UNL     1       1.146  -1.179  -0.061  1.00  0.00     0.163 HD
ATOM     31  O   UNL     1       1.332  -0.145   1.904  1.00  0.00    -0.269 OA
BRANCH  29  32
ATOM     32  C   UNL     1       2.497   1.612   0.912  1.00  0.00     0.039 A 
ATOM     33  C   UNL     1       3.755   1.310   1.469  1.00  0.00     0.014 A 
ATOM     34  C   UNL     1       2.277   2.915   0.475  1.00  0.00     0.014 A 
ATOM     35  C   UNL     1       4.829   2.203   1.361  1.00  0.00     0.010 A 
ATOM     36  C   UNL     1       3.354   3.801   0.329  1.00  0.00     0.010 A 
ATOM     37  C   UNL     1       4.649   3.425   0.709  1.00  0.00    -0.014 A 
BRANCH  37  38
ATOM     38  C   UNL     1       5.798   4.287   0.341  1.00  0.00     0.031 A 
ATOM     39  C   UNL     1       6.006   5.607   1.013  1.00  0.00     0.074 A 
ATOM     40  C   UNL     1       6.591   3.918  -0.685  1.00  0.00     0.049 A 
ATOM     41  N   UNL     1       6.806   6.587   0.679  1.00  0.00    -0.248 NA
ATOM     42  C   UNL     1       5.190   5.864   2.207  1.00  0.00     0.031 C 
ATOM     43  C   UNL     1       6.474   2.669  -1.441  1.00  0.00     0.029 A 
ATOM     44  N   UNL     1       7.630   4.578  -1.292  1.00  0.00    -0.354 N 
ATOM     45  C   UNL     1       6.564   7.599   1.598  1.00  0.00     0.074 A 
ATOM     46  C   UNL     1       5.548   7.104   2.509  1.00  0.00     0.031 C 
ATOM     47  C   UNL     1       7.390   2.661  -2.423  1.00  0.00     0.029 A 
ATOM     48  C   UNL     1       8.131   3.917  -2.388  1.00  0.00     0.049 A 
ATOM     49  H   UNL     1       7.981   5.441  -0.974  1.00  0.00     0.167 HD
ATOM     50  C   UNL     1       7.126   8.832   1.667  1.00  0.00     0.034 A 
ATOM     51  C   UNL     1       9.051   4.298  -3.292  1.00  0.00     0.034 A 
ATOM     52  C   UNL     1       8.141   9.317   0.765  1.00  0.00     0.049 A 
ATOM     53  C   UNL     1       9.683   5.653  -3.179  1.00  0.00     0.074 A 
ATOM     54  C   UNL     1       8.782  10.544   0.757  1.00  0.00     0.029 A 
ATOM     55  N   UNL     1       8.664   8.592  -0.297  1.00  0.00    -0.354 N 
ATOM     56  N   UNL     1       9.417   6.614  -2.329  1.00  0.00    -0.248 NA
ATOM     57  C   UNL     1      10.732   5.975  -4.157  1.00  0.00     0.031 C 
ATOM     58  C   UNL     1       9.680  10.567  -0.320  1.00  0.00     0.029 A 
ATOM     59  C   UNL     1       9.617   9.344  -0.966  1.00  0.00     0.049 A 
ATOM     60  H   UNL     1       8.398   7.676  -0.539  1.00  0.00     0.167 HD
ATOM     61  C   UNL     1      10.260   7.662  -2.674  1.00  0.00     0.074 A 
ATOM     62  C   UNL     1      11.047   7.214  -3.807  1.00  0.00     0.031 C 
ATOM     63  C   UNL     1      10.374   8.886  -2.102  1.00  0.00     0.034 A 
BRANCH  50  64
ATOM     64  C   UNL     1       6.592   9.749   2.730  1.00  0.00     0.023 A 
ATOM     65  C   UNL     1       6.867   9.531   4.093  1.00  0.00     0.031 A 
ATOM     66  C   UNL     1       5.734  10.806   2.381  1.00  0.00     0.131 A 
ATOM     67  C   UNL     1       6.239  10.326   5.066  1.00  0.00     0.055 A 
ATOM     68  C   UNL     1       5.153  11.626   3.351  1.00  0.00     0.041 A 
ATOM     69  F   UNL     1       5.421  11.037   1.093  1.00  0.00    -0.206 F 
ATOM     70  C   UNL     1       5.393  11.379   4.704  1.00  0.00     0.022 A 
BRANCH  67  71
ATOM     71  S   UNL     1       6.429   9.872   6.820  1.00  0.00     0.124 S 
ATOM     72  O   UNL     1       6.078   8.446   6.810  1.00  0.00    -0.237 OA
ATOM     73  O   UNL     1       7.837  10.190   7.078  1.00  0.00    -0.237 OA
ATOM     74  O   UNL     1       5.461  10.735   7.498  1.00  0.00    -0.744 OA
ENDBRANCH  67  71
ENDBRANCH  50  64
BRANCH  51  75
ATOM     75  C   UNL     1       9.371   3.412  -4.436  1.00  0.00     0.023 A 
ATOM     76  C   UNL     1      10.500   2.569  -4.406  1.00  0.00     0.031 A 
ATOM     77  C   UNL     1       8.540   3.401  -5.574  1.00  0.00     0.131 A 
ATOM     78  C   UNL     1      10.779   1.750  -5.514  1.00  0.00     0.055 A 
ATOM     79  C   UNL     1       8.817   2.578  -6.667  1.00  0.00     0.041 A 
ATOM     80  F   UNL     1       7.442   4.184  -5.628  1.00  0.00    -0.206 F 
ATOM     81  C   UNL     1       9.945   1.747  -6.642  1.00  0.00     0.022 A 
BRANCH  78  82
ATOM     82  S   UNL     1      12.253   0.672  -5.456  1.00  0.00     0.124 S 
ATOM     83  O   UNL     1      13.346   1.654  -5.418  1.00  0.00    -0.237 OA
ATOM     84  O   UNL     1      12.024  -0.099  -4.229  1.00  0.00    -0.237 OA
ATOM     85  O   UNL     1      12.153  -0.105  -6.692  1.00  0.00    -0.744 OA
ENDBRANCH  78  82
ENDBRANCH  51  75
BRANCH  63  86
ATOM     86  C   UNL     1      11.409   9.797  -2.692  1.00  0.00     0.023 A 
ATOM     87  C   UNL     1      11.125  10.584  -3.822  1.00  0.00     0.031 A 
ATOM     88  C   UNL     1      12.702   9.844  -2.140  1.00  0.00     0.131 A 
ATOM     89  C   UNL     1      12.140  11.372  -4.386  1.00  0.00     0.055 A 
ATOM     90  C   UNL     1      13.701  10.643  -2.696  1.00  0.00     0.041 A 
ATOM     91  F   UNL     1      13.015   9.097  -1.068  1.00  0.00    -0.206 F 
ATOM     92  C   UNL     1      13.424  11.410  -3.828  1.00  0.00     0.022 A 
BRANCH  89  93
ATOM     93  S   UNL     1      11.773  12.334  -5.882  1.00  0.00     0.124 S 
ATOM     94  O   UNL     1      11.559  11.284  -6.875  1.00  0.00    -0.237 OA
ATOM     95  O   UNL     1      10.588  13.094  -5.489  1.00  0.00    -0.237 OA
ATOM     96  O   UNL     1      12.981  13.134  -6.079  1.00  0.00    -0.744 OA
ENDBRANCH  89  93
ENDBRANCH  63  86
ENDBRANCH  37  38
ENDBRANCH  29  32
ENDBRANCH  27  28
ENDBRANCH   1  27
TORSDOF 16
