REMARK SMILES Cc1n[nH]c(C[N@H+]2CCC[C@H](c3cccc(C(=O)NCCCCNC(=O)c4ccc(-c5c6nc(c(-c7cc(S(=O)(=O)[O-])ccc7F)c7ccc([nH]7)c(-c7cc(S(=O)(=O)[O-])ccc7F)c7nc(c(-c8cc(S(=O)(=O)[O-])ccc8F)c8ccc5[nH]8)C=C7)C=C6)cc4)c3)C2)n1
REMARK SMILES IDX 21 1 20 2 19 3 17 4 18 5 16 7 12 8 13 9 90 10 14 11 15 12
REMARK SMILES IDX 11 13 7 14 8 15 91 16 9 18 10 19 6 20 5 21 1 22 2 23 3 24
REMARK SMILES IDX 92 25 4 26 22 28 23 29 24 30 25 31 26 33 27 34 28 35 89 36
REMARK SMILES IDX 29 37 88 38 30 39 31 40 32 41 82 42 33 43 87 44 81 45 83 46
REMARK SMILES IDX 34 47 86 48 80 49 79 50 35 52 67 53 47 54 66 55 48 56 51 57
REMARK SMILES IDX 65 58 84 59 49 60 50 61 64 63 85 64 52 65 36 66 37 67 45 68
REMARK SMILES IDX 38 69 44 70 46 71 43 72 39 73 40 74 41 75 42 76 68 77 69 78
REMARK SMILES IDX 77 79 70 80 76 81 78 82 75 83 71 84 72 85 73 86 74 87 53 88
REMARK SMILES IDX 54 89 62 90 55 91 61 92 63 93 60 94 56 95 57 96 58 97 59 98
REMARK H PARENT 19 6 7 17 4 27 24 32 83 51 51 62
REMARK Flexibility Score: inf
ROOT
ATOM      1  C   UNL     1      -2.558   9.005   2.461  1.00  0.00     0.023 C 
ENDROOT
BRANCH   1   2
ATOM      2  C   UNL     1      -3.197   8.839   1.082  1.00  0.00     0.116 C 
BRANCH   2   3
ATOM      3  N   UNL     1      -3.127  10.012   0.209  1.00  0.00    -0.352 N 
ATOM      4  C   UNL     1      -2.555  10.234  -1.034  1.00  0.00     0.251 C 
ATOM      5  O   UNL     1      -2.617  11.366  -1.513  1.00  0.00    -0.269 OA
ATOM      6  H   UNL     1      -3.577  10.804   0.581  1.00  0.00     0.163 HD
BRANCH   4   7
ATOM      7  C   UNL     1      -1.795   9.185  -1.767  1.00  0.00     0.040 A 
ATOM      8  C   UNL     1      -1.122   6.854  -1.878  1.00  0.00    -0.039 A 
ATOM      9  C   UNL     1      -0.041   7.227  -2.688  1.00  0.00     0.004 A 
ATOM     10  C   UNL     1      -2.070   7.838  -1.584  1.00  0.00     0.018 A 
ATOM     11  C   UNL     1       0.114   8.553  -3.103  1.00  0.00     0.001 A 
ATOM     12  C   UNL     1      -0.732   9.542  -2.599  1.00  0.00     0.014 A 
BRANCH   8  13
ATOM     13  C   UNL     1      -1.214   5.515  -1.141  1.00  0.00     0.074 C 
ATOM     14  N   UNL     1      -0.777   3.951  -3.017  1.00  0.00    -0.328 N 
ATOM     15  C   UNL     1      -2.158   3.448  -2.974  1.00  0.00     0.262 C 
ATOM     16  C   UNL     1      -0.318   4.392  -1.689  1.00  0.00     0.270 C 
ATOM     17  H   UNL     1      -0.796   4.766  -3.630  1.00  0.00     0.348 HD
ATOM     18  C   UNL     1      -3.135   4.456  -2.358  1.00  0.00     0.062 C 
ATOM     19  C   UNL     1      -2.635   4.936  -1.001  1.00  0.00     0.020 C 
BRANCH  14  20
ATOM     20  C   UNL     1       0.171   3.008  -3.632  1.00  0.00     0.340 C 
BRANCH  20  21
ATOM     21  C   UNL     1       0.362   1.741  -2.870  1.00  0.00     0.179 A 
ATOM     22  C   UNL     1       0.999  -0.295  -0.070  1.00  0.00     0.092 C 
ATOM     23  C   UNL     1       0.667   0.273  -1.390  1.00  0.00     0.147 A 
ATOM     24  N   UNL     1       0.002  -0.401  -2.336  1.00  0.00    -0.159 NA
ATOM     25  N   UNL     1       0.963   1.569  -1.709  1.00  0.00    -0.211 NA
ATOM     26  N   UNL     1      -0.184   0.553  -3.263  1.00  0.00    -0.258 N 
ATOM     27  H   UNL     1      -0.654   0.414  -4.117  1.00  0.00     0.192 HD
ENDBRANCH  20  21
ENDBRANCH  14  20
ENDBRANCH   8  13
ENDBRANCH   4   7
ENDBRANCH   2   3
ENDBRANCH   1   2
BRANCH   1  28
ATOM     28  C   UNL     1      -3.270   9.907   3.466  1.00  0.00     0.023 C 
BRANCH  28  29
ATOM     29  C   UNL     1      -4.717   9.533   3.746  1.00  0.00     0.116 C 
BRANCH  29  30
ATOM     30  N   UNL     1      -4.903   8.195   4.328  1.00  0.00    -0.352 N 
ATOM     31  C   UNL     1      -6.100   7.598   4.734  1.00  0.00     0.251 C 
ATOM     32  H   UNL     1      -4.088   7.656   4.446  1.00  0.00     0.163 HD
ATOM     33  O   UNL     1      -6.106   6.681   5.534  1.00  0.00    -0.269 OA
BRANCH  31  34
ATOM     34  C   UNL     1      -7.354   8.107   4.137  1.00  0.00     0.039 A 
ATOM     35  C   UNL     1      -8.562   8.256   4.825  1.00  0.00     0.014 A 
ATOM     36  C   UNL     1      -7.245   8.517   2.819  1.00  0.00     0.014 A 
ATOM     37  C   UNL     1      -9.632   8.857   4.154  1.00  0.00     0.010 A 
ATOM     38  C   UNL     1      -8.140   9.412   2.330  1.00  0.00     0.010 A 
ATOM     39  C   UNL     1      -9.397   9.426   2.894  1.00  0.00    -0.014 A 
BRANCH  39  40
ATOM     40  C   UNL     1     -10.393  10.105   2.088  1.00  0.00     0.031 A 
ATOM     41  C   UNL     1     -10.896  11.357   2.687  1.00  0.00     0.074 A 
ATOM     42  C   UNL     1     -10.606   9.779   0.791  1.00  0.00     0.049 A 
ATOM     43  N   UNL     1     -12.036  11.523   3.261  1.00  0.00    -0.248 NA
ATOM     44  C   UNL     1      -9.977  12.492   2.859  1.00  0.00     0.031 C 
ATOM     45  C   UNL     1      -9.944   8.763  -0.040  1.00  0.00     0.029 A 
ATOM     46  N   UNL     1     -11.426  10.386  -0.103  1.00  0.00    -0.354 N 
ATOM     47  C   UNL     1     -12.087  12.857   3.642  1.00  0.00     0.074 A 
ATOM     48  C   UNL     1     -10.726  13.322   3.590  1.00  0.00     0.031 C 
ATOM     49  C   UNL     1     -10.238   8.974  -1.345  1.00  0.00     0.029 A 
ATOM     50  C   UNL     1     -11.223  10.039  -1.437  1.00  0.00     0.049 A 
ATOM     51  H   UNL     1     -12.120  11.028   0.172  1.00  0.00     0.167 HD
ATOM     52  C   UNL     1     -13.282  13.505   3.737  1.00  0.00     0.034 A 
ATOM     53  C   UNL     1     -11.817  10.605  -2.526  1.00  0.00     0.034 A 
ATOM     54  C   UNL     1     -14.374  12.561   3.596  1.00  0.00     0.049 A 
ATOM     55  C   UNL     1     -13.080  11.217  -2.022  1.00  0.00     0.074 A 
ATOM     56  C   UNL     1     -14.792  11.458   4.315  1.00  0.00     0.029 A 
ATOM     57  N   UNL     1     -14.944  12.428   2.345  1.00  0.00    -0.354 N 
ATOM     58  N   UNL     1     -14.053  10.503  -1.515  1.00  0.00    -0.248 NA
ATOM     59  C   UNL     1     -13.035  12.600  -1.561  1.00  0.00     0.031 C 
ATOM     60  C   UNL     1     -15.132  10.489   3.323  1.00  0.00     0.029 A 
ATOM     61  C   UNL     1     -15.020  11.083   2.062  1.00  0.00     0.049 A 
ATOM     62  H   UNL     1     -15.242  13.162   1.761  1.00  0.00     0.167 HD
ATOM     63  C   UNL     1     -14.445  11.181  -0.368  1.00  0.00     0.074 A 
ATOM     64  C   UNL     1     -13.846  12.513  -0.499  1.00  0.00     0.031 C 
ATOM     65  C   UNL     1     -14.945  10.520   0.722  1.00  0.00     0.034 A 
BRANCH  52  66
ATOM     66  C   UNL     1     -13.514  14.991   3.609  1.00  0.00     0.023 A 
ATOM     67  C   UNL     1     -14.844  15.435   3.751  1.00  0.00     0.031 A 
ATOM     68  C   UNL     1     -12.601  15.944   3.113  1.00  0.00     0.131 A 
ATOM     69  C   UNL     1     -15.237  16.706   3.305  1.00  0.00     0.055 A 
ATOM     70  C   UNL     1     -12.984  17.234   2.731  1.00  0.00     0.041 A 
ATOM     71  F   UNL     1     -11.313  15.665   2.885  1.00  0.00    -0.206 F 
ATOM     72  C   UNL     1     -14.315  17.611   2.792  1.00  0.00     0.022 A 
BRANCH  69  73
ATOM     73  S   UNL     1     -17.008  17.078   3.244  1.00  0.00     0.124 S 
ATOM     74  O   UNL     1     -17.518  15.962   2.454  1.00  0.00    -0.237 OA
ATOM     75  O   UNL     1     -17.363  17.082   4.659  1.00  0.00    -0.237 OA
ATOM     76  O   UNL     1     -17.056  18.381   2.585  1.00  0.00    -0.744 OA
ENDBRANCH  69  73
ENDBRANCH  52  66
BRANCH  53  77
ATOM     77  C   UNL     1     -11.166  10.957  -3.830  1.00  0.00     0.023 A 
ATOM     78  C   UNL     1     -11.880  11.284  -5.010  1.00  0.00     0.031 A 
ATOM     79  C   UNL     1      -9.774  11.210  -3.859  1.00  0.00     0.131 A 
ATOM     80  C   UNL     1     -11.202  11.831  -6.134  1.00  0.00     0.055 A 
ATOM     81  C   UNL     1      -9.115  11.753  -4.965  1.00  0.00     0.041 A 
ATOM     82  F   UNL     1      -9.010  11.015  -2.772  1.00  0.00    -0.206 F 
ATOM     83  C   UNL     1      -9.828  12.075  -6.106  1.00  0.00     0.022 A 
BRANCH  80  84
ATOM     84  S   UNL     1     -12.111  12.319  -7.644  1.00  0.00     0.124 S 
ATOM     85  O   UNL     1     -12.495  11.030  -8.207  1.00  0.00    -0.237 OA
ATOM     86  O   UNL     1     -13.191  13.143  -7.113  1.00  0.00    -0.237 OA
ATOM     87  O   UNL     1     -11.113  13.054  -8.424  1.00  0.00    -0.744 OA
ENDBRANCH  80  84
ENDBRANCH  53  77
BRANCH  65  88
ATOM     88  C   UNL     1     -15.261   9.036   0.590  1.00  0.00     0.023 A 
ATOM     89  C   UNL     1     -14.330   8.033   0.223  1.00  0.00     0.031 A 
ATOM     90  C   UNL     1     -16.535   8.610   1.002  1.00  0.00     0.131 A 
ATOM     91  C   UNL     1     -14.696   6.671   0.269  1.00  0.00     0.055 A 
ATOM     92  C   UNL     1     -16.885   7.261   1.074  1.00  0.00     0.041 A 
ATOM     93  F   UNL     1     -17.459   9.505   1.390  1.00  0.00    -0.206 F 
ATOM     94  C   UNL     1     -15.968   6.286   0.702  1.00  0.00     0.022 A 
BRANCH  91  95
ATOM     95  S   UNL     1     -13.529   5.369  -0.255  1.00  0.00     0.124 S 
ATOM     96  O   UNL     1     -13.045   5.843  -1.545  1.00  0.00    -0.237 OA
ATOM     97  O   UNL     1     -12.552   5.359   0.830  1.00  0.00    -0.237 OA
ATOM     98  O   UNL     1     -14.367   4.169  -0.325  1.00  0.00    -0.744 OA
ENDBRANCH  91  95
ENDBRANCH  65  88
ENDBRANCH  39  40
ENDBRANCH  31  34
ENDBRANCH  29  30
ENDBRANCH  28  29
ENDBRANCH   1  28
TORSDOF 17
