REMARK SMILES N#CCCNC(=O)COc1ccc(C(=O)NCCCCNC(=O)c2ccc(-c3c4nc(c(-c5cc(S(=O)(=O)[O-])ccc5F)c5ccc([nH]5)c(-c5cc(S(=O)(=O)[O-])ccc5F)c5nc(c(-c6cc(S(=O)(=O)[O-])ccc6F)c6ccc3[nH]6)C=C5)C=C4)cc2)nc1
REMARK SMILES IDX 17 1 16 2 14 3 15 4 13 6 10 7 11 8 88 9 12 10 87 11 9 12
REMARK SMILES IDX 8 13 6 14 5 15 7 17 4 18 3 19 2 20 1 21 18 22 19 23 20 24
REMARK SMILES IDX 21 25 22 26 23 28 24 29 25 30 86 31 26 32 85 33 27 34 28 35
REMARK SMILES IDX 29 36 79 37 30 38 84 39 78 40 80 41 31 42 83 43 77 44 76 45
REMARK SMILES IDX 32 47 64 48 44 49 63 50 45 51 48 52 62 53 81 54 46 55 47 56
REMARK SMILES IDX 61 58 82 59 49 60 33 61 34 62 42 63 35 64 41 65 43 66 40 67
REMARK SMILES IDX 36 68 37 69 38 70 39 71 65 72 66 73 74 74 67 75 73 76 75 77
REMARK SMILES IDX 72 78 68 79 69 80 70 81 71 82 50 83 51 84 59 85 52 86 58 87
REMARK SMILES IDX 60 88 57 89 53 90 54 91 55 92 56 93
REMARK H PARENT 16 5 5 16 21 27 80 46 48 57
REMARK Flexibility Score: inf
ROOT
ATOM      1  C   UNL     1       3.335  -2.564   6.612  1.00  0.00     0.116 C 
ENDROOT
BRANCH   1   2
ATOM      2  N   UNL     1       4.497  -3.364   6.280  1.00  0.00    -0.351 N 
ATOM      3  C   UNL     1       5.561  -3.203   5.421  1.00  0.00     0.269 C 
ATOM      4  O   UNL     1       6.377  -4.129   5.410  1.00  0.00    -0.268 OA
ATOM      5  H   UNL     1       4.534  -4.212   6.780  1.00  0.00     0.163 HD
BRANCH   3   6
ATOM      6  C   UNL     1       5.785  -2.009   4.521  1.00  0.00     0.128 A 
ATOM      7  C   UNL     1       6.402   0.057   2.759  1.00  0.00     0.138 A 
ATOM      8  C   UNL     1       5.238   0.106   3.507  1.00  0.00     0.050 A 
ATOM      9  C   UNL     1       7.219  -1.046   2.951  1.00  0.00     0.158 A 
ATOM     10  C   UNL     1       4.910  -0.947   4.364  1.00  0.00     0.038 A 
ATOM     11  N   UNL     1       6.949  -2.054   3.813  1.00  0.00    -0.247 NA
BRANCH   7  12
ATOM     12  O   UNL     1       6.746   0.927   1.768  1.00  0.00    -0.482 OA
BRANCH  12  13
ATOM     13  C   UNL     1       6.389   2.288   1.944  1.00  0.00     0.329 C 
BRANCH  13  14
ATOM     14  C   UNL     1       4.918   2.725   1.873  1.00  0.00     0.257 C 
ATOM     15  N   UNL     1       4.074   2.207   0.934  1.00  0.00    -0.352 N 
ATOM     16  H   UNL     1       3.131   2.476   1.024  1.00  0.00     0.163 HD
ATOM     17  O   UNL     1       4.466   3.554   2.666  1.00  0.00    -0.271 OA
BRANCH  15  18
ATOM     18  C   UNL     1       4.361   1.316  -0.181  1.00  0.00     0.131 C 
BRANCH  18  19
ATOM     19  C   UNL     1       3.801  -0.097  -0.011  1.00  0.00     0.141 C 
BRANCH  19  20
ATOM     20  C   UNL     1       2.281  -0.097  -0.011  1.00  0.00     0.064 C 
ATOM     21  N   UNL     1       1.020  -0.097  -0.011  1.00  0.00    -0.198 NA
ENDBRANCH  19  20
ENDBRANCH  18  19
ENDBRANCH  15  18
ENDBRANCH  13  14
ENDBRANCH  12  13
ENDBRANCH   7  12
ENDBRANCH   3   6
ENDBRANCH   1   2
BRANCH   1  22
ATOM     22  C   UNL     1       2.166  -2.862   5.670  1.00  0.00     0.023 C 
BRANCH  22  23
ATOM     23  C   UNL     1       1.238  -3.978   6.168  1.00  0.00     0.023 C 
BRANCH  23  24
ATOM     24  C   UNL     1       0.556  -3.696   7.504  1.00  0.00     0.116 C 
BRANCH  24  25
ATOM     25  N   UNL     1      -0.200  -2.455   7.518  1.00  0.00    -0.352 N 
ATOM     26  C   UNL     1      -1.262  -2.112   8.323  1.00  0.00     0.251 C 
ATOM     27  H   UNL     1       0.085  -1.772   6.869  1.00  0.00     0.163 HD
ATOM     28  O   UNL     1      -1.863  -1.066   8.125  1.00  0.00    -0.269 OA
BRANCH  26  29
ATOM     29  C   UNL     1      -1.693  -3.044   9.389  1.00  0.00     0.039 A 
ATOM     30  C   UNL     1      -3.052  -3.336   9.513  1.00  0.00     0.014 A 
ATOM     31  C   UNL     1      -0.764  -3.637  10.248  1.00  0.00     0.014 A 
ATOM     32  C   UNL     1      -3.474  -4.257  10.473  1.00  0.00     0.010 A 
ATOM     33  C   UNL     1      -1.176  -4.617  11.144  1.00  0.00     0.010 A 
ATOM     34  C   UNL     1      -2.538  -4.922  11.281  1.00  0.00    -0.014 A 
BRANCH  34  35
ATOM     35  C   UNL     1      -2.980  -5.906  12.301  1.00  0.00     0.031 A 
ATOM     36  C   UNL     1      -2.745  -5.634  13.763  1.00  0.00     0.074 A 
ATOM     37  C   UNL     1      -3.549  -7.062  11.909  1.00  0.00     0.049 A 
ATOM     38  N   UNL     1      -3.059  -6.362  14.804  1.00  0.00    -0.248 NA
ATOM     39  C   UNL     1      -2.022  -4.398  14.092  1.00  0.00     0.031 C 
ATOM     40  C   UNL     1      -3.753  -7.473  10.519  1.00  0.00     0.029 A 
ATOM     41  N   UNL     1      -4.056  -8.104  12.642  1.00  0.00    -0.354 N 
ATOM     42  C   UNL     1      -2.559  -5.679  15.908  1.00  0.00     0.074 A 
ATOM     43  C   UNL     1      -1.847  -4.528  15.396  1.00  0.00     0.031 C 
ATOM     44  C   UNL     1      -4.368  -8.666  10.500  1.00  0.00     0.029 A 
ATOM     45  C   UNL     1      -4.577  -9.117  11.872  1.00  0.00     0.049 A 
ATOM     46  H   UNL     1      -4.048  -8.125  13.626  1.00  0.00     0.167 HD
ATOM     47  C   UNL     1      -2.708  -5.966  17.226  1.00  0.00     0.034 A 
ATOM     48  C   UNL     1      -5.161 -10.276  12.232  1.00  0.00     0.034 A 
ATOM     49  C   UNL     1      -3.429  -7.120  17.711  1.00  0.00     0.049 A 
ATOM     50  C   UNL     1      -5.354 -10.564  13.697  1.00  0.00     0.074 A 
ATOM     51  C   UNL     1      -3.702  -7.484  19.017  1.00  0.00     0.029 A 
ATOM     52  N   UNL     1      -3.983  -8.107  16.902  1.00  0.00    -0.354 N 
ATOM     53  N   UNL     1      -4.955  -9.867  14.737  1.00  0.00    -0.248 NA
ATOM     54  C   UNL     1      -6.104 -11.779  14.035  1.00  0.00     0.031 C 
ATOM     55  C   UNL     1      -4.359  -8.721  19.000  1.00  0.00     0.029 A 
ATOM     56  C   UNL     1      -4.572  -9.092  17.681  1.00  0.00     0.049 A 
ATOM     57  H   UNL     1      -3.961  -8.106  15.918  1.00  0.00     0.167 HD
ATOM     58  C   UNL     1      -5.429 -10.547  15.855  1.00  0.00     0.074 A 
ATOM     59  C   UNL     1      -6.160 -11.696  15.356  1.00  0.00     0.031 C 
ATOM     60  C   UNL     1      -5.279 -10.247  17.172  1.00  0.00     0.034 A 
BRANCH  47  61
ATOM     61  C   UNL     1      -2.046  -5.027  18.213  1.00  0.00     0.023 A 
ATOM     62  C   UNL     1      -2.358  -3.655  18.251  1.00  0.00     0.031 A 
ATOM     63  C   UNL     1      -1.034  -5.488  19.073  1.00  0.00     0.131 A 
ATOM     64  C   UNL     1      -1.588  -2.779  19.032  1.00  0.00     0.055 A 
ATOM     65  C   UNL     1      -0.341  -4.626  19.927  1.00  0.00     0.041 A 
ATOM     66  F   UNL     1      -0.674  -6.781  19.076  1.00  0.00    -0.206 F 
ATOM     67  C   UNL     1      -0.599  -3.258  19.892  1.00  0.00     0.022 A 
BRANCH  64  68
ATOM     68  S   UNL     1      -1.759  -0.994  18.749  1.00  0.00     0.124 S 
ATOM     69  O   UNL     1      -1.486  -0.895  17.317  1.00  0.00    -0.237 OA
ATOM     70  O   UNL     1      -3.136  -0.741  19.157  1.00  0.00    -0.237 OA
ATOM     71  O   UNL     1      -0.734  -0.410  19.611  1.00  0.00    -0.744 OA
ENDBRANCH  64  68
ENDBRANCH  47  61
BRANCH  48  72
ATOM     72  C   UNL     1      -5.617 -11.234  11.186  1.00  0.00     0.023 A 
ATOM     73  C   UNL     1      -6.981 -11.477  10.960  1.00  0.00     0.031 A 
ATOM     74  C   UNL     1      -4.682 -11.916  10.386  1.00  0.00     0.131 A 
ATOM     75  C   UNL     1      -7.372 -12.402   9.979  1.00  0.00     0.055 A 
ATOM     76  C   UNL     1      -5.078 -12.802   9.383  1.00  0.00     0.041 A 
ATOM     77  F   UNL     1      -3.367 -11.707  10.553  1.00  0.00    -0.206 F 
ATOM     78  C   UNL     1      -6.431 -13.056   9.181  1.00  0.00     0.022 A 
BRANCH  75  79
ATOM     79  S   UNL     1      -9.138 -12.772   9.784  1.00  0.00     0.124 S 
ATOM     80  O   UNL     1      -9.475 -13.317  11.094  1.00  0.00    -0.237 OA
ATOM     81  O   UNL     1      -9.691 -11.458   9.474  1.00  0.00    -0.237 OA
ATOM     82  O   UNL     1      -9.165 -13.731   8.682  1.00  0.00    -0.744 OA
ENDBRANCH  75  79
ENDBRANCH  48  72
BRANCH  60  83
ATOM     83  C   UNL     1      -5.958 -11.165  18.162  1.00  0.00     0.023 A 
ATOM     84  C   UNL     1      -5.589 -12.516  18.297  1.00  0.00     0.031 A 
ATOM     85  C   UNL     1      -7.017 -10.689  18.957  1.00  0.00     0.131 A 
ATOM     86  C   UNL     1      -6.321 -13.360  19.147  1.00  0.00     0.055 A 
ATOM     87  C   UNL     1      -7.694 -11.516  19.853  1.00  0.00     0.041 A 
ATOM     88  F   UNL     1      -7.416  -9.410  18.869  1.00  0.00    -0.206 F 
ATOM     89  C   UNL     1      -7.360 -12.865  19.938  1.00  0.00     0.022 A 
BRANCH  86  90
ATOM     90  S   UNL     1      -5.985 -15.142  19.103  1.00  0.00     0.124 S 
ATOM     91  O   UNL     1      -6.141 -15.445  17.684  1.00  0.00    -0.237 OA
ATOM     92  O   UNL     1      -4.624 -15.214  19.625  1.00  0.00    -0.237 OA
ATOM     93  O   UNL     1      -7.014 -15.706  19.974  1.00  0.00    -0.744 OA
ENDBRANCH  86  90
ENDBRANCH  60  83
ENDBRANCH  34  35
ENDBRANCH  26  29
ENDBRANCH  24  25
ENDBRANCH  23  24
ENDBRANCH  22  23
ENDBRANCH   1  22
TORSDOF 20
