REMARK SMILES O=C(NCCCCNC(=O)[C@H](c1c[nH]c2cc(F)ccc12)[NH+]1CC[NH+](CC(=O)N2CCOCC2)CC1)c1ccc(-c2c3nc(c(-c4cc(S(=O)(=O)[O-])ccc4F)c4ccc([nH]4)c(-c4cc(S(=O)(=O)[O-])ccc4F)c4nc(c(-c5cc(S(=O)(=O)[O-])ccc5F)c5ccc2[nH]5)C=C4)C=C3)cc1
REMARK SMILES IDX 5 1 4 2 3 3 1 4 2 5 37 7 38 8 99 9 39 10 98 11 40 12 41 13
REMARK SMILES IDX 42 14 92 15 43 16 97 17 91 18 93 19 44 20 96 21 90 22 89 23
REMARK SMILES IDX 45 25 77 26 57 27 76 28 58 29 61 30 75 31 94 32 59 33 60 34
REMARK SMILES IDX 74 36 95 37 62 38 46 39 47 40 55 41 48 42 54 43 56 44 53 45
REMARK SMILES IDX 49 46 50 47 51 48 52 49 78 50 79 51 87 52 80 53 86 54 88 55
REMARK SMILES IDX 85 56 81 57 82 58 83 59 84 60 63 61 64 62 72 63 65 64 71 65
REMARK SMILES IDX 73 66 70 67 66 68 67 69 68 70 69 71 6 72 7 73 8 74 9 75
REMARK SMILES IDX 10 77 11 78 22 79 23 80 36 81 24 83 35 84 25 85 26 87 27 88
REMARK SMILES IDX 28 89 29 90 30 91 34 92 31 93 33 94 32 95 12 96 13 97 21 98
REMARK SMILES IDX 14 99 15 100 20 101 16 103 19 104 17 105 18 106
REMARK H PARENT 3 6 93 24 61 35 8 76 22 82 25 86 14 102
REMARK Flexibility Score: inf
ROOT
ATOM      1  C   UNL     1       6.407   6.187   0.579  1.00  0.00     0.023 C 
ENDROOT
BRANCH   1   2
ATOM      2  C   UNL     1       6.768   7.644   0.416  1.00  0.00     0.116 C 
BRANCH   2   3
ATOM      3  N   UNL     1       8.160   7.824   0.027  1.00  0.00    -0.352 N 
ATOM      4  O   UNL     1       9.816   8.708  -1.242  1.00  0.00    -0.269 OA
ATOM      5  C   UNL     1       8.649   8.737  -0.869  1.00  0.00     0.251 C 
ATOM      6  H   UNL     1       8.818   7.228   0.453  1.00  0.00     0.163 HD
BRANCH   5   7
ATOM      7  C   UNL     1       7.700   9.739  -1.377  1.00  0.00     0.039 A 
ATOM      8  C   UNL     1       6.935  10.465  -0.458  1.00  0.00     0.014 A 
ATOM      9  C   UNL     1       7.493   9.854  -2.750  1.00  0.00     0.014 A 
ATOM     10  C   UNL     1       5.879  11.232  -0.912  1.00  0.00     0.010 A 
ATOM     11  C   UNL     1       6.498  10.713  -3.208  1.00  0.00     0.010 A 
ATOM     12  C   UNL     1       5.689  11.404  -2.291  1.00  0.00    -0.014 A 
BRANCH  12  13
ATOM     13  C   UNL     1       4.752  12.450  -2.750  1.00  0.00     0.031 A 
ATOM     14  C   UNL     1       3.527  12.109  -3.540  1.00  0.00     0.074 A 
ATOM     15  C   UNL     1       5.068  13.724  -2.446  1.00  0.00     0.049 A 
ATOM     16  N   UNL     1       2.660  12.919  -4.086  1.00  0.00    -0.248 NA
ATOM     17  C   UNL     1       3.242  10.683  -3.758  1.00  0.00     0.031 C 
ATOM     18  C   UNL     1       6.253  14.136  -1.682  1.00  0.00     0.029 A 
ATOM     19  N   UNL     1       4.440  14.904  -2.735  1.00  0.00    -0.354 N 
ATOM     20  C   UNL     1       1.740  12.108  -4.739  1.00  0.00     0.074 A 
ATOM     21  C   UNL     1       2.159  10.739  -4.524  1.00  0.00     0.031 C 
ATOM     22  C   UNL     1       6.250  15.467  -1.542  1.00  0.00     0.029 A 
ATOM     23  C   UNL     1       5.125  16.009  -2.287  1.00  0.00     0.049 A 
ATOM     24  H   UNL     1       3.582  14.957  -3.216  1.00  0.00     0.167 HD
ATOM     25  C   UNL     1       0.656  12.491  -5.457  1.00  0.00     0.034 A 
ATOM     26  C   UNL     1       4.907  17.318  -2.503  1.00  0.00     0.034 A 
ATOM     27  C   UNL     1       0.267  13.870  -5.632  1.00  0.00     0.049 A 
ATOM     28  C   UNL     1       3.724  17.703  -3.342  1.00  0.00     0.074 A 
ATOM     29  C   UNL     1      -0.860  14.372  -6.260  1.00  0.00     0.029 A 
ATOM     30  N   UNL     1       1.003  14.966  -5.199  1.00  0.00    -0.354 N 
ATOM     31  N   UNL     1       2.833  16.924  -3.911  1.00  0.00    -0.248 NA
ATOM     32  C   UNL     1       3.520  19.135  -3.578  1.00  0.00     0.031 C 
ATOM     33  C   UNL     1      -0.766  15.768  -6.273  1.00  0.00     0.029 A 
ATOM     34  C   UNL     1       0.383  16.142  -5.593  1.00  0.00     0.049 A 
ATOM     35  H   UNL     1       1.842  14.916  -4.688  1.00  0.00     0.167 HD
ATOM     36  C   UNL     1       1.957  17.775  -4.571  1.00  0.00     0.074 A 
ATOM     37  C   UNL     1       2.411  19.126  -4.301  1.00  0.00     0.031 C 
ATOM     38  C   UNL     1       0.877  17.473  -5.334  1.00  0.00     0.034 A 
BRANCH  25  39
ATOM     39  C   UNL     1      -0.151  11.424  -6.152  1.00  0.00     0.023 A 
ATOM     40  C   UNL     1      -0.920  10.484  -5.447  1.00  0.00     0.031 A 
ATOM     41  C   UNL     1      -0.172  11.374  -7.559  1.00  0.00     0.131 A 
ATOM     42  C   UNL     1      -1.652   9.512  -6.150  1.00  0.00     0.055 A 
ATOM     43  C   UNL     1      -0.947  10.443  -8.252  1.00  0.00     0.041 A 
ATOM     44  F   UNL     1       0.561  12.234  -8.283  1.00  0.00    -0.206 F 
ATOM     45  C   UNL     1      -1.688   9.500  -7.547  1.00  0.00     0.022 A 
BRANCH  42  46
ATOM     46  S   UNL     1      -2.494   8.207  -5.213  1.00  0.00     0.124 S 
ATOM     47  O   UNL     1      -1.375   7.568  -4.525  1.00  0.00    -0.237 OA
ATOM     48  O   UNL     1      -3.413   8.964  -4.372  1.00  0.00    -0.237 OA
ATOM     49  O   UNL     1      -3.125   7.392  -6.250  1.00  0.00    -0.744 OA
ENDBRANCH  42  46
ENDBRANCH  25  39
BRANCH  26  50
ATOM     50  C   UNL     1       5.868  18.333  -1.990  1.00  0.00     0.023 A 
ATOM     51  C   UNL     1       5.469  19.303  -1.062  1.00  0.00     0.031 A 
ATOM     52  C   UNL     1       7.202  18.359  -2.442  1.00  0.00     0.131 A 
ATOM     53  C   UNL     1       6.380  20.287  -0.647  1.00  0.00     0.055 A 
ATOM     54  C   UNL     1       8.120  19.301  -1.979  1.00  0.00     0.041 A 
ATOM     55  F   UNL     1       7.638  17.449  -3.328  1.00  0.00    -0.206 F 
ATOM     56  C   UNL     1       7.706  20.283  -1.086  1.00  0.00     0.022 A 
BRANCH  53  57
ATOM     57  S   UNL     1       5.775  21.636   0.402  1.00  0.00     0.124 S 
ATOM     58  O   UNL     1       4.644  22.133  -0.374  1.00  0.00    -0.237 OA
ATOM     59  O   UNL     1       5.446  20.933   1.637  1.00  0.00    -0.237 OA
ATOM     60  O   UNL     1       6.920  22.540   0.485  1.00  0.00    -0.744 OA
ENDBRANCH  53  57
ENDBRANCH  26  50
BRANCH  38  61
ATOM     61  C   UNL     1       0.124  18.639  -5.913  1.00  0.00     0.023 A 
ATOM     62  C   UNL     1       0.686  19.438  -6.923  1.00  0.00     0.031 A 
ATOM     63  C   UNL     1      -1.155  18.969  -5.433  1.00  0.00     0.131 A 
ATOM     64  C   UNL     1      -0.011  20.562  -7.387  1.00  0.00     0.055 A 
ATOM     65  C   UNL     1      -1.867  20.055  -5.940  1.00  0.00     0.041 A 
ATOM     66  F   UNL     1      -1.730  18.238  -4.464  1.00  0.00    -0.206 F 
ATOM     67  C   UNL     1      -1.290  20.865  -6.914  1.00  0.00     0.022 A 
BRANCH  64  68
ATOM     68  S   UNL     1       0.812  21.668  -8.565  1.00  0.00     0.124 S 
ATOM     69  O   UNL     1       1.947  22.150  -7.785  1.00  0.00    -0.237 OA
ATOM     70  O   UNL     1       1.133  20.769  -9.669  1.00  0.00    -0.237 OA
ATOM     71  O   UNL     1      -0.209  22.671  -8.862  1.00  0.00    -0.744 OA
ENDBRANCH  64  68
ENDBRANCH  38  61
ENDBRANCH  12  13
ENDBRANCH   5   7
ENDBRANCH   2   3
ENDBRANCH   1   2
BRANCH   1  72
ATOM     72  C   UNL     1       7.307   5.461   1.567  1.00  0.00     0.023 C 
BRANCH  72  73
ATOM     73  C   UNL     1       7.277   6.041   2.979  1.00  0.00     0.116 C 
BRANCH  73  74
ATOM     74  N   UNL     1       5.972   5.842   3.565  1.00  0.00    -0.351 N 
ATOM     75  C   UNL     1       5.492   4.693   4.141  1.00  0.00     0.283 C 
ATOM     76  H   UNL     1       5.362   6.614   3.548  1.00  0.00     0.163 HD
ATOM     77  O   UNL     1       4.272   4.644   4.323  1.00  0.00    -0.268 OA
BRANCH  75  78
ATOM     78  C   UNL     1       6.502   3.629   4.659  1.00  0.00     0.308 C 
BRANCH  78  79
ATOM     79  N   UNL     1       5.871   2.678   5.580  1.00  0.00    -0.312 N 
ATOM     80  C   UNL     1       4.796   1.815   5.076  1.00  0.00     0.325 C 
ATOM     81  C   UNL     1       6.806   2.015   6.468  1.00  0.00     0.325 C 
ATOM     82  H   UNL     1       5.322   3.316   6.156  1.00  0.00     0.349 HD
ATOM     83  C   UNL     1       5.112   0.301   4.910  1.00  0.00     0.325 C 
ATOM     84  C   UNL     1       7.190   0.578   6.100  1.00  0.00     0.325 C 
ATOM     85  N   UNL     1       6.049  -0.301   5.870  1.00  0.00    -0.318 N 
ATOM     86  H   UNL     1       6.408  -1.143   5.419  1.00  0.00     0.348 HD
BRANCH  85  87
ATOM     87  C   UNL     1       5.455  -0.895   7.076  1.00  0.00     0.364 C 
BRANCH  87  88
ATOM     88  C   UNL     1       4.430  -0.066   7.861  1.00  0.00     0.277 C 
ATOM     89  O   UNL     1       3.271   0.020   7.440  1.00  0.00    -0.268 OA
ATOM     90  N   UNL     1       4.781   0.464   9.101  1.00  0.00    -0.333 N 
ATOM     91  C   UNL     1       6.133   0.817   9.547  1.00  0.00     0.148 C 
ATOM     92  C   UNL     1       3.722   1.060   9.919  1.00  0.00     0.148 C 
ATOM     93  C   UNL     1       6.327   0.668  11.053  1.00  0.00     0.181 C 
ATOM     94  C   UNL     1       4.007   0.872  11.413  1.00  0.00     0.181 C 
ATOM     95  O   UNL     1       5.305   1.369  11.773  1.00  0.00    -0.378 OA
ENDBRANCH  87  88
ENDBRANCH  85  87
ENDBRANCH  78  79
BRANCH  78  96
ATOM     96  C   UNL     1       7.354   2.912   3.638  1.00  0.00     0.044 A 
ATOM     97  C   UNL     1       6.951   2.186   2.530  1.00  0.00     0.094 A 
ATOM     98  C   UNL     1       8.796   2.840   3.661  1.00  0.00     0.009 A 
ATOM     99  N   UNL     1       8.062   1.722   1.879  1.00  0.00    -0.361 N 
ATOM    100  C   UNL     1       9.200   2.095   2.553  1.00  0.00     0.049 A 
ATOM    101  C   UNL     1       9.791   3.346   4.531  1.00  0.00     0.014 A 
ATOM    102  H   UNL     1       8.048   1.195   1.047  1.00  0.00     0.166 HD
ATOM    103  C   UNL     1      10.547   1.831   2.271  1.00  0.00     0.065 A 
ATOM    104  C   UNL     1      11.139   3.082   4.270  1.00  0.00     0.040 A 
ATOM    105  C   UNL     1      11.497   2.336   3.157  1.00  0.00     0.125 A 
ATOM    106  F   UNL     1      12.795   2.090   2.930  1.00  0.00    -0.207 F 
ENDBRANCH  78  96
ENDBRANCH  75  78
ENDBRANCH  73  74
ENDBRANCH  72  73
ENDBRANCH   1  72
TORSDOF 18
