REMARK SMILES O=C(CNC(=O)[C@@H](CC1=c2ccccc2=NC1)N1C(=O)N=C2C=CC=C[C@H]2C1=O)NCCCCNC(=O)c1ccc(-c2c3nc(c(-c4cc(S(=O)(=O)[O-])ccc4F)c4ccc([nH]4)c(-c4cc(S(=O)(=O)[O-])ccc4F)c4nc(c(-c5cc(S(=O)(=O)[O-])ccc5F)c5ccc2[nH]5)C=C4)C=C3)cc1
REMARK SMILES IDX 32 1 31 2 30 3 1 4 2 5 3 7 4 8 5 9 6 11 7 12 8 13 9 14 10 15
REMARK SMILES IDX 17 16 11 17 15 18 16 19 12 20 14 21 13 22 18 23 19 24 28 25
REMARK SMILES IDX 21 26 20 27 27 28 29 29 22 30 26 31 23 32 25 33 24 34 33 35
REMARK SMILES IDX 34 36 35 37 36 38 37 40 38 41 39 42 100 43 40 44 99 45 41 46
REMARK SMILES IDX 42 47 43 48 93 49 44 50 98 51 92 52 94 53 45 54 97 55 91 56
REMARK SMILES IDX 90 57 46 59 78 60 58 61 77 62 59 63 62 64 76 65 95 66 60 67
REMARK SMILES IDX 61 68 75 70 96 71 63 72 47 73 48 74 56 75 49 76 55 77 57 78
REMARK SMILES IDX 54 79 50 80 51 81 52 82 53 83 79 84 80 85 88 86 81 87 87 88
REMARK SMILES IDX 89 89 86 90 82 91 83 92 84 93 85 94 64 95 65 96 73 97 66 98
REMARK SMILES IDX 72 99 74 100 71 101 67 102 68 103 69 104 70 105
REMARK H PARENT 30 6 4 10 35 39 94 58 62 69
REMARK Flexibility Score: inf
ROOT
ATOM      1  C   UNL     1       1.985  -0.826   3.118  1.00  0.00     0.023 C 
ENDROOT
BRANCH   1   2
ATOM      2  C   UNL     1       1.849   0.614   2.599  1.00  0.00     0.116 C 
BRANCH   2   3
ATOM      3  N   UNL     1       2.477   0.887   1.313  1.00  0.00    -0.355 N 
ATOM      4  O   UNL     1       0.533   1.173   0.125  1.00  0.00    -0.273 OA
ATOM      5  C   UNL     1       1.762   1.117   0.149  1.00  0.00     0.239 C 
ATOM      6  H   UNL     1       3.461   0.908   1.268  1.00  0.00     0.163 HD
BRANCH   5   7
ATOM      7  C   UNL     1       2.600   1.406  -1.131  1.00  0.00     0.216 C 
BRANCH   7   8
ATOM      8  N   UNL     1       4.037   1.071  -1.082  1.00  0.00    -0.345 N 
ATOM      9  C   UNL     1       4.654   0.555  -2.213  1.00  0.00     0.244 C 
ATOM     10  H   UNL     1       4.553   1.212  -0.256  1.00  0.00     0.164 HD
ATOM     11  O   UNL     1       4.337   1.003  -3.319  1.00  0.00    -0.273 OA
BRANCH   9  12
ATOM     12  C   UNL     1       5.816  -0.494  -2.026  1.00  0.00     0.188 C 
BRANCH  12  13
ATOM     13  C   UNL     1       5.669  -1.900  -1.313  1.00  0.00     0.069 C 
BRANCH  13  14
ATOM     14  C   UNL     1       4.354  -2.521  -0.918  1.00  0.00    -0.037 C 
ATOM     15  C   UNL     1       3.926  -3.784  -0.832  1.00  0.00     0.001 A 
ATOM     16  C   UNL     1       3.291  -1.631  -0.413  1.00  0.00     0.174 C 
ATOM     17  C   UNL     1       4.444  -5.090  -1.083  1.00  0.00     0.010 A 
ATOM     18  C   UNL     1       2.579  -3.632  -0.234  1.00  0.00     0.065 A 
ATOM     19  N   UNL     1       2.187  -2.444   0.089  1.00  0.00    -0.280 NA
ATOM     20  C   UNL     1       3.651  -6.155  -0.856  1.00  0.00     0.001 A 
ATOM     21  C   UNL     1       1.759  -4.833  -0.037  1.00  0.00     0.028 A 
ATOM     22  C   UNL     1       2.288  -6.019  -0.365  1.00  0.00     0.002 A 
ENDBRANCH  13  14
ENDBRANCH  12  13
BRANCH  12  23
ATOM     23  N   UNL     1       6.460  -0.649  -3.353  1.00  0.00    -0.249 N 
ATOM     24  C   UNL     1       7.726  -0.103  -3.527  1.00  0.00     0.351 C 
ATOM     25  C   UNL     1       5.762  -1.317  -4.348  1.00  0.00     0.244 C 
ATOM     26  N   UNL     1       8.382  -0.289  -4.710  1.00  0.00    -0.197 NA
ATOM     27  O   UNL     1       8.280   0.496  -2.614  1.00  0.00    -0.246 OA
ATOM     28  C   UNL     1       6.345  -1.227  -5.743  1.00  0.00     0.151 C 
ATOM     29  O   UNL     1       4.690  -1.890  -4.135  1.00  0.00    -0.273 OA
ATOM     30  C   UNL     1       7.803  -0.838  -5.721  1.00  0.00     0.062 C 
ATOM     31  C   UNL     1       6.171  -2.503  -6.538  1.00  0.00    -0.007 C 
ATOM     32  C   UNL     1       8.614  -1.087  -6.942  1.00  0.00     0.025 C 
ATOM     33  C   UNL     1       7.060  -2.885  -7.469  1.00  0.00    -0.003 C 
ATOM     34  C   UNL     1       8.223  -2.077  -7.754  1.00  0.00     0.002 C 
ENDBRANCH  12  23
ENDBRANCH   9  12
ENDBRANCH   7   8
ENDBRANCH   5   7
ENDBRANCH   2   3
ENDBRANCH   1   2
BRANCH   1  35
ATOM     35  C   UNL     1       3.398  -1.359   3.382  1.00  0.00     0.023 C 
BRANCH  35  36
ATOM     36  C   UNL     1       4.272  -0.535   4.319  1.00  0.00     0.116 C 
BRANCH  36  37
ATOM     37  N   UNL     1       3.832  -0.562   5.703  1.00  0.00    -0.352 N 
ATOM     38  C   UNL     1       4.575  -0.702   6.856  1.00  0.00     0.251 C 
ATOM     39  H   UNL     1       2.861  -0.466   5.837  1.00  0.00     0.163 HD
ATOM     40  O   UNL     1       3.993  -0.819   7.933  1.00  0.00    -0.269 OA
BRANCH  38  41
ATOM     41  C   UNL     1       6.060  -0.759   6.806  1.00  0.00     0.039 A 
ATOM     42  C   UNL     1       6.796   0.063   5.952  1.00  0.00     0.014 A 
ATOM     43  C   UNL     1       6.734  -1.661   7.639  1.00  0.00     0.014 A 
ATOM     44  C   UNL     1       8.168  -0.134   5.803  1.00  0.00     0.010 A 
ATOM     45  C   UNL     1       8.126  -1.797   7.551  1.00  0.00     0.010 A 
ATOM     46  C   UNL     1       8.852  -1.073   6.593  1.00  0.00    -0.014 A 
BRANCH  46  47
ATOM     47  C   UNL     1      10.317  -1.272   6.401  1.00  0.00     0.031 A 
ATOM     48  C   UNL     1      10.863  -2.591   5.917  1.00  0.00     0.074 A 
ATOM     49  C   UNL     1      11.160  -0.242   6.616  1.00  0.00     0.049 A 
ATOM     50  N   UNL     1      12.103  -2.921   5.655  1.00  0.00    -0.248 NA
ATOM     51  C   UNL     1       9.899  -3.681   5.700  1.00  0.00     0.031 C 
ATOM     52  C   UNL     1      10.755   1.080   7.094  1.00  0.00     0.029 A 
ATOM     53  N   UNL     1      12.519  -0.132   6.447  1.00  0.00    -0.354 N 
ATOM     54  C   UNL     1      12.071  -4.252   5.254  1.00  0.00     0.074 A 
ATOM     55  C   UNL     1      10.693  -4.683   5.344  1.00  0.00     0.031 C 
ATOM     56  C   UNL     1      11.830   1.879   7.138  1.00  0.00     0.029 A 
ATOM     57  C   UNL     1      13.015   1.114   6.755  1.00  0.00     0.049 A 
ATOM     58  H   UNL     1      13.085  -0.875   6.136  1.00  0.00     0.167 HD
ATOM     59  C   UNL     1      13.092  -5.036   4.831  1.00  0.00     0.034 A 
ATOM     60  C   UNL     1      14.277   1.593   6.747  1.00  0.00     0.034 A 
ATOM     61  C   UNL     1      14.459  -4.592   4.724  1.00  0.00     0.049 A 
ATOM     62  C   UNL     1      15.398   0.697   6.288  1.00  0.00     0.074 A 
ATOM     63  C   UNL     1      15.555  -5.310   4.276  1.00  0.00     0.029 A 
ATOM     64  N   UNL     1      14.922  -3.328   5.059  1.00  0.00    -0.354 N 
ATOM     65  N   UNL     1      15.337  -0.541   5.858  1.00  0.00    -0.248 NA
ATOM     66  C   UNL     1      16.757   1.257   6.301  1.00  0.00     0.031 C 
ATOM     67  C   UNL     1      16.686  -4.503   4.395  1.00  0.00     0.029 A 
ATOM     68  C   UNL     1      16.290  -3.255   4.849  1.00  0.00     0.049 A 
ATOM     69  H   UNL     1      14.362  -2.592   5.395  1.00  0.00     0.167 HD
ATOM     70  C   UNL     1      16.643  -0.902   5.538  1.00  0.00     0.074 A 
ATOM     71  C   UNL     1      17.468   0.259   5.792  1.00  0.00     0.031 C 
ATOM     72  C   UNL     1      17.112  -2.092   5.085  1.00  0.00     0.034 A 
BRANCH  59  73
ATOM     73  C   UNL     1      12.796  -6.458   4.419  1.00  0.00     0.023 A 
ATOM     74  C   UNL     1      13.375  -7.531   5.124  1.00  0.00     0.031 A 
ATOM     75  C   UNL     1      12.079  -6.743   3.244  1.00  0.00     0.131 A 
ATOM     76  C   UNL     1      13.264  -8.834   4.623  1.00  0.00     0.055 A 
ATOM     77  C   UNL     1      11.935  -8.049   2.772  1.00  0.00     0.041 A 
ATOM     78  F   UNL     1      11.508  -5.755   2.537  1.00  0.00    -0.206 F 
ATOM     79  C   UNL     1      12.542  -9.099   3.454  1.00  0.00     0.022 A 
BRANCH  76  80
ATOM     80  S   UNL     1      14.107 -10.225   5.425  1.00  0.00     0.124 S 
ATOM     81  O   UNL     1      12.993 -11.129   5.705  1.00  0.00    -0.237 OA
ATOM     82  O   UNL     1      15.023 -10.670   4.378  1.00  0.00    -0.237 OA
ATOM     83  O   UNL     1      14.731  -9.627   6.600  1.00  0.00    -0.744 OA
ENDBRANCH  76  80
ENDBRANCH  59  73
BRANCH  60  84
ATOM     84  C   UNL     1      14.515   3.009   7.158  1.00  0.00     0.023 A 
ATOM     85  C   UNL     1      14.171   3.449   8.450  1.00  0.00     0.031 A 
ATOM     86  C   UNL     1      14.974   3.965   6.237  1.00  0.00     0.131 A 
ATOM     87  C   UNL     1      14.213   4.814   8.758  1.00  0.00     0.055 A 
ATOM     88  C   UNL     1      15.090   5.315   6.573  1.00  0.00     0.041 A 
ATOM     89  F   UNL     1      15.303   3.598   4.989  1.00  0.00    -0.206 F 
ATOM     90  C   UNL     1      14.688   5.749   7.833  1.00  0.00     0.022 A 
BRANCH  87  91
ATOM     91  S   UNL     1      13.506   5.437  10.308  1.00  0.00     0.124 S 
ATOM     92  O   UNL     1      14.668   6.040  10.953  1.00  0.00    -0.237 OA
ATOM     93  O   UNL     1      12.497   6.375   9.820  1.00  0.00    -0.237 OA
ATOM     94  O   UNL     1      12.976   4.239  10.950  1.00  0.00    -0.744 OA
ENDBRANCH  87  91
ENDBRANCH  60  84
BRANCH  72  95
ATOM     95  C   UNL     1      18.592  -2.239   4.820  1.00  0.00     0.023 A 
ATOM     96  C   UNL     1      19.050  -2.529   3.520  1.00  0.00     0.031 A 
ATOM     97  C   UNL     1      19.523  -2.260   5.873  1.00  0.00     0.131 A 
ATOM     98  C   UNL     1      20.392  -2.874   3.314  1.00  0.00     0.055 A 
ATOM     99  C   UNL     1      20.869  -2.556   5.654  1.00  0.00     0.041 A 
ATOM    100  F   UNL     1      19.134  -2.002   7.132  1.00  0.00    -0.206 F 
ATOM    101  C   UNL     1      21.305  -2.881   4.373  1.00  0.00     0.022 A 
BRANCH  98 102
ATOM    102  S   UNL     1      20.981  -3.417   1.686  1.00  0.00     0.124 S 
ATOM    103  O   UNL     1      21.998  -2.413   1.382  1.00  0.00    -0.237 OA
ATOM    104  O   UNL     1      21.492  -4.755   1.974  1.00  0.00    -0.237 OA
ATOM    105  O   UNL     1      19.790  -3.369   0.845  1.00  0.00    -0.744 OA
ENDBRANCH  98 102
ENDBRANCH  72  95
ENDBRANCH  46  47
ENDBRANCH  38  41
ENDBRANCH  36  37
ENDBRANCH  35  36
ENDBRANCH   1  35
TORSDOF 19
