REMARK SMILES O=C(NCCCCNC(=O)c1cn(C2C[NH+](CCC[C@@H]3CCCO3)C2)nn1)c1ccc(-c2c3nc(c(-c4cc(S(=O)(=O)[O-])ccc4F)c4ccc([nH]4)c(-c4cc(S(=O)(=O)[O-])ccc4F)c4nc(c(-c5cc(S(=O)(=O)[O-])ccc5F)c5ccc2[nH]5)C=C4)C=C3)cc1
REMARK SMILES IDX 6 1 5 2 4 3 3 4 1 5 2 6 28 8 29 9 90 10 30 11 89 12 31 13
REMARK SMILES IDX 32 14 33 15 83 16 34 17 88 18 82 19 84 20 35 21 87 22 81 23
REMARK SMILES IDX 80 24 36 26 68 27 48 28 67 29 49 30 52 31 66 32 85 33 50 34
REMARK SMILES IDX 51 35 65 37 86 38 53 39 37 40 38 41 46 42 39 43 45 44 47 45
REMARK SMILES IDX 44 46 40 47 41 48 42 49 43 50 69 51 70 52 78 53 71 54 77 55
REMARK SMILES IDX 79 56 76 57 72 58 73 59 74 60 75 61 54 62 55 63 63 64 56 65
REMARK SMILES IDX 62 66 64 67 61 68 57 69 58 70 59 71 60 72 7 73 8 74 9 75
REMARK SMILES IDX 10 77 11 78 12 79 27 80 13 81 26 82 14 83 15 84 25 85 16 86
REMARK SMILES IDX 17 88 18 89 19 90 20 91 21 92 24 93 22 94 23 95
REMARK H PARENT 3 7 84 25 52 36 8 76 16 87
REMARK Flexibility Score: inf
ROOT
ATOM      1  C   UNL     1       4.436  -0.192   3.516  1.00  0.00     0.023 C 
ENDROOT
BRANCH   1   2
ATOM      2  C   UNL     1       4.897   0.499   2.228  1.00  0.00     0.023 C 
BRANCH   2   3
ATOM      3  C   UNL     1       4.620  -0.264   0.935  1.00  0.00     0.116 C 
BRANCH   3   4
ATOM      4  N   UNL     1       3.223  -0.544   0.681  1.00  0.00    -0.352 N 
ATOM      5  O   UNL     1       1.169  -0.493  -0.116  1.00  0.00    -0.269 OA
ATOM      6  C   UNL     1       2.190   0.160   0.120  1.00  0.00     0.251 C 
ATOM      7  H   UNL     1       2.954  -1.443   0.979  1.00  0.00     0.163 HD
BRANCH   6   8
ATOM      8  C   UNL     1       2.187   1.626  -0.152  1.00  0.00     0.039 A 
ATOM      9  C   UNL     1       3.306   2.456  -0.208  1.00  0.00     0.014 A 
ATOM     10  C   UNL     1       0.917   2.205  -0.357  1.00  0.00     0.014 A 
ATOM     11  C   UNL     1       3.154   3.835  -0.385  1.00  0.00     0.010 A 
ATOM     12  C   UNL     1       0.761   3.579  -0.538  1.00  0.00     0.010 A 
ATOM     13  C   UNL     1       1.880   4.402  -0.527  1.00  0.00    -0.014 A 
BRANCH  13  14
ATOM     14  C   UNL     1       1.781   5.818  -0.899  1.00  0.00     0.031 A 
ATOM     15  C   UNL     1       2.325   6.109  -2.255  1.00  0.00     0.074 A 
ATOM     16  C   UNL     1       1.154   6.788  -0.200  1.00  0.00     0.049 A 
ATOM     17  N   UNL     1       3.399   6.763  -2.548  1.00  0.00    -0.248 NA
ATOM     18  C   UNL     1       1.686   5.469  -3.415  1.00  0.00     0.031 C 
ATOM     19  C   UNL     1       0.336   6.646   1.004  1.00  0.00     0.029 A 
ATOM     20  N   UNL     1       1.053   8.126  -0.478  1.00  0.00    -0.354 N 
ATOM     21  C   UNL     1       3.451   6.820  -3.938  1.00  0.00     0.074 A 
ATOM     22  C   UNL     1       2.488   5.859  -4.407  1.00  0.00     0.031 C 
ATOM     23  C   UNL     1      -0.338   7.800   1.230  1.00  0.00     0.029 A 
ATOM     24  C   UNL     1       0.090   8.807   0.268  1.00  0.00     0.049 A 
ATOM     25  H   UNL     1       1.615   8.572  -1.152  1.00  0.00     0.167 HD
ATOM     26  C   UNL     1       4.127   7.813  -4.580  1.00  0.00     0.034 A 
ATOM     27  C   UNL     1      -0.353  10.086   0.093  1.00  0.00     0.034 A 
ATOM     28  C   UNL     1       5.028   8.494  -3.679  1.00  0.00     0.049 A 
ATOM     29  C   UNL     1       0.708  10.817  -0.640  1.00  0.00     0.074 A 
ATOM     30  C   UNL     1       6.092   8.102  -2.888  1.00  0.00     0.029 A 
ATOM     31  N   UNL     1       4.658   9.733  -3.207  1.00  0.00    -0.354 N 
ATOM     32  N   UNL     1       1.877  11.086  -0.128  1.00  0.00    -0.248 NA
ATOM     33  C   UNL     1       0.651  10.836  -2.094  1.00  0.00     0.031 C 
ATOM     34  C   UNL     1       5.955   8.862  -1.690  1.00  0.00     0.029 A 
ATOM     35  C   UNL     1       4.875   9.732  -1.852  1.00  0.00     0.049 A 
ATOM     36  H   UNL     1       4.303  10.480  -3.741  1.00  0.00     0.167 HD
ATOM     37  C   UNL     1       2.776  10.857  -1.157  1.00  0.00     0.074 A 
ATOM     38  C   UNL     1       1.958  10.800  -2.368  1.00  0.00     0.031 C 
ATOM     39  C   UNL     1       4.057  10.458  -0.900  1.00  0.00     0.034 A 
BRANCH  26  40
ATOM     40  C   UNL     1       3.728   8.425  -5.907  1.00  0.00     0.023 A 
ATOM     41  C   UNL     1       4.546   9.457  -6.410  1.00  0.00     0.031 A 
ATOM     42  C   UNL     1       2.470   8.281  -6.532  1.00  0.00     0.131 A 
ATOM     43  C   UNL     1       4.065  10.356  -7.377  1.00  0.00     0.055 A 
ATOM     44  C   UNL     1       2.025   9.134  -7.548  1.00  0.00     0.041 A 
ATOM     45  F   UNL     1       1.563   7.380  -6.139  1.00  0.00    -0.206 F 
ATOM     46  C   UNL     1       2.808  10.202  -7.950  1.00  0.00     0.022 A 
BRANCH  43  47
ATOM     47  S   UNL     1       5.041  11.842  -7.725  1.00  0.00     0.124 S 
ATOM     48  O   UNL     1       5.149  12.436  -6.397  1.00  0.00    -0.237 OA
ATOM     49  O   UNL     1       6.266  11.275  -8.279  1.00  0.00    -0.237 OA
ATOM     50  O   UNL     1       4.210  12.578  -8.674  1.00  0.00    -0.744 OA
ENDBRANCH  43  47
ENDBRANCH  26  40
BRANCH  27  51
ATOM     51  C   UNL     1      -1.739  10.626   0.255  1.00  0.00     0.023 A 
ATOM     52  C   UNL     1      -2.037  12.008   0.346  1.00  0.00     0.031 A 
ATOM     53  C   UNL     1      -2.839   9.763   0.051  1.00  0.00     0.131 A 
ATOM     54  C   UNL     1      -3.376  12.465   0.233  1.00  0.00     0.055 A 
ATOM     55  C   UNL     1      -4.155  10.218  -0.060  1.00  0.00     0.041 A 
ATOM     56  F   UNL     1      -2.662   8.446  -0.139  1.00  0.00    -0.206 F 
ATOM     57  C   UNL     1      -4.428  11.573   0.020  1.00  0.00     0.022 A 
BRANCH  54  58
ATOM     58  S   UNL     1      -3.774  14.249   0.266  1.00  0.00     0.124 S 
ATOM     59  O   UNL     1      -3.501  14.605   1.653  1.00  0.00    -0.237 OA
ATOM     60  O   UNL     1      -2.867  14.794  -0.738  1.00  0.00    -0.237 OA
ATOM     61  O   UNL     1      -5.189  14.290  -0.108  1.00  0.00    -0.744 OA
ENDBRANCH  54  58
ENDBRANCH  27  51
BRANCH  39  62
ATOM     62  C   UNL     1       4.594  10.587   0.510  1.00  0.00     0.023 A 
ATOM     63  C   UNL     1       4.006  10.018   1.663  1.00  0.00     0.031 A 
ATOM     64  C   UNL     1       5.835  11.231   0.663  1.00  0.00     0.131 A 
ATOM     65  C   UNL     1       4.658  10.120   2.908  1.00  0.00     0.055 A 
ATOM     66  C   UNL     1       6.489  11.308   1.891  1.00  0.00     0.041 A 
ATOM     67  F   UNL     1       6.457  11.773  -0.398  1.00  0.00    -0.206 F 
ATOM     68  C   UNL     1       5.898  10.757   3.021  1.00  0.00     0.022 A 
BRANCH  65  69
ATOM     69  S   UNL     1       3.896   9.440   4.418  1.00  0.00     0.124 S 
ATOM     70  O   UNL     1       2.522   9.923   4.356  1.00  0.00    -0.237 OA
ATOM     71  O   UNL     1       4.077   8.001   4.241  1.00  0.00    -0.237 OA
ATOM     72  O   UNL     1       4.699  10.023   5.495  1.00  0.00    -0.744 OA
ENDBRANCH  65  69
ENDBRANCH  39  62
ENDBRANCH  13  14
ENDBRANCH   6   8
ENDBRANCH   3   4
ENDBRANCH   2   3
ENDBRANCH   1   2
BRANCH   1  73
ATOM     73  C   UNL     1       4.926  -1.625   3.723  1.00  0.00     0.116 C 
BRANCH  73  74
ATOM     74  N   UNL     1       6.378  -1.727   3.731  1.00  0.00    -0.351 N 
ATOM     75  C   UNL     1       7.204  -2.309   4.655  1.00  0.00     0.273 C 
ATOM     76  H   UNL     1       6.832  -1.317   2.960  1.00  0.00     0.163 HD
ATOM     77  O   UNL     1       8.431  -2.142   4.536  1.00  0.00    -0.267 OA
BRANCH  75  78
ATOM     78  C   UNL     1       6.645  -3.107   5.724  1.00  0.00     0.170 A 
ATOM     79  C   UNL     1       5.671  -4.090   5.654  1.00  0.00     0.145 A 
ATOM     80  N   UNL     1       7.077  -3.008   7.023  1.00  0.00    -0.125 NA
ATOM     81  N   UNL     1       5.492  -4.464   6.953  1.00  0.00    -0.237 N 
ATOM     82  N   UNL     1       6.356  -3.832   7.766  1.00  0.00    -0.066 NA
BRANCH  81  83
ATOM     83  C   UNL     1       4.496  -5.321   7.506  1.00  0.00     0.218 C 
ATOM     84  C   UNL     1       3.088  -5.191   6.858  1.00  0.00     0.295 C 
ATOM     85  C   UNL     1       4.438  -6.750   6.933  1.00  0.00     0.295 C 
ATOM     86  N   UNL     1       2.956  -6.658   6.928  1.00  0.00    -0.331 N 
ATOM     87  H   UNL     1       2.386  -7.159   6.247  1.00  0.00     0.348 HD
BRANCH  86  88
ATOM     88  C   UNL     1       2.317  -7.187   8.148  1.00  0.00     0.262 C 
BRANCH  88  89
ATOM     89  C   UNL     1       2.491  -6.635   9.585  1.00  0.00     0.064 C 
BRANCH  89  90
ATOM     90  C   UNL     1       2.169  -5.172   9.926  1.00  0.00     0.038 C 
BRANCH  90  91
ATOM     91  C   UNL     1       0.726  -4.666   9.857  1.00  0.00     0.118 C 
ATOM     92  C   UNL     1      -0.213  -5.228   8.806  1.00  0.00     0.034 C 
ATOM     93  O   UNL     1       0.770  -3.238   9.624  1.00  0.00    -0.378 OA
ATOM     94  C   UNL     1      -1.155  -4.073   8.568  1.00  0.00     0.031 C 
ATOM     95  C   UNL     1      -0.195  -2.906   8.615  1.00  0.00     0.160 C 
ENDBRANCH  90  91
ENDBRANCH  89  90
ENDBRANCH  88  89
ENDBRANCH  86  88
ENDBRANCH  81  83
ENDBRANCH  75  78
ENDBRANCH  73  74
ENDBRANCH   1  73
TORSDOF 19
