REMARK SMILES O=C(CCNC(=O)c1cc(S(=O)(=O)N2CCCCC2)cs1)NCCCCNC(=O)c1ccc(-c2c3nc(c(-c4cc(S(=O)(=O)[O-])ccc4F)c4ccc([nH]4)c(-c4cc(S(=O)(=O)[O-])ccc4F)c4nc(c(-c5cc(S(=O)(=O)[O-])ccc5F)c5ccc2[nH]5)C=C4)C=C3)cc1
REMARK SMILES IDX 23 1 22 2 1 3 2 4 3 6 4 7 5 8 6 9 7 11 8 12 9 13 21 14 10 15
REMARK SMILES IDX 20 16 11 17 12 18 13 19 14 20 15 21 19 22 16 23 18 24 17 25
REMARK SMILES IDX 24 26 25 27 26 28 27 29 28 30 29 32 30 33 31 34 92 35 32 36
REMARK SMILES IDX 91 37 33 38 34 39 35 40 85 41 36 42 90 43 84 44 86 45 37 46
REMARK SMILES IDX 89 47 83 48 82 49 38 51 70 52 50 53 69 54 51 55 54 56 68 57
REMARK SMILES IDX 87 58 52 59 53 60 67 62 88 63 55 64 39 65 40 66 48 67 41 68
REMARK SMILES IDX 47 69 49 70 46 71 42 72 43 73 44 74 45 75 71 76 72 77 80 78
REMARK SMILES IDX 73 79 79 80 81 81 78 82 74 83 75 84 76 85 77 86 56 87 57 88
REMARK SMILES IDX 65 89 58 90 64 91 66 92 63 93 59 94 60 95 61 96 62 97
REMARK H PARENT 22 5 5 10 27 31 86 50 54 61
REMARK Flexibility Score: inf
ROOT
ATOM      1  C   UNL     1       2.144   2.027   1.550  1.00  0.00     0.116 C 
ENDROOT
BRANCH   1   2
ATOM      2  N   UNL     1       2.821   0.896   0.950  1.00  0.00    -0.356 N 
ATOM      3  O   UNL     1       1.020   0.129  -0.263  1.00  0.00    -0.275 OA
ATOM      4  C   UNL     1       2.195   0.037   0.078  1.00  0.00     0.221 C 
ATOM      5  H   UNL     1       3.765   0.736   1.176  1.00  0.00     0.163 HD
BRANCH   4   6
ATOM      6  C   UNL     1       3.110  -1.015  -0.493  1.00  0.00     0.121 C 
BRANCH   6   7
ATOM      7  C   UNL     1       3.881  -0.438  -1.673  1.00  0.00     0.126 C 
BRANCH   7   8
ATOM      8  N   UNL     1       5.014   0.375  -1.244  1.00  0.00    -0.351 N 
ATOM      9  C   UNL     1       6.344   0.028  -1.125  1.00  0.00     0.261 C 
ATOM     10  H   UNL     1       4.798   1.306  -1.004  1.00  0.00     0.163 HD
ATOM     11  O   UNL     1       7.043   0.735  -0.403  1.00  0.00    -0.268 OA
BRANCH   9  12
ATOM     12  C   UNL     1       6.821  -1.117  -1.874  1.00  0.00     0.093 A 
ATOM     13  C   UNL     1       6.553  -1.439  -3.190  1.00  0.00     0.047 A 
ATOM     14  S   UNL     1       7.889  -2.248  -1.168  1.00  0.00    -0.137 S 
ATOM     15  C   UNL     1       7.073  -2.709  -3.564  1.00  0.00     0.094 A 
ATOM     16  C   UNL     1       7.856  -3.247  -2.564  1.00  0.00     0.087 A 
BRANCH  15  17
ATOM     17  S   UNL     1       6.748  -3.523  -5.069  1.00  0.00     0.243 S 
ATOM     18  O   UNL     1       8.016  -3.486  -5.762  1.00  0.00    -0.207 OA
ATOM     19  O   UNL     1       6.139  -4.763  -4.640  1.00  0.00    -0.207 OA
BRANCH  17  20
ATOM     20  N   UNL     1       5.587  -2.654  -5.988  1.00  0.00    -0.198 NA
ATOM     21  C   UNL     1       4.226  -2.621  -5.396  1.00  0.00     0.102 C 
ATOM     22  C   UNL     1       6.098  -1.410  -6.621  1.00  0.00     0.102 C 
ATOM     23  C   UNL     1       3.221  -1.884  -6.268  1.00  0.00     0.017 C 
ATOM     24  C   UNL     1       5.040  -0.711  -7.463  1.00  0.00     0.017 C 
ATOM     25  C   UNL     1       3.748  -0.520  -6.685  1.00  0.00     0.003 C 
ENDBRANCH  17  20
ENDBRANCH  15  17
ENDBRANCH   9  12
ENDBRANCH   7   8
ENDBRANCH   6   7
ENDBRANCH   4   6
ENDBRANCH   1   2
BRANCH   1  26
ATOM     26  C   UNL     1       2.473   2.170   3.033  1.00  0.00     0.023 C 
BRANCH  26  27
ATOM     27  C   UNL     1       3.956   2.383   3.355  1.00  0.00     0.023 C 
BRANCH  27  28
ATOM     28  C   UNL     1       4.612   3.586   2.682  1.00  0.00     0.116 C 
BRANCH  28  29
ATOM     29  N   UNL     1       4.019   4.846   3.095  1.00  0.00    -0.352 N 
ATOM     30  C   UNL     1       4.627   5.981   3.578  1.00  0.00     0.251 C 
ATOM     31  H   UNL     1       3.038   4.894   3.018  1.00  0.00     0.163 HD
ATOM     32  O   UNL     1       3.933   6.886   4.034  1.00  0.00    -0.269 OA
BRANCH  30  33
ATOM     33  C   UNL     1       6.104   6.102   3.578  1.00  0.00     0.039 A 
ATOM     34  C   UNL     1       6.737   6.611   4.716  1.00  0.00     0.014 A 
ATOM     35  C   UNL     1       6.864   5.734   2.464  1.00  0.00     0.014 A 
ATOM     36  C   UNL     1       8.132   6.688   4.763  1.00  0.00     0.010 A 
ATOM     37  C   UNL     1       8.257   5.755   2.535  1.00  0.00     0.010 A 
ATOM     38  C   UNL     1       8.906   6.228   3.685  1.00  0.00    -0.014 A 
BRANCH  38  39
ATOM     39  C   UNL     1      10.393   6.228   3.746  1.00  0.00     0.031 A 
ATOM     40  C   UNL     1      11.190   7.104   2.818  1.00  0.00     0.074 A 
ATOM     41  C   UNL     1      11.025   5.388   4.589  1.00  0.00     0.049 A 
ATOM     42  N   UNL     1      12.486   7.178   2.657  1.00  0.00    -0.248 NA
ATOM     43  C   UNL     1      10.422   7.995   1.936  1.00  0.00     0.031 C 
ATOM     44  C   UNL     1      10.366   4.464   5.515  1.00  0.00     0.029 A 
ATOM     45  N   UNL     1      12.364   5.164   4.796  1.00  0.00    -0.354 N 
ATOM     46  C   UNL     1      12.691   8.107   1.643  1.00  0.00     0.074 A 
ATOM     47  C   UNL     1      11.381   8.534   1.197  1.00  0.00     0.031 C 
ATOM     48  C   UNL     1      11.301   3.785   6.199  1.00  0.00     0.029 A 
ATOM     49  C   UNL     1      12.624   4.191   5.734  1.00  0.00     0.049 A 
ATOM     50  H   UNL     1      13.072   5.653   4.318  1.00  0.00     0.167 HD
ATOM     51  C   UNL     1      13.863   8.574   1.142  1.00  0.00     0.034 A 
ATOM     52  C   UNL     1      13.793   3.673   6.160  1.00  0.00     0.034 A 
ATOM     53  C   UNL     1      15.163   8.153   1.607  1.00  0.00     0.049 A 
ATOM     54  C   UNL     1      15.081   4.195   5.577  1.00  0.00     0.074 A 
ATOM     55  C   UNL     1      16.410   8.611   1.216  1.00  0.00     0.029 A 
ATOM     56  N   UNL     1      15.386   7.169   2.562  1.00  0.00    -0.354 N 
ATOM     57  N   UNL     1      15.259   5.111   4.653  1.00  0.00    -0.248 NA
ATOM     58  C   UNL     1      16.326   3.619   6.102  1.00  0.00     0.031 C 
ATOM     59  C   UNL     1      17.385   7.864   1.887  1.00  0.00     0.029 A 
ATOM     60  C   UNL     1      16.749   6.986   2.750  1.00  0.00     0.049 A 
ATOM     61  H   UNL     1      14.681   6.673   3.037  1.00  0.00     0.167 HD
ATOM     62  C   UNL     1      16.637   5.241   4.510  1.00  0.00     0.074 A 
ATOM     63  C   UNL     1      17.242   4.318   5.449  1.00  0.00     0.031 C 
ATOM     64  C   UNL     1      17.340   6.054   3.681  1.00  0.00     0.034 A 
BRANCH  51  65
ATOM     65  C   UNL     1      13.786   9.571   0.010  1.00  0.00     0.023 A 
ATOM     66  C   UNL     1      13.209  10.842   0.183  1.00  0.00     0.031 A 
ATOM     67  C   UNL     1      14.272   9.237  -1.266  1.00  0.00     0.131 A 
ATOM     68  C   UNL     1      13.065  11.701  -0.917  1.00  0.00     0.055 A 
ATOM     69  C   UNL     1      14.197  10.128  -2.339  1.00  0.00     0.041 A 
ATOM     70  F   UNL     1      14.816   8.032  -1.497  1.00  0.00    -0.206 F 
ATOM     71  C   UNL     1      13.576  11.362  -2.172  1.00  0.00     0.022 A 
BRANCH  68  72
ATOM     72  S   UNL     1      12.074  13.207  -0.716  1.00  0.00     0.124 S 
ATOM     73  O   UNL     1      10.780  12.657  -0.317  1.00  0.00    -0.237 OA
ATOM     74  O   UNL     1      12.806  13.931   0.315  1.00  0.00    -0.237 OA
ATOM     75  O   UNL     1      12.100  13.814  -2.045  1.00  0.00    -0.744 OA
ENDBRANCH  68  72
ENDBRANCH  51  65
BRANCH  52  76
ATOM     76  C   UNL     1      13.810   2.591   7.184  1.00  0.00     0.023 A 
ATOM     77  C   UNL     1      14.351   2.815   8.459  1.00  0.00     0.031 A 
ATOM     78  C   UNL     1      13.325   1.306   6.887  1.00  0.00     0.131 A 
ATOM     79  C   UNL     1      14.436   1.757   9.378  1.00  0.00     0.055 A 
ATOM     80  C   UNL     1      13.368   0.269   7.821  1.00  0.00     0.041 A 
ATOM     81  F   UNL     1      12.791   1.042   5.684  1.00  0.00    -0.206 F 
ATOM     82  C   UNL     1      13.938   0.489   9.071  1.00  0.00     0.022 A 
BRANCH  79  83
ATOM     83  S   UNL     1      15.278   2.046  10.958  1.00  0.00     0.124 S 
ATOM     84  O   UNL     1      16.604   2.465  10.517  1.00  0.00    -0.237 OA
ATOM     85  O   UNL     1      14.445   3.081  11.560  1.00  0.00    -0.237 OA
ATOM     86  O   UNL     1      15.221   0.742  11.617  1.00  0.00    -0.744 OA
ENDBRANCH  79  83
ENDBRANCH  52  76
BRANCH  64  87
ATOM     87  C   UNL     1      18.843   6.012   3.796  1.00  0.00     0.023 A 
ATOM     88  C   UNL     1      19.584   4.885   3.399  1.00  0.00     0.031 A 
ATOM     89  C   UNL     1      19.540   7.110   4.329  1.00  0.00     0.131 A 
ATOM     90  C   UNL     1      20.974   4.862   3.590  1.00  0.00     0.055 A 
ATOM     91  C   UNL     1      20.929   7.102   4.467  1.00  0.00     0.041 A 
ATOM     92  F   UNL     1      18.881   8.210   4.726  1.00  0.00    -0.206 F 
ATOM     93  C   UNL     1      21.652   5.969   4.107  1.00  0.00     0.022 A 
BRANCH  90  94
ATOM     94  S   UNL     1      21.880   3.332   3.228  1.00  0.00     0.124 S 
ATOM     95  O   UNL     1      21.232   2.377   4.122  1.00  0.00    -0.237 OA
ATOM     96  O   UNL     1      21.624   3.147   1.803  1.00  0.00    -0.237 OA
ATOM     97  O   UNL     1      23.262   3.662   3.570  1.00  0.00    -0.744 OA
ENDBRANCH  90  94
ENDBRANCH  64  87
ENDBRANCH  38  39
ENDBRANCH  30  33
ENDBRANCH  28  29
ENDBRANCH  27  28
ENDBRANCH  26  27
ENDBRANCH   1  26
TORSDOF 19
