REMARK SMILES C[C@@H]1[C@H](C(=O)NCCCCNC(=O)c2ccc(-c3c4nc(c(-c5cc(S(=O)(=O)[O-])ccc5F)c5ccc([nH]5)c(-c5cc(S(=O)(=O)[O-])ccc5F)c5nc(c(-c6cc(S(=O)(=O)[O-])ccc6F)c6ccc3[nH]6)C=C5)C=C4)cc2)CC[N@@H+]1Cc1cnn(-c2ccccc2)c1
REMARK SMILES IDX 8 1 7 2 6 3 4 4 5 5 3 7 1 8 2 9 79 10 77 11 78 12 80 14
REMARK SMILES IDX 81 15 82 16 91 17 83 18 84 19 85 20 86 21 90 22 87 23 89 24
REMARK SMILES IDX 88 25 9 26 10 27 11 28 12 29 13 31 14 32 15 33 76 34 16 35
REMARK SMILES IDX 75 36 17 37 18 38 19 39 69 40 20 41 74 42 68 43 70 44 21 45
REMARK SMILES IDX 73 46 67 47 66 48 22 50 54 51 34 52 53 53 35 54 38 55 52 56
REMARK SMILES IDX 71 57 36 58 37 59 51 61 72 62 39 63 23 64 24 65 32 66 25 67
REMARK SMILES IDX 31 68 33 69 30 70 26 71 27 72 28 73 29 74 55 75 56 76 64 77
REMARK SMILES IDX 57 78 63 79 65 80 62 81 58 82 59 83 60 84 61 85 40 86 41 87
REMARK SMILES IDX 49 88 42 89 48 90 50 91 47 92 43 93 44 94 45 95 46 96
REMARK H PARENT 6 6 79 13 11 30 70 49 38 60
REMARK Flexibility Score: inf
ROOT
ATOM      1  C   UNL     1       2.800   1.536   2.332  1.00  0.00     0.023 C 
ENDROOT
BRANCH   1   2
ATOM      2  C   UNL     1       1.353   1.875   1.991  1.00  0.00     0.116 C 
BRANCH   2   3
ATOM      3  N   UNL     1       1.263   2.665   0.783  1.00  0.00    -0.356 N 
ATOM      4  C   UNL     1       0.699   2.380  -0.417  1.00  0.00     0.229 C 
ATOM      5  O   UNL     1       0.847   3.214  -1.317  1.00  0.00    -0.275 OA
ATOM      6  H   UNL     1       1.679   3.556   0.842  1.00  0.00     0.163 HD
BRANCH   4   7
ATOM      7  C   UNL     1      -0.106   1.117  -0.694  1.00  0.00     0.142 C 
ATOM      8  C   UNL     1       2.099  -0.316  -0.511  1.00  0.00     0.076 C 
ATOM      9  C   UNL     1       0.607  -0.248  -0.789  1.00  0.00     0.193 C 
ATOM     10  N   UNL     1      -0.249  -1.139  -0.018  1.00  0.00    -0.328 N 
ATOM     11  C   UNL     1      -1.328   0.902   0.204  1.00  0.00     0.081 C 
ATOM     12  C   UNL     1      -1.576  -0.595   0.140  1.00  0.00     0.263 C 
ATOM     13  H   UNL     1      -0.118  -2.032  -0.494  1.00  0.00     0.348 HD
BRANCH  10  14
ATOM     14  C   UNL     1       0.190  -2.286   0.736  1.00  0.00     0.302 C 
BRANCH  14  15
ATOM     15  C   UNL     1       0.564  -1.943   2.141  1.00  0.00     0.045 A 
ATOM     16  C   UNL     1      -0.283  -1.582   3.210  1.00  0.00     0.145 A 
ATOM     17  C   UNL     1       1.815  -1.977   2.732  1.00  0.00     0.124 A 
ATOM     18  N   UNL     1       0.362  -1.431   4.365  1.00  0.00    -0.176 NA
ATOM     19  N   UNL     1       1.667  -1.639   4.063  1.00  0.00    -0.240 N 
BRANCH  19  20
ATOM     20  C   UNL     1       2.685  -1.456   5.037  1.00  0.00     0.065 A 
ATOM     21  C   UNL     1       2.345  -1.461   6.396  1.00  0.00     0.028 A 
ATOM     22  C   UNL     1       4.013  -1.209   4.658  1.00  0.00     0.028 A 
ATOM     23  C   UNL     1       3.326  -1.233   7.364  1.00  0.00     0.002 A 
ATOM     24  C   UNL     1       4.977  -0.929   5.631  1.00  0.00     0.002 A 
ATOM     25  C   UNL     1       4.636  -0.950   6.981  1.00  0.00     0.000 A 
ENDBRANCH  19  20
ENDBRANCH  14  15
ENDBRANCH  10  14
ENDBRANCH   4   7
ENDBRANCH   2   3
ENDBRANCH   1   2
BRANCH   1  26
ATOM     26  C   UNL     1       3.626   2.640   2.962  1.00  0.00     0.023 C 
BRANCH  26  27
ATOM     27  C   UNL     1       3.013   3.282   4.191  1.00  0.00     0.116 C 
BRANCH  27  28
ATOM     28  N   UNL     1       2.625   2.347   5.238  1.00  0.00    -0.352 N 
ATOM     29  C   UNL     1       2.889   2.437   6.589  1.00  0.00     0.251 C 
ATOM     30  H   UNL     1       2.115   1.557   4.948  1.00  0.00     0.163 HD
ATOM     31  O   UNL     1       2.414   1.661   7.399  1.00  0.00    -0.269 OA
BRANCH  29  32
ATOM     32  C   UNL     1       3.772   3.519   7.043  1.00  0.00     0.039 A 
ATOM     33  C   UNL     1       4.985   3.211   7.665  1.00  0.00     0.014 A 
ATOM     34  C   UNL     1       3.405   4.836   6.772  1.00  0.00     0.014 A 
ATOM     35  C   UNL     1       5.858   4.247   7.994  1.00  0.00     0.010 A 
ATOM     36  C   UNL     1       4.317   5.848   7.003  1.00  0.00     0.010 A 
ATOM     37  C   UNL     1       5.532   5.568   7.653  1.00  0.00    -0.014 A 
BRANCH  37  38
ATOM     38  C   UNL     1       6.357   6.723   8.073  1.00  0.00     0.031 A 
ATOM     39  C   UNL     1       5.734   7.719   9.012  1.00  0.00     0.074 A 
ATOM     40  C   UNL     1       7.577   6.928   7.545  1.00  0.00     0.049 A 
ATOM     41  N   UNL     1       6.127   8.921   9.333  1.00  0.00    -0.248 NA
ATOM     42  C   UNL     1       4.452   7.322   9.619  1.00  0.00     0.031 C 
ATOM     43  C   UNL     1       8.266   6.028   6.619  1.00  0.00     0.029 A 
ATOM     44  N   UNL     1       8.443   7.978   7.697  1.00  0.00    -0.354 N 
ATOM     45  C   UNL     1       5.119   9.439  10.140  1.00  0.00     0.074 A 
ATOM     46  C   UNL     1       4.067   8.448  10.194  1.00  0.00     0.031 C 
ATOM     47  C   UNL     1       9.455   6.562   6.294  1.00  0.00     0.029 A 
ATOM     48  C   UNL     1       9.587   7.864   6.941  1.00  0.00     0.049 A 
ATOM     49  H   UNL     1       8.264   8.743   8.290  1.00  0.00     0.167 HD
ATOM     50  C   UNL     1       5.088  10.625  10.795  1.00  0.00     0.034 A 
ATOM     51  C   UNL     1      10.608   8.728   6.779  1.00  0.00     0.034 A 
ATOM     52  C   UNL     1       6.172  11.573  10.746  1.00  0.00     0.049 A 
ATOM     53  C   UNL     1      10.555  10.045   7.514  1.00  0.00     0.074 A 
ATOM     54  C   UNL     1       6.290  12.787  11.397  1.00  0.00     0.029 A 
ATOM     55  N   UNL     1       7.335  11.405  10.001  1.00  0.00    -0.354 N 
ATOM     56  N   UNL     1       9.606  10.525   8.287  1.00  0.00    -0.248 NA
ATOM     57  C   UNL     1      11.714  10.932   7.364  1.00  0.00     0.031 C 
ATOM     58  C   UNL     1       7.492  13.380  10.998  1.00  0.00     0.029 A 
ATOM     59  C   UNL     1       8.166  12.501  10.163  1.00  0.00     0.049 A 
ATOM     60  H   UNL     1       7.537  10.622   9.440  1.00  0.00     0.167 HD
ATOM     61  C   UNL     1      10.074  11.752   8.748  1.00  0.00     0.074 A 
ATOM     62  C   UNL     1      11.393  11.931   8.172  1.00  0.00     0.031 C 
ATOM     63  C   UNL     1       9.478  12.649   9.576  1.00  0.00     0.034 A 
BRANCH  50  64
ATOM     64  C   UNL     1       3.840  10.951  11.582  1.00  0.00     0.023 A 
ATOM     65  C   UNL     1       3.395  10.136  12.639  1.00  0.00     0.031 A 
ATOM     66  C   UNL     1       3.046  12.058  11.232  1.00  0.00     0.131 A 
ATOM     67  C   UNL     1       2.150  10.380  13.239  1.00  0.00     0.055 A 
ATOM     68  C   UNL     1       1.854  12.351  11.900  1.00  0.00     0.041 A 
ATOM     69  F   UNL     1       3.400  12.861  10.217  1.00  0.00    -0.206 F 
ATOM     70  C   UNL     1       1.390  11.499  12.896  1.00  0.00     0.022 A 
BRANCH  67  71
ATOM     71  S   UNL     1       1.464   9.118  14.347  1.00  0.00     0.124 S 
ATOM     72  O   UNL     1       1.395   7.957  13.463  1.00  0.00    -0.237 OA
ATOM     73  O   UNL     1       2.461   9.053  15.409  1.00  0.00    -0.237 OA
ATOM     74  O   UNL     1       0.169   9.672  14.738  1.00  0.00    -0.744 OA
ENDBRANCH  67  71
ENDBRANCH  50  64
BRANCH  51  75
ATOM     75  C   UNL     1      11.759   8.384   5.896  1.00  0.00     0.023 A 
ATOM     76  C   UNL     1      13.048   8.220   6.428  1.00  0.00     0.031 A 
ATOM     77  C   UNL     1      11.599   8.243   4.506  1.00  0.00     0.131 A 
ATOM     78  C   UNL     1      14.134   7.970   5.575  1.00  0.00     0.055 A 
ATOM     79  C   UNL     1      12.674   7.941   3.667  1.00  0.00     0.041 A 
ATOM     80  F   UNL     1      10.388   8.382   3.944  1.00  0.00    -0.206 F 
ATOM     81  C   UNL     1      13.953   7.815   4.199  1.00  0.00     0.022 A 
BRANCH  78  82
ATOM     82  S   UNL     1      15.803   7.928   6.284  1.00  0.00     0.124 S 
ATOM     83  O   UNL     1      15.900   9.250   6.892  1.00  0.00    -0.237 OA
ATOM     84  O   UNL     1      15.711   6.802   7.206  1.00  0.00    -0.237 OA
ATOM     85  O   UNL     1      16.660   7.711   5.120  1.00  0.00    -0.744 OA
ENDBRANCH  78  82
ENDBRANCH  51  75
BRANCH  63  86
ATOM     86  C   UNL     1      10.282  13.868   9.956  1.00  0.00     0.023 A 
ATOM     87  C   UNL     1      10.635  14.849   9.014  1.00  0.00     0.031 A 
ATOM     88  C   UNL     1      10.705  14.042  11.286  1.00  0.00     0.131 A 
ATOM     89  C   UNL     1      11.441  15.929   9.403  1.00  0.00     0.055 A 
ATOM     90  C   UNL     1      11.449  15.154  11.681  1.00  0.00     0.041 A 
ATOM     91  F   UNL     1      10.396  13.134  12.226  1.00  0.00    -0.206 F 
ATOM     92  C   UNL     1      11.834  16.097  10.733  1.00  0.00     0.022 A 
BRANCH  89  93
ATOM     93  S   UNL     1      12.061  17.055   8.123  1.00  0.00     0.124 S 
ATOM     94  O   UNL     1      12.771  16.141   7.234  1.00  0.00    -0.237 OA
ATOM     95  O   UNL     1      10.830  17.632   7.594  1.00  0.00    -0.237 OA
ATOM     96  O   UNL     1      12.911  17.983   8.866  1.00  0.00    -0.744 OA
ENDBRANCH  89  93
ENDBRANCH  63  86
ENDBRANCH  37  38
ENDBRANCH  29  32
ENDBRANCH  27  28
ENDBRANCH  26  27
ENDBRANCH   1  26
TORSDOF 17
