REMARK SMILES C#CC[N@@H+](CC(=O)NCCCCNC(=O)c1ccc(-c2c3nc(c(-c4cc(S(=O)(=O)[O-])ccc4F)c4ccc([nH]4)c(-c4cc(S(=O)(=O)[O-])ccc4F)c4nc(c(-c5cc(S(=O)(=O)[O-])ccc5F)c5ccc2[nH]5)C=C4)C=C3)cc1)[C@@H](C)Cc1ccco1
REMARK SMILES IDX 10 1 9 2 8 3 6 4 7 5 5 7 4 8 3 10 2 11 1 12 79 13 80 14
REMARK SMILES IDX 81 15 82 16 83 17 86 18 84 19 85 20 11 21 12 22 13 23 14 24
REMARK SMILES IDX 15 26 16 27 17 28 78 29 18 30 77 31 19 32 20 33 21 34 71 35
REMARK SMILES IDX 22 36 76 37 70 38 72 39 23 40 75 41 69 42 68 43 24 45 56 46
REMARK SMILES IDX 36 47 55 48 37 49 40 50 54 51 73 52 38 53 39 54 53 56 74 57
REMARK SMILES IDX 41 58 25 59 26 60 34 61 27 62 33 63 35 64 32 65 28 66 29 67
REMARK SMILES IDX 30 68 31 69 57 70 58 71 66 72 59 73 65 74 67 75 64 76 60 77
REMARK SMILES IDX 61 78 62 79 63 80 42 81 43 82 51 83 44 84 50 85 52 86 49 87
REMARK SMILES IDX 45 88 46 89 47 90 48 91
REMARK H PARENT 8 6 4 9 13 25 72 44 40 55
REMARK Flexibility Score: inf
ROOT
ATOM      1  C   UNL     1      -2.542   1.468   2.595  1.00  0.00     0.023 C 
ENDROOT
BRANCH   1   2
ATOM      2  C   UNL     1      -3.851   0.791   2.138  1.00  0.00     0.116 C 
BRANCH   2   3
ATOM      3  N   UNL     1      -4.511   1.531   1.072  1.00  0.00    -0.351 N 
ATOM      4  C   UNL     1      -4.620   1.337  -0.276  1.00  0.00     0.275 C 
ATOM      5  O   UNL     1      -5.383   2.109  -0.872  1.00  0.00    -0.269 OA
ATOM      6  H   UNL     1      -4.975   2.340   1.388  1.00  0.00     0.163 HD
BRANCH   4   7
ATOM      7  C   UNL     1      -3.908   0.216  -1.065  1.00  0.00     0.364 C 
BRANCH   7   8
ATOM      8  N   UNL     1      -2.438   0.345  -1.299  1.00  0.00    -0.314 N 
ATOM      9  H   UNL     1      -2.113  -0.356  -1.965  1.00  0.00     0.349 HD
BRANCH   8  10
ATOM     10  C   UNL     1      -1.755   0.050  -0.052  1.00  0.00     0.354 C 
BRANCH  10  11
ATOM     11  C   UNL     1      -0.235   0.050  -0.052  1.00  0.00    -0.047 C 
ATOM     12  C   UNL     1       1.069   0.050  -0.052  1.00  0.00     0.010 C 
ENDBRANCH  10  11
ENDBRANCH   8  10
BRANCH   8  13
ATOM     13  C   UNL     1      -2.028   1.545  -2.085  1.00  0.00     0.189 C 
ATOM     14  C   UNL     1      -2.229   2.902  -1.370  1.00  0.00     0.076 C 
BRANCH  13  15
ATOM     15  C   UNL     1      -0.574   1.611  -2.652  1.00  0.00     0.140 C 
BRANCH  15  16
ATOM     16  C   UNL     1      -0.050   0.488  -3.477  1.00  0.00     0.109 A 
ATOM     17  C   UNL     1       0.873   0.473  -4.507  1.00  0.00     0.046 A 
ATOM     18  O   UNL     1      -0.397  -0.787  -3.156  1.00  0.00    -0.469 OA
ATOM     19  C   UNL     1       1.105  -0.885  -4.822  1.00  0.00     0.042 A 
ATOM     20  C   UNL     1       0.309  -1.612  -3.969  1.00  0.00     0.195 A 
ENDBRANCH  15  16
ENDBRANCH  13  15
ENDBRANCH   8  13
ENDBRANCH   7   8
ENDBRANCH   4   7
ENDBRANCH   2   3
ENDBRANCH   1   2
BRANCH   1  21
ATOM     21  C   UNL     1      -2.571   2.323   3.834  1.00  0.00     0.023 C 
BRANCH  21  22
ATOM     22  C   UNL     1      -3.027   1.603   5.072  1.00  0.00     0.116 C 
BRANCH  22  23
ATOM     23  N   UNL     1      -2.278   0.395   5.395  1.00  0.00    -0.352 N 
ATOM     24  C   UNL     1      -1.960  -0.071   6.659  1.00  0.00     0.251 C 
ATOM     25  H   UNL     1      -1.966  -0.147   4.635  1.00  0.00     0.163 HD
ATOM     26  O   UNL     1      -1.273  -1.063   6.812  1.00  0.00    -0.269 OA
BRANCH  24  27
ATOM     27  C   UNL     1      -2.435   0.731   7.809  1.00  0.00     0.039 A 
ATOM     28  C   UNL     1      -1.510   1.186   8.746  1.00  0.00     0.014 A 
ATOM     29  C   UNL     1      -3.753   1.190   7.821  1.00  0.00     0.014 A 
ATOM     30  C   UNL     1      -1.899   2.173   9.650  1.00  0.00     0.010 A 
ATOM     31  C   UNL     1      -4.078   2.286   8.600  1.00  0.00     0.010 A 
ATOM     32  C   UNL     1      -3.170   2.766   9.551  1.00  0.00    -0.014 A 
BRANCH  32  33
ATOM     33  C   UNL     1      -3.587   3.849  10.475  1.00  0.00     0.031 A 
ATOM     34  C   UNL     1      -4.797   3.644  11.351  1.00  0.00     0.074 A 
ATOM     35  C   UNL     1      -2.909   5.013  10.495  1.00  0.00     0.049 A 
ATOM     36  N   UNL     1      -5.320   4.447  12.240  1.00  0.00    -0.248 NA
ATOM     37  C   UNL     1      -5.552   2.394  11.165  1.00  0.00     0.031 C 
ATOM     38  C   UNL     1      -1.787   5.359   9.614  1.00  0.00     0.029 A 
ATOM     39  N   UNL     1      -3.051   6.119  11.293  1.00  0.00    -0.354 N 
ATOM     40  C   UNL     1      -6.466   3.804  12.698  1.00  0.00     0.074 A 
ATOM     41  C   UNL     1      -6.621   2.603  11.912  1.00  0.00     0.031 C 
ATOM     42  C   UNL     1      -1.306   6.562   9.965  1.00  0.00     0.029 A 
ATOM     43  C   UNL     1      -2.098   7.087  11.072  1.00  0.00     0.049 A 
ATOM     44  H   UNL     1      -3.768   6.211  11.961  1.00  0.00     0.167 HD
ATOM     45  C   UNL     1      -7.287   4.155  13.717  1.00  0.00     0.034 A 
ATOM     46  C   UNL     1      -1.878   8.252  11.712  1.00  0.00     0.034 A 
ATOM     47  C   UNL     1      -7.087   5.339  14.510  1.00  0.00     0.049 A 
ATOM     48  C   UNL     1      -2.762   8.596  12.884  1.00  0.00     0.074 A 
ATOM     49  C   UNL     1      -7.804   5.779  15.607  1.00  0.00     0.029 A 
ATOM     50  N   UNL     1      -6.082   6.275  14.289  1.00  0.00    -0.354 N 
ATOM     51  N   UNL     1      -3.792   7.935  13.364  1.00  0.00    -0.248 NA
ATOM     52  C   UNL     1      -2.435   9.822  13.618  1.00  0.00     0.031 C 
ATOM     53  C   UNL     1      -7.271   7.008  16.012  1.00  0.00     0.029 A 
ATOM     54  C   UNL     1      -6.173   7.300  15.216  1.00  0.00     0.049 A 
ATOM     55  H   UNL     1      -5.405   6.218  13.576  1.00  0.00     0.167 HD
ATOM     56  C   UNL     1      -4.220   8.656  14.475  1.00  0.00     0.074 A 
ATOM     57  C   UNL     1      -3.315   9.781  14.606  1.00  0.00     0.031 C 
ATOM     58  C   UNL     1      -5.264   8.418  15.312  1.00  0.00     0.034 A 
BRANCH  45  59
ATOM     59  C   UNL     1      -8.461   3.247  14.003  1.00  0.00     0.023 A 
ATOM     60  C   UNL     1      -8.284   1.897  14.362  1.00  0.00     0.031 A 
ATOM     61  C   UNL     1      -9.778   3.715  13.853  1.00  0.00     0.131 A 
ATOM     62  C   UNL     1      -9.393   1.043  14.462  1.00  0.00     0.055 A 
ATOM     63  C   UNL     1     -10.882   2.882  14.047  1.00  0.00     0.041 A 
ATOM     64  F   UNL     1     -10.014   4.984  13.488  1.00  0.00    -0.206 F 
ATOM     65  C   UNL     1     -10.693   1.533  14.335  1.00  0.00     0.022 A 
BRANCH  62  66
ATOM     66  S   UNL     1      -9.103  -0.743  14.596  1.00  0.00     0.124 S 
ATOM     67  O   UNL     1      -8.365  -1.014  13.364  1.00  0.00    -0.237 OA
ATOM     68  O   UNL     1      -8.339  -0.848  15.834  1.00  0.00    -0.237 OA
ATOM     69  O   UNL     1     -10.450  -1.307  14.643  1.00  0.00    -0.744 OA
ENDBRANCH  62  66
ENDBRANCH  45  59
BRANCH  46  70
ATOM     70  C   UNL     1      -0.763   9.151  11.295  1.00  0.00     0.023 A 
ATOM     71  C   UNL     1       0.329   9.400  12.144  1.00  0.00     0.031 A 
ATOM     72  C   UNL     1      -0.785   9.800  10.048  1.00  0.00     0.131 A 
ATOM     73  C   UNL     1       1.327  10.309  11.757  1.00  0.00     0.055 A 
ATOM     74  C   UNL     1       0.235  10.666   9.647  1.00  0.00     0.041 A 
ATOM     75  F   UNL     1      -1.797   9.589   9.191  1.00  0.00    -0.206 F 
ATOM     76  C   UNL     1       1.293  10.935  10.510  1.00  0.00     0.022 A 
BRANCH  73  77
ATOM     77  S   UNL     1       2.637  10.721  12.944  1.00  0.00     0.124 S 
ATOM     78  O   UNL     1       1.867  11.214  14.079  1.00  0.00    -0.237 OA
ATOM     79  O   UNL     1       3.296   9.432  13.126  1.00  0.00    -0.237 OA
ATOM     80  O   UNL     1       3.428  11.729  12.240  1.00  0.00    -0.744 OA
ENDBRANCH  73  77
ENDBRANCH  46  70
BRANCH  58  81
ATOM     81  C   UNL     1      -5.446   9.384  16.455  1.00  0.00     0.023 A 
ATOM     82  C   UNL     1      -5.769  10.733  16.232  1.00  0.00     0.031 A 
ATOM     83  C   UNL     1      -5.257   8.957  17.781  1.00  0.00     0.131 A 
ATOM     84  C   UNL     1      -5.810  11.627  17.311  1.00  0.00     0.055 A 
ATOM     85  C   UNL     1      -5.373   9.837  18.858  1.00  0.00     0.041 A 
ATOM     86  F   UNL     1      -4.949   7.678  18.051  1.00  0.00    -0.206 F 
ATOM     87  C   UNL     1      -5.631  11.185  18.624  1.00  0.00     0.022 A 
BRANCH  84  88
ATOM     88  S   UNL     1      -5.966  13.399  16.959  1.00  0.00     0.124 S 
ATOM     89  O   UNL     1      -4.851  13.626  16.045  1.00  0.00    -0.237 OA
ATOM     90  O   UNL     1      -7.299  13.483  16.371  1.00  0.00    -0.237 OA
ATOM     91  O   UNL     1      -5.828  14.022  18.274  1.00  0.00    -0.744 OA
ENDBRANCH  84  88
ENDBRANCH  58  81
ENDBRANCH  32  33
ENDBRANCH  24  27
ENDBRANCH  22  23
ENDBRANCH  21  22
ENDBRANCH   1  21
TORSDOF 20
