REMARK SMILES COc1ccc(Br)cc1S(=O)(=O)N(C)CC(=O)NCCCCNC(=O)c1ccc(-c2c3nc(c(-c4cc(S(=O)(=O)[O-])ccc4F)c4ccc([nH]4)c(-c4cc(S(=O)(=O)[O-])ccc4F)c4nc(c(-c5cc(S(=O)(=O)[O-])ccc5F)c5ccc2[nH]5)C=C4)C=C3)cc1
REMARK SMILES IDX 20 1 19 2 18 3 16 4 17 5 15 7 13 8 14 9 10 10 11 11 12 12
REMARK SMILES IDX 9 13 3 14 4 15 5 16 8 17 6 18 7 19 2 20 1 21 21 22 22 23
REMARK SMILES IDX 23 24 24 25 25 27 26 28 27 29 88 30 28 31 87 32 29 33 30 34
REMARK SMILES IDX 31 35 81 36 32 37 86 38 80 39 82 40 33 41 85 42 79 43 78 44
REMARK SMILES IDX 34 46 66 47 46 48 65 49 47 50 50 51 64 52 83 53 48 54 49 55
REMARK SMILES IDX 63 57 84 58 51 59 35 60 36 61 44 62 37 63 43 64 45 65 42 66
REMARK SMILES IDX 38 67 39 68 40 69 41 70 67 71 68 72 76 73 69 74 75 75 77 76
REMARK SMILES IDX 74 77 70 78 71 79 72 80 73 81 52 82 53 83 61 84 54 85 60 86
REMARK SMILES IDX 62 87 59 88 55 89 56 90 57 91 58 92
REMARK H PARENT 18 6 23 26 82 45 50 56
REMARK Flexibility Score: inf
ROOT
ATOM      1  C   UNL     1      -2.485   1.604  -1.149  1.00  0.00     0.023 C 
ENDROOT
BRANCH   1   2
ATOM      2  C   UNL     1      -3.752   1.268  -0.362  1.00  0.00     0.116 C 
BRANCH   2   3
ATOM      3  N   UNL     1      -4.403   0.063  -0.836  1.00  0.00    -0.355 N 
ATOM      4  C   UNL     1      -4.274  -1.239  -0.441  1.00  0.00     0.235 C 
ATOM      5  O   UNL     1      -5.030  -2.065  -0.960  1.00  0.00    -0.274 OA
ATOM      6  H   UNL     1      -5.047   0.207  -1.567  1.00  0.00     0.163 HD
BRANCH   4   7
ATOM      7  C   UNL     1      -3.277  -1.662   0.641  1.00  0.00     0.202 C 
BRANCH   7   8
ATOM      8  N   UNL     1      -1.819  -1.793   0.276  1.00  0.00    -0.191 NA
ATOM      9  C   UNL     1      -1.051  -0.615   0.675  1.00  0.00     0.125 C 
BRANCH   8  10
ATOM     10  S   UNL     1      -1.593  -2.510  -1.250  1.00  0.00     0.247 S 
ATOM     11  O   UNL     1      -2.036  -1.549  -2.244  1.00  0.00    -0.207 OA
ATOM     12  O   UNL     1      -2.234  -3.809  -1.156  1.00  0.00    -0.207 OA
BRANCH  10  13
ATOM     13  C   UNL     1       0.087  -2.868  -1.721  1.00  0.00     0.125 A 
ATOM     14  C   UNL     1       1.276  -2.449  -1.125  1.00  0.00     0.138 A 
ATOM     15  C   UNL     1       2.500  -2.767  -1.749  1.00  0.00     0.049 A 
ATOM     16  C   UNL     1       2.547  -3.451  -2.965  1.00  0.00     0.019 A 
ATOM     17  C   UNL     1       0.149  -3.583  -2.943  1.00  0.00     0.041 A 
ATOM     18  C   UNL     1       1.365  -3.862  -3.557  1.00  0.00     0.019 A 
ATOM     19  Br  UNL     1       1.407  -4.790  -5.201  1.00  0.00    -0.051 Br
BRANCH  14  20
ATOM     20  O   UNL     1       1.297  -1.800   0.073  1.00  0.00    -0.495 OA
ATOM     21  C   UNL     1       2.192  -0.681   0.125  1.00  0.00     0.278 C 
ENDBRANCH  14  20
ENDBRANCH  10  13
ENDBRANCH   8  10
ENDBRANCH   7   8
ENDBRANCH   4   7
ENDBRANCH   2   3
ENDBRANCH   1   2
BRANCH   1  22
ATOM     22  C   UNL     1      -2.699   2.396  -2.435  1.00  0.00     0.023 C 
BRANCH  22  23
ATOM     23  C   UNL     1      -3.066   3.856  -2.214  1.00  0.00     0.116 C 
BRANCH  23  24
ATOM     24  N   UNL     1      -2.032   4.619  -1.524  1.00  0.00    -0.352 N 
ATOM     25  C   UNL     1      -1.683   5.939  -1.704  1.00  0.00     0.251 C 
ATOM     26  H   UNL     1      -1.518   4.128  -0.842  1.00  0.00     0.163 HD
ATOM     27  O   UNL     1      -0.727   6.414  -1.102  1.00  0.00    -0.269 OA
BRANCH  25  28
ATOM     28  C   UNL     1      -2.446   6.747  -2.679  1.00  0.00     0.039 A 
ATOM     29  C   UNL     1      -1.754   7.431  -3.681  1.00  0.00     0.014 A 
ATOM     30  C   UNL     1      -3.842   6.733  -2.662  1.00  0.00     0.014 A 
ATOM     31  C   UNL     1      -2.467   8.018  -4.728  1.00  0.00     0.010 A 
ATOM     32  C   UNL     1      -4.544   7.246  -3.745  1.00  0.00     0.010 A 
ATOM     33  C   UNL     1      -3.863   7.879  -4.797  1.00  0.00    -0.014 A 
BRANCH  33  34
ATOM     34  C   UNL     1      -4.641   8.367  -5.963  1.00  0.00     0.031 A 
ATOM     35  C   UNL     1      -5.687   9.428  -5.771  1.00  0.00     0.074 A 
ATOM     36  C   UNL     1      -4.482   7.780  -7.165  1.00  0.00     0.049 A 
ATOM     37  N   UNL     1      -6.572   9.886  -6.618  1.00  0.00    -0.248 NA
ATOM     38  C   UNL     1      -5.773  10.018  -4.428  1.00  0.00     0.031 C 
ATOM     39  C   UNL     1      -3.534   6.706  -7.468  1.00  0.00     0.029 A 
ATOM     40  N   UNL     1      -5.129   7.995  -8.356  1.00  0.00    -0.354 N 
ATOM     41  C   UNL     1      -7.337  10.802  -5.904  1.00  0.00     0.074 A 
ATOM     42  C   UNL     1      -6.850  10.778  -4.540  1.00  0.00     0.031 C 
ATOM     43  C   UNL     1      -3.642   6.376  -8.765  1.00  0.00     0.029 A 
ATOM     44  C   UNL     1      -4.696   7.179  -9.374  1.00  0.00     0.049 A 
ATOM     45  H   UNL     1      -5.836   8.670  -8.470  1.00  0.00     0.167 HD
ATOM     46  C   UNL     1      -8.333  11.608  -6.351  1.00  0.00     0.034 A 
ATOM     47  C   UNL     1      -5.111   7.082 -10.652  1.00  0.00     0.034 A 
ATOM     48  C   UNL     1      -8.792  11.630  -7.718  1.00  0.00     0.049 A 
ATOM     49  C   UNL     1      -6.235   7.964 -11.123  1.00  0.00     0.074 A 
ATOM     50  C   UNL     1      -9.745  12.448  -8.299  1.00  0.00     0.029 A 
ATOM     51  N   UNL     1      -8.332  10.785  -8.721  1.00  0.00    -0.354 N 
ATOM     52  N   UNL     1      -6.926   8.853 -10.448  1.00  0.00    -0.248 NA
ATOM     53  C   UNL     1      -6.636   7.826 -12.529  1.00  0.00     0.031 C 
ATOM     54  C   UNL     1      -9.898  12.064  -9.637  1.00  0.00     0.029 A 
ATOM     55  C   UNL     1      -8.999  11.044  -9.909  1.00  0.00     0.049 A 
ATOM     56  H   UNL     1      -7.633  10.102  -8.606  1.00  0.00     0.167 HD
ATOM     57  C   UNL     1      -7.829   9.397 -11.355  1.00  0.00     0.074 A 
ATOM     58  C   UNL     1      -7.591   8.739 -12.624  1.00  0.00     0.031 C 
ATOM     59  C   UNL     1      -8.764  10.361 -11.159  1.00  0.00     0.034 A 
BRANCH  46  60
ATOM     60  C   UNL     1      -8.993  12.503  -5.329  1.00  0.00     0.023 A 
ATOM     61  C   UNL     1      -8.262  13.479  -4.629  1.00  0.00     0.031 A 
ATOM     62  C   UNL     1     -10.345  12.326  -4.988  1.00  0.00     0.131 A 
ATOM     63  C   UNL     1      -8.849  14.157  -3.551  1.00  0.00     0.055 A 
ATOM     64  C   UNL     1     -10.952  13.073  -3.975  1.00  0.00     0.041 A 
ATOM     65  F   UNL     1     -11.091  11.398  -5.608  1.00  0.00    -0.206 F 
ATOM     66  C   UNL     1     -10.197  13.978  -3.234  1.00  0.00     0.022 A 
BRANCH  63  67
ATOM     67  S   UNL     1      -7.774  15.122  -2.453  1.00  0.00     0.124 S 
ATOM     68  O   UNL     1      -6.808  14.112  -2.026  1.00  0.00    -0.237 OA
ATOM     69  O   UNL     1      -7.265  16.159  -3.343  1.00  0.00    -0.237 OA
ATOM     70  O   UNL     1      -8.682  15.585  -1.406  1.00  0.00    -0.744 OA
ENDBRANCH  63  67
ENDBRANCH  46  60
BRANCH  47  71
ATOM     71  C   UNL     1      -4.464   6.115 -11.578  1.00  0.00     0.023 A 
ATOM     72  C   UNL     1      -3.647   6.568 -12.625  1.00  0.00     0.031 A 
ATOM     73  C   UNL     1      -4.662   4.731 -11.439  1.00  0.00     0.131 A 
ATOM     74  C   UNL     1      -3.077   5.644 -13.514  1.00  0.00     0.055 A 
ATOM     75  C   UNL     1      -4.065   3.814 -12.306  1.00  0.00     0.041 A 
ATOM     76  F   UNL     1      -5.426   4.251 -10.445  1.00  0.00    -0.206 F 
ATOM     77  C   UNL     1      -3.273   4.270 -13.357  1.00  0.00     0.022 A 
BRANCH  74  78
ATOM     78  S   UNL     1      -2.101   6.271 -14.908  1.00  0.00     0.124 S 
ATOM     79  O   UNL     1      -3.092   7.051 -15.640  1.00  0.00    -0.237 OA
ATOM     80  O   UNL     1      -1.058   7.034 -14.230  1.00  0.00    -0.237 OA
ATOM     81  O   UNL     1      -1.643   5.055 -15.577  1.00  0.00    -0.744 OA
ENDBRANCH  74  78
ENDBRANCH  47  71
BRANCH  59  82
ATOM     82  C   UNL     1      -9.567  10.778 -12.362  1.00  0.00     0.023 A 
ATOM     83  C   UNL     1     -10.542   9.936 -12.924  1.00  0.00     0.031 A 
ATOM     84  C   UNL     1      -9.339  12.028 -12.963  1.00  0.00     0.131 A 
ATOM     85  C   UNL     1     -11.224  10.338 -14.082  1.00  0.00     0.055 A 
ATOM     86  C   UNL     1     -10.053  12.442 -14.087  1.00  0.00     0.041 A 
ATOM     87  F   UNL     1      -8.416  12.866 -12.464  1.00  0.00    -0.206 F 
ATOM     88  C   UNL     1     -10.995  11.591 -14.659  1.00  0.00     0.022 A 
BRANCH  85  89
ATOM     89  S   UNL     1     -12.373   9.175 -14.867  1.00  0.00     0.124 S 
ATOM     90  O   UNL     1     -11.490   8.069 -15.223  1.00  0.00    -0.237 OA
ATOM     91  O   UNL     1     -13.329   8.909 -13.797  1.00  0.00    -0.237 OA
ATOM     92  O   UNL     1     -12.908   9.931 -15.999  1.00  0.00    -0.744 OA
ENDBRANCH  85  89
ENDBRANCH  59  82
ENDBRANCH  33  34
ENDBRANCH  25  28
ENDBRANCH  23  24
ENDBRANCH  22  23
ENDBRANCH   1  22
TORSDOF 18
