REMARK SMILES C[N@H+]1[C@H]2CC[C@@H]1CN(C(=O)NC(C)(C)CC(=O)NCCCCNC(=O)c1ccc(-c3c4nc(c(-c5cc(S(=O)(=O)[O-])ccc5F)c5ccc([nH]5)c(-c5cc(S(=O)(=O)[O-])ccc5F)c5nc(c(-c6cc(S(=O)(=O)[O-])ccc6F)c6ccc3[nH]6)C=C5)C=C4)cc1)CC2
REMARK SMILES IDX 19 1 18 2 16 3 17 4 15 6 12 7 13 8 14 9 11 10 9 11 10 12
REMARK SMILES IDX 8 14 7 15 6 16 1 17 2 18 3 19 4 21 5 23 89 24 90 25 20 27
REMARK SMILES IDX 21 28 22 29 23 30 24 31 25 33 26 34 27 35 88 36 28 37 87 38
REMARK SMILES IDX 29 39 30 40 31 41 81 42 32 43 86 44 80 45 82 46 33 47 85 48
REMARK SMILES IDX 79 49 78 50 34 52 66 53 46 54 65 55 47 56 50 57 64 58 83 59
REMARK SMILES IDX 48 60 49 61 63 63 84 64 51 65 35 66 36 67 44 68 37 69 43 70
REMARK SMILES IDX 45 71 42 72 38 73 39 74 40 75 41 76 67 77 68 78 76 79 69 80
REMARK SMILES IDX 75 81 77 82 74 83 70 84 71 85 72 86 73 87 52 88 53 89 61 90
REMARK SMILES IDX 54 91 60 92 62 93 59 94 55 95 56 96 57 97 58 98
REMARK H PARENT 18 5 11 13 2 20 23 32 82 51 50 62
REMARK Flexibility Score: 90.00
ROOT
ATOM      1  C   UNL     1       0.914   5.979  -6.598  1.00  0.00     0.116 C 
ENDROOT
BRANCH   1   2
ATOM      2  N   UNL     1       1.133   5.594  -5.229  1.00  0.00    -0.356 N 
ATOM      3  C   UNL     1       0.351   4.682  -4.588  1.00  0.00     0.222 C 
ATOM      4  O   UNL     1       0.023   4.953  -3.438  1.00  0.00    -0.275 OA
ATOM      5  H   UNL     1       1.879   6.005  -4.737  1.00  0.00     0.163 HD
BRANCH   3   6
ATOM      6  C   UNL     1       0.062   3.370  -5.311  1.00  0.00     0.127 C 
BRANCH   6   7
ATOM      7  C   UNL     1      -1.377   2.847  -5.247  1.00  0.00     0.045 C 
ATOM      8  C   UNL     1      -1.416   1.400  -5.780  1.00  0.00     0.035 C 
ATOM      9  C   UNL     1      -2.219   3.686  -6.246  1.00  0.00     0.035 C 
BRANCH   7  10
ATOM     10  N   UNL     1      -2.091   2.913  -3.958  1.00  0.00    -0.333 N 
ATOM     11  C   UNL     1      -1.999   2.807  -2.633  1.00  0.00     0.318 C 
ATOM     12  O   UNL     1      -3.107   2.943  -2.088  1.00  0.00    -0.249 OA
ATOM     13  H   UNL     1      -3.030   3.124  -4.162  1.00  0.00     0.165 HD
BRANCH  11  14
ATOM     14  N   UNL     1      -0.890   2.553  -1.895  1.00  0.00    -0.319 N 
BRANCH  14  15
ATOM     15  C   UNL     1      -1.060   2.520  -0.431  1.00  0.00     0.186 C 
BRANCH  15  16
ATOM     16  C   UNL     1      -0.956   1.092   0.178  1.00  0.00     0.204 C 
ATOM     17  C   UNL     1       0.747  -0.555   0.821  1.00  0.00     0.333 C 
ATOM     18  N   UNL     1       0.325   0.423  -0.169  1.00  0.00    -0.331 N 
ATOM     19  C   UNL     1       0.107  -0.192  -1.492  1.00  0.00     0.186 CG0
ATOM     20  H   UNL     1       1.087   1.100  -0.188  1.00  0.00     0.348 HD
ATOM     21  C   UNL     1      -1.405  -0.422  -1.638  1.00  0.00     0.071 C 
ATOM     22  G   UNL     1       0.686   0.735  -2.568  1.00  0.00     0.000 G0
ATOM     23  C   UNL     1      -2.026   0.162  -0.379  1.00  0.00     0.073 C 
ENDBRANCH  15  16
ENDBRANCH  14  15
BRANCH  14  24
ATOM     24  C   UNL     1       0.471   2.216  -2.287  1.00  0.00     0.128 C 
BRANCH  24  25
ATOM     25  C   UNL     1       0.686   0.735  -2.568  1.00  0.00     0.086 CG0
ATOM     26  G   UNL     1       0.107  -0.192  -1.492  1.00  0.00     0.000 G0
ENDBRANCH  24  25
ENDBRANCH  14  24
ENDBRANCH  11  14
ENDBRANCH   7  10
ENDBRANCH   6   7
ENDBRANCH   3   6
ENDBRANCH   1   2
BRANCH   1  27
ATOM     27  C   UNL     1      -0.396   6.768  -6.702  1.00  0.00     0.023 C 
BRANCH  27  28
ATOM     28  C   UNL     1      -0.407   8.074  -5.909  1.00  0.00     0.023 C 
BRANCH  28  29
ATOM     29  C   UNL     1       0.818   8.931  -6.154  1.00  0.00     0.116 C 
BRANCH  29  30
ATOM     30  N   UNL     1       1.168   8.988  -7.571  1.00  0.00    -0.352 N 
ATOM     31  C   UNL     1       1.629  10.037  -8.308  1.00  0.00     0.251 C 
ATOM     32  H   UNL     1       1.054   8.145  -8.066  1.00  0.00     0.163 HD
ATOM     33  O   UNL     1       1.759   9.936  -9.514  1.00  0.00    -0.269 OA
BRANCH  31  34
ATOM     34  C   UNL     1       1.909  11.294  -7.600  1.00  0.00     0.039 A 
ATOM     35  C   UNL     1       1.347  12.467  -8.097  1.00  0.00     0.014 A 
ATOM     36  C   UNL     1       2.641  11.277  -6.409  1.00  0.00     0.014 A 
ATOM     37  C   UNL     1       1.506  13.639  -7.373  1.00  0.00     0.010 A 
ATOM     38  C   UNL     1       2.694  12.421  -5.635  1.00  0.00     0.010 A 
ATOM     39  C   UNL     1       2.162  13.618  -6.130  1.00  0.00    -0.014 A 
BRANCH  39  40
ATOM     40  C   UNL     1       2.372  14.871  -5.379  1.00  0.00     0.031 A 
ATOM     41  C   UNL     1       3.775  15.364  -5.162  1.00  0.00     0.074 A 
ATOM     42  C   UNL     1       1.307  15.541  -4.902  1.00  0.00     0.049 A 
ATOM     43  N   UNL     1       4.185  16.443  -4.551  1.00  0.00    -0.248 NA
ATOM     44  C   UNL     1       4.865  14.510  -5.664  1.00  0.00     0.031 C 
ATOM     45  C   UNL     1      -0.088  15.104  -5.016  1.00  0.00     0.029 A 
ATOM     46  N   UNL     1       1.228  16.736  -4.242  1.00  0.00    -0.354 N 
ATOM     47  C   UNL     1       5.574  16.389  -4.587  1.00  0.00     0.074 A 
ATOM     48  C   UNL     1       5.934  15.129  -5.194  1.00  0.00     0.031 C 
ATOM     49  C   UNL     1      -0.886  16.047  -4.491  1.00  0.00     0.029 A 
ATOM     50  C   UNL     1      -0.060  17.131  -3.971  1.00  0.00     0.049 A 
ATOM     51  H   UNL     1       2.019  17.263  -3.985  1.00  0.00     0.167 HD
ATOM     52  C   UNL     1       6.466  17.326  -4.188  1.00  0.00     0.034 A 
ATOM     53  C   UNL     1      -0.514  18.251  -3.378  1.00  0.00     0.034 A 
ATOM     54  C   UNL     1       6.071  18.584  -3.605  1.00  0.00     0.049 A 
ATOM     55  C   UNL     1       0.496  19.284  -2.948  1.00  0.00     0.074 A 
ATOM     56  C   UNL     1       6.869  19.635  -3.196  1.00  0.00     0.029 A 
ATOM     57  N   UNL     1       4.756  18.957  -3.349  1.00  0.00    -0.354 N 
ATOM     58  N   UNL     1       1.807  19.250  -3.042  1.00  0.00    -0.248 NA
ATOM     59  C   UNL     1      -0.036  20.516  -2.356  1.00  0.00     0.031 C 
ATOM     60  C   UNL     1       6.044  20.615  -2.634  1.00  0.00     0.029 A 
ATOM     61  C   UNL     1       4.723  20.213  -2.765  1.00  0.00     0.049 A 
ATOM     62  H   UNL     1       3.964  18.409  -3.552  1.00  0.00     0.167 HD
ATOM     63  C   UNL     1       2.255  20.471  -2.547  1.00  0.00     0.074 A 
ATOM     64  C   UNL     1       1.070  21.224  -2.184  1.00  0.00     0.031 C 
ATOM     65  C   UNL     1       3.524  20.933  -2.402  1.00  0.00     0.034 A 
BRANCH  52  66
ATOM     66  C   UNL     1       7.932  17.003  -4.354  1.00  0.00     0.023 A 
ATOM     67  C   UNL     1       8.495  16.749  -5.619  1.00  0.00     0.031 A 
ATOM     68  C   UNL     1       8.768  16.889  -3.231  1.00  0.00     0.131 A 
ATOM     69  C   UNL     1       9.823  16.309  -5.721  1.00  0.00     0.055 A 
ATOM     70  C   UNL     1      10.115  16.539  -3.348  1.00  0.00     0.041 A 
ATOM     71  F   UNL     1       8.285  17.091  -1.995  1.00  0.00    -0.206 F 
ATOM     72  C   UNL     1      10.646  16.230  -4.597  1.00  0.00     0.022 A 
BRANCH  69  73
ATOM     73  S   UNL     1      10.410  15.688  -7.322  1.00  0.00     0.124 S 
ATOM     74  O   UNL     1       9.487  14.582  -7.565  1.00  0.00    -0.237 OA
ATOM     75  O   UNL     1      10.256  16.851  -8.188  1.00  0.00    -0.237 OA
ATOM     76  O   UNL     1      11.790  15.290  -7.051  1.00  0.00    -0.744 OA
ENDBRANCH  69  73
ENDBRANCH  52  66
BRANCH  53  77
ATOM     77  C   UNL     1      -1.975  18.464  -3.173  1.00  0.00     0.023 A 
ATOM     78  C   UNL     1      -2.650  19.521  -3.804  1.00  0.00     0.031 A 
ATOM     79  C   UNL     1      -2.714  17.634  -2.311  1.00  0.00     0.131 A 
ATOM     80  C   UNL     1      -4.005  19.756  -3.522  1.00  0.00     0.055 A 
ATOM     81  C   UNL     1      -4.075  17.837  -2.077  1.00  0.00     0.041 A 
ATOM     82  F   UNL     1      -2.121  16.601  -1.690  1.00  0.00    -0.206 F 
ATOM     83  C   UNL     1      -4.725  18.913  -2.673  1.00  0.00     0.022 A 
BRANCH  80  84
ATOM     84  S   UNL     1      -4.792  21.237  -4.213  1.00  0.00     0.124 S 
ATOM     85  O   UNL     1      -3.931  22.297  -3.701  1.00  0.00    -0.237 OA
ATOM     86  O   UNL     1      -4.711  20.981  -5.647  1.00  0.00    -0.237 OA
ATOM     87  O   UNL     1      -6.140  21.200  -3.650  1.00  0.00    -0.744 OA
ENDBRANCH  80  84
ENDBRANCH  53  77
BRANCH  65  88
ATOM     88  C   UNL     1       3.676  22.334  -1.864  1.00  0.00     0.023 A 
ATOM     89  C   UNL     1       3.268  22.673  -0.562  1.00  0.00     0.031 A 
ATOM     90  C   UNL     1       4.205  23.352  -2.678  1.00  0.00     0.131 A 
ATOM     91  C   UNL     1       3.320  24.008  -0.140  1.00  0.00     0.055 A 
ATOM     92  C   UNL     1       4.326  24.665  -2.225  1.00  0.00     0.041 A 
ATOM     93  F   UNL     1       4.610  23.085  -3.930  1.00  0.00    -0.206 F 
ATOM     94  C   UNL     1       3.864  25.004  -0.956  1.00  0.00     0.022 A 
BRANCH  91  95
ATOM     95  S   UNL     1       2.545  24.448   1.439  1.00  0.00     0.124 S 
ATOM     96  O   UNL     1       1.182  23.959   1.254  1.00  0.00    -0.237 OA
ATOM     97  O   UNL     1       3.360  23.714   2.401  1.00  0.00    -0.237 OA
ATOM     98  O   UNL     1       2.680  25.902   1.493  1.00  0.00    -0.744 OA
ENDBRANCH  91  95
ENDBRANCH  65  88
ENDBRANCH  39  40
ENDBRANCH  31  34
ENDBRANCH  29  30
ENDBRANCH  28  29
ENDBRANCH  27  28
ENDBRANCH   1  27
TORSDOF 17
