REMARK SMILES Cc1cc(OC(F)(F)F)cc2c1O[C@H](C(F)(F)F)C(C(=O)NCCCCNC(=O)c1ccc(-c3c4nc(c(-c5cc(S(=O)(=O)[O-])ccc5F)c5ccc([nH]5)c(-c5cc(S(=O)(=O)[O-])ccc5F)c5nc(c(-c6cc(S(=O)(=O)[O-])ccc6F)c6ccc3[nH]6)C=C5)C=C4)cc1)=C2
REMARK SMILES IDX 25 1 24 2 23 3 22 4 20 5 21 6 19 8 1 9 2 10 3 11 12 12 4 13
REMARK SMILES IDX 11 14 13 15 10 16 93 17 14 18 5 19 6 20 7 21 8 22 9 23 15 24
REMARK SMILES IDX 16 25 17 26 18 27 26 28 27 29 28 30 29 32 30 33 31 34 92 35
REMARK SMILES IDX 32 36 91 37 33 38 34 39 35 40 85 41 36 42 90 43 84 44 86 45
REMARK SMILES IDX 37 46 89 47 83 48 82 49 38 51 70 52 50 53 69 54 51 55 54 56
REMARK SMILES IDX 68 57 87 58 52 59 53 60 67 62 88 63 55 64 39 65 40 66 48 67
REMARK SMILES IDX 41 68 47 69 49 70 46 71 42 72 43 73 44 74 45 75 71 76 72 77
REMARK SMILES IDX 80 78 73 79 79 80 81 81 78 82 74 83 75 84 76 85 77 86 56 87
REMARK SMILES IDX 57 88 65 89 58 90 64 91 66 92 63 93 59 94 60 95 61 96 62 97
REMARK H PARENT 22 7 27 31 86 50 54 61
REMARK Flexibility Score: inf
ROOT
ATOM      1  C   UNL     1      -3.772  -1.651   7.217  1.00  0.00     0.023 C 
ENDROOT
BRANCH   1   2
ATOM      2  C   UNL     1      -3.031  -1.367   5.907  1.00  0.00     0.023 C 
BRANCH   2   3
ATOM      3  C   UNL     1      -3.861  -0.609   4.875  1.00  0.00     0.116 C 
BRANCH   3   4
ATOM      4  N   UNL     1      -3.757   0.830   5.042  1.00  0.00    -0.352 N 
ATOM      5  C   UNL     1      -3.080   1.844   4.457  1.00  0.00     0.251 C 
ATOM      6  O   UNL     1      -3.299   2.966   4.924  1.00  0.00    -0.270 OA
ATOM      7  H   UNL     1      -4.329   1.151   5.776  1.00  0.00     0.163 HD
BRANCH   5   8
ATOM      8  C   UNL     1      -2.121   1.700   3.322  1.00  0.00     0.067 C 
ATOM      9  C   UNL     1       1.218   0.140  -0.294  1.00  0.00     0.048 C 
ATOM     10  C   UNL     1       0.808   1.454   0.309  1.00  0.00    -0.005 A 
ATOM     11  C   UNL     1       1.339   2.643  -0.220  1.00  0.00     0.054 A 
ATOM     12  C   UNL     1      -0.134   1.533   1.342  1.00  0.00     0.131 A 
ATOM     13  C   UNL     1       0.965   3.886   0.296  1.00  0.00     0.130 A 
ATOM     14  C   UNL     1      -0.511   2.769   1.871  1.00  0.00     0.021 A 
ATOM     15  O   UNL     1      -0.628   0.361   1.844  1.00  0.00    -0.475 OA
ATOM     16  C   UNL     1       0.041   3.940   1.345  1.00  0.00     0.058 A 
ATOM     17  C   UNL     1      -1.447   2.817   2.987  1.00  0.00     0.025 C 
ATOM     18  C   UNL     1      -1.906   0.439   2.537  1.00  0.00     0.314 C 
BRANCH  13  19
ATOM     19  O   UNL     1       1.415   5.106  -0.123  1.00  0.00    -0.406 OA
BRANCH  19  20
ATOM     20  C   UNL     1       2.396   5.134  -1.144  1.00  0.00     0.573 C 
ATOM     21  F   UNL     1       3.515   4.477  -0.768  1.00  0.00    -0.132 F 
ATOM     22  F   UNL     1       1.925   4.599  -2.291  1.00  0.00    -0.132 F 
ATOM     23  F   UNL     1       2.732   6.420  -1.390  1.00  0.00    -0.132 F 
ENDBRANCH  19  20
ENDBRANCH  13  19
BRANCH  18  24
ATOM     24  C   UNL     1      -3.042   0.161   1.535  1.00  0.00     0.429 C 
ATOM     25  F   UNL     1      -2.960  -1.112   1.069  1.00  0.00    -0.167 F 
ATOM     26  F   UNL     1      -4.269   0.288   2.088  1.00  0.00    -0.167 F 
ATOM     27  F   UNL     1      -3.004   0.983   0.462  1.00  0.00    -0.167 F 
ENDBRANCH  18  24
ENDBRANCH   5   8
ENDBRANCH   3   4
ENDBRANCH   2   3
ENDBRANCH   1   2
BRANCH   1  28
ATOM     28  C   UNL     1      -5.085  -2.420   7.074  1.00  0.00     0.116 C 
BRANCH  28  29
ATOM     29  N   UNL     1      -4.957  -3.658   6.315  1.00  0.00    -0.352 N 
ATOM     30  C   UNL     1      -5.686  -4.812   6.474  1.00  0.00     0.251 C 
ATOM     31  H   UNL     1      -4.271  -3.668   5.609  1.00  0.00     0.163 HD
ATOM     32  O   UNL     1      -5.440  -5.814   5.813  1.00  0.00    -0.269 OA
BRANCH  30  33
ATOM     33  C   UNL     1      -6.750  -4.820   7.492  1.00  0.00     0.039 A 
ATOM     34  C   UNL     1      -6.625  -5.673   8.590  1.00  0.00     0.014 A 
ATOM     35  C   UNL     1      -7.803  -3.904   7.403  1.00  0.00     0.014 A 
ATOM     36  C   UNL     1      -7.532  -5.564   9.643  1.00  0.00     0.010 A 
ATOM     37  C   UNL     1      -8.680  -3.769   8.473  1.00  0.00     0.010 A 
ATOM     38  C   UNL     1      -8.547  -4.593   9.602  1.00  0.00    -0.014 A 
BRANCH  38  39
ATOM     39  C   UNL     1      -9.480  -4.421  10.739  1.00  0.00     0.031 A 
ATOM     40  C   UNL     1     -10.916  -4.825  10.589  1.00  0.00     0.074 A 
ATOM     41  C   UNL     1      -9.045  -3.841  11.874  1.00  0.00     0.049 A 
ATOM     42  N   UNL     1     -11.891  -4.726  11.452  1.00  0.00    -0.248 NA
ATOM     43  C   UNL     1     -11.312  -5.398   9.291  1.00  0.00     0.031 C 
ATOM     44  C   UNL     1      -7.683  -3.359  12.105  1.00  0.00     0.029 A 
ATOM     45  N   UNL     1      -9.706  -3.544  13.039  1.00  0.00    -0.354 N 
ATOM     46  C   UNL     1     -13.017  -5.217  10.804  1.00  0.00     0.074 A 
ATOM     47  C   UNL     1     -12.616  -5.568   9.460  1.00  0.00     0.031 C 
ATOM     48  C   UNL     1      -7.607  -2.833  13.338  1.00  0.00     0.029 A 
ATOM     49  C   UNL     1      -8.919  -2.921  13.978  1.00  0.00     0.049 A 
ATOM     50  H   UNL     1     -10.656  -3.757  13.189  1.00  0.00     0.167 HD
ATOM     51  C   UNL     1     -14.265  -5.383  11.297  1.00  0.00     0.034 A 
ATOM     52  C   UNL     1      -9.219  -2.473  15.214  1.00  0.00     0.034 A 
ATOM     53  C   UNL     1     -14.645  -5.051  12.643  1.00  0.00     0.049 A 
ATOM     54  C   UNL     1     -10.612  -2.689  15.750  1.00  0.00     0.074 A 
ATOM     55  C   UNL     1     -15.870  -5.239  13.256  1.00  0.00     0.029 A 
ATOM     56  N   UNL     1     -13.809  -4.468  13.583  1.00  0.00    -0.354 N 
ATOM     57  N   UNL     1     -11.640  -3.253  15.161  1.00  0.00    -0.248 NA
ATOM     58  C   UNL     1     -10.886  -2.226  17.117  1.00  0.00     0.031 C 
ATOM     59  C   UNL     1     -15.785  -4.741  14.558  1.00  0.00     0.029 A 
ATOM     60  C   UNL     1     -14.496  -4.278  14.769  1.00  0.00     0.049 A 
ATOM     61  H   UNL     1     -12.868  -4.225  13.430  1.00  0.00     0.167 HD
ATOM     62  C   UNL     1     -12.672  -3.238  16.093  1.00  0.00     0.074 A 
ATOM     63  C   UNL     1     -12.141  -2.622  17.291  1.00  0.00     0.031 C 
ATOM     64  C   UNL     1     -13.944  -3.690  15.966  1.00  0.00     0.034 A 
BRANCH  51  65
ATOM     65  C   UNL     1     -15.309  -5.983  10.397  1.00  0.00     0.023 A 
ATOM     66  C   UNL     1     -16.404  -5.213   9.971  1.00  0.00     0.031 A 
ATOM     67  C   UNL     1     -15.264  -7.343  10.043  1.00  0.00     0.131 A 
ATOM     68  C   UNL     1     -17.426  -5.817   9.228  1.00  0.00     0.055 A 
ATOM     69  C   UNL     1     -16.270  -7.932   9.277  1.00  0.00     0.041 A 
ATOM     70  F   UNL     1     -14.232  -8.113  10.424  1.00  0.00    -0.206 F 
ATOM     71  C   UNL     1     -17.361  -7.169   8.873  1.00  0.00     0.022 A 
BRANCH  68  72
ATOM     72  S   UNL     1     -18.884  -4.875   8.705  1.00  0.00     0.124 S 
ATOM     73  O   UNL     1     -18.938  -5.167   7.274  1.00  0.00    -0.237 OA
ATOM     74  O   UNL     1     -19.941  -5.484   9.507  1.00  0.00    -0.237 OA
ATOM     75  O   UNL     1     -18.548  -3.496   9.041  1.00  0.00    -0.744 OA
ENDBRANCH  68  72
ENDBRANCH  51  65
BRANCH  52  76
ATOM     76  C   UNL     1      -8.151  -1.846  16.044  1.00  0.00     0.023 A 
ATOM     77  C   UNL     1      -7.575  -0.616  15.680  1.00  0.00     0.031 A 
ATOM     78  C   UNL     1      -7.635  -2.516  17.166  1.00  0.00     0.131 A 
ATOM     79  C   UNL     1      -6.488  -0.116  16.409  1.00  0.00     0.055 A 
ATOM     80  C   UNL     1      -6.587  -1.987  17.921  1.00  0.00     0.041 A 
ATOM     81  F   UNL     1      -8.146  -3.699  17.540  1.00  0.00    -0.206 F 
ATOM     82  C   UNL     1      -6.001  -0.785  17.537  1.00  0.00     0.022 A 
BRANCH  79  83
ATOM     83  S   UNL     1      -5.610   1.377  15.868  1.00  0.00     0.124 S 
ATOM     84  O   UNL     1      -5.690   2.225  17.053  1.00  0.00    -0.237 OA
ATOM     85  O   UNL     1      -4.285   0.845  15.560  1.00  0.00    -0.237 OA
ATOM     86  O   UNL     1      -6.381   1.831  14.716  1.00  0.00    -0.744 OA
ENDBRANCH  79  83
ENDBRANCH  52  76
BRANCH  64  87
ATOM     87  C   UNL     1     -14.875  -3.565  17.143  1.00  0.00     0.023 A 
ATOM     88  C   UNL     1     -15.350  -4.724  17.787  1.00  0.00     0.031 A 
ATOM     89  C   UNL     1     -15.416  -2.323  17.513  1.00  0.00     0.131 A 
ATOM     90  C   UNL     1     -16.368  -4.619  18.741  1.00  0.00     0.055 A 
ATOM     91  C   UNL     1     -16.404  -2.221  18.492  1.00  0.00     0.041 A 
ATOM     92  F   UNL     1     -14.998  -1.194  16.917  1.00  0.00    -0.206 F 
ATOM     93  C   UNL     1     -16.894  -3.373  19.101  1.00  0.00     0.022 A 
BRANCH  90  94
ATOM     94  S   UNL     1     -17.095  -6.098  19.498  1.00  0.00     0.124 S 
ATOM     95  O   UNL     1     -16.912  -5.830  20.923  1.00  0.00    -0.237 OA
ATOM     96  O   UNL     1     -18.475  -6.037  19.024  1.00  0.00    -0.237 OA
ATOM     97  O   UNL     1     -16.294  -7.196  18.967  1.00  0.00    -0.744 OA
ENDBRANCH  90  94
ENDBRANCH  64  87
ENDBRANCH  38  39
ENDBRANCH  30  33
ENDBRANCH  28  29
ENDBRANCH   1  28
TORSDOF 17
