REMARK SMILES Cc1ccc(NC(=O)C[N@H+]2CCC[C@@H](C(=O)NCCCCNC(=O)c3ccc(-c4c5nc(c(-c6cc(S(=O)(=O)[O-])ccc6F)c6ccc([nH]6)c(-c6cc(S(=O)(=O)[O-])ccc6F)c6nc(c(-c7cc(S(=O)(=O)[O-])ccc7F)c7ccc4[nH]7)C=C6)C=C5)cc3)C2)cc1F
REMARK SMILES IDX 19 1 18 2 17 3 15 4 16 5 14 7 10 8 11 9 88 10 12 12 13 13
REMARK SMILES IDX 9 14 7 15 6 16 8 18 5 19 1 20 2 21 3 22 90 23 4 24 89 25
REMARK SMILES IDX 91 26 20 27 21 28 22 29 23 30 24 32 25 33 26 34 87 35 27 36
REMARK SMILES IDX 86 37 28 38 29 39 30 40 80 41 31 42 85 43 79 44 81 45 32 46
REMARK SMILES IDX 84 47 78 48 77 49 33 51 65 52 45 53 64 54 46 55 49 56 63 57
REMARK SMILES IDX 82 58 47 59 48 60 62 62 83 63 50 64 34 65 35 66 43 67 36 68
REMARK SMILES IDX 42 69 44 70 41 71 37 72 38 73 39 74 40 75 66 76 67 77 75 78
REMARK SMILES IDX 68 79 74 80 76 81 73 82 69 83 70 84 71 85 72 86 51 87 52 88
REMARK SMILES IDX 60 89 53 90 59 91 61 92 58 93 54 94 55 95 56 96 57 97
REMARK H PARENT 17 6 10 11 6 17 22 31 81 50 49 61
REMARK Flexibility Score: inf
ROOT
ATOM      1  C   UNL     1       1.341   1.778  -2.402  1.00  0.00     0.023 C 
ENDROOT
BRANCH   1   2
ATOM      2  C   UNL     1       0.139   0.887  -2.080  1.00  0.00     0.116 C 
BRANCH   2   3
ATOM      3  N   UNL     1      -0.751   0.715  -3.214  1.00  0.00    -0.356 N 
ATOM      4  C   UNL     1      -1.183  -0.433  -3.817  1.00  0.00     0.228 C 
ATOM      5  O   UNL     1      -1.988  -0.338  -4.744  1.00  0.00    -0.275 OA
ATOM      6  H   UNL     1      -1.094   1.549  -3.608  1.00  0.00     0.163 HD
BRANCH   4   7
ATOM      7  C   UNL     1      -0.687  -1.787  -3.319  1.00  0.00     0.133 C 
ATOM      8  N   UNL     1      -1.089  -3.534  -1.569  1.00  0.00    -0.326 N 
ATOM      9  C   UNL     1      -1.082  -4.577  -2.613  1.00  0.00     0.262 C 
ATOM     10  C   UNL     1      -1.541  -2.242  -2.124  1.00  0.00     0.276 C 
ATOM     11  H   UNL     1      -0.148  -3.337  -1.229  1.00  0.00     0.348 HD
ATOM     12  C   UNL     1      -0.281  -4.183  -3.855  1.00  0.00     0.062 C 
ATOM     13  C   UNL     1      -0.754  -2.849  -4.417  1.00  0.00     0.025 C 
BRANCH   8  14
ATOM     14  C   UNL     1      -1.854  -4.039  -0.388  1.00  0.00     0.363 C 
BRANCH  14  15
ATOM     15  C   UNL     1      -2.918  -3.120   0.215  1.00  0.00     0.279 C 
ATOM     16  N   UNL     1      -2.641  -1.950   0.865  1.00  0.00    -0.321 N 
ATOM     17  H   UNL     1      -3.442  -1.468   1.174  1.00  0.00     0.170 HD
ATOM     18  O   UNL     1      -4.113  -3.429   0.098  1.00  0.00    -0.268 OA
BRANCH  16  19
ATOM     19  C   UNL     1      -1.434  -1.301   1.177  1.00  0.00     0.044 A 
ATOM     20  C   UNL     1       2.228   0.938   1.645  1.00  0.00     0.047 C 
ATOM     21  C   UNL     1       0.943   0.180   1.546  1.00  0.00    -0.015 A 
ATOM     22  C   UNL     1      -0.303   0.813   1.597  1.00  0.00     0.008 A 
ATOM     23  C   UNL     1       0.969  -1.195   1.368  1.00  0.00     0.128 A 
ATOM     24  C   UNL     1      -1.484   0.079   1.412  1.00  0.00     0.026 A 
ATOM     25  C   UNL     1      -0.197  -1.932   1.214  1.00  0.00     0.065 A 
ATOM     26  F   UNL     1       2.141  -1.845   1.325  1.00  0.00    -0.207 F 
ENDBRANCH  16  19
ENDBRANCH  14  15
ENDBRANCH   8  14
ENDBRANCH   4   7
ENDBRANCH   2   3
ENDBRANCH   1   2
BRANCH   1  27
ATOM     27  C   UNL     1       1.051   3.280  -2.561  1.00  0.00     0.023 C 
BRANCH  27  28
ATOM     28  C   UNL     1       0.428   3.936  -1.339  1.00  0.00     0.116 C 
BRANCH  28  29
ATOM     29  N   UNL     1       1.349   3.890  -0.209  1.00  0.00    -0.352 N 
ATOM     30  C   UNL     1       1.480   4.771   0.847  1.00  0.00     0.251 C 
ATOM     31  H   UNL     1       1.965   3.122  -0.198  1.00  0.00     0.163 HD
ATOM     32  O   UNL     1       2.495   4.797   1.507  1.00  0.00    -0.269 OA
BRANCH  30  33
ATOM     33  C   UNL     1       0.266   5.497   1.235  1.00  0.00     0.039 A 
ATOM     34  C   UNL     1       0.252   6.800   1.734  1.00  0.00     0.014 A 
ATOM     35  C   UNL     1      -0.895   4.735   1.160  1.00  0.00     0.014 A 
ATOM     36  C   UNL     1      -0.963   7.338   2.154  1.00  0.00     0.010 A 
ATOM     37  C   UNL     1      -2.089   5.290   1.451  1.00  0.00     0.010 A 
ATOM     38  C   UNL     1      -2.111   6.557   2.022  1.00  0.00    -0.014 A 
BRANCH  38  39
ATOM     39  C   UNL     1      -3.458   6.944   2.365  1.00  0.00     0.031 A 
ATOM     40  C   UNL     1      -4.081   7.993   1.548  1.00  0.00     0.074 A 
ATOM     41  C   UNL     1      -4.096   6.067   3.176  1.00  0.00     0.049 A 
ATOM     42  N   UNL     1      -5.109   8.673   1.898  1.00  0.00    -0.248 NA
ATOM     43  C   UNL     1      -3.555   8.382   0.234  1.00  0.00     0.031 C 
ATOM     44  C   UNL     1      -5.513   5.848   3.393  1.00  0.00     0.029 A 
ATOM     45  N   UNL     1      -3.509   5.151   4.066  1.00  0.00    -0.354 N 
ATOM     46  C   UNL     1      -5.596   9.254   0.744  1.00  0.00     0.074 A 
ATOM     47  C   UNL     1      -4.500   9.225  -0.192  1.00  0.00     0.031 C 
ATOM     48  C   UNL     1      -5.666   5.183   4.557  1.00  0.00     0.029 A 
ATOM     49  C   UNL     1      -4.349   5.116   5.180  1.00  0.00     0.049 A 
ATOM     50  H   UNL     1      -2.677   4.641   3.932  1.00  0.00     0.167 HD
ATOM     51  C   UNL     1      -6.943   9.445   0.637  1.00  0.00     0.034 A 
ATOM     52  C   UNL     1      -3.991   5.736   6.350  1.00  0.00     0.034 A 
ATOM     53  C   UNL     1      -7.592   9.029   1.891  1.00  0.00     0.049 A 
ATOM     54  C   UNL     1      -4.925   6.897   6.638  1.00  0.00     0.074 A 
ATOM     55  C   UNL     1      -8.246   7.861   2.248  1.00  0.00     0.029 A 
ATOM     56  N   UNL     1      -7.254   9.664   3.086  1.00  0.00    -0.354 N 
ATOM     57  N   UNL     1      -5.559   7.561   5.708  1.00  0.00    -0.248 NA
ATOM     58  C   UNL     1      -5.274   7.346   7.980  1.00  0.00     0.031 C 
ATOM     59  C   UNL     1      -8.201   7.748   3.667  1.00  0.00     0.029 A 
ATOM     60  C   UNL     1      -7.531   8.850   4.176  1.00  0.00     0.049 A 
ATOM     61  H   UNL     1      -6.871  10.569   3.148  1.00  0.00     0.167 HD
ATOM     62  C   UNL     1      -6.407   8.469   6.279  1.00  0.00     0.074 A 
ATOM     63  C   UNL     1      -6.193   8.290   7.706  1.00  0.00     0.031 C 
ATOM     64  C   UNL     1      -7.222   9.285   5.543  1.00  0.00     0.034 A 
BRANCH  51  65
ATOM     65  C   UNL     1      -7.681   9.662  -0.679  1.00  0.00     0.023 A 
ATOM     66  C   UNL     1      -7.070  10.040  -1.897  1.00  0.00     0.031 A 
ATOM     67  C   UNL     1      -9.073   9.437  -0.762  1.00  0.00     0.131 A 
ATOM     68  C   UNL     1      -7.791  10.112  -3.108  1.00  0.00     0.055 A 
ATOM     69  C   UNL     1      -9.797   9.537  -1.959  1.00  0.00     0.041 A 
ATOM     70  F   UNL     1      -9.793   9.081   0.311  1.00  0.00    -0.206 F 
ATOM     71  C   UNL     1      -9.157   9.862  -3.144  1.00  0.00     0.022 A 
BRANCH  68  72
ATOM     72  S   UNL     1      -6.961  10.482  -4.686  1.00  0.00     0.124 S 
ATOM     73  O   UNL     1      -7.351   9.346  -5.519  1.00  0.00    -0.237 OA
ATOM     74  O   UNL     1      -7.556  11.762  -5.060  1.00  0.00    -0.237 OA
ATOM     75  O   UNL     1      -5.544  10.527  -4.335  1.00  0.00    -0.744 OA
ENDBRANCH  68  72
ENDBRANCH  51  65
BRANCH  52  76
ATOM     76  C   UNL     1      -2.509   5.722   6.595  1.00  0.00     0.023 A 
ATOM     77  C   UNL     1      -1.693   6.830   6.306  1.00  0.00     0.031 A 
ATOM     78  C   UNL     1      -1.888   4.452   6.675  1.00  0.00     0.131 A 
ATOM     79  C   UNL     1      -0.343   6.621   5.954  1.00  0.00     0.055 A 
ATOM     80  C   UNL     1      -0.570   4.247   6.262  1.00  0.00     0.041 A 
ATOM     81  F   UNL     1      -2.611   3.368   7.003  1.00  0.00    -0.206 F 
ATOM     82  C   UNL     1       0.194   5.332   5.854  1.00  0.00     0.022 A 
BRANCH  79  83
ATOM     83  S   UNL     1       0.726   8.025   5.507  1.00  0.00     0.124 S 
ATOM     84  O   UNL     1       1.351   8.329   6.790  1.00  0.00    -0.237 OA
ATOM     85  O   UNL     1       1.618   7.455   4.502  1.00  0.00    -0.237 OA
ATOM     86  O   UNL     1      -0.217   9.015   5.003  1.00  0.00    -0.744 OA
ENDBRANCH  79  83
ENDBRANCH  52  76
BRANCH  64  87
ATOM     87  C   UNL     1      -7.896  10.537   6.060  1.00  0.00     0.023 A 
ATOM     88  C   UNL     1      -8.880  11.158   5.252  1.00  0.00     0.031 A 
ATOM     89  C   UNL     1      -7.510  11.249   7.208  1.00  0.00     0.131 A 
ATOM     90  C   UNL     1      -9.409  12.411   5.575  1.00  0.00     0.055 A 
ATOM     91  C   UNL     1      -8.122  12.448   7.589  1.00  0.00     0.041 A 
ATOM     92  F   UNL     1      -6.481  10.863   7.974  1.00  0.00    -0.206 F 
ATOM     93  C   UNL     1      -9.064  13.043   6.764  1.00  0.00     0.022 A 
BRANCH  90  94
ATOM     94  S   UNL     1     -10.416  13.327   4.376  1.00  0.00     0.124 S 
ATOM     95  O   UNL     1     -11.747  13.223   4.968  1.00  0.00    -0.237 OA
ATOM     96  O   UNL     1      -9.812  14.657   4.423  1.00  0.00    -0.237 OA
ATOM     97  O   UNL     1     -10.218  12.602   3.127  1.00  0.00    -0.744 OA
ENDBRANCH  90  94
ENDBRANCH  64  87
ENDBRANCH  38  39
ENDBRANCH  30  33
ENDBRANCH  28  29
ENDBRANCH  27  28
ENDBRANCH   1  27
TORSDOF 17
