REMARK SMILES C[C@H]1[C@H](C(=O)NCCCCNC(=O)c2ccc(-c3c4nc(c(-c5cc(S(=O)(=O)[O-])ccc5F)c5ccc([nH]5)c(-c5cc(S(=O)(=O)[O-])ccc5F)c5nc(c(-c6cc(S(=O)(=O)[O-])ccc6F)c6ccc3[nH]6)C=C5)C=C4)cc2)CCN1C(=O)[C@H]1CC=CCC1
REMARK SMILES IDX 9 1 8 2 7 3 6 4 4 5 5 6 3 8 1 9 2 10 79 11 77 12 78 13 80 14
REMARK SMILES IDX 81 15 82 16 83 17 87 18 84 19 86 20 85 21 10 22 11 23 12 24
REMARK SMILES IDX 13 26 14 27 15 28 76 29 16 30 75 31 17 32 18 33 19 34 69 35
REMARK SMILES IDX 20 36 74 37 68 38 70 39 21 40 73 41 67 42 66 43 22 45 54 46
REMARK SMILES IDX 34 47 53 48 35 49 38 50 52 51 71 52 36 53 37 54 51 56 72 57
REMARK SMILES IDX 39 58 23 59 24 60 32 61 25 62 31 63 33 64 30 65 26 66 27 67
REMARK SMILES IDX 28 68 29 69 55 70 56 71 64 72 57 73 63 74 65 75 62 76 58 77
REMARK SMILES IDX 59 78 60 79 61 80 40 81 41 82 49 83 42 84 48 85 50 86 47 87
REMARK SMILES IDX 43 88 44 89 45 90 46 91
REMARK H PARENT 6 7 11 25 70 44 38 55
REMARK Flexibility Score: inf
ROOT
ATOM      1  C   UNL     1      -0.411   0.938   5.375  1.00  0.00     0.023 C 
ENDROOT
BRANCH   1   2
ATOM      2  C   UNL     1      -0.234   0.091   4.126  1.00  0.00     0.023 C 
BRANCH   2   3
ATOM      3  C   UNL     1      -0.996   0.560   2.891  1.00  0.00     0.116 C 
BRANCH   3   4
ATOM      4  N   UNL     1      -0.476   1.805   2.361  1.00  0.00    -0.356 N 
ATOM      5  C   UNL     1      -0.198   2.193   1.091  1.00  0.00     0.225 C 
ATOM      6  O   UNL     1       0.213   3.347   0.934  1.00  0.00    -0.275 OA
ATOM      7  H   UNL     1      -0.292   2.491   3.044  1.00  0.00     0.163 HD
BRANCH   5   8
ATOM      8  C   UNL     1      -0.328   1.280  -0.119  1.00  0.00     0.102 C 
ATOM      9  C   UNL     1       1.490   0.269  -1.503  1.00  0.00     0.032 C 
ATOM     10  C   UNL     1       0.751   0.182  -0.164  1.00  0.00     0.094 C 
ATOM     11  N   UNL     1       0.018  -1.075  -0.035  1.00  0.00    -0.339 N 
ATOM     12  C   UNL     1      -1.676   0.582  -0.294  1.00  0.00     0.037 C 
ATOM     13  C   UNL     1      -1.351  -0.891  -0.493  1.00  0.00     0.120 C 
BRANCH  11  14
ATOM     14  C   UNL     1       0.413  -2.318   0.403  1.00  0.00     0.226 C 
ATOM     15  O   UNL     1      -0.400  -3.254   0.348  1.00  0.00    -0.275 OA
BRANCH  14  16
ATOM     16  C   UNL     1       1.799  -2.638   1.000  1.00  0.00     0.083 C 
ATOM     17  C   UNL     1       2.996  -2.537   0.056  1.00  0.00     0.040 C 
ATOM     18  C   UNL     1       2.060  -2.121   2.417  1.00  0.00     0.018 C 
ATOM     19  C   UNL     1       3.956  -1.422   0.343  1.00  0.00    -0.030 C 
ATOM     20  C   UNL     1       2.900  -0.849   2.528  1.00  0.00     0.028 C 
ATOM     21  C   UNL     1       3.916  -0.672   1.450  1.00  0.00    -0.031 C 
ENDBRANCH  14  16
ENDBRANCH  11  14
ENDBRANCH   5   8
ENDBRANCH   3   4
ENDBRANCH   2   3
ENDBRANCH   1   2
BRANCH   1  22
ATOM     22  C   UNL     1      -1.837   0.984   5.889  1.00  0.00     0.116 C 
BRANCH  22  23
ATOM     23  N   UNL     1      -2.355  -0.338   6.221  1.00  0.00    -0.352 N 
ATOM     24  C   UNL     1      -2.733  -0.852   7.439  1.00  0.00     0.251 C 
ATOM     25  H   UNL     1      -2.448  -0.954   5.460  1.00  0.00     0.163 HD
ATOM     26  O   UNL     1      -2.958  -2.054   7.551  1.00  0.00    -0.269 OA
BRANCH  24  27
ATOM     27  C   UNL     1      -2.830   0.044   8.610  1.00  0.00     0.039 A 
ATOM     28  C   UNL     1      -2.320  -0.374   9.840  1.00  0.00     0.014 A 
ATOM     29  C   UNL     1      -3.387   1.316   8.476  1.00  0.00     0.014 A 
ATOM     30  C   UNL     1      -2.291   0.522  10.911  1.00  0.00     0.010 A 
ATOM     31  C   UNL     1      -3.243   2.241   9.499  1.00  0.00     0.010 A 
ATOM     32  C   UNL     1      -2.706   1.852  10.735  1.00  0.00    -0.014 A 
BRANCH  32  33
ATOM     33  C   UNL     1      -2.623   2.854  11.829  1.00  0.00     0.031 A 
ATOM     34  C   UNL     1      -3.877   3.542  12.301  1.00  0.00     0.074 A 
ATOM     35  C   UNL     1      -1.422   3.203  12.333  1.00  0.00     0.049 A 
ATOM     36  N   UNL     1      -4.014   4.527  13.150  1.00  0.00    -0.248 NA
ATOM     37  C   UNL     1      -5.142   3.091  11.698  1.00  0.00     0.031 C 
ATOM     38  C   UNL     1      -0.132   2.648  11.914  1.00  0.00     0.029 A 
ATOM     39  N   UNL     1      -1.088   4.116  13.300  1.00  0.00    -0.354 N 
ATOM     40  C   UNL     1      -5.372   4.830  13.160  1.00  0.00     0.074 A 
ATOM     41  C   UNL     1      -6.000   3.979  12.174  1.00  0.00     0.031 C 
ATOM     42  C   UNL     1       0.846   3.207  12.644  1.00  0.00     0.029 A 
ATOM     43  C   UNL     1       0.264   4.194  13.546  1.00  0.00     0.049 A 
ATOM     44  H   UNL     1      -1.753   4.665  13.775  1.00  0.00     0.167 HD
ATOM     45  C   UNL     1      -6.039   5.713  13.943  1.00  0.00     0.034 A 
ATOM     46  C   UNL     1       0.955   4.979  14.397  1.00  0.00     0.034 A 
ATOM     47  C   UNL     1      -5.398   6.527  14.945  1.00  0.00     0.049 A 
ATOM     48  C   UNL     1       0.192   5.951  15.262  1.00  0.00     0.074 A 
ATOM     49  C   UNL     1      -5.977   7.406  15.843  1.00  0.00     0.029 A 
ATOM     50  N   UNL     1      -4.029   6.561  15.183  1.00  0.00    -0.354 N 
ATOM     51  N   UNL     1      -1.099   6.188  15.299  1.00  0.00    -0.248 NA
ATOM     52  C   UNL     1       0.979   6.752  16.208  1.00  0.00     0.031 C 
ATOM     53  C   UNL     1      -4.956   8.016  16.579  1.00  0.00     0.029 A 
ATOM     54  C   UNL     1      -3.744   7.464  16.194  1.00  0.00     0.049 A 
ATOM     55  H   UNL     1      -3.360   6.021  14.703  1.00  0.00     0.167 HD
ATOM     56  C   UNL     1      -1.281   7.144  16.294  1.00  0.00     0.074 A 
ATOM     57  C   UNL     1       0.030   7.426  16.842  1.00  0.00     0.031 C 
ATOM     58  C   UNL     1      -2.426   7.736  16.720  1.00  0.00     0.034 A 
BRANCH  45  59
ATOM     59  C   UNL     1      -7.529   5.845  13.728  1.00  0.00     0.023 A 
ATOM     60  C   UNL     1      -8.402   4.759  13.917  1.00  0.00     0.031 A 
ATOM     61  C   UNL     1      -8.081   7.060  13.287  1.00  0.00     0.131 A 
ATOM     62  C   UNL     1      -9.758   4.881  13.582  1.00  0.00     0.055 A 
ATOM     63  C   UNL     1      -9.449   7.202  13.041  1.00  0.00     0.041 A 
ATOM     64  F   UNL     1      -7.298   8.128  13.067  1.00  0.00    -0.206 F 
ATOM     65  C   UNL     1     -10.294   6.103  13.171  1.00  0.00     0.022 A 
BRANCH  62  66
ATOM     66  S   UNL     1     -10.777   3.381  13.539  1.00  0.00     0.124 S 
ATOM     67  O   UNL     1     -10.070   2.575  12.545  1.00  0.00    -0.237 OA
ATOM     68  O   UNL     1     -10.701   2.908  14.916  1.00  0.00    -0.237 OA
ATOM     69  O   UNL     1     -12.088   3.869  13.116  1.00  0.00    -0.744 OA
ENDBRANCH  62  66
ENDBRANCH  45  59
BRANCH  46  70
ATOM     70  C   UNL     1       2.441   4.886  14.479  1.00  0.00     0.023 A 
ATOM     71  C   UNL     1       3.073   4.449  15.654  1.00  0.00     0.031 A 
ATOM     72  C   UNL     1       3.254   5.269  13.398  1.00  0.00     0.131 A 
ATOM     73  C   UNL     1       4.474   4.452  15.740  1.00  0.00     0.055 A 
ATOM     74  C   UNL     1       4.648   5.220  13.469  1.00  0.00     0.041 A 
ATOM     75  F   UNL     1       2.703   5.688  12.248  1.00  0.00    -0.206 F 
ATOM     76  C   UNL     1       5.266   4.822  14.651  1.00  0.00     0.022 A 
BRANCH  73  77
ATOM     77  S   UNL     1       5.248   4.045  17.329  1.00  0.00     0.124 S 
ATOM     78  O   UNL     1       4.654   5.042  18.213  1.00  0.00    -0.237 OA
ATOM     79  O   UNL     1       4.813   2.667  17.532  1.00  0.00    -0.237 OA
ATOM     80  O   UNL     1       6.675   4.214  17.065  1.00  0.00    -0.744 OA
ENDBRANCH  73  77
ENDBRANCH  46  70
BRANCH  58  81
ATOM     81  C   UNL     1      -2.307   8.710  17.866  1.00  0.00     0.023 A 
ATOM     82  C   UNL     1      -1.637   9.937  17.726  1.00  0.00     0.031 A 
ATOM     83  C   UNL     1      -2.867   8.399  19.117  1.00  0.00     0.131 A 
ATOM     84  C   UNL     1      -1.494  10.784  18.834  1.00  0.00     0.055 A 
ATOM     85  C   UNL     1      -2.776   9.274  20.200  1.00  0.00     0.041 A 
ATOM     86  F   UNL     1      -3.517   7.239  19.307  1.00  0.00    -0.206 F 
ATOM     87  C   UNL     1      -2.075  10.468  20.066  1.00  0.00     0.022 A 
BRANCH  84  88
ATOM     88  S   UNL     1      -0.460  12.265  18.670  1.00  0.00     0.124 S 
ATOM     89  O   UNL     1       0.827  11.694  18.286  1.00  0.00    -0.237 OA
ATOM     90  O   UNL     1      -1.157  13.020  17.635  1.00  0.00    -0.237 OA
ATOM     91  O   UNL     1      -0.500  12.861  20.005  1.00  0.00    -0.744 OA
ENDBRANCH  84  88
ENDBRANCH  58  81
ENDBRANCH  32  33
ENDBRANCH  24  27
ENDBRANCH  22  23
ENDBRANCH   1  22
TORSDOF 16
