REMARK SMILES O=C(NCCCCNC(=O)c1ccc(-c2c3nc(c(-c4cc(S(=O)(=O)[O-])ccc4F)c4ccc([nH]4)c(-c4cc(S(=O)(=O)[O-])ccc4F)c4nc(c(-c5cc(S(=O)(=O)[O-])ccc5F)c5ccc2[nH]5)C=C4)C=C3)cc1)c1ccc(NC(=O)[C@H]2CCS(=O)(=O)C2)cc1
REMARK SMILES IDX 6 1 5 2 4 3 3 4 1 5 2 6 74 8 75 9 89 10 76 11 88 12 77 13
REMARK SMILES IDX 78 14 79 15 80 17 81 18 82 19 87 20 83 21 84 22 85 23 86 24
REMARK SMILES IDX 7 25 8 26 9 27 10 29 11 30 12 31 73 32 13 33 72 34 14 35
REMARK SMILES IDX 15 36 16 37 66 38 17 39 71 40 65 41 67 42 18 43 70 44 64 45
REMARK SMILES IDX 63 46 19 48 51 49 31 50 50 51 32 52 35 53 49 54 68 55 33 56
REMARK SMILES IDX 34 57 48 59 69 60 36 61 20 62 21 63 29 64 22 65 28 66 30 67
REMARK SMILES IDX 27 68 23 69 24 70 25 71 26 72 52 73 53 74 61 75 54 76 60 77
REMARK SMILES IDX 62 78 59 79 55 80 56 81 57 82 58 83 37 84 38 85 46 86 39 87
REMARK SMILES IDX 45 88 47 89 44 90 40 91 41 92 42 93 43 94
REMARK H PARENT 3 7 78 16 8 28 67 47 35 58
REMARK Flexibility Score: inf
ROOT
ATOM      1  C   UNL     1       2.207  -3.766  -9.835  1.00  0.00     0.023 C 
ENDROOT
BRANCH   1   2
ATOM      2  C   UNL     1       2.525  -3.284  -8.428  1.00  0.00     0.023 C 
BRANCH   2   3
ATOM      3  C   UNL     1       4.004  -3.229  -8.095  1.00  0.00     0.116 C 
BRANCH   3   4
ATOM      4  N   UNL     1       4.752  -2.232  -8.861  1.00  0.00    -0.352 N 
ATOM      5  O   UNL     1       6.089  -0.413  -9.150  1.00  0.00    -0.269 OA
ATOM      6  C   UNL     1       5.618  -1.259  -8.399  1.00  0.00     0.251 C 
ATOM      7  H   UNL     1       4.622  -2.258  -9.836  1.00  0.00     0.163 HD
BRANCH   6   8
ATOM      8  C   UNL     1       5.960  -1.240  -6.960  1.00  0.00     0.039 A 
ATOM      9  C   UNL     1       6.216  -2.444  -6.325  1.00  0.00     0.016 A 
ATOM     10  C   UNL     1       5.904  -0.064  -6.213  1.00  0.00     0.016 A 
ATOM     11  C   UNL     1       6.169  -2.506  -4.942  1.00  0.00     0.027 A 
ATOM     12  C   UNL     1       6.059  -0.124  -4.817  1.00  0.00     0.027 A 
ATOM     13  C   UNL     1       6.207  -1.357  -4.160  1.00  0.00     0.041 A 
BRANCH  13  14
ATOM     14  N   UNL     1       6.410  -1.344  -2.761  1.00  0.00    -0.326 N 
ATOM     15  C   UNL     1       6.850  -2.285  -1.861  1.00  0.00     0.228 C 
ATOM     16  H   UNL     1       6.191  -0.480  -2.344  1.00  0.00     0.169 HD
ATOM     17  O   UNL     1       6.995  -1.947  -0.683  1.00  0.00    -0.274 OA
BRANCH  15  18
ATOM     18  C   UNL     1       7.127  -3.708  -2.273  1.00  0.00     0.095 C 
ATOM     19  C   UNL     1       8.437  -4.363  -1.846  1.00  0.00     0.030 C 
ATOM     20  C   UNL     1       6.033  -4.633  -1.756  1.00  0.00     0.150 C 
ATOM     21  C   UNL     1       8.331  -5.783  -2.428  1.00  0.00     0.138 C 
ATOM     22  S   UNL     1       6.603  -6.243  -2.253  1.00  0.00     0.151 S 
ATOM     23  O   UNL     1       6.057  -6.502  -3.574  1.00  0.00    -0.229 OA
ATOM     24  O   UNL     1       6.457  -7.162  -1.152  1.00  0.00    -0.229 OA
ENDBRANCH  15  18
ENDBRANCH  13  14
ENDBRANCH   6   8
ENDBRANCH   3   4
ENDBRANCH   2   3
ENDBRANCH   1   2
BRANCH   1  25
ATOM     25  C   UNL     1       2.789  -5.127 -10.199  1.00  0.00     0.116 C 
BRANCH  25  26
ATOM     26  N   UNL     1       2.311  -6.201  -9.341  1.00  0.00    -0.352 N 
ATOM     27  C   UNL     1       1.682  -7.376  -9.680  1.00  0.00     0.251 C 
ATOM     28  H   UNL     1       2.460  -6.067  -8.377  1.00  0.00     0.163 HD
ATOM     29  O   UNL     1       1.205  -8.082  -8.796  1.00  0.00    -0.269 OA
BRANCH  27  30
ATOM     30  C   UNL     1       1.547  -7.766 -11.102  1.00  0.00     0.039 A 
ATOM     31  C   UNL     1       0.330  -8.290 -11.543  1.00  0.00     0.014 A 
ATOM     32  C   UNL     1       2.604  -7.608 -12.002  1.00  0.00     0.014 A 
ATOM     33  C   UNL     1       0.153  -8.584 -12.897  1.00  0.00     0.010 A 
ATOM     34  C   UNL     1       2.395  -7.809 -13.365  1.00  0.00     0.010 A 
ATOM     35  C   UNL     1       1.169  -8.305 -13.828  1.00  0.00    -0.014 A 
BRANCH  35  36
ATOM     36  C   UNL     1       0.947  -8.523 -15.283  1.00  0.00     0.031 A 
ATOM     37  C   UNL     1       1.784  -9.515 -16.046  1.00  0.00     0.074 A 
ATOM     38  C   UNL     1       0.009  -7.798 -15.925  1.00  0.00     0.049 A 
ATOM     39  N   UNL     1       1.720  -9.854 -17.309  1.00  0.00    -0.248 NA
ATOM     40  C   UNL     1       2.852 -10.192 -15.298  1.00  0.00     0.031 C 
ATOM     41  C   UNL     1      -0.831  -6.769 -15.308  1.00  0.00     0.029 A 
ATOM     42  N   UNL     1      -0.407  -7.821 -17.233  1.00  0.00    -0.354 N 
ATOM     43  C   UNL     1       2.744 -10.774 -17.509  1.00  0.00     0.074 A 
ATOM     44  C   UNL     1       3.455 -10.883 -16.253  1.00  0.00     0.031 C 
ATOM     45  C   UNL     1      -1.700  -6.304 -16.219  1.00  0.00     0.029 A 
ATOM     46  C   UNL     1      -1.448  -6.962 -17.497  1.00  0.00     0.049 A 
ATOM     47  H   UNL     1       0.001  -8.399 -17.918  1.00  0.00     0.167 HD
ATOM     48  C   UNL     1       3.047 -11.481 -18.628  1.00  0.00     0.034 A 
ATOM     49  C   UNL     1      -2.129  -6.732 -18.638  1.00  0.00     0.034 A 
ATOM     50  C   UNL     1       2.323 -11.360 -19.872  1.00  0.00     0.049 A 
ATOM     51  C   UNL     1      -1.757  -7.511 -19.874  1.00  0.00     0.074 A 
ATOM     52  C   UNL     1       2.500 -12.074 -21.045  1.00  0.00     0.029 A 
ATOM     53  N   UNL     1       1.295 -10.456 -20.113  1.00  0.00    -0.354 N 
ATOM     54  N   UNL     1      -0.835  -8.434 -20.027  1.00  0.00    -0.248 NA
ATOM     55  C   UNL     1      -2.531  -7.222 -21.086  1.00  0.00     0.031 C 
ATOM     56  C   UNL     1       1.645 -11.542 -22.017  1.00  0.00     0.029 A 
ATOM     57  C   UNL     1       0.862 -10.562 -21.428  1.00  0.00     0.049 A 
ATOM     58  H   UNL     1       0.927  -9.831 -19.448  1.00  0.00     0.167 HD
ATOM     59  C   UNL     1      -0.944  -8.861 -21.349  1.00  0.00     0.074 A 
ATOM     60  C   UNL     1      -2.037  -8.110 -21.934  1.00  0.00     0.031 C 
ATOM     61  C   UNL     1      -0.211  -9.791 -22.015  1.00  0.00     0.034 A 
BRANCH  48  62
ATOM     62  C   UNL     1       4.238 -12.414 -18.559  1.00  0.00     0.023 A 
ATOM     63  C   UNL     1       4.295 -13.483 -17.647  1.00  0.00     0.031 A 
ATOM     64  C   UNL     1       5.353 -12.206 -19.390  1.00  0.00     0.131 A 
ATOM     65  C   UNL     1       5.471 -14.239 -17.521  1.00  0.00     0.055 A 
ATOM     66  C   UNL     1       6.484 -13.023 -19.328  1.00  0.00     0.041 A 
ATOM     67  F   UNL     1       5.374 -11.190 -20.268  1.00  0.00    -0.206 F 
ATOM     68  C   UNL     1       6.556 -14.034 -18.375  1.00  0.00     0.022 A 
BRANCH  65  69
ATOM     69  S   UNL     1       5.627 -15.368 -16.109  1.00  0.00     0.124 S 
ATOM     70  O   UNL     1       5.399 -14.465 -14.983  1.00  0.00    -0.237 OA
ATOM     71  O   UNL     1       4.577 -16.345 -16.369  1.00  0.00    -0.237 OA
ATOM     72  O   UNL     1       6.994 -15.872 -16.224  1.00  0.00    -0.744 OA
ENDBRANCH  65  69
ENDBRANCH  48  62
BRANCH  49  73
ATOM     73  C   UNL     1      -3.243  -5.741 -18.670  1.00  0.00     0.023 A 
ATOM     74  C   UNL     1      -4.559  -6.146 -18.942  1.00  0.00     0.031 A 
ATOM     75  C   UNL     1      -3.004  -4.369 -18.473  1.00  0.00     0.131 A 
ATOM     76  C   UNL     1      -5.578  -5.189 -19.056  1.00  0.00     0.055 A 
ATOM     77  C   UNL     1      -4.031  -3.426 -18.530  1.00  0.00     0.041 A 
ATOM     78  F   UNL     1      -1.764  -3.927 -18.207  1.00  0.00    -0.206 F 
ATOM     79  C   UNL     1      -5.326  -3.833 -18.837  1.00  0.00     0.022 A 
BRANCH  76  80
ATOM     80  S   UNL     1      -7.227  -5.733 -19.582  1.00  0.00     0.124 S 
ATOM     81  O   UNL     1      -6.942  -6.333 -20.880  1.00  0.00    -0.237 OA
ATOM     82  O   UNL     1      -7.596  -6.656 -18.514  1.00  0.00    -0.237 OA
ATOM     83  O   UNL     1      -7.997  -4.491 -19.622  1.00  0.00    -0.744 OA
ENDBRANCH  76  80
ENDBRANCH  49  73
BRANCH  61  84
ATOM     84  C   UNL     1      -0.606 -10.068 -23.449  1.00  0.00     0.023 A 
ATOM     85  C   UNL     1      -0.541  -9.073 -24.442  1.00  0.00     0.031 A 
ATOM     86  C   UNL     1      -1.107 -11.330 -23.817  1.00  0.00     0.131 A 
ATOM     87  C   UNL     1      -1.054  -9.327 -25.723  1.00  0.00     0.055 A 
ATOM     88  C   UNL     1      -1.538 -11.602 -25.117  1.00  0.00     0.041 A 
ATOM     89  F   UNL     1      -1.199 -12.320 -22.915  1.00  0.00    -0.206 F 
ATOM     90  C   UNL     1      -1.534 -10.591 -26.073  1.00  0.00     0.022 A 
BRANCH  87  91
ATOM     91  S   UNL     1      -1.226  -7.939 -26.879  1.00  0.00     0.124 S 
ATOM     92  O   UNL     1      -2.030  -6.998 -26.105  1.00  0.00    -0.237 OA
ATOM     93  O   UNL     1       0.162  -7.551 -27.109  1.00  0.00    -0.237 OA
ATOM     94  O   UNL     1      -1.903  -8.533 -28.030  1.00  0.00    -0.744 OA
ENDBRANCH  87  91
ENDBRANCH  61  84
ENDBRANCH  35  36
ENDBRANCH  27  30
ENDBRANCH  25  26
ENDBRANCH   1  25
TORSDOF 16
