REMARK SMILES NC(=[NH2+])N1CCC[C@H]1C(=O)NCCCCNC(=O)c1ccc(-c2c3nc(c(-c4cc(S(=O)(=O)[O-])ccc4F)c4ccc([nH]4)c(-c4cc(S(=O)(=O)[O-])ccc4F)c4nc(c(-c5cc(S(=O)(=O)[O-])ccc5F)c5ccc2[nH]5)C=C4)C=C3)cc1
REMARK SMILES IDX 14 1 13 2 12 3 11 4 9 5 10 6 8 8 4 9 5 10 6 11 7 12 2 13
REMARK SMILES IDX 3 14 1 17 15 20 16 21 17 22 18 24 19 25 20 26 81 27 21 28
REMARK SMILES IDX 80 29 22 30 23 31 24 32 74 33 25 34 79 35 73 36 75 37 26 38
REMARK SMILES IDX 78 39 72 40 71 41 27 43 59 44 39 45 58 46 40 47 43 48 57 49
REMARK SMILES IDX 76 50 41 51 42 52 56 54 77 55 44 56 28 57 29 58 37 59 30 60
REMARK SMILES IDX 36 61 38 62 35 63 31 64 32 65 33 66 34 67 60 68 61 69 69 70
REMARK SMILES IDX 62 71 68 72 70 73 67 74 63 75 64 76 65 77 66 78 45 79 46 80
REMARK SMILES IDX 54 81 47 82 53 83 55 84 52 85 48 86 49 87 50 88 51 89
REMARK H PARENT 11 7 3 15 3 16 1 18 1 19 16 23 75 42 43 53
REMARK Flexibility Score: inf
ROOT
ATOM      1  C   UNL     1       0.750   5.176  -0.703  1.00  0.00     0.023 C 
ENDROOT
BRANCH   1   2
ATOM      2  C   UNL     1       0.436   3.722  -0.347  1.00  0.00     0.023 C 
BRANCH   2   3
ATOM      3  C   UNL     1      -1.055   3.380  -0.345  1.00  0.00     0.116 C 
BRANCH   3   4
ATOM      4  N   UNL     1      -1.559   3.226  -1.696  1.00  0.00    -0.353 N 
ATOM      5  C   UNL     1      -1.878   2.116  -2.414  1.00  0.00     0.257 C 
ATOM      6  O   UNL     1      -2.143   2.296  -3.611  1.00  0.00    -0.271 OA
ATOM      7  H   UNL     1      -1.695   4.074  -2.178  1.00  0.00     0.163 HD
BRANCH   5   8
ATOM      8  C   UNL     1      -2.032   0.704  -1.827  1.00  0.00     0.237 C 
ATOM      9  N   UNL     1      -1.139   0.328  -0.725  1.00  0.00    -0.253 N 
ATOM     10  C   UNL     1      -1.918  -0.145   0.422  1.00  0.00     0.201 C 
ATOM     11  C   UNL     1      -3.272  -0.504  -0.170  1.00  0.00     0.042 C 
ATOM     12  C   UNL     1      -3.447   0.530  -1.265  1.00  0.00     0.055 C 
BRANCH   9  13
ATOM     13  C   UNL     1       0.216   0.247  -0.739  1.00  0.00     0.341 C 
ATOM     14  N   UNL     1       0.891  -0.093   0.306  1.00  0.00    -0.291 N 
ATOM     15  H   UNL     1       1.873  -0.142   0.263  1.00  0.00     0.256 HD
ATOM     16  H   UNL     1       0.424  -0.303   1.147  1.00  0.00     0.256 HD
ATOM     17  N   UNL     1       0.845   0.533  -1.889  1.00  0.00    -0.291 N 
ATOM     18  H   UNL     1       1.827   0.486  -1.939  1.00  0.00     0.256 HD
ATOM     19  H   UNL     1       0.324   0.790  -2.684  1.00  0.00     0.256 HD
ENDBRANCH   9  13
ENDBRANCH   5   8
ENDBRANCH   3   4
ENDBRANCH   2   3
ENDBRANCH   1   2
BRANCH   1  20
ATOM     20  C   UNL     1       0.130   6.219   0.222  1.00  0.00     0.116 C 
BRANCH  20  21
ATOM     21  N   UNL     1       0.477   6.026   1.624  1.00  0.00    -0.352 N 
ATOM     22  C   UNL     1       0.860   6.970   2.548  1.00  0.00     0.251 C 
ATOM     23  H   UNL     1       0.431   5.099   1.953  1.00  0.00     0.163 HD
ATOM     24  O   UNL     1       1.219   6.636   3.672  1.00  0.00    -0.269 OA
BRANCH  22  25
ATOM     25  C   UNL     1       0.875   8.389   2.143  1.00  0.00     0.039 A 
ATOM     26  C   UNL     1       2.061   9.115   2.263  1.00  0.00     0.014 A 
ATOM     27  C   UNL     1      -0.256   8.957   1.550  1.00  0.00     0.014 A 
ATOM     28  C   UNL     1       2.145  10.387   1.693  1.00  0.00     0.010 A 
ATOM     29  C   UNL     1      -0.148  10.194   0.926  1.00  0.00     0.010 A 
ATOM     30  C   UNL     1       1.060  10.910   0.972  1.00  0.00    -0.014 A 
BRANCH  30  31
ATOM     31  C   UNL     1       1.165  12.187   0.220  1.00  0.00     0.031 A 
ATOM     32  C   UNL     1       0.292  13.348   0.598  1.00  0.00     0.074 A 
ATOM     33  C   UNL     1       1.962  12.257  -0.865  1.00  0.00     0.049 A 
ATOM     34  N   UNL     1       0.109  14.483  -0.024  1.00  0.00    -0.248 NA
ATOM     35  C   UNL     1      -0.509  13.192   1.821  1.00  0.00     0.031 C 
ATOM     36  C   UNL     1       2.827  11.179  -1.352  1.00  0.00     0.029 A 
ATOM     37  N   UNL     1       2.157  13.270  -1.770  1.00  0.00    -0.354 N 
ATOM     38  C   UNL     1      -0.845  15.170   0.719  1.00  0.00     0.074 A 
ATOM     39  C   UNL     1      -1.237  14.298   1.806  1.00  0.00     0.031 C 
ATOM     40  C   UNL     1       3.465  11.592  -2.459  1.00  0.00     0.029 A 
ATOM     41  C   UNL     1       3.020  12.942  -2.790  1.00  0.00     0.049 A 
ATOM     42  H   UNL     1       1.721  14.149  -1.695  1.00  0.00     0.167 HD
ATOM     43  C   UNL     1      -1.332  16.420   0.521  1.00  0.00     0.034 A 
ATOM     44  C   UNL     1       3.389  13.638  -3.884  1.00  0.00     0.034 A 
ATOM     45  C   UNL     1      -0.913  17.281  -0.556  1.00  0.00     0.049 A 
ATOM     46  C   UNL     1       2.809  15.011  -4.101  1.00  0.00     0.074 A 
ATOM     47  C   UNL     1      -1.280  18.592  -0.806  1.00  0.00     0.029 A 
ATOM     48  N   UNL     1      -0.039  16.914  -1.572  1.00  0.00    -0.354 N 
ATOM     49  N   UNL     1       1.942  15.666  -3.364  1.00  0.00    -0.248 NA
ATOM     50  C   UNL     1       3.253  15.736  -5.299  1.00  0.00     0.031 C 
ATOM     51  C   UNL     1      -0.675  18.997  -2.002  1.00  0.00     0.029 A 
ATOM     52  C   UNL     1       0.117  17.959  -2.468  1.00  0.00     0.049 A 
ATOM     53  H   UNL     1       0.404  16.038  -1.644  1.00  0.00     0.167 HD
ATOM     54  C   UNL     1       1.753  16.890  -3.999  1.00  0.00     0.074 A 
ATOM     55  C   UNL     1       2.603  16.885  -5.173  1.00  0.00     0.031 C 
ATOM     56  C   UNL     1       0.954  17.926  -3.643  1.00  0.00     0.034 A 
BRANCH  43  57
ATOM     57  C   UNL     1      -2.389  16.908   1.481  1.00  0.00     0.023 A 
ATOM     58  C   UNL     1      -2.118  17.081   2.849  1.00  0.00     0.031 A 
ATOM     59  C   UNL     1      -3.696  17.165   1.031  1.00  0.00     0.131 A 
ATOM     60  C   UNL     1      -3.155  17.416   3.732  1.00  0.00     0.055 A 
ATOM     61  C   UNL     1      -4.706  17.577   1.902  1.00  0.00     0.041 A 
ATOM     62  F   UNL     1      -4.019  16.998  -0.262  1.00  0.00    -0.206 F 
ATOM     63  C   UNL     1      -4.443  17.689   3.265  1.00  0.00     0.022 A 
BRANCH  60  64
ATOM     64  S   UNL     1      -2.829  17.346   5.514  1.00  0.00     0.124 S 
ATOM     65  O   UNL     1      -2.436  15.950   5.686  1.00  0.00    -0.237 OA
ATOM     66  O   UNL     1      -1.769  18.334   5.680  1.00  0.00    -0.237 OA
ATOM     67  O   UNL     1      -4.114  17.703   6.112  1.00  0.00    -0.744 OA
ENDBRANCH  60  64
ENDBRANCH  43  57
BRANCH  44  68
ATOM     68  C   UNL     1       4.329  13.044  -4.875  1.00  0.00     0.023 A 
ATOM     69  C   UNL     1       5.612  13.580  -5.061  1.00  0.00     0.031 A 
ATOM     70  C   UNL     1       3.944  11.953  -5.674  1.00  0.00     0.131 A 
ATOM     71  C   UNL     1       6.455  13.047  -6.050  1.00  0.00     0.055 A 
ATOM     72  C   UNL     1       4.802  11.399  -6.627  1.00  0.00     0.041 A 
ATOM     73  F   UNL     1       2.729  11.400  -5.530  1.00  0.00    -0.206 F 
ATOM     74  C   UNL     1       6.062  11.954  -6.826  1.00  0.00     0.022 A 
BRANCH  71  75
ATOM     75  S   UNL     1       8.052  13.850  -6.353  1.00  0.00     0.124 S 
ATOM     76  O   UNL     1       7.643  15.206  -6.702  1.00  0.00    -0.237 OA
ATOM     77  O   UNL     1       8.720  13.692  -5.065  1.00  0.00    -0.237 OA
ATOM     78  O   UNL     1       8.623  13.068  -7.448  1.00  0.00    -0.744 OA
ENDBRANCH  71  75
ENDBRANCH  44  68
BRANCH  56  79
ATOM     79  C   UNL     1       0.989  19.147  -4.525  1.00  0.00     0.023 A 
ATOM     80  C   UNL     1       0.425  19.141  -5.811  1.00  0.00     0.031 A 
ATOM     81  C   UNL     1       1.596  20.330  -4.068  1.00  0.00     0.131 A 
ATOM     82  C   UNL     1       0.512  20.287  -6.615  1.00  0.00     0.055 A 
ATOM     83  C   UNL     1       1.637  21.482  -4.854  1.00  0.00     0.041 A 
ATOM     84  F   UNL     1       2.150  20.386  -2.847  1.00  0.00    -0.206 F 
ATOM     85  C   UNL     1       1.101  21.462  -6.139  1.00  0.00     0.022 A 
BRANCH  82  86
ATOM     86  S   UNL     1      -0.107  20.207  -8.318  1.00  0.00     0.124 S 
ATOM     87  O   UNL     1       0.768  19.203  -8.912  1.00  0.00    -0.237 OA
ATOM     88  O   UNL     1      -1.498  19.809  -8.129  1.00  0.00    -0.237 OA
ATOM     89  O   UNL     1       0.082  21.569  -8.816  1.00  0.00    -0.744 OA
ENDBRANCH  82  86
ENDBRANCH  56  79
ENDBRANCH  30  31
ENDBRANCH  22  25
ENDBRANCH  20  21
ENDBRANCH   1  20
TORSDOF 15
