REMARK SMILES Cn1ncc(C(=O)NCCCCNC(=O)c2ccc(-c3c4nc(c(-c5cc(S(=O)(=O)[O-])ccc5F)c5ccc([nH]5)c(-c5cc(S(=O)(=O)[O-])ccc5F)c5nc(c(-c6cc(S(=O)(=O)[O-])ccc6F)c6ccc3[nH]6)C=C5)C=C4)cc2)c1C(=O)Nc1ccccn1
REMARK SMILES IDX 11 1 10 2 9 3 8 4 6 5 7 6 5 8 1 9 2 10 3 11 79 12 4 13 80 14
REMARK SMILES IDX 81 15 82 16 83 18 84 19 88 20 85 21 87 22 86 23 12 24 13 25
REMARK SMILES IDX 14 26 15 28 16 29 17 30 78 31 18 32 77 33 19 34 20 35 21 36
REMARK SMILES IDX 71 37 22 38 76 39 70 40 72 41 23 42 75 43 69 44 68 45 24 47
REMARK SMILES IDX 56 48 36 49 55 50 37 51 40 52 54 53 73 54 38 55 39 56 53 58
REMARK SMILES IDX 74 59 41 60 25 61 26 62 34 63 27 64 33 65 35 66 32 67 28 68
REMARK SMILES IDX 29 69 30 70 31 71 57 72 58 73 66 74 59 75 65 76 67 77 64 78
REMARK SMILES IDX 60 79 61 80 62 81 63 82 42 83 43 84 51 85 44 86 50 87 52 88
REMARK SMILES IDX 49 89 45 90 46 91 47 92 48 93
REMARK H PARENT 8 7 82 17 13 27 72 46 40 57
REMARK Flexibility Score: inf
ROOT
ATOM      1  C   UNL     1       2.533  -5.723  -1.689  1.00  0.00     0.023 C 
ENDROOT
BRANCH   1   2
ATOM      2  C   UNL     1       1.450  -4.668  -1.901  1.00  0.00     0.023 C 
BRANCH   2   3
ATOM      3  C   UNL     1       1.207  -3.702  -0.748  1.00  0.00     0.116 C 
BRANCH   3   4
ATOM      4  N   UNL     1       2.344  -2.871  -0.427  1.00  0.00    -0.352 N 
ATOM      5  C   UNL     1       2.438  -1.542  -0.108  1.00  0.00     0.255 C 
ATOM      6  O   UNL     1       3.576  -1.099   0.061  1.00  0.00    -0.269 OA
ATOM      7  H   UNL     1       3.206  -3.346  -0.439  1.00  0.00     0.163 HD
BRANCH   5   8
ATOM      8  C   UNL     1       1.294  -0.641  -0.028  1.00  0.00     0.090 A 
ATOM      9  C   UNL     1      -1.677   0.973   1.216  1.00  0.00     0.174 C 
ATOM     10  N   UNL     1      -0.526   0.482   0.491  1.00  0.00    -0.262 N 
ATOM     11  N   UNL     1       0.261   1.405  -0.090  1.00  0.00    -0.180 NA
ATOM     12  C   UNL     1      -0.021  -0.800   0.425  1.00  0.00     0.139 A 
ATOM     13  C   UNL     1       1.392   0.743  -0.316  1.00  0.00     0.149 A 
BRANCH  12  14
ATOM     14  C   UNL     1      -0.624  -1.985   0.976  1.00  0.00     0.275 C 
ATOM     15  O   UNL     1      -0.020  -2.679   1.796  1.00  0.00    -0.267 OA
ATOM     16  N   UNL     1      -1.867  -2.436   0.607  1.00  0.00    -0.305 N 
ATOM     17  H   UNL     1      -2.001  -3.405   0.719  1.00  0.00     0.171 HD
BRANCH  16  18
ATOM     18  C   UNL     1      -2.967  -1.758   0.104  1.00  0.00     0.132 A 
ATOM     19  C   UNL     1      -2.981  -0.984  -1.045  1.00  0.00     0.047 A 
ATOM     20  N   UNL     1      -4.037  -1.884   0.914  1.00  0.00    -0.239 NA
ATOM     21  C   UNL     1      -4.138  -0.248  -1.322  1.00  0.00     0.005 A 
ATOM     22  C   UNL     1      -5.124  -1.137   0.648  1.00  0.00     0.113 A 
ATOM     23  C   UNL     1      -5.218  -0.301  -0.445  1.00  0.00     0.020 A 
ENDBRANCH  16  18
ENDBRANCH  12  14
ENDBRANCH   5   8
ENDBRANCH   3   4
ENDBRANCH   2   3
ENDBRANCH   1   2
BRANCH   1  24
ATOM     24  C   UNL     1       2.457  -6.528  -0.396  1.00  0.00     0.116 C 
BRANCH  24  25
ATOM     25  N   UNL     1       1.183  -7.207  -0.199  1.00  0.00    -0.352 N 
ATOM     26  C   UNL     1       0.919  -8.541   0.015  1.00  0.00     0.251 C 
ATOM     27  H   UNL     1       0.391  -6.623  -0.222  1.00  0.00     0.163 HD
ATOM     28  O   UNL     1      -0.246  -8.930   0.069  1.00  0.00    -0.269 OA
BRANCH  26  29
ATOM     29  C   UNL     1       2.034  -9.506   0.128  1.00  0.00     0.039 A 
ATOM     30  C   UNL     1       1.993 -10.681  -0.627  1.00  0.00     0.014 A 
ATOM     31  C   UNL     1       3.139  -9.231   0.936  1.00  0.00     0.014 A 
ATOM     32  C   UNL     1       3.107 -11.525  -0.654  1.00  0.00     0.010 A 
ATOM     33  C   UNL     1       4.279 -10.025   0.838  1.00  0.00     0.010 A 
ATOM     34  C   UNL     1       4.280 -11.175   0.033  1.00  0.00    -0.014 A 
BRANCH  34  35
ATOM     35  C   UNL     1       5.522 -11.985  -0.085  1.00  0.00     0.031 A 
ATOM     36  C   UNL     1       6.123 -12.626   1.137  1.00  0.00     0.074 A 
ATOM     37  C   UNL     1       6.155 -12.073  -1.273  1.00  0.00     0.049 A 
ATOM     38  N   UNL     1       7.249 -13.280   1.262  1.00  0.00    -0.248 NA
ATOM     39  C   UNL     1       5.373 -12.475   2.391  1.00  0.00     0.031 C 
ATOM     40  C   UNL     1       5.705 -11.449  -2.520  1.00  0.00     0.029 A 
ATOM     41  N   UNL     1       7.320 -12.708  -1.626  1.00  0.00    -0.354 N 
ATOM     42  C   UNL     1       7.351 -13.603   2.611  1.00  0.00     0.074 A 
ATOM     43  C   UNL     1       6.207 -13.007   3.269  1.00  0.00     0.031 C 
ATOM     44  C   UNL     1       6.568 -11.753  -3.502  1.00  0.00     0.029 A 
ATOM     45  C   UNL     1       7.658 -12.552  -2.951  1.00  0.00     0.049 A 
ATOM     46  H   UNL     1       7.864 -13.227  -0.990  1.00  0.00     0.167 HD
ATOM     47  C   UNL     1       8.295 -14.350   3.239  1.00  0.00     0.034 A 
ATOM     48  C   UNL     1       8.729 -12.990  -3.642  1.00  0.00     0.034 A 
ATOM     49  C   UNL     1       9.422 -14.947   2.564  1.00  0.00     0.049 A 
ATOM     50  C   UNL     1       9.772 -13.809  -2.925  1.00  0.00     0.074 A 
ATOM     51  C   UNL     1      10.406 -15.767   3.088  1.00  0.00     0.029 A 
ATOM     52  N   UNL     1       9.721 -14.781   1.217  1.00  0.00    -0.354 N 
ATOM     53  N   UNL     1       9.826 -14.152  -1.659  1.00  0.00    -0.248 NA
ATOM     54  C   UNL     1      10.891 -14.310  -3.733  1.00  0.00     0.031 C 
ATOM     55  C   UNL     1      11.332 -16.045   2.075  1.00  0.00     0.029 A 
ATOM     56  C   UNL     1      10.888 -15.461   0.899  1.00  0.00     0.049 A 
ATOM     57  H   UNL     1       9.183 -14.258   0.580  1.00  0.00     0.167 HD
ATOM     58  C   UNL     1      10.971 -14.933  -1.526  1.00  0.00     0.074 A 
ATOM     59  C   UNL     1      11.568 -15.021  -2.843  1.00  0.00     0.031 C 
ATOM     60  C   UNL     1      11.479 -15.529  -0.417  1.00  0.00     0.034 A 
BRANCH  47  61
ATOM     61  C   UNL     1       8.146 -14.535   4.731  1.00  0.00     0.023 A 
ATOM     62  C   UNL     1       7.020 -15.169   5.286  1.00  0.00     0.031 A 
ATOM     63  C   UNL     1       9.115 -14.029   5.616  1.00  0.00     0.131 A 
ATOM     64  C   UNL     1       6.842 -15.195   6.677  1.00  0.00     0.055 A 
ATOM     65  C   UNL     1       8.976 -14.140   7.002  1.00  0.00     0.041 A 
ATOM     66  F   UNL     1      10.204 -13.397   5.150  1.00  0.00    -0.206 F 
ATOM     67  C   UNL     1       7.825 -14.707   7.540  1.00  0.00     0.022 A 
BRANCH  64  68
ATOM     68  S   UNL     1       5.234 -15.720   7.332  1.00  0.00     0.124 S 
ATOM     69  O   UNL     1       4.330 -14.769   6.688  1.00  0.00    -0.237 OA
ATOM     70  O   UNL     1       5.141 -17.100   6.872  1.00  0.00    -0.237 OA
ATOM     71  O   UNL     1       5.379 -15.550   8.776  1.00  0.00    -0.744 OA
ENDBRANCH  64  68
ENDBRANCH  47  61
BRANCH  48  72
ATOM     72  C   UNL     1       8.878 -12.662  -5.089  1.00  0.00     0.023 A 
ATOM     73  C   UNL     1       8.827 -13.667  -6.068  1.00  0.00     0.031 A 
ATOM     74  C   UNL     1       9.104 -11.340  -5.512  1.00  0.00     0.131 A 
ATOM     75  C   UNL     1       9.039 -13.342  -7.417  1.00  0.00     0.055 A 
ATOM     76  C   UNL     1       9.265 -11.014  -6.859  1.00  0.00     0.041 A 
ATOM     77  F   UNL     1       9.154 -10.341  -4.617  1.00  0.00    -0.206 F 
ATOM     78  C   UNL     1       9.245 -12.021  -7.820  1.00  0.00     0.022 A 
BRANCH  75  79
ATOM     79  S   UNL     1       9.109 -14.684  -8.635  1.00  0.00     0.124 S 
ATOM     80  O   UNL     1      10.215 -15.488  -8.127  1.00  0.00    -0.237 OA
ATOM     81  O   UNL     1       7.779 -15.273  -8.514  1.00  0.00    -0.237 OA
ATOM     82  O   UNL     1       9.368 -13.989  -9.893  1.00  0.00    -0.744 OA
ENDBRANCH  75  79
ENDBRANCH  48  72
BRANCH  60  83
ATOM     83  C   UNL     1      12.722 -16.366  -0.598  1.00  0.00     0.023 A 
ATOM     84  C   UNL     1      13.959 -15.793  -0.941  1.00  0.00     0.031 A 
ATOM     85  C   UNL     1      12.663 -17.761  -0.432  1.00  0.00     0.131 A 
ATOM     86  C   UNL     1      15.074 -16.617  -1.159  1.00  0.00     0.055 A 
ATOM     87  C   UNL     1      13.789 -18.570  -0.592  1.00  0.00     0.041 A 
ATOM     88  F   UNL     1      11.506 -18.362  -0.107  1.00  0.00    -0.206 F 
ATOM     89  C   UNL     1      15.000 -18.000  -0.971  1.00  0.00     0.022 A 
BRANCH  86  90
ATOM     90  S   UNL     1      16.605 -15.867  -1.781  1.00  0.00     0.124 S 
ATOM     91  O   UNL     1      16.159 -15.261  -3.031  1.00  0.00    -0.237 OA
ATOM     92  O   UNL     1      16.954 -14.938  -0.711  1.00  0.00    -0.237 OA
ATOM     93  O   UNL     1      17.508 -17.006  -1.932  1.00  0.00    -0.744 OA
ENDBRANCH  86  90
ENDBRANCH  60  83
ENDBRANCH  34  35
ENDBRANCH  26  29
ENDBRANCH  24  25
ENDBRANCH   1  24
TORSDOF 16
