REMARK SMILES C[C@H]1[C@H](C)CC[C@@]2(C(=O)NCCCCNC(=O)c3ccc(-c4c5nc(c(-c6cc(S(=O)(=O)[O-])ccc6F)c6ccc([nH]6)c(-c6cc(S(=O)(=O)[O-])ccc6F)c6nc(c(-c7cc(S(=O)(=O)[O-])ccc7F)c7ccc4[nH]7)C=C6)C=C5)cc3)CC[C@@]3(C)C(=CC[C@@H]4[C@@]5(C)CC[C@H](O)C(C)(C)[C@@H]5CC[C@]43C)[C@H]12
REMARK SMILES IDX 13 1 12 2 11 3 10 4 8 5 9 6 7 8 1 9 2 10 3 11 103 12 4 13
REMARK SMILES IDX 5 14 85 15 6 16 81 17 83 18 86 19 82 20 84 21 101 22 87 23
REMARK SMILES IDX 88 24 100 25 102 26 89 27 99 28 90 29 91 30 98 31 92 32
REMARK SMILES IDX 95 33 93 34 96 35 97 36 94 37 14 39 15 40 16 41 17 43 18 44
REMARK SMILES IDX 19 45 80 46 20 47 79 48 21 49 22 50 23 51 73 52 24 53 78 54
REMARK SMILES IDX 72 55 74 56 25 57 77 58 71 59 70 60 26 62 58 63 38 64 57 65
REMARK SMILES IDX 39 66 42 67 56 68 75 69 40 70 41 71 55 73 76 74 43 75 27 76
REMARK SMILES IDX 28 77 36 78 29 79 35 80 37 81 34 82 30 83 31 84 32 85 33 86
REMARK SMILES IDX 59 87 60 88 68 89 61 90 67 91 69 92 66 93 62 94 63 95 64 96
REMARK SMILES IDX 65 97 44 98 45 99 53 100 46 101 52 102 54 103 51 104 47 105
REMARK SMILES IDX 48 106 49 107 50 108
REMARK H PARENT 10 7 94 38 15 42 74 61 42 72
REMARK Flexibility Score: inf
ROOT
ATOM      1  C   UNL     1      -2.437  -1.591  -0.581  1.00  0.00     0.023 C 
ENDROOT
BRANCH   1   2
ATOM      2  C   UNL     1      -2.586  -1.942   0.904  1.00  0.00     0.023 C 
BRANCH   2   3
ATOM      3  C   UNL     1      -1.568  -1.329   1.871  1.00  0.00     0.116 C 
BRANCH   3   4
ATOM      4  N   UNL     1      -1.724   0.090   2.120  1.00  0.00    -0.356 N 
ATOM      5  C   UNL     1      -1.077   0.928   2.987  1.00  0.00     0.226 C 
ATOM      6  O   UNL     1      -1.803   1.821   3.447  1.00  0.00    -0.274 OA
ATOM      7  H   UNL     1      -2.416   0.526   1.572  1.00  0.00     0.163 HD
BRANCH   5   8
ATOM      8  C   UNL     1       0.455   0.862   3.376  1.00  0.00     0.056 C 
ATOM      9  C   UNL     1       2.674   0.268   0.157  1.00  0.00     0.008 C 
ATOM     10  C   UNL     1       1.655  -0.062   1.263  1.00  0.00    -0.003 C 
ATOM     11  C   UNL     1       2.139  -1.296   2.085  1.00  0.00    -0.011 C 
ATOM     12  C   UNL     1       1.423   1.153   2.192  1.00  0.00     0.034 C 
ATOM     13  C   UNL     1       2.218  -2.582   1.248  1.00  0.00     0.008 C 
ATOM     14  C   UNL     1       1.308  -1.617   3.336  1.00  0.00     0.005 C 
ATOM     15  C   UNL     1       0.943   2.490   1.600  1.00  0.00    -0.063 C 
ATOM     16  C   UNL     1       0.789  -0.437   4.136  1.00  0.00     0.018 C 
ATOM     17  C   UNL     1       0.748   2.020   4.417  1.00  0.00     0.018 C 
ATOM     18  C   UNL     1       1.250   3.748   2.461  1.00  0.00    -0.006 C 
ATOM     19  C   UNL     1       0.070   2.517   0.571  1.00  0.00    -0.027 C 
ATOM     20  C   UNL     1       0.697   3.473   3.904  1.00  0.00     0.013 C 
ATOM     21  C   UNL     1       2.785   3.948   2.569  1.00  0.00     0.017 C 
ATOM     22  C   UNL     1       0.570   5.086   1.820  1.00  0.00    -0.020 C 
ATOM     23  C   UNL     1      -0.856   3.669   0.283  1.00  0.00     0.032 C 
ATOM     24  C   UNL     1      -0.906   4.670   1.465  1.00  0.00     0.006 C 
ATOM     25  C   UNL     1       0.612   6.298   2.788  1.00  0.00     0.008 C 
ATOM     26  C   UNL     1       1.351   5.547   0.549  1.00  0.00     0.012 C 
ATOM     27  C   UNL     1      -2.040   5.774   1.396  1.00  0.00    -0.025 C 
ATOM     28  C   UNL     1      -0.353   7.422   2.396  1.00  0.00     0.005 C 
ATOM     29  C   UNL     1      -2.177   6.298  -0.046  1.00  0.00     0.012 C 
ATOM     30  C   UNL     1      -3.389   5.095   1.810  1.00  0.00     0.010 C 
ATOM     31  C   UNL     1      -1.788   6.890   2.475  1.00  0.00     0.003 C 
ATOM     32  C   UNL     1      -4.559   6.062   1.977  1.00  0.00     0.033 C 
ATOM     33  C   UNL     1      -2.918   7.979   2.619  1.00  0.00    -0.006 C 
ATOM     34  C   UNL     1      -4.253   7.230   2.918  1.00  0.00     0.120 C 
ATOM     35  C   UNL     1      -3.050   8.935   1.415  1.00  0.00     0.014 C 
ATOM     36  C   UNL     1      -2.622   8.896   3.839  1.00  0.00     0.014 C 
BRANCH  34  37
ATOM     37  O   UNL     1      -5.362   8.130   2.923  1.00  0.00    -0.393 OA
ATOM     38  H   UNL     1      -5.481   8.502   2.034  1.00  0.00     0.210 HD
ENDBRANCH  34  37
ENDBRANCH   5   8
ENDBRANCH   3   4
ENDBRANCH   2   3
ENDBRANCH   1   2
BRANCH   1  39
ATOM     39  C   UNL     1      -1.095  -1.895  -1.248  1.00  0.00     0.116 C 
BRANCH  39  40
ATOM     40  N   UNL     1      -0.678  -3.289  -1.173  1.00  0.00    -0.352 N 
ATOM     41  C   UNL     1      -0.492  -4.233  -2.157  1.00  0.00     0.251 C 
ATOM     42  H   UNL     1      -0.499  -3.611  -0.260  1.00  0.00     0.163 HD
ATOM     43  O   UNL     1      -0.128  -5.365  -1.845  1.00  0.00    -0.269 OA
BRANCH  41  44
ATOM     44  C   UNL     1      -0.800  -3.923  -3.570  1.00  0.00     0.039 A 
ATOM     45  C   UNL     1      -1.666  -4.777  -4.258  1.00  0.00     0.014 A 
ATOM     46  C   UNL     1      -0.287  -2.790  -4.203  1.00  0.00     0.014 A 
ATOM     47  C   UNL     1      -2.128  -4.423  -5.528  1.00  0.00     0.010 A 
ATOM     48  C   UNL     1      -0.801  -2.402  -5.441  1.00  0.00     0.010 A 
ATOM     49  C   UNL     1      -1.759  -3.193  -6.096  1.00  0.00    -0.014 A 
BRANCH  49  50
ATOM     50  C   UNL     1      -2.436  -2.678  -7.318  1.00  0.00     0.031 A 
ATOM     51  C   UNL     1      -1.663  -2.436  -8.582  1.00  0.00     0.074 A 
ATOM     52  C   UNL     1      -3.741  -2.341  -7.250  1.00  0.00     0.049 A 
ATOM     53  N   UNL     1      -2.062  -1.892  -9.703  1.00  0.00    -0.248 NA
ATOM     54  C   UNL     1      -0.248  -2.833  -8.573  1.00  0.00     0.031 C 
ATOM     55  C   UNL     1      -4.590  -2.489  -6.064  1.00  0.00     0.029 A 
ATOM     56  N   UNL     1      -4.580  -1.791  -8.187  1.00  0.00    -0.354 N 
ATOM     57  C   UNL     1      -0.947  -1.869 -10.533  1.00  0.00     0.074 A 
ATOM     58  C   UNL     1       0.156  -2.408  -9.762  1.00  0.00     0.031 C 
ATOM     59  C   UNL     1      -5.829  -2.059  -6.352  1.00  0.00     0.029 A 
ATOM     60  C   UNL     1      -5.854  -1.556  -7.721  1.00  0.00     0.049 A 
ATOM     61  H   UNL     1      -4.298  -1.585  -9.107  1.00  0.00     0.167 HD
ATOM     62  C   UNL     1      -0.856  -1.454 -11.822  1.00  0.00     0.034 A 
ATOM     63  C   UNL     1      -6.918  -0.981  -8.316  1.00  0.00     0.034 A 
ATOM     64  C   UNL     1      -1.967  -0.926 -12.578  1.00  0.00     0.049 A 
ATOM     65  C   UNL     1      -6.782  -0.492  -9.735  1.00  0.00     0.074 A 
ATOM     66  C   UNL     1      -1.999  -0.541 -13.908  1.00  0.00     0.029 A 
ATOM     67  N   UNL     1      -3.239  -0.695 -12.069  1.00  0.00    -0.354 N 
ATOM     68  N   UNL     1      -5.733  -0.530 -10.523  1.00  0.00    -0.248 NA
ATOM     69  C   UNL     1      -7.972   0.117 -10.344  1.00  0.00     0.031 C 
ATOM     70  C   UNL     1      -3.267  -0.017 -14.184  1.00  0.00     0.029 A 
ATOM     71  C   UNL     1      -4.050  -0.137 -13.047  1.00  0.00     0.049 A 
ATOM     72  H   UNL     1      -3.523  -0.897 -11.149  1.00  0.00     0.167 HD
ATOM     73  C   UNL     1      -6.146   0.029 -11.729  1.00  0.00     0.074 A 
ATOM     74  C   UNL     1      -7.541   0.383 -11.568  1.00  0.00     0.031 C 
ATOM     75  C   UNL     1      -5.435   0.228 -12.868  1.00  0.00     0.034 A 
BRANCH  62  76
ATOM     76  C   UNL     1       0.499  -1.532 -12.481  1.00  0.00     0.023 A 
ATOM     77  C   UNL     1       1.148  -2.762 -12.689  1.00  0.00     0.031 A 
ATOM     78  C   UNL     1       1.165  -0.361 -12.886  1.00  0.00     0.131 A 
ATOM     79  C   UNL     1       2.451  -2.788 -13.208  1.00  0.00     0.055 A 
ATOM     80  C   UNL     1       2.430  -0.400 -13.477  1.00  0.00     0.041 A 
ATOM     81  F   UNL     1       0.604   0.844 -12.698  1.00  0.00    -0.206 F 
ATOM     82  C   UNL     1       3.087  -1.618 -13.627  1.00  0.00     0.022 A 
BRANCH  79  83
ATOM     83  S   UNL     1       3.355  -4.360 -13.193  1.00  0.00     0.124 S 
ATOM     84  O   UNL     1       3.349  -4.690 -11.770  1.00  0.00    -0.237 OA
ATOM     85  O   UNL     1       2.531  -5.206 -14.048  1.00  0.00    -0.237 OA
ATOM     86  O   UNL     1       4.664  -4.008 -13.738  1.00  0.00    -0.744 OA
ENDBRANCH  79  83
ENDBRANCH  62  76
BRANCH  63  87
ATOM     87  C   UNL     1      -8.199  -0.808  -7.573  1.00  0.00     0.023 A 
ATOM     88  C   UNL     1      -9.363  -1.483  -7.973  1.00  0.00     0.031 A 
ATOM     89  C   UNL     1      -8.287   0.066  -6.474  1.00  0.00     0.131 A 
ATOM     90  C   UNL     1     -10.575  -1.241  -7.308  1.00  0.00     0.055 A 
ATOM     91  C   UNL     1      -9.484   0.265  -5.785  1.00  0.00     0.041 A 
ATOM     92  F   UNL     1      -7.202   0.732  -6.047  1.00  0.00    -0.206 F 
ATOM     93  C   UNL     1     -10.641  -0.381  -6.209  1.00  0.00     0.022 A 
BRANCH  90  94
ATOM     94  S   UNL     1     -12.086  -2.010  -7.952  1.00  0.00     0.124 S 
ATOM     95  O   UNL     1     -12.122  -1.497  -9.317  1.00  0.00    -0.237 OA
ATOM     96  O   UNL     1     -11.788  -3.430  -7.807  1.00  0.00    -0.237 OA
ATOM     97  O   UNL     1     -13.131  -1.500  -7.065  1.00  0.00    -0.744 OA
ENDBRANCH  90  94
ENDBRANCH  63  87
BRANCH  75  98
ATOM     98  C   UNL     1      -6.173   0.829 -14.037  1.00  0.00     0.023 A 
ATOM     99  C   UNL     1      -6.604   2.167 -14.029  1.00  0.00     0.031 A 
ATOM    100  C   UNL     1      -6.447   0.051 -15.176  1.00  0.00     0.131 A 
ATOM    101  C   UNL     1      -7.323   2.675 -15.121  1.00  0.00     0.055 A 
ATOM    102  C   UNL     1      -7.117   0.577 -16.281  1.00  0.00     0.041 A 
ATOM    103  F   UNL     1      -6.060  -1.234 -15.234  1.00  0.00    -0.206 F 
ATOM    104  C   UNL     1      -7.568   1.894 -16.253  1.00  0.00     0.022 A 
BRANCH 101 105
ATOM    105  S   UNL     1      -7.992   4.358 -15.018  1.00  0.00     0.124 S 
ATOM    106  O   UNL     1      -8.906   4.252 -13.885  1.00  0.00    -0.237 OA
ATOM    107  O   UNL     1      -6.793   5.160 -14.797  1.00  0.00    -0.237 OA
ATOM    108  O   UNL     1      -8.635   4.552 -16.317  1.00  0.00    -0.744 OA
ENDBRANCH 101 105
ENDBRANCH  75  98
ENDBRANCH  49  50
ENDBRANCH  41  44
ENDBRANCH  39  40
ENDBRANCH   1  39
TORSDOF 15
