REMARK SMILES CCN1C(=O)N/C(=C/c2cc(Cl)c(OCc3cccc(C(=O)NCCCCNC(=O)c4ccc(-c5c6nc(c(-c7cc(S(=O)(=O)[O-])ccc7F)c7ccc([nH]7)c(-c7cc(S(=O)(=O)[O-])ccc7F)c7nc(c(-c8cc(S(=O)(=O)[O-])ccc8F)c8ccc5[nH]8)C=C7)C=C6)cc4)c3)c(OC)c2)C1=O
REMARK SMILES IDX 24 1 23 2 21 3 22 4 20 6 16 7 17 8 94 9 18 10 19 11 15 12
REMARK SMILES IDX 14 13 13 14 9 15 10 16 98 17 11 18 95 19 12 20 8 21 3 22
REMARK SMILES IDX 4 23 99 24 5 25 6 26 7 27 100 28 2 30 1 31 96 32 97 33 25 34
REMARK SMILES IDX 26 35 27 36 28 37 29 38 30 40 31 41 32 42 93 43 33 44 92 45
REMARK SMILES IDX 34 46 35 47 36 48 86 49 37 50 91 51 85 52 87 53 38 54 90 55
REMARK SMILES IDX 84 56 83 57 39 59 71 60 51 61 70 62 52 63 55 64 69 65 88 66
REMARK SMILES IDX 53 67 54 68 68 70 89 71 56 72 40 73 41 74 49 75 42 76 48 77
REMARK SMILES IDX 50 78 47 79 43 80 44 81 45 82 46 83 72 84 73 85 81 86 74 87
REMARK SMILES IDX 80 88 82 89 79 90 75 91 76 92 77 93 78 94 57 95 58 96 66 97
REMARK SMILES IDX 59 98 65 99 67 100 64 101 60 102 61 103 62 104 63 105
REMARK H PARENT 23 5 6 29 28 39 87 58 55 69
REMARK Flexibility Score: inf
ROOT
ATOM      1  C   UNL     1       7.470   5.077  -8.031  1.00  0.00     0.116 C 
ENDROOT
BRANCH   1   2
ATOM      2  N   UNL     1       6.947   5.915  -6.960  1.00  0.00    -0.352 N 
ATOM      3  C   UNL     1       6.304   5.601  -5.780  1.00  0.00     0.251 C 
ATOM      4  O   UNL     1       5.973   6.513  -5.024  1.00  0.00    -0.269 OA
ATOM      5  H   UNL     1       7.076   6.880  -7.104  1.00  0.00     0.163 HD
BRANCH   3   6
ATOM      6  C   UNL     1       5.916   4.205  -5.446  1.00  0.00     0.040 A 
ATOM      7  C   UNL     1       6.093   1.819  -5.920  1.00  0.00    -0.010 A 
ATOM      8  C   UNL     1       4.866   1.634  -5.277  1.00  0.00     0.007 A 
ATOM      9  C   UNL     1       6.662   3.100  -5.855  1.00  0.00     0.021 A 
ATOM     10  C   UNL     1       4.210   2.701  -4.652  1.00  0.00     0.001 A 
ATOM     11  C   UNL     1       4.712   3.994  -4.772  1.00  0.00     0.014 A 
BRANCH   7  12
ATOM     12  C   UNL     1       6.870   0.774  -6.712  1.00  0.00     0.265 C 
BRANCH  12  13
ATOM     13  O   UNL     1       6.199  -0.317  -7.348  1.00  0.00    -0.483 OA
BRANCH  13  14
ATOM     14  C   UNL     1       5.463  -1.208  -6.620  1.00  0.00     0.180 A 
ATOM     15  C   UNL     1       3.568  -2.727  -5.220  1.00  0.00    -0.018 A 
ATOM     16  C   UNL     1       4.777  -2.380  -4.617  1.00  0.00     0.033 A 
ATOM     17  C   UNL     1       3.351  -2.423  -6.564  1.00  0.00     0.058 A 
ATOM     18  C   UNL     1       5.736  -1.646  -5.317  1.00  0.00     0.087 A 
ATOM     19  C   UNL     1       4.301  -1.682  -7.275  1.00  0.00     0.162 A 
ATOM     20  Cl  UNL     1       7.217  -1.369  -4.473  1.00  0.00    -0.080 Cl
BRANCH  15  21
ATOM     21  C   UNL     1       2.533  -3.390  -4.430  1.00  0.00     0.040 C 
ATOM     22  N   UNL     1       0.786  -1.235  -2.147  1.00  0.00    -0.259 N 
ATOM     23  C   UNL     1       0.237  -2.473  -1.899  1.00  0.00     0.328 C 
ATOM     24  C   UNL     1       1.743  -1.305  -3.134  1.00  0.00     0.278 C 
ATOM     25  O   UNL     1      -0.629  -2.757  -1.088  1.00  0.00    -0.248 OA
ATOM     26  N   UNL     1       0.846  -3.385  -2.744  1.00  0.00    -0.303 N 
ATOM     27  C   UNL     1       1.777  -2.761  -3.523  1.00  0.00     0.109 C 
ATOM     28  O   UNL     1       2.406  -0.404  -3.605  1.00  0.00    -0.267 OA
ATOM     29  H   UNL     1       0.638  -4.346  -2.778  1.00  0.00     0.172 HD
BRANCH  22  30
ATOM     30  C   UNL     1       0.386  -0.018  -1.473  1.00  0.00     0.127 C 
ATOM     31  C   UNL     1       0.981   0.078  -0.076  1.00  0.00     0.028 C 
ENDBRANCH  22  30
ENDBRANCH  15  21
BRANCH  19  32
ATOM     32  O   UNL     1       4.142  -1.319  -8.593  1.00  0.00    -0.493 OA
ATOM     33  C   UNL     1       3.265  -2.119  -9.380  1.00  0.00     0.278 C 
ENDBRANCH  19  32
ENDBRANCH  13  14
ENDBRANCH  12  13
ENDBRANCH   7  12
ENDBRANCH   3   6
ENDBRANCH   1   2
BRANCH   1  34
ATOM     34  C   UNL     1       6.996   5.444  -9.428  1.00  0.00     0.023 C 
BRANCH  34  35
ATOM     35  C   UNL     1       7.428   6.808  -9.939  1.00  0.00     0.023 C 
BRANCH  35  36
ATOM     36  C   UNL     1       8.909   7.121  -9.787  1.00  0.00     0.116 C 
BRANCH  36  37
ATOM     37  N   UNL     1       9.780   6.147 -10.430  1.00  0.00    -0.352 N 
ATOM     38  C   UNL     1      10.836   6.364 -11.284  1.00  0.00     0.251 C 
ATOM     39  H   UNL     1       9.586   5.204 -10.226  1.00  0.00     0.163 HD
ATOM     40  O   UNL     1      11.386   5.412 -11.830  1.00  0.00    -0.269 OA
BRANCH  38  41
ATOM     41  C   UNL     1      11.272   7.749 -11.566  1.00  0.00     0.039 A 
ATOM     42  C   UNL     1      11.527   8.126 -12.886  1.00  0.00     0.014 A 
ATOM     43  C   UNL     1      11.394   8.681 -10.533  1.00  0.00     0.014 A 
ATOM     44  C   UNL     1      11.847   9.455 -13.173  1.00  0.00     0.010 A 
ATOM     45  C   UNL     1      11.605  10.022 -10.833  1.00  0.00     0.010 A 
ATOM     46  C   UNL     1      11.859  10.421 -12.153  1.00  0.00    -0.014 A 
BRANCH  46  47
ATOM     47  C   UNL     1      12.196  11.841 -12.436  1.00  0.00     0.031 A 
ATOM     48  C   UNL     1      13.408  12.459 -11.789  1.00  0.00     0.074 A 
ATOM     49  C   UNL     1      11.400  12.582 -13.233  1.00  0.00     0.049 A 
ATOM     50  N   UNL     1      13.848  13.689 -11.854  1.00  0.00    -0.248 NA
ATOM     51  C   UNL     1      14.213  11.582 -10.923  1.00  0.00     0.031 C 
ATOM     52  C   UNL     1      10.178  12.107 -13.886  1.00  0.00     0.029 A 
ATOM     53  N   UNL     1      11.498  13.892 -13.632  1.00  0.00    -0.354 N 
ATOM     54  C   UNL     1      14.968  13.734 -11.030  1.00  0.00     0.074 A 
ATOM     55  C   UNL     1      15.089  12.432 -10.414  1.00  0.00     0.031 C 
ATOM     56  C   UNL     1       9.663  13.099 -14.631  1.00  0.00     0.029 A 
ATOM     57  C   UNL     1      10.485  14.294 -14.472  1.00  0.00     0.049 A 
ATOM     58  H   UNL     1      12.226  14.489 -13.343  1.00  0.00     0.167 HD
ATOM     59  C   UNL     1      15.836  14.757 -10.831  1.00  0.00     0.034 A 
ATOM     60  C   UNL     1      10.244  15.492 -15.043  1.00  0.00     0.034 A 
ATOM     61  C   UNL     1      15.708  16.044 -11.466  1.00  0.00     0.049 A 
ATOM     62  C   UNL     1      11.207  16.626 -14.783  1.00  0.00     0.074 A 
ATOM     63  C   UNL     1      16.550  17.138 -11.373  1.00  0.00     0.029 A 
ATOM     64  N   UNL     1      14.666  16.416 -12.308  1.00  0.00    -0.354 N 
ATOM     65  N   UNL     1      12.289  16.639 -14.038  1.00  0.00    -0.248 NA
ATOM     66  C   UNL     1      10.924  17.901 -15.453  1.00  0.00     0.031 C 
ATOM     67  C   UNL     1      15.978  18.193 -12.092  1.00  0.00     0.029 A 
ATOM     68  C   UNL     1      14.830  17.731 -12.715  1.00  0.00     0.049 A 
ATOM     69  H   UNL     1      13.921  15.831 -12.575  1.00  0.00     0.167 HD
ATOM     70  C   UNL     1      12.838  17.910 -14.187  1.00  0.00     0.074 A 
ATOM     71  C   UNL     1      11.973  18.628 -15.101  1.00  0.00     0.031 C 
ATOM     72  C   UNL     1      13.958  18.435 -13.627  1.00  0.00     0.034 A 
BRANCH  59  73
ATOM     73  C   UNL     1      16.980  14.521  -9.870  1.00  0.00     0.023 A 
ATOM     74  C   UNL     1      17.943  13.521 -10.096  1.00  0.00     0.031 A 
ATOM     75  C   UNL     1      17.091  15.283  -8.694  1.00  0.00     0.131 A 
ATOM     76  C   UNL     1      18.919  13.253  -9.125  1.00  0.00     0.055 A 
ATOM     77  C   UNL     1      18.122  15.074  -7.776  1.00  0.00     0.041 A 
ATOM     78  F   UNL     1      16.190  16.236  -8.409  1.00  0.00    -0.206 F 
ATOM     79  C   UNL     1      19.033  14.043  -7.979  1.00  0.00     0.022 A 
BRANCH  76  80
ATOM     80  S   UNL     1      19.930  11.758  -9.303  1.00  0.00     0.124 S 
ATOM     81  O   UNL     1      18.909  10.713  -9.334  1.00  0.00    -0.237 OA
ATOM     82  O   UNL     1      20.634  12.000 -10.557  1.00  0.00    -0.237 OA
ATOM     83  O   UNL     1      20.767  11.765  -8.105  1.00  0.00    -0.744 OA
ENDBRANCH  76  80
ENDBRANCH  59  73
BRANCH  60  84
ATOM     84  C   UNL     1       9.047  15.694 -15.912  1.00  0.00     0.023 A 
ATOM     85  C   UNL     1       9.183  16.033 -17.268  1.00  0.00     0.031 A 
ATOM     86  C   UNL     1       7.746  15.604 -15.385  1.00  0.00     0.131 A 
ATOM     87  C   UNL     1       8.045  16.326 -18.036  1.00  0.00     0.055 A 
ATOM     88  C   UNL     1       6.614  15.835 -16.169  1.00  0.00     0.041 A 
ATOM     89  F   UNL     1       7.555  15.283 -14.096  1.00  0.00    -0.206 F 
ATOM     90  C   UNL     1       6.760  16.214 -17.500  1.00  0.00     0.022 A 
BRANCH  87  91
ATOM     91  S   UNL     1       8.272  16.959 -19.721  1.00  0.00     0.124 S 
ATOM     92  O   UNL     1       9.084  18.147 -19.483  1.00  0.00    -0.237 OA
ATOM     93  O   UNL     1       8.943  15.842 -20.377  1.00  0.00    -0.237 OA
ATOM     94  O   UNL     1       6.906  17.217 -20.174  1.00  0.00    -0.744 OA
ENDBRANCH  87  91
ENDBRANCH  60  84
BRANCH  72  95
ATOM     95  C   UNL     1      14.348  19.835 -14.042  1.00  0.00     0.023 A 
ATOM     96  C   UNL     1      13.549  20.952 -13.747  1.00  0.00     0.031 A 
ATOM     97  C   UNL     1      15.541  20.048 -14.757  1.00  0.00     0.131 A 
ATOM     98  C   UNL     1      13.917  22.220 -14.221  1.00  0.00     0.055 A 
ATOM     99  C   UNL     1      15.940  21.322 -15.162  1.00  0.00     0.041 A 
ATOM    100  F   UNL     1      16.343  19.018 -15.072  1.00  0.00    -0.206 F 
ATOM    101  C   UNL     1      15.118  22.415 -14.909  1.00  0.00     0.022 A 
BRANCH  98 102
ATOM    102  S   UNL     1      12.749  23.595 -14.031  1.00  0.00     0.124 S 
ATOM    103  O   UNL     1      11.560  23.077 -14.699  1.00  0.00    -0.237 OA
ATOM    104  O   UNL     1      12.658  23.728 -12.580  1.00  0.00    -0.237 OA
ATOM    105  O   UNL     1      13.411  24.705 -14.714  1.00  0.00    -0.744 OA
ENDBRANCH  98 102
ENDBRANCH  72  95
ENDBRANCH  46  47
ENDBRANCH  38  41
ENDBRANCH  36  37
ENDBRANCH  35  36
ENDBRANCH  34  35
ENDBRANCH   1  34
TORSDOF 20
