REMARK SMILES Cc1ccc2occ(/C=N/NC(=O)CCC(=O)Nc3ccc(C(=O)NCCCCNC(=O)c4ccc(-c5c6nc(c(-c7cc(S(=O)(=O)[O-])ccc7F)c7ccc([nH]7)c(-c7cc(S(=O)(=O)[O-])ccc7F)c7nc(c(-c8cc(S(=O)(=O)[O-])ccc8F)c8ccc5[nH]8)C=C7)C=C6)cc4)cc3)c(=O)c2c1
REMARK SMILES IDX 26 1 25 2 23 3 24 4 22 6 19 7 20 8 97 9 21 10 96 11 18 12
REMARK SMILES IDX 16 13 17 14 15 16 14 17 12 18 11 19 13 21 10 22 9 23 8 24
REMARK SMILES IDX 1 25 2 26 3 27 101 28 4 29 100 30 5 31 98 32 6 33 99 34 7 35
REMARK SMILES IDX 27 36 28 37 29 38 30 39 31 40 32 42 33 43 34 44 95 45 35 46
REMARK SMILES IDX 94 47 36 48 37 49 38 50 88 51 39 52 93 53 87 54 89 55 40 56
REMARK SMILES IDX 92 57 86 58 85 59 41 61 73 62 53 63 72 64 54 65 57 66 71 67
REMARK SMILES IDX 90 68 55 69 56 70 70 72 91 73 58 74 42 75 43 76 51 77 44 78
REMARK SMILES IDX 50 79 52 80 49 81 45 82 46 83 47 84 48 85 74 86 75 87 83 88
REMARK SMILES IDX 76 89 82 90 84 91 81 92 77 93 78 94 79 95 80 96 59 97 60 98
REMARK SMILES IDX 68 99 61 100 67 101 69 102 66 103 62 104 63 105 64 106
REMARK SMILES IDX 65 107
REMARK H PARENT 25 5 18 15 11 20 30 41 89 60 57 71
REMARK Flexibility Score: inf
ROOT
ATOM      1  C   UNL     1      10.833   3.811   0.074  1.00  0.00     0.116 C 
ENDROOT
BRANCH   1   2
ATOM      2  N   UNL     1      11.463   2.577  -0.398  1.00  0.00    -0.352 N 
ATOM      3  C   UNL     1      10.978   1.450  -1.031  1.00  0.00     0.251 C 
ATOM      4  O   UNL     1      11.776   0.582  -1.382  1.00  0.00    -0.269 OA
ATOM      5  H   UNL     1      12.432   2.544  -0.229  1.00  0.00     0.163 HD
BRANCH   3   6
ATOM      6  C   UNL     1       9.536   1.254  -1.342  1.00  0.00     0.039 A 
ATOM      7  C   UNL     1       6.790   1.032  -2.040  1.00  0.00     0.041 A 
ATOM      8  C   UNL     1       7.737   0.188  -2.625  1.00  0.00     0.027 A 
ATOM      9  C   UNL     1       7.256   1.954  -1.134  1.00  0.00     0.027 A 
ATOM     10  C   UNL     1       9.109   0.328  -2.308  1.00  0.00     0.016 A 
ATOM     11  C   UNL     1       8.563   1.979  -0.697  1.00  0.00     0.016 A 
BRANCH   7  12
ATOM     12  N   UNL     1       5.413   0.859  -2.275  1.00  0.00    -0.326 N 
ATOM     13  C   UNL     1       4.313   1.558  -1.838  1.00  0.00     0.224 C 
ATOM     14  O   UNL     1       3.206   1.017  -1.952  1.00  0.00    -0.275 OA
ATOM     15  H   UNL     1       5.199   0.097  -2.861  1.00  0.00     0.169 HD
BRANCH  13  16
ATOM     16  C   UNL     1       4.393   3.006  -1.359  1.00  0.00     0.110 C 
BRANCH  16  17
ATOM     17  C   UNL     1       4.234   3.314   0.138  1.00  0.00     0.112 C 
BRANCH  17  18
ATOM     18  C   UNL     1       5.306   2.834   1.124  1.00  0.00     0.240 C 
ATOM     19  N   UNL     1       5.384   1.502   1.474  1.00  0.00    -0.247 N 
ATOM     20  H   UNL     1       6.116   1.236   2.076  1.00  0.00     0.193 HD
ATOM     21  O   UNL     1       6.160   3.615   1.555  1.00  0.00    -0.273 OA
BRANCH  19  22
ATOM     22  N   UNL     1       4.534   0.527   1.056  1.00  0.00    -0.180 NA
ATOM     23  C   UNL     1       3.313   0.746   1.417  1.00  0.00     0.148 C 
BRANCH  23  24
ATOM     24  C   UNL     1       2.135   0.071   0.872  1.00  0.00     0.078 A 
ATOM     25  C   UNL     1      -3.968   0.804  -0.123  1.00  0.00     0.044 C 
ATOM     26  C   UNL     1      -2.659   0.077  -0.075  1.00  0.00    -0.050 A 
ATOM     27  C   UNL     1      -2.573  -1.311  -0.262  1.00  0.00     0.007 A 
ATOM     28  C   UNL     1      -1.491   0.802   0.160  1.00  0.00     0.019 A 
ATOM     29  C   UNL     1      -1.337  -1.968  -0.203  1.00  0.00     0.048 A 
ATOM     30  C   UNL     1      -0.271   0.133   0.253  1.00  0.00     0.066 A 
ATOM     31  C   UNL     1      -0.180  -1.243   0.063  1.00  0.00     0.137 A 
ATOM     32  C   UNL     1       0.924   0.875   0.643  1.00  0.00     0.201 A 
ATOM     33  O   UNL     1       1.007  -1.933   0.152  1.00  0.00    -0.463 OA
ATOM     34  O   UNL     1       0.902   2.087   0.820  1.00  0.00    -0.288 OA
ATOM     35  C   UNL     1       2.111  -1.236   0.597  1.00  0.00     0.209 A 
ENDBRANCH  23  24
ENDBRANCH  19  22
ENDBRANCH  17  18
ENDBRANCH  16  17
ENDBRANCH  13  16
ENDBRANCH   7  12
ENDBRANCH   3   6
ENDBRANCH   1   2
BRANCH   1  36
ATOM     36  C   UNL     1      10.460   3.726   1.566  1.00  0.00     0.023 C 
BRANCH  36  37
ATOM     37  C   UNL     1      11.587   4.168   2.498  1.00  0.00     0.023 C 
BRANCH  37  38
ATOM     38  C   UNL     1      11.847   5.669   2.471  1.00  0.00     0.116 C 
BRANCH  38  39
ATOM     39  N   UNL     1      10.796   6.453   3.100  1.00  0.00    -0.352 N 
ATOM     40  C   UNL     1      10.925   7.677   3.726  1.00  0.00     0.251 C 
ATOM     41  H   UNL     1       9.890   6.067   3.077  1.00  0.00     0.163 HD
ATOM     42  O   UNL     1       9.982   8.182   4.312  1.00  0.00    -0.269 OA
BRANCH  40  43
ATOM     43  C   UNL     1      12.254   8.335   3.718  1.00  0.00     0.039 A 
ATOM     44  C   UNL     1      12.819   8.732   4.932  1.00  0.00     0.014 A 
ATOM     45  C   UNL     1      12.968   8.482   2.526  1.00  0.00     0.014 A 
ATOM     46  C   UNL     1      14.135   9.200   4.959  1.00  0.00     0.010 A 
ATOM     47  C   UNL     1      14.302   8.878   2.565  1.00  0.00     0.010 A 
ATOM     48  C   UNL     1      14.904   9.232   3.783  1.00  0.00    -0.014 A 
BRANCH  48  49
ATOM     49  C   UNL     1      16.340   9.618   3.804  1.00  0.00     0.031 A 
ATOM     50  C   UNL     1      16.803  10.838   3.057  1.00  0.00     0.074 A 
ATOM     51  C   UNL     1      17.236   8.828   4.430  1.00  0.00     0.049 A 
ATOM     52  N   UNL     1      18.018  11.289   2.878  1.00  0.00    -0.248 NA
ATOM     53  C   UNL     1      15.761  11.639   2.397  1.00  0.00     0.031 C 
ATOM     54  C   UNL     1      16.917   7.593   5.151  1.00  0.00     0.029 A 
ATOM     55  N   UNL     1      18.599   8.937   4.552  1.00  0.00    -0.354 N 
ATOM     56  C   UNL     1      17.890  12.416   2.073  1.00  0.00     0.074 A 
ATOM     57  C   UNL     1      16.484  12.540   1.750  1.00  0.00     0.031 C 
ATOM     58  C   UNL     1      18.047   7.073   5.656  1.00  0.00     0.029 A 
ATOM     59  C   UNL     1      19.177   7.907   5.260  1.00  0.00     0.049 A 
ATOM     60  H   UNL     1      19.116   9.682   4.168  1.00  0.00     0.167 HD
ATOM     61  C   UNL     1      18.852  13.280   1.662  1.00  0.00     0.034 A 
ATOM     62  C   UNL     1      20.470   7.656   5.546  1.00  0.00     0.034 A 
ATOM     63  C   UNL     1      20.247  13.149   2.005  1.00  0.00     0.049 A 
ATOM     64  C   UNL     1      21.525   8.620   5.063  1.00  0.00     0.074 A 
ATOM     65  C   UNL     1      21.295  13.998   1.692  1.00  0.00     0.029 A 
ATOM     66  N   UNL     1      20.793  12.099   2.733  1.00  0.00    -0.354 N 
ATOM     67  N   UNL     1      21.381   9.711   4.346  1.00  0.00    -0.248 NA
ATOM     68  C   UNL     1      22.915   8.324   5.436  1.00  0.00     0.031 C 
ATOM     69  C   UNL     1      22.480  13.430   2.172  1.00  0.00     0.029 A 
ATOM     70  C   UNL     1      22.165  12.264   2.852  1.00  0.00     0.049 A 
ATOM     71  H   UNL     1      20.281  11.347   3.109  1.00  0.00     0.167 HD
ATOM     72  C   UNL     1      22.658  10.249   4.214  1.00  0.00     0.074 A 
ATOM     73  C   UNL     1      23.557   9.368   4.931  1.00  0.00     0.031 C 
ATOM     74  C   UNL     1      23.051  11.375   3.566  1.00  0.00     0.034 A 
BRANCH  61  75
ATOM     75  C   UNL     1      18.422  14.425   0.777  1.00  0.00     0.023 A 
ATOM     76  C   UNL     1      17.520  15.406   1.225  1.00  0.00     0.031 A 
ATOM     77  C   UNL     1      18.896  14.524  -0.543  1.00  0.00     0.131 A 
ATOM     78  C   UNL     1      17.058  16.391   0.340  1.00  0.00     0.055 A 
ATOM     79  C   UNL     1      18.498  15.558  -1.394  1.00  0.00     0.041 A 
ATOM     80  F   UNL     1      19.744  13.607  -1.036  1.00  0.00    -0.206 F 
ATOM     81  C   UNL     1      17.560  16.490  -0.959  1.00  0.00     0.022 A 
BRANCH  78  82
ATOM     82  S   UNL     1      15.680  17.447   0.865  1.00  0.00     0.124 S 
ATOM     83  O   UNL     1      14.640  16.459   1.142  1.00  0.00    -0.237 OA
ATOM     84  O   UNL     1      16.233  18.135   2.025  1.00  0.00    -0.237 OA
ATOM     85  O   UNL     1      15.431  18.291  -0.302  1.00  0.00    -0.744 OA
ENDBRANCH  78  82
ENDBRANCH  61  75
BRANCH  62  86
ATOM     86  C   UNL     1      20.850   6.440   6.321  1.00  0.00     0.023 A 
ATOM     87  C   UNL     1      21.428   6.546   7.596  1.00  0.00     0.031 A 
ATOM     88  C   UNL     1      20.677   5.153   5.781  1.00  0.00     0.131 A 
ATOM     89  C   UNL     1      21.855   5.391   8.270  1.00  0.00     0.055 A 
ATOM     90  C   UNL     1      21.055   4.004   6.477  1.00  0.00     0.041 A 
ATOM     91  F   UNL     1      20.123   4.995   4.568  1.00  0.00    -0.206 F 
ATOM     92  C   UNL     1      21.661   4.120   7.724  1.00  0.00     0.022 A 
BRANCH  89  93
ATOM     93  S   UNL     1      22.746   5.580   9.838  1.00  0.00     0.124 S 
ATOM     94  O   UNL     1      23.879   6.407   9.439  1.00  0.00    -0.237 OA
ATOM     95  O   UNL     1      21.743   6.226  10.679  1.00  0.00    -0.237 OA
ATOM     96  O   UNL     1      23.075   4.205  10.210  1.00  0.00    -0.744 OA
ENDBRANCH  89  93
ENDBRANCH  62  86
BRANCH  74  97
ATOM     97  C   UNL     1      24.511  11.745   3.652  1.00  0.00     0.023 A 
ATOM     98  C   UNL     1      25.511  10.978   3.028  1.00  0.00     0.031 A 
ATOM     99  C   UNL     1      24.904  12.888   4.371  1.00  0.00     0.131 A 
ATOM    100  C   UNL     1      26.859  11.338   3.174  1.00  0.00     0.055 A 
ATOM    101  C   UNL     1      26.242  13.273   4.466  1.00  0.00     0.041 A 
ATOM    102  F   UNL     1      23.991  13.655   4.987  1.00  0.00    -0.206 F 
ATOM    103  C   UNL     1      27.230  12.490   3.874  1.00  0.00     0.022 A 
BRANCH 100 104
ATOM    104  S   UNL     1      28.135  10.240   2.499  1.00  0.00     0.124 S 
ATOM    105  O   UNL     1      27.875   8.996   3.217  1.00  0.00    -0.237 OA
ATOM    106  O   UNL     1      27.818  10.231   1.074  1.00  0.00    -0.237 OA
ATOM    107  O   UNL     1      29.386  10.909   2.850  1.00  0.00    -0.744 OA
ENDBRANCH 100 104
ENDBRANCH  74  97
ENDBRANCH  48  49
ENDBRANCH  40  43
ENDBRANCH  38  39
ENDBRANCH  37  38
ENDBRANCH  36  37
ENDBRANCH   1  36
TORSDOF 20
