REMARK SMILES CCn1ncc(CNc2ccccc2C(=O)NCCCCNC(=O)c2ccc(-c3c4nc(c(-c5cc(S(=O)(=O)[O-])ccc5F)c5ccc([nH]5)c(-c5cc(S(=O)(=O)[O-])ccc5F)c5nc(c(-c6cc(S(=O)(=O)[O-])ccc6F)c6ccc3[nH]6)C=C5)C=C4)cc2)c1C
REMARK SMILES IDX 19 1 18 2 17 3 15 4 16 5 14 7 9 8 10 9 11 10 13 11 12 12
REMARK SMILES IDX 8 13 7 15 6 16 3 17 4 18 88 19 5 20 89 21 2 22 1 23 20 24
REMARK SMILES IDX 21 25 22 26 23 27 24 29 25 30 26 31 87 32 27 33 86 34 28 35
REMARK SMILES IDX 29 36 30 37 80 38 31 39 85 40 79 41 81 42 32 43 84 44 78 45
REMARK SMILES IDX 77 46 33 48 65 49 45 50 64 51 46 52 49 53 63 54 82 55 47 56
REMARK SMILES IDX 48 57 62 59 83 60 50 61 34 62 35 63 43 64 36 65 42 66 44 67
REMARK SMILES IDX 41 68 37 69 38 70 39 71 40 72 66 73 67 74 75 75 68 76 74 77
REMARK SMILES IDX 76 78 73 79 69 80 70 81 71 82 72 83 51 84 52 85 60 86 53 87
REMARK SMILES IDX 59 88 61 89 58 90 54 91 55 92 56 93 57 94
REMARK H PARENT 17 6 8 14 22 28 81 47 49 58
REMARK Flexibility Score: inf
ROOT
ATOM      1  C   UNL     1       1.332  -2.377   8.389  1.00  0.00     0.023 C 
ENDROOT
BRANCH   1   2
ATOM      2  C   UNL     1       1.440  -3.355   7.213  1.00  0.00     0.116 C 
BRANCH   2   3
ATOM      3  N   UNL     1       2.640  -4.175   7.163  1.00  0.00    -0.352 N 
ATOM      4  C   UNL     1       2.860  -5.373   6.504  1.00  0.00     0.253 C 
ATOM      5  O   UNL     1       3.982  -5.876   6.588  1.00  0.00    -0.269 OA
ATOM      6  H   UNL     1       3.408  -3.828   7.672  1.00  0.00     0.163 HD
BRANCH   4   7
ATOM      7  C   UNL     1       1.790  -6.128   5.776  1.00  0.00     0.062 A 
ATOM      8  C   UNL     1       0.797  -5.559   4.962  1.00  0.00     0.047 A 
ATOM      9  C   UNL     1      -0.222  -6.390   4.454  1.00  0.00     0.026 A 
ATOM     10  C   UNL     1      -0.224  -7.764   4.669  1.00  0.00     0.002 A 
ATOM     11  C   UNL     1       1.808  -7.529   5.941  1.00  0.00     0.016 A 
ATOM     12  C   UNL     1       0.812  -8.341   5.387  1.00  0.00     0.001 A 
BRANCH   8  13
ATOM     13  N   UNL     1       0.789  -4.253   4.505  1.00  0.00    -0.380 N 
ATOM     14  H   UNL     1       0.002  -3.683   4.667  1.00  0.00     0.160 HD
BRANCH  13  15
ATOM     15  C   UNL     1       1.936  -3.714   3.784  1.00  0.00     0.152 C 
BRANCH  15  16
ATOM     16  C   UNL     1       1.480  -2.623   2.884  1.00  0.00     0.012 A 
ATOM     17  N   UNL     1       0.692  -1.461   1.201  1.00  0.00    -0.270 N 
ATOM     18  N   UNL     1       0.722  -0.584   2.222  1.00  0.00    -0.181 NA
ATOM     19  C   UNL     1       0.948  -2.746   1.612  1.00  0.00     0.040 A 
ATOM     20  C   UNL     1       1.234  -1.284   3.226  1.00  0.00     0.141 A 
ATOM     21  C   UNL     1       0.625  -3.982   0.859  1.00  0.00     0.067 C 
BRANCH  17  22
ATOM     22  C   UNL     1       0.291  -0.991  -0.111  1.00  0.00     0.141 C 
ATOM     23  C   UNL     1       0.964   0.312  -0.512  1.00  0.00     0.029 C 
ENDBRANCH  17  22
ENDBRANCH  15  16
ENDBRANCH  13  15
ENDBRANCH   8  13
ENDBRANCH   4   7
ENDBRANCH   2   3
ENDBRANCH   1   2
BRANCH   1  24
ATOM     24  C   UNL     1       2.434  -1.319   8.554  1.00  0.00     0.023 C 
BRANCH  24  25
ATOM     25  C   UNL     1       2.786  -0.531   7.303  1.00  0.00     0.116 C 
BRANCH  25  26
ATOM     26  N   UNL     1       1.819   0.477   6.887  1.00  0.00    -0.352 N 
ATOM     27  C   UNL     1       2.008   1.542   6.007  1.00  0.00     0.251 C 
ATOM     28  H   UNL     1       0.918   0.395   7.277  1.00  0.00     0.163 HD
ATOM     29  O   UNL     1       1.197   2.453   5.988  1.00  0.00    -0.269 OA
BRANCH  27  30
ATOM     30  C   UNL     1       3.189   1.560   5.096  1.00  0.00     0.039 A 
ATOM     31  C   UNL     1       3.725   2.758   4.605  1.00  0.00     0.014 A 
ATOM     32  C   UNL     1       3.745   0.356   4.679  1.00  0.00     0.014 A 
ATOM     33  C   UNL     1       4.833   2.717   3.747  1.00  0.00     0.010 A 
ATOM     34  C   UNL     1       4.869   0.305   3.906  1.00  0.00     0.010 A 
ATOM     35  C   UNL     1       5.390   1.480   3.400  1.00  0.00    -0.014 A 
BRANCH  35  36
ATOM     36  C   UNL     1       6.638   1.331   2.668  1.00  0.00     0.031 A 
ATOM     37  C   UNL     1       7.828   1.771   3.441  1.00  0.00     0.074 A 
ATOM     38  C   UNL     1       6.751   0.507   1.602  1.00  0.00     0.049 A 
ATOM     39  N   UNL     1       8.591   2.785   3.211  1.00  0.00    -0.248 NA
ATOM     40  C   UNL     1       8.107   1.107   4.729  1.00  0.00     0.031 C 
ATOM     41  C   UNL     1       5.711  -0.326   0.985  1.00  0.00     0.029 A 
ATOM     42  N   UNL     1       7.871   0.127   0.933  1.00  0.00    -0.354 N 
ATOM     43  C   UNL     1       9.595   2.730   4.172  1.00  0.00     0.074 A 
ATOM     44  C   UNL     1       9.100   1.861   5.203  1.00  0.00     0.031 C 
ATOM     45  C   UNL     1       6.288  -1.256   0.189  1.00  0.00     0.029 A 
ATOM     46  C   UNL     1       7.715  -0.989   0.114  1.00  0.00     0.049 A 
ATOM     47  H   UNL     1       8.728   0.603   1.021  1.00  0.00     0.167 HD
ATOM     48  C   UNL     1      10.852   3.181   3.905  1.00  0.00     0.034 A 
ATOM     49  C   UNL     1       8.694  -1.663  -0.549  1.00  0.00     0.034 A 
ATOM     50  C   UNL     1      10.863   3.963   2.685  1.00  0.00     0.049 A 
ATOM     51  C   UNL     1       9.847  -0.730  -0.654  1.00  0.00     0.074 A 
ATOM     52  C   UNL     1      10.186   5.090   2.255  1.00  0.00     0.029 A 
ATOM     53  N   UNL     1      11.329   3.358   1.536  1.00  0.00    -0.354 N 
ATOM     54  N   UNL     1       9.796   0.394  -1.318  1.00  0.00    -0.248 NA
ATOM     55  C   UNL     1      10.868  -0.784   0.383  1.00  0.00     0.031 C 
ATOM     56  C   UNL     1       9.836   4.808   0.900  1.00  0.00     0.029 A 
ATOM     57  C   UNL     1      10.399   3.578   0.548  1.00  0.00     0.049 A 
ATOM     58  H   UNL     1      12.173   2.860   1.441  1.00  0.00     0.167 HD
ATOM     59  C   UNL     1      10.444   1.319  -0.511  1.00  0.00     0.074 A 
ATOM     60  C   UNL     1      11.175   0.515   0.468  1.00  0.00     0.031 C 
ATOM     61  C   UNL     1      10.099   2.642  -0.523  1.00  0.00     0.034 A 
BRANCH  48  62
ATOM     62  C   UNL     1      12.129   2.630   4.508  1.00  0.00     0.023 A 
ATOM     63  C   UNL     1      13.335   3.232   4.101  1.00  0.00     0.031 A 
ATOM     64  C   UNL     1      12.266   1.416   5.219  1.00  0.00     0.131 A 
ATOM     65  C   UNL     1      14.570   2.592   4.296  1.00  0.00     0.055 A 
ATOM     66  C   UNL     1      13.504   0.818   5.476  1.00  0.00     0.041 A 
ATOM     67  F   UNL     1      11.224   0.686   5.629  1.00  0.00    -0.206 F 
ATOM     68  C   UNL     1      14.664   1.386   4.983  1.00  0.00     0.022 A 
BRANCH  65  69
ATOM     69  S   UNL     1      16.027   3.273   3.467  1.00  0.00     0.124 S 
ATOM     70  O   UNL     1      15.566   3.356   2.085  1.00  0.00    -0.237 OA
ATOM     71  O   UNL     1      16.204   4.542   4.166  1.00  0.00    -0.237 OA
ATOM     72  O   UNL     1      17.060   2.271   3.721  1.00  0.00    -0.744 OA
ENDBRANCH  65  69
ENDBRANCH  48  62
BRANCH  49  73
ATOM     73  C   UNL     1       8.785  -3.134  -0.789  1.00  0.00     0.023 A 
ATOM     74  C   UNL     1       9.565  -3.715  -1.813  1.00  0.00     0.031 A 
ATOM     75  C   UNL     1       8.252  -4.020   0.175  1.00  0.00     0.131 A 
ATOM     76  C   UNL     1       9.776  -5.118  -1.843  1.00  0.00     0.055 A 
ATOM     77  C   UNL     1       8.463  -5.401   0.141  1.00  0.00     0.041 A 
ATOM     78  F   UNL     1       7.571  -3.559   1.237  1.00  0.00    -0.206 F 
ATOM     79  C   UNL     1       9.233  -5.956  -0.867  1.00  0.00     0.022 A 
BRANCH  76  80
ATOM     80  S   UNL     1      10.829  -5.879  -3.128  1.00  0.00     0.124 S 
ATOM     81  O   UNL     1      10.090  -5.587  -4.351  1.00  0.00    -0.237 OA
ATOM     82  O   UNL     1      12.094  -5.177  -2.950  1.00  0.00    -0.237 OA
ATOM     83  O   UNL     1      10.858  -7.294  -2.754  1.00  0.00    -0.744 OA
ENDBRANCH  76  80
ENDBRANCH  49  73
BRANCH  61  84
ATOM     84  C   UNL     1       9.162   3.137  -1.614  1.00  0.00     0.023 A 
ATOM     85  C   UNL     1       7.839   2.677  -1.819  1.00  0.00     0.031 A 
ATOM     86  C   UNL     1       9.594   4.233  -2.380  1.00  0.00     0.131 A 
ATOM     87  C   UNL     1       7.008   3.313  -2.766  1.00  0.00     0.055 A 
ATOM     88  C   UNL     1       8.762   4.873  -3.298  1.00  0.00     0.041 A 
ATOM     89  F   UNL     1      10.829   4.735  -2.213  1.00  0.00    -0.206 F 
ATOM     90  C   UNL     1       7.466   4.414  -3.496  1.00  0.00     0.022 A 
BRANCH  87  91
ATOM     91  S   UNL     1       5.307   2.721  -3.067  1.00  0.00     0.124 S 
ATOM     92  O   UNL     1       5.481   1.295  -3.320  1.00  0.00    -0.237 OA
ATOM     93  O   UNL     1       4.620   3.072  -1.827  1.00  0.00    -0.237 OA
ATOM     94  O   UNL     1       4.878   3.494  -4.234  1.00  0.00    -0.744 OA
ENDBRANCH  87  91
ENDBRANCH  61  84
ENDBRANCH  35  36
ENDBRANCH  27  30
ENDBRANCH  25  26
ENDBRANCH  24  25
ENDBRANCH   1  24
TORSDOF 18
