REMARK SMILES O=C(NCCCCNC(=O)c1ccc(-c2c3nc(c(-c4cc(S(=O)(=O)[O-])ccc4F)c4ccc([nH]4)c(-c4cc(S(=O)(=O)[O-])ccc4F)c4nc(c(-c5cc(S(=O)(=O)[O-])ccc5F)c5ccc2[nH]5)C=C4)C=C3)cc1)C1=Cc2cc(S(F)(F)(F)(F)F)ccc2O[C@@H]1C(F)(F)F
REMARK SMILES IDX 6 1 5 2 4 3 3 4 1 5 2 6 74 8 75 9 89 10 76 11 88 12 77 13
REMARK SMILES IDX 87 14 78 15 86 16 85 17 90 18 91 19 92 20 93 21 79 22 80 23
REMARK SMILES IDX 81 24 82 25 83 26 84 27 7 28 8 29 9 30 10 32 11 33 12 34
REMARK SMILES IDX 73 35 13 36 72 37 14 38 15 39 16 40 66 41 17 42 71 43 65 44
REMARK SMILES IDX 67 45 18 46 70 47 64 48 63 49 19 51 51 52 31 53 50 54 32 55
REMARK SMILES IDX 35 56 49 57 68 58 33 59 34 60 48 62 69 63 36 64 20 65 21 66
REMARK SMILES IDX 29 67 22 68 28 69 30 70 27 71 23 72 24 73 25 74 26 75 52 76
REMARK SMILES IDX 53 77 61 78 54 79 60 80 62 81 59 82 55 83 56 84 57 85 58 86
REMARK SMILES IDX 37 87 38 88 46 89 39 90 45 91 47 92 44 93 40 94 41 95 42 96
REMARK SMILES IDX 43 97
REMARK H PARENT 3 7 8 31 67 50 35 61
REMARK Flexibility Score: inf
ROOT
ATOM      1  C   UNL     1       4.550   2.970   2.158  1.00  0.00     0.023 C 
ENDROOT
BRANCH   1   2
ATOM      2  C   UNL     1       5.057   2.187   0.958  1.00  0.00     0.023 C 
BRANCH   2   3
ATOM      3  C   UNL     1       4.550   0.756   1.036  1.00  0.00     0.116 C 
BRANCH   3   4
ATOM      4  N   UNL     1       3.080   0.756   1.036  1.00  0.00    -0.352 N 
ATOM      5  O   UNL     1       1.074   0.060  -0.030  1.00  0.00    -0.270 OA
ATOM      6  C   UNL     1       2.345   0.060  -0.030  1.00  0.00     0.251 C 
ATOM      7  H   UNL     1       2.588   1.222   1.750  1.00  0.00     0.163 HD
BRANCH   6   8
ATOM      8  C   UNL     1       3.105  -0.660  -1.132  1.00  0.00     0.067 C 
ATOM      9  C   UNL     1       4.466  -0.660  -1.132  1.00  0.00     0.025 C 
ATOM     10  C   UNL     1       2.345  -1.379  -2.234  1.00  0.00     0.314 C 
ATOM     11  C   UNL     1       5.226   0.060  -0.030  1.00  0.00     0.019 A 
ATOM     12  O   UNL     1       3.541  -0.720   1.454  1.00  0.00    -0.475 OA
ATOM     13  C   UNL     1       6.380   0.776  -0.303  1.00  0.00     0.036 A 
ATOM     14  C   UNL     1       4.807  -0.123   1.217  1.00  0.00     0.128 A 
ATOM     15  C   UNL     1       7.187   1.017   0.834  1.00  0.00     0.107 A 
ATOM     16  C   UNL     1       5.589   0.261   2.280  1.00  0.00     0.048 A 
ATOM     17  C   UNL     1       6.770   0.921   2.083  1.00  0.00     0.028 A 
BRANCH  10  18
ATOM     18  C   UNL     1       2.712  -2.854  -2.223  1.00  0.00     0.429 C 
ATOM     19  F   UNL     1       2.391  -3.382  -1.046  1.00  0.00    -0.167 F 
ATOM     20  F   UNL     1       2.047  -3.484  -3.188  1.00  0.00    -0.167 F 
ATOM     21  F   UNL     1       4.020  -2.987  -2.427  1.00  0.00    -0.167 F 
ENDBRANCH  10  18
BRANCH  15  22
ATOM     22  S   UNL     1       8.912   1.491   0.556  1.00  0.00     0.310 S 
ATOM     23  F   UNL     1       9.226   1.503   2.111  1.00  0.00    -0.094 F 
ATOM     24  F   UNL     1       8.487   3.001   0.700  1.00  0.00    -0.094 F 
ATOM     25  F   UNL     1      10.392   1.902   0.316  1.00  0.00    -0.094 F 
ATOM     26  F   UNL     1       9.341  -0.029   0.554  1.00  0.00    -0.094 F 
ATOM     27  F   UNL     1       7.434   1.058   0.911  1.00  0.00    -0.094 F 
ENDBRANCH  15  22
ENDBRANCH   6   8
ENDBRANCH   3   4
ENDBRANCH   2   3
ENDBRANCH   1   2
BRANCH   1  28
ATOM     28  C   UNL     1       5.057   2.322   3.436  1.00  0.00     0.116 C 
BRANCH  28  29
ATOM     29  N   UNL     1       6.527   2.322   3.436  1.00  0.00    -0.352 N 
ATOM     30  C   UNL     1       7.262   3.018   4.502  1.00  0.00     0.251 C 
ATOM     31  H   UNL     1       7.019   1.857   2.722  1.00  0.00     0.163 HD
ATOM     32  O   UNL     1       8.533   3.018   4.502  1.00  0.00    -0.269 OA
BRANCH  30  33
ATOM     33  C   UNL     1       6.502   3.738   5.605  1.00  0.00     0.039 A 
ATOM     34  C   UNL     1       7.007   4.950   6.045  1.00  0.00     0.014 A 
ATOM     35  C   UNL     1       5.463   3.166   6.203  1.00  0.00     0.014 A 
ATOM     36  C   UNL     1       6.524   5.345   7.315  1.00  0.00     0.010 A 
ATOM     37  C   UNL     1       4.956   3.684   7.370  1.00  0.00     0.010 A 
ATOM     38  C   UNL     1       5.447   4.848   7.894  1.00  0.00    -0.014 A 
BRANCH  38  39
ATOM     39  C   UNL     1       4.787   5.532   9.081  1.00  0.00     0.031 A 
ATOM     40  C   UNL     1       4.669   4.864  10.300  1.00  0.00     0.074 A 
ATOM     41  C   UNL     1       4.449   6.861   8.891  1.00  0.00     0.049 A 
ATOM     42  N   UNL     1       4.261   5.365  11.467  1.00  0.00    -0.248 NA
ATOM     43  C   UNL     1       4.995   3.443  10.496  1.00  0.00     0.031 C 
ATOM     44  C   UNL     1       4.573   7.545   7.665  1.00  0.00     0.029 A 
ATOM     45  N   UNL     1       3.945   7.746   9.818  1.00  0.00    -0.354 N 
ATOM     46  C   UNL     1       4.301   4.424  12.412  1.00  0.00     0.074 A 
ATOM     47  C   UNL     1       4.768   3.173  11.800  1.00  0.00     0.031 C 
ATOM     48  C   UNL     1       4.139   8.820   7.849  1.00  0.00     0.029 A 
ATOM     49  C   UNL     1       3.738   8.955   9.191  1.00  0.00     0.049 A 
ATOM     50  H   UNL     1       3.764   7.549  10.766  1.00  0.00     0.167 HD
ATOM     51  C   UNL     1       3.969   4.561  13.761  1.00  0.00     0.034 A 
ATOM     52  C   UNL     1       3.226  10.119   9.742  1.00  0.00     0.034 A 
ATOM     53  C   UNL     1       3.498   5.738  14.321  1.00  0.00     0.049 A 
ATOM     54  C   UNL     1       2.838  10.240  11.078  1.00  0.00     0.074 A 
ATOM     55  C   UNL     1       3.166   5.895  15.680  1.00  0.00     0.029 A 
ATOM     56  N   UNL     1       3.267   6.939  13.689  1.00  0.00    -0.354 N 
ATOM     57  N   UNL     1       2.916   9.311  12.032  1.00  0.00    -0.248 NA
ATOM     58  C   UNL     1       2.265  11.459  11.664  1.00  0.00     0.031 C 
ATOM     59  C   UNL     1       2.732   7.170  15.864  1.00  0.00     0.029 A 
ATOM     60  C   UNL     1       2.785   7.831  14.621  1.00  0.00     0.049 A 
ATOM     61  H   UNL     1       3.421   7.128  12.735  1.00  0.00     0.167 HD
ATOM     62  C   UNL     1       2.468   9.801  13.189  1.00  0.00     0.074 A 
ATOM     63  C   UNL     1       2.036  11.188  12.968  1.00  0.00     0.031 C 
ATOM     64  C   UNL     1       2.405   9.149  14.422  1.00  0.00     0.034 A 
BRANCH  51  65
ATOM     65  C   UNL     1       4.131   3.351  14.666  1.00  0.00     0.023 A 
ATOM     66  C   UNL     1       5.342   2.688  14.779  1.00  0.00     0.031 A 
ATOM     67  C   UNL     1       3.041   2.902  15.278  1.00  0.00     0.131 A 
ATOM     68  C   UNL     1       5.236   1.389  15.330  1.00  0.00     0.055 A 
ATOM     69  C   UNL     1       3.047   1.684  15.914  1.00  0.00     0.041 A 
ATOM     70  F   UNL     1       1.934   3.638  15.274  1.00  0.00    -0.206 F 
ATOM     71  C   UNL     1       4.195   0.948  16.012  1.00  0.00     0.022 A 
BRANCH  68  72
ATOM     72  S   UNL     1       6.624   0.254  15.084  1.00  0.00     0.124 S 
ATOM     73  O   UNL     1       6.845   0.037  13.585  1.00  0.00    -0.237 OA
ATOM     74  O   UNL     1       7.888   0.851  15.705  1.00  0.00    -0.237 OA
ATOM     75  O   UNL     1       6.274  -1.244  15.831  1.00  0.00    -0.744 OA
ENDBRANCH  68  72
ENDBRANCH  51  65
BRANCH  52  76
ATOM     76  C   UNL     1       3.079  11.334   8.840  1.00  0.00     0.023 A 
ATOM     77  C   UNL     1       3.835  12.443   9.183  1.00  0.00     0.031 A 
ATOM     78  C   UNL     1       2.319  11.329   7.751  1.00  0.00     0.131 A 
ATOM     79  C   UNL     1       3.496  13.613   8.462  1.00  0.00     0.055 A 
ATOM     80  C   UNL     1       2.140  12.476   7.017  1.00  0.00     0.041 A 
ATOM     81  F   UNL     1       1.725  10.202   7.368  1.00  0.00    -0.206 F 
ATOM     82  C   UNL     1       2.810  13.625   7.334  1.00  0.00     0.022 A 
BRANCH  79  83
ATOM     83  S   UNL     1       4.041  15.203   9.134  1.00  0.00     0.124 S 
ATOM     84  O   UNL     1       3.439  15.401  10.528  1.00  0.00    -0.237 OA
ATOM     85  O   UNL     1       5.568  15.220   9.231  1.00  0.00    -0.237 OA
ATOM     86  O   UNL     1       3.521  16.465   8.104  1.00  0.00    -0.744 OA
ENDBRANCH  79  83
ENDBRANCH  52  76
BRANCH  64  87
ATOM     87  C   UNL     1       1.890   9.932  15.618  1.00  0.00     0.023 A 
ATOM     88  C   UNL     1       0.673  10.582  15.496  1.00  0.00     0.031 A 
ATOM     89  C   UNL     1       2.664  10.113  16.682  1.00  0.00     0.131 A 
ATOM     90  C   UNL     1       0.489  11.634  16.425  1.00  0.00     0.055 A 
ATOM     91  C   UNL     1       2.351  11.067  17.620  1.00  0.00     0.041 A 
ATOM     92  F   UNL     1       3.752   9.365  16.841  1.00  0.00    -0.206 F 
ATOM     93  C   UNL     1       1.193  11.788  17.531  1.00  0.00     0.022 A 
BRANCH  90  94
ATOM     94  S   UNL     1      -0.801  12.853  16.070  1.00  0.00     0.124 S 
ATOM     95  O   UNL     1      -0.500  13.542  14.737  1.00  0.00    -0.237 OA
ATOM     96  O   UNL     1      -2.158  12.150  15.986  1.00  0.00    -0.237 OA
ATOM     97  O   UNL     1      -0.840  14.021  17.319  1.00  0.00    -0.744 OA
ENDBRANCH  90  94
ENDBRANCH  64  87
ENDBRANCH  38  39
ENDBRANCH  30  33
ENDBRANCH  28  29
ENDBRANCH   1  28
TORSDOF 16
