REMARK SMILES [NH3+][C@H](Cc1ccc(O)c(F)c1)C(=O)NCCCCNC(=O)c1ccc(-c2c3nc(c(-c4cc(S(=O)(=O)[O-])ccc4F)c4ccc([nH]4)c(-c4cc(S(=O)(=O)[O-])ccc4F)c4nc(c(-c5cc(S(=O)(=O)[O-])ccc5F)c5ccc2[nH]5)C=C4)C=C3)cc1
REMARK SMILES IDX 16 1 15 2 14 3 12 4 13 5 2 7 1 8 3 12 4 13 5 14 11 15 6 16
REMARK SMILES IDX 9 17 7 18 10 19 8 20 17 22 18 23 19 24 20 25 21 27 22 28
REMARK SMILES IDX 23 29 84 30 24 31 83 32 25 33 26 34 27 35 77 36 28 37 82 38
REMARK SMILES IDX 76 39 78 40 29 41 81 42 75 43 74 44 30 46 62 47 42 48 61 49
REMARK SMILES IDX 43 50 46 51 60 52 79 53 44 54 45 55 59 57 80 58 47 59 31 60
REMARK SMILES IDX 32 61 40 62 33 63 39 64 41 65 38 66 34 67 35 68 36 69 37 70
REMARK SMILES IDX 63 71 64 72 72 73 65 74 71 75 73 76 70 77 66 78 67 79 68 80
REMARK SMILES IDX 69 81 48 82 49 83 57 84 50 85 56 86 58 87 55 88 51 89 52 90
REMARK SMILES IDX 53 91 54 92
REMARK H PARENT 14 6 1 9 1 10 1 11 8 21 19 26 78 45 46 56
REMARK Flexibility Score: inf
ROOT
ATOM      1  C   UNL     1      -1.256  -2.179  -1.426  1.00  0.00     0.023 C 
ENDROOT
BRANCH   1   2
ATOM      2  C   UNL     1      -1.069  -0.823  -2.110  1.00  0.00     0.116 C 
BRANCH   2   3
ATOM      3  N   UNL     1      -1.608   0.251  -1.296  1.00  0.00    -0.351 N 
ATOM      4  C   UNL     1      -0.990   1.241  -0.586  1.00  0.00     0.278 C 
ATOM      5  O   UNL     1      -1.696   1.952   0.135  1.00  0.00    -0.268 OA
ATOM      6  H   UNL     1      -2.591   0.270  -1.247  1.00  0.00     0.163 HD
BRANCH   4   7
ATOM      7  C   UNL     1       0.532   1.476  -0.679  1.00  0.00     0.275 C 
BRANCH   7   8
ATOM      8  N   UNL     1       0.876   1.915  -2.050  1.00  0.00    -0.347 N 
ATOM      9  H   UNL     1       0.280   2.699  -2.315  1.00  0.00     0.345 HD
ATOM     10  H   UNL     1       0.732   1.143  -2.700  1.00  0.00     0.345 HD
ATOM     11  H   UNL     1       1.853   2.206  -2.078  1.00  0.00     0.345 HD
ENDBRANCH   7   8
BRANCH   7  12
ATOM     12  C   UNL     1       1.324   0.292  -0.082  1.00  0.00     0.111 C 
BRANCH  12  13
ATOM     13  C   UNL     1       2.813   0.313  -0.342  1.00  0.00    -0.038 A 
ATOM     14  C   UNL     1       3.711   0.720   0.655  1.00  0.00     0.008 A 
ATOM     15  C   UNL     1       3.319  -0.085  -1.589  1.00  0.00     0.047 A 
ATOM     16  C   UNL     1       5.087   0.754   0.404  1.00  0.00     0.049 A 
ATOM     17  C   UNL     1       4.685  -0.031  -1.841  1.00  0.00     0.165 A 
ATOM     18  C   UNL     1       5.569   0.389  -0.852  1.00  0.00     0.151 A 
ATOM     19  F   UNL     1       5.135  -0.380  -3.055  1.00  0.00    -0.203 F 
BRANCH  18  20
ATOM     20  O   UNL     1       6.904   0.440  -1.132  1.00  0.00    -0.505 OA
ATOM     21  H   UNL     1       7.510   0.721  -0.475  1.00  0.00     0.293 HD
ENDBRANCH  18  20
ENDBRANCH  12  13
ENDBRANCH   7  12
ENDBRANCH   4   7
ENDBRANCH   2   3
ENDBRANCH   1   2
BRANCH   1  22
ATOM     22  C   UNL     1      -2.708  -2.656  -1.350  1.00  0.00     0.023 C 
BRANCH  22  23
ATOM     23  C   UNL     1      -3.412  -2.800  -2.695  1.00  0.00     0.116 C 
BRANCH  23  24
ATOM     24  N   UNL     1      -2.743  -3.734  -3.587  1.00  0.00    -0.352 N 
ATOM     25  C   UNL     1      -3.301  -4.677  -4.416  1.00  0.00     0.251 C 
ATOM     26  H   UNL     1      -1.760  -3.684  -3.598  1.00  0.00     0.163 HD
ATOM     27  O   UNL     1      -2.579  -5.480  -5.000  1.00  0.00    -0.269 OA
BRANCH  25  28
ATOM     28  C   UNL     1      -4.771  -4.739  -4.563  1.00  0.00     0.039 A 
ATOM     29  C   UNL     1      -5.410  -5.976  -4.442  1.00  0.00     0.014 A 
ATOM     30  C   UNL     1      -5.517  -3.578  -4.786  1.00  0.00     0.014 A 
ATOM     31  C   UNL     1      -6.805  -6.037  -4.475  1.00  0.00     0.010 A 
ATOM     32  C   UNL     1      -6.907  -3.633  -4.750  1.00  0.00     0.010 A 
ATOM     33  C   UNL     1      -7.566  -4.862  -4.590  1.00  0.00    -0.014 A 
BRANCH  33  34
ATOM     34  C   UNL     1      -9.051  -4.898  -4.546  1.00  0.00     0.031 A 
ATOM     35  C   UNL     1      -9.849  -4.478  -5.750  1.00  0.00     0.074 A 
ATOM     36  C   UNL     1      -9.677  -5.239  -3.402  1.00  0.00     0.049 A 
ATOM     37  N   UNL     1     -11.144  -4.351  -5.882  1.00  0.00    -0.248 NA
ATOM     38  C   UNL     1      -9.083  -4.125  -6.954  1.00  0.00     0.031 C 
ATOM     39  C   UNL     1      -9.010  -5.623  -2.155  1.00  0.00     0.029 A 
ATOM     40  N   UNL     1     -11.013  -5.307  -3.096  1.00  0.00    -0.354 N 
ATOM     41  C   UNL     1     -11.349  -3.892  -7.179  1.00  0.00     0.074 A 
ATOM     42  C   UNL     1     -10.040  -3.704  -7.767  1.00  0.00     0.031 C 
ATOM     43  C   UNL     1      -9.939  -5.901  -1.227  1.00  0.00     0.029 A 
ATOM     44  C   UNL     1     -11.265  -5.675  -1.794  1.00  0.00     0.049 A 
ATOM     45  H   UNL     1     -11.725  -5.111  -3.747  1.00  0.00     0.167 HD
ATOM     46  C   UNL     1     -12.521  -3.671  -7.826  1.00  0.00     0.034 A 
ATOM     47  C   UNL     1     -12.430  -5.802  -1.129  1.00  0.00     0.034 A 
ATOM     48  C   UNL     1     -13.818  -3.873  -7.227  1.00  0.00     0.049 A 
ATOM     49  C   UNL     1     -13.720  -5.536  -1.863  1.00  0.00     0.074 A 
ATOM     50  C   UNL     1     -15.067  -3.726  -7.804  1.00  0.00     0.029 A 
ATOM     51  N   UNL     1     -14.034  -4.261  -5.910  1.00  0.00    -0.354 N 
ATOM     52  N   UNL     1     -13.898  -5.147  -3.105  1.00  0.00    -0.248 NA
ATOM     53  C   UNL     1     -14.964  -5.739  -1.111  1.00  0.00     0.031 C 
ATOM     54  C   UNL     1     -16.036  -3.965  -6.823  1.00  0.00     0.029 A 
ATOM     55  C   UNL     1     -15.395  -4.334  -5.651  1.00  0.00     0.049 A 
ATOM     56  H   UNL     1     -13.325  -4.457  -5.257  1.00  0.00     0.167 HD
ATOM     57  C   UNL     1     -15.277  -5.087  -3.289  1.00  0.00     0.074 A 
ATOM     58  C   UNL     1     -15.880  -5.495  -2.036  1.00  0.00     0.031 C 
ATOM     59  C   UNL     1     -15.981  -4.732  -4.393  1.00  0.00     0.034 A 
BRANCH  46  60
ATOM     60  C   UNL     1     -12.441  -3.166  -9.247  1.00  0.00     0.023 A 
ATOM     61  C   UNL     1     -11.849  -3.929 -10.268  1.00  0.00     0.031 A 
ATOM     62  C   UNL     1     -12.934  -1.892  -9.581  1.00  0.00     0.131 A 
ATOM     63  C   UNL     1     -11.691  -3.384 -11.551  1.00  0.00     0.055 A 
ATOM     64  C   UNL     1     -12.849  -1.388 -10.881  1.00  0.00     0.041 A 
ATOM     65  F   UNL     1     -13.493  -1.107  -8.646  1.00  0.00    -0.206 F 
ATOM     66  C   UNL     1     -12.210  -2.128 -11.871  1.00  0.00     0.022 A 
BRANCH  63  67
ATOM     67  S   UNL     1     -10.667  -4.279 -12.751  1.00  0.00     0.124 S 
ATOM     68  O   UNL     1      -9.384  -4.340 -12.056  1.00  0.00    -0.237 OA
ATOM     69  O   UNL     1     -11.378  -5.544 -12.891  1.00  0.00    -0.237 OA
ATOM     70  O   UNL     1     -10.688  -3.416 -13.930  1.00  0.00    -0.744 OA
ENDBRANCH  63  67
ENDBRANCH  46  60
BRANCH  47  71
ATOM     71  C   UNL     1     -12.440  -6.186   0.312  1.00  0.00     0.023 A 
ATOM     72  C   UNL     1     -12.999  -7.402   0.733  1.00  0.00     0.031 A 
ATOM     73  C   UNL     1     -11.925  -5.320   1.294  1.00  0.00     0.131 A 
ATOM     74  C   UNL     1     -13.075  -7.700   2.103  1.00  0.00     0.055 A 
ATOM     75  C   UNL     1     -11.956  -5.644   2.651  1.00  0.00     0.041 A 
ATOM     76  F   UNL     1     -11.373  -4.148   0.944  1.00  0.00    -0.206 F 
ATOM     77  C   UNL     1     -12.546  -6.835   3.064  1.00  0.00     0.022 A 
BRANCH  74  78
ATOM     78  S   UNL     1     -13.951  -9.202   2.618  1.00  0.00     0.124 S 
ATOM     79  O   UNL     1     -15.274  -8.986   2.042  1.00  0.00    -0.237 OA
ATOM     80  O   UNL     1     -13.145 -10.249   1.999  1.00  0.00    -0.237 OA
ATOM     81  O   UNL     1     -13.888  -9.149   4.077  1.00  0.00    -0.744 OA
ENDBRANCH  74  78
ENDBRANCH  47  71
BRANCH  59  82
ATOM     82  C   UNL     1     -17.485  -4.817  -4.302  1.00  0.00     0.023 A 
ATOM     83  C   UNL     1     -18.227  -3.958  -3.473  1.00  0.00     0.031 A 
ATOM     84  C   UNL     1     -18.183  -5.782  -5.050  1.00  0.00     0.131 A 
ATOM     85  C   UNL     1     -19.617  -4.116  -3.369  1.00  0.00     0.055 A 
ATOM     86  C   UNL     1     -19.572  -5.896  -4.987  1.00  0.00     0.041 A 
ATOM     87  F   UNL     1     -17.524  -6.629  -5.857  1.00  0.00    -0.206 F 
ATOM     88  C   UNL     1     -20.296  -5.069  -4.133  1.00  0.00     0.022 A 
BRANCH  85  89
ATOM     89  S   UNL     1     -20.520  -3.115  -2.155  1.00  0.00     0.124 S 
ATOM     90  O   UNL     1     -19.866  -3.492  -0.905  1.00  0.00    -0.237 OA
ATOM     91  O   UNL     1     -20.268  -1.756  -2.621  1.00  0.00    -0.237 OA
ATOM     92  O   UNL     1     -21.901  -3.571  -2.293  1.00  0.00    -0.744 OA
ENDBRANCH  85  89
ENDBRANCH  59  82
ENDBRANCH  33  34
ENDBRANCH  25  28
ENDBRANCH  23  24
ENDBRANCH  22  23
ENDBRANCH   1  22
TORSDOF 18
