REMARK SMILES O=C(CCCN1C(=O)/C(=C/c2ccccc2Cl)SC1=S)Nc1cccc(C(=O)NCCCCNC(=O)c2ccc(-c3c4nc(c(-c5cc(S(=O)(=O)[O-])ccc5F)c5ccc([nH]5)c(-c5cc(S(=O)(=O)[O-])ccc5F)c5nc(c(-c6cc(S(=O)(=O)[O-])ccc6F)c6ccc3[nH]6)C=C5)C=C4)cc2)c1
REMARK SMILES IDX 30 1 29 2 27 3 28 4 26 6 22 7 23 8 100 9 24 10 25 11 21 12
REMARK SMILES IDX 1 13 2 14 3 16 4 17 5 18 6 19 7 20 19 21 8 22 9 23 18 24
REMARK SMILES IDX 20 25 10 26 11 27 12 28 16 29 13 30 15 31 17 32 14 33 31 34
REMARK SMILES IDX 32 35 33 36 34 37 35 38 36 40 37 41 38 42 99 43 39 44 98 45
REMARK SMILES IDX 40 46 41 47 42 48 92 49 43 50 97 51 91 52 93 53 44 54 96 55
REMARK SMILES IDX 90 56 89 57 45 59 77 60 57 61 76 62 58 63 61 64 75 65 94 66
REMARK SMILES IDX 59 67 60 68 74 70 95 71 62 72 46 73 47 74 55 75 48 76 54 77
REMARK SMILES IDX 56 78 53 79 49 80 50 81 51 82 52 83 78 84 79 85 87 86 80 87
REMARK SMILES IDX 86 88 88 89 85 90 81 91 82 92 83 93 84 94 63 95 64 96 72 97
REMARK SMILES IDX 65 98 71 99 73 100 70 101 66 102 67 103 68 104 69 105
REMARK H PARENT 29 5 21 15 34 39 93 58 61 69
REMARK Flexibility Score: inf
ROOT
ATOM      1  C   UNL     1       0.059  -2.948  -1.576  1.00  0.00     0.116 C 
ENDROOT
BRANCH   1   2
ATOM      2  N   UNL     1      -0.747  -3.942  -0.879  1.00  0.00    -0.352 N 
ATOM      3  C   UNL     1      -0.722  -4.322   0.449  1.00  0.00     0.251 C 
ATOM      4  O   UNL     1      -1.479  -5.202   0.850  1.00  0.00    -0.269 OA
ATOM      5  H   UNL     1      -1.407  -4.413  -1.437  1.00  0.00     0.163 HD
BRANCH   3   6
ATOM      6  C   UNL     1       0.274  -3.740   1.383  1.00  0.00     0.041 A 
ATOM      7  C   UNL     1       1.792  -1.943   1.916  1.00  0.00     0.041 A 
ATOM      8  C   UNL     1       2.474  -2.797   2.790  1.00  0.00     0.026 A 
ATOM      9  C   UNL     1       0.613  -2.387   1.325  1.00  0.00     0.040 A 
ATOM     10  C   UNL     1       2.038  -4.110   2.986  1.00  0.00     0.003 A 
ATOM     11  C   UNL     1       0.957  -4.595   2.252  1.00  0.00     0.014 A 
BRANCH   7  12
ATOM     12  N   UNL     1       2.443  -0.753   1.509  1.00  0.00    -0.326 N 
ATOM     13  O   UNL     1       0.807   0.290   0.235  1.00  0.00    -0.275 OA
ATOM     14  C   UNL     1       1.981   0.141   0.562  1.00  0.00     0.224 C 
ATOM     15  H   UNL     1       3.303  -0.544   1.940  1.00  0.00     0.169 HD
BRANCH  14  16
ATOM     16  C   UNL     1       3.073   0.873  -0.203  1.00  0.00     0.102 C 
BRANCH  16  17
ATOM     17  C   UNL     1       3.997   1.769   0.614  1.00  0.00     0.032 C 
BRANCH  17  18
ATOM     18  C   UNL     1       5.316   1.136   1.085  1.00  0.00     0.128 C 
BRANCH  18  19
ATOM     19  N   UNL     1       6.063   0.431   0.038  1.00  0.00    -0.293 N 
ATOM     20  C   UNL     1       6.649   1.174  -0.979  1.00  0.00     0.266 C 
ATOM     21  C   UNL     1       6.307  -0.928   0.017  1.00  0.00     0.148 C 
ATOM     22  O   UNL     1       6.646   2.389  -1.071  1.00  0.00    -0.268 OA
ATOM     23  C   UNL     1       7.333   0.273  -1.945  1.00  0.00     0.081 C 
ATOM     24  S   UNL     1       7.236  -1.355  -1.408  1.00  0.00    -0.054 SA
ATOM     25  S   UNL     1       5.852  -2.076   1.136  1.00  0.00    -0.052 S 
ATOM     26  C   UNL     1       7.922   0.723  -3.061  1.00  0.00     0.031 C 
BRANCH  26  27
ATOM     27  C   UNL     1       8.581  -0.148  -4.045  1.00  0.00    -0.006 A 
ATOM     28  C   UNL     1       9.970  -0.323  -3.951  1.00  0.00     0.010 A 
ATOM     29  C   UNL     1       7.871  -0.852  -5.032  1.00  0.00     0.048 A 
ATOM     30  C   UNL     1      10.633  -1.195  -4.818  1.00  0.00     0.001 A 
ATOM     31  C   UNL     1       8.539  -1.723  -5.897  1.00  0.00     0.021 A 
ATOM     32  Cl  UNL     1       6.159  -0.681  -5.217  1.00  0.00    -0.084 Cl
ATOM     33  C   UNL     1       9.918  -1.897  -5.786  1.00  0.00     0.002 A 
ENDBRANCH  26  27
ENDBRANCH  18  19
ENDBRANCH  17  18
ENDBRANCH  16  17
ENDBRANCH  14  16
ENDBRANCH   7  12
ENDBRANCH   3   6
ENDBRANCH   1   2
BRANCH   1  34
ATOM     34  C   UNL     1       0.458  -3.324  -2.997  1.00  0.00     0.023 C 
BRANCH  34  35
ATOM     35  C   UNL     1      -0.684  -3.572  -3.973  1.00  0.00     0.023 C 
BRANCH  35  36
ATOM     36  C   UNL     1      -1.752  -2.487  -4.037  1.00  0.00     0.116 C 
BRANCH  36  37
ATOM     37  N   UNL     1      -1.242  -1.188  -4.455  1.00  0.00    -0.352 N 
ATOM     38  C   UNL     1      -1.638  -0.390  -5.506  1.00  0.00     0.251 C 
ATOM     39  H   UNL     1      -0.507  -0.829  -3.908  1.00  0.00     0.163 HD
ATOM     40  O   UNL     1      -1.011   0.632  -5.769  1.00  0.00    -0.269 OA
BRANCH  38  41
ATOM     41  C   UNL     1      -2.790  -0.795  -6.343  1.00  0.00     0.039 A 
ATOM     42  C   UNL     1      -2.659  -0.777  -7.734  1.00  0.00     0.014 A 
ATOM     43  C   UNL     1      -3.980  -1.233  -5.757  1.00  0.00     0.014 A 
ATOM     44  C   UNL     1      -3.682  -1.297  -8.533  1.00  0.00     0.010 A 
ATOM     45  C   UNL     1      -4.959  -1.827  -6.548  1.00  0.00     0.010 A 
ATOM     46  C   UNL     1      -4.817  -1.876  -7.944  1.00  0.00    -0.014 A 
BRANCH  46  47
ATOM     47  C   UNL     1      -5.872  -2.541  -8.755  1.00  0.00     0.031 A 
ATOM     48  C   UNL     1      -7.280  -2.011  -8.729  1.00  0.00     0.074 A 
ATOM     49  C   UNL     1      -5.589  -3.671  -9.435  1.00  0.00     0.049 A 
ATOM     50  N   UNL     1      -8.372  -2.526  -9.233  1.00  0.00    -0.248 NA
ATOM     51  C   UNL     1      -7.487  -0.748  -8.005  1.00  0.00     0.031 C 
ATOM     52  C   UNL     1      -4.272  -4.306  -9.514  1.00  0.00     0.029 A 
ATOM     53  N   UNL     1      -6.397  -4.497 -10.177  1.00  0.00    -0.354 N 
ATOM     54  C   UNL     1      -9.400  -1.664  -8.866  1.00  0.00     0.074 A 
ATOM     55  C   UNL     1      -8.805  -0.629  -8.046  1.00  0.00     0.031 C 
ATOM     56  C   UNL     1      -4.358  -5.407 -10.277  1.00  0.00     0.029 A 
ATOM     57  C   UNL     1      -5.743  -5.588 -10.700  1.00  0.00     0.049 A 
ATOM     58  H   UNL     1      -7.356  -4.324 -10.321  1.00  0.00     0.167 HD
ATOM     59  C   UNL     1     -10.714  -1.717  -9.200  1.00  0.00     0.034 A 
ATOM     60  C   UNL     1      -6.209  -6.627 -11.423  1.00  0.00     0.034 A 
ATOM     61  C   UNL     1     -11.289  -2.746 -10.032  1.00  0.00     0.049 A 
ATOM     62  C   UNL     1      -7.677  -6.681 -11.761  1.00  0.00     0.074 A 
ATOM     63  C   UNL     1     -12.597  -2.874 -10.469  1.00  0.00     0.029 A 
ATOM     64  N   UNL     1     -10.591  -3.828 -10.554  1.00  0.00    -0.354 N 
ATOM     65  N   UNL     1      -8.633  -5.845 -11.429  1.00  0.00    -0.248 NA
ATOM     66  C   UNL     1      -8.127  -7.817 -12.577  1.00  0.00     0.031 C 
ATOM     67  C   UNL     1     -12.700  -4.059 -11.206  1.00  0.00     0.029 A 
ATOM     68  C   UNL     1     -11.444  -4.637 -11.289  1.00  0.00     0.049 A 
ATOM     69  H   UNL     1      -9.630  -3.995 -10.421  1.00  0.00     0.167 HD
ATOM     70  C   UNL     1      -9.791  -6.336 -12.027  1.00  0.00     0.074 A 
ATOM     71  C   UNL     1      -9.412  -7.537 -12.742  1.00  0.00     0.031 C 
ATOM     72  C   UNL     1     -11.051  -5.833 -11.995  1.00  0.00     0.034 A 
BRANCH  59  73
ATOM     73  C   UNL     1     -11.611  -0.639  -8.638  1.00  0.00     0.023 A 
ATOM     74  C   UNL     1     -11.417   0.717  -8.953  1.00  0.00     0.031 A 
ATOM     75  C   UNL     1     -12.639  -0.963  -7.735  1.00  0.00     0.131 A 
ATOM     76  C   UNL     1     -12.172   1.703  -8.302  1.00  0.00     0.055 A 
ATOM     77  C   UNL     1     -13.447   0.018  -7.157  1.00  0.00     0.041 A 
ATOM     78  F   UNL     1     -12.861  -2.239  -7.380  1.00  0.00    -0.206 F 
ATOM     79  C   UNL     1     -13.204   1.363  -7.425  1.00  0.00     0.022 A 
BRANCH  76  80
ATOM     80  S   UNL     1     -11.676   3.437  -8.494  1.00  0.00     0.124 S 
ATOM     81  O   UNL     1     -10.304   3.408  -7.993  1.00  0.00    -0.237 OA
ATOM     82  O   UNL     1     -11.828   3.652  -9.928  1.00  0.00    -0.237 OA
ATOM     83  O   UNL     1     -12.625   4.161  -7.650  1.00  0.00    -0.744 OA
ENDBRANCH  76  80
ENDBRANCH  59  73
BRANCH  60  84
ATOM     84  C   UNL     1      -5.288  -7.708 -11.873  1.00  0.00     0.023 A 
ATOM     85  C   UNL     1      -5.018  -7.900 -13.238  1.00  0.00     0.031 A 
ATOM     86  C   UNL     1      -4.695  -8.590 -10.953  1.00  0.00     0.131 A 
ATOM     87  C   UNL     1      -4.213  -8.975 -13.648  1.00  0.00     0.055 A 
ATOM     88  C   UNL     1      -3.856  -9.628 -11.362  1.00  0.00     0.041 A 
ATOM     89  F   UNL     1      -4.915  -8.446  -9.636  1.00  0.00    -0.206 F 
ATOM     90  C   UNL     1      -3.622  -9.833 -12.718  1.00  0.00     0.022 A 
BRANCH  87  91
ATOM     91  S   UNL     1      -4.011  -9.279 -15.424  1.00  0.00     0.124 S 
ATOM     92  O   UNL     1      -5.391  -9.481 -15.851  1.00  0.00    -0.237 OA
ATOM     93  O   UNL     1      -3.374  -8.045 -15.872  1.00  0.00    -0.237 OA
ATOM     94  O   UNL     1      -3.162 -10.468 -15.471  1.00  0.00    -0.744 OA
ENDBRANCH  87  91
ENDBRANCH  60  84
BRANCH  72  95
ATOM     95  C   UNL     1     -12.096  -6.552 -12.810  1.00  0.00     0.023 A 
ATOM     96  C   UNL     1     -12.567  -7.828 -12.458  1.00  0.00     0.031 A 
ATOM     97  C   UNL     1     -12.627  -5.943 -13.962  1.00  0.00     0.131 A 
ATOM     98  C   UNL     1     -13.507  -8.475 -13.275  1.00  0.00     0.055 A 
ATOM     99  C   UNL     1     -13.599  -6.569 -14.742  1.00  0.00     0.041 A 
ATOM    100  F   UNL     1     -12.210  -4.725 -14.344  1.00  0.00    -0.206 F 
ATOM    101  C   UNL     1     -14.037  -7.847 -14.405  1.00  0.00     0.022 A 
BRANCH  98 102
ATOM    102  S   UNL     1     -13.981 -10.181 -12.880  1.00  0.00     0.124 S 
ATOM    103  O   UNL     1     -12.703 -10.880 -12.969  1.00  0.00    -0.237 OA
ATOM    104  O   UNL     1     -14.543 -10.048 -11.540  1.00  0.00    -0.237 OA
ATOM    105  O   UNL     1     -14.947 -10.519 -13.924  1.00  0.00    -0.744 OA
ENDBRANCH  98 102
ENDBRANCH  72  95
ENDBRANCH  46  47
ENDBRANCH  38  41
ENDBRANCH  36  37
ENDBRANCH  35  36
ENDBRANCH  34  35
ENDBRANCH   1  34
TORSDOF 20
