REMARK SMILES O=C(NCCCCNC(=O)c1nnn(-c2cccc(C(F)(F)F)c2)c1[C@@H]1COc2ccccc2O1)c1ccc(-c2c3nc(c(-c4cc(S(=O)(=O)[O-])ccc4F)c4ccc([nH]4)c(-c4cc(S(=O)(=O)[O-])ccc4F)c4nc(c(-c5cc(S(=O)(=O)[O-])ccc5F)c5ccc2[nH]5)C=C4)C=C3)cc1
REMARK SMILES IDX 5 1 4 2 3 3 1 4 2 5 36 7 37 8 98 9 38 10 97 11 39 12 40 13
REMARK SMILES IDX 41 14 91 15 42 16 96 17 90 18 92 19 43 20 95 21 89 22 88 23
REMARK SMILES IDX 44 25 76 26 56 27 75 28 57 29 60 30 74 31 93 32 58 33 59 34
REMARK SMILES IDX 73 36 94 37 61 38 45 39 46 40 54 41 47 42 53 43 55 44 52 45
REMARK SMILES IDX 48 46 49 47 50 48 51 49 77 50 78 51 86 52 79 53 85 54 87 55
REMARK SMILES IDX 84 56 80 57 81 58 82 59 83 60 62 61 63 62 71 63 64 64 70 65
REMARK SMILES IDX 72 66 69 67 65 68 66 69 67 70 68 71 6 72 7 73 8 74 9 75
REMARK SMILES IDX 10 77 11 78 12 79 25 80 13 81 14 82 26 83 27 84 35 85 28 86
REMARK SMILES IDX 34 87 29 88 33 89 30 90 32 91 31 92 15 93 16 94 24 95 17 96
REMARK SMILES IDX 19 97 18 98 20 99 21 100 22 101 23 102
REMARK H PARENT 3 6 92 24 60 35 8 76
REMARK Flexibility Score: inf
ROOT
ATOM      1  C   UNL     1       5.338  -1.405   1.480  1.00  0.00     0.023 C 
ENDROOT
BRANCH   1   2
ATOM      2  C   UNL     1       4.856  -0.812   0.153  1.00  0.00     0.116 C 
BRANCH   2   3
ATOM      3  N   UNL     1       3.427  -0.871  -0.094  1.00  0.00    -0.352 N 
ATOM      4  O   UNL     1       1.354  -0.195  -0.466  1.00  0.00    -0.269 OA
ATOM      5  C   UNL     1       2.382  -0.029   0.197  1.00  0.00     0.251 C 
ATOM      6  H   UNL     1       3.148  -1.685  -0.572  1.00  0.00     0.163 HD
BRANCH   5   7
ATOM      7  C   UNL     1       2.379   0.972   1.298  1.00  0.00     0.039 A 
ATOM      8  C   UNL     1       3.508   1.445   1.964  1.00  0.00     0.014 A 
ATOM      9  C   UNL     1       1.112   1.425   1.716  1.00  0.00     0.014 A 
ATOM     10  C   UNL     1       3.374   2.253   3.090  1.00  0.00     0.010 A 
ATOM     11  C   UNL     1       0.972   2.248   2.831  1.00  0.00     0.010 A 
ATOM     12  C   UNL     1       2.106   2.635   3.538  1.00  0.00    -0.014 A 
BRANCH  12  13
ATOM     13  C   UNL     1       2.029   3.677   4.564  1.00  0.00     0.031 A 
ATOM     14  C   UNL     1       2.567   4.979   4.080  1.00  0.00     0.074 A 
ATOM     15  C   UNL     1       1.412   3.551   5.758  1.00  0.00     0.049 A 
ATOM     16  N   UNL     1       3.623   5.601   4.487  1.00  0.00    -0.248 NA
ATOM     17  C   UNL     1       1.976   5.556   2.858  1.00  0.00     0.031 C 
ATOM     18  C   UNL     1       0.644   2.403   6.240  1.00  0.00     0.029 A 
ATOM     19  N   UNL     1       1.251   4.465   6.764  1.00  0.00    -0.354 N 
ATOM     20  C   UNL     1       3.659   6.787   3.759  1.00  0.00     0.074 A 
ATOM     21  C   UNL     1       2.794   6.583   2.632  1.00  0.00     0.031 C 
ATOM     22  C   UNL     1      -0.081   2.771   7.322  1.00  0.00     0.029 A 
ATOM     23  C   UNL     1       0.243   4.145   7.678  1.00  0.00     0.049 A 
ATOM     24  H   UNL     1       1.799   5.280   6.838  1.00  0.00     0.167 HD
ATOM     25  C   UNL     1       4.140   7.932   4.318  1.00  0.00     0.034 A 
ATOM     26  C   UNL     1      -0.334   4.958   8.612  1.00  0.00     0.034 A 
ATOM     27  C   UNL     1       5.001   7.631   5.445  1.00  0.00     0.049 A 
ATOM     28  C   UNL     1       0.615   6.069   8.866  1.00  0.00     0.074 A 
ATOM     29  C   UNL     1       6.122   6.839   5.623  1.00  0.00     0.029 A 
ATOM     30  N   UNL     1       4.533   7.883   6.717  1.00  0.00    -0.354 N 
ATOM     31  N   UNL     1       1.772   5.903   9.442  1.00  0.00    -0.248 NA
ATOM     32  C   UNL     1       0.497   7.268   8.049  1.00  0.00     0.031 C 
ATOM     33  C   UNL     1       5.956   6.246   6.910  1.00  0.00     0.029 A 
ATOM     34  C   UNL     1       4.802   6.779   7.485  1.00  0.00     0.049 A 
ATOM     35  H   UNL     1       4.087   8.707   7.019  1.00  0.00     0.167 HD
ATOM     36  C   UNL     1       2.648   6.690   8.711  1.00  0.00     0.074 A 
ATOM     37  C   UNL     1       1.791   7.581   7.930  1.00  0.00     0.031 C 
ATOM     38  C   UNL     1       3.966   6.351   8.590  1.00  0.00     0.034 A 
BRANCH  25  39
ATOM     39  C   UNL     1       3.469   9.289   4.152  1.00  0.00     0.023 A 
ATOM     40  C   UNL     1       3.997  10.343   4.919  1.00  0.00     0.031 A 
ATOM     41  C   UNL     1       2.194   9.530   3.588  1.00  0.00     0.131 A 
ATOM     42  C   UNL     1       3.208  11.455   5.256  1.00  0.00     0.055 A 
ATOM     43  C   UNL     1       1.442  10.676   3.865  1.00  0.00     0.041 A 
ATOM     44  F   UNL     1       1.559   8.656   2.801  1.00  0.00    -0.206 F 
ATOM     45  C   UNL     1       1.927  11.625   4.744  1.00  0.00     0.022 A 
BRANCH  42  46
ATOM     46  S   UNL     1       3.815  12.552   6.561  1.00  0.00     0.124 S 
ATOM     47  O   UNL     1       4.004  11.604   7.654  1.00  0.00    -0.237 OA
ATOM     48  O   UNL     1       5.028  13.090   5.956  1.00  0.00    -0.237 OA
ATOM     49  O   UNL     1       2.724  13.507   6.733  1.00  0.00    -0.744 OA
ENDBRANCH  42  46
ENDBRANCH  25  39
BRANCH  26  50
ATOM     50  C   UNL     1      -1.764   4.994   9.058  1.00  0.00     0.023 A 
ATOM     51  C   UNL     1      -2.207   5.675  10.220  1.00  0.00     0.031 A 
ATOM     52  C   UNL     1      -2.775   4.548   8.177  1.00  0.00     0.131 A 
ATOM     53  C   UNL     1      -3.594   5.876  10.453  1.00  0.00     0.055 A 
ATOM     54  C   UNL     1      -4.138   4.747   8.412  1.00  0.00     0.041 A 
ATOM     55  F   UNL     1      -2.473   3.978   7.000  1.00  0.00    -0.206 F 
ATOM     56  C   UNL     1      -4.553   5.421   9.546  1.00  0.00     0.022 A 
BRANCH  53  57
ATOM     57  S   UNL     1      -4.190   6.817  11.903  1.00  0.00     0.124 S 
ATOM     58  O   UNL     1      -3.877   5.925  13.007  1.00  0.00    -0.237 OA
ATOM     59  O   UNL     1      -3.410   8.052  11.819  1.00  0.00    -0.237 OA
ATOM     60  O   UNL     1      -5.620   6.987  11.636  1.00  0.00    -0.744 OA
ENDBRANCH  53  57
ENDBRANCH  26  50
BRANCH  38  61
ATOM     61  C   UNL     1       4.545   5.324   9.540  1.00  0.00     0.023 A 
ATOM     62  C   UNL     1       4.037   4.021   9.748  1.00  0.00     0.031 A 
ATOM     63  C   UNL     1       5.736   5.671  10.205  1.00  0.00     0.131 A 
ATOM     64  C   UNL     1       4.708   3.133  10.612  1.00  0.00     0.055 A 
ATOM     65  C   UNL     1       6.409   4.782  11.040  1.00  0.00     0.041 A 
ATOM     66  F   UNL     1       6.287   6.884  10.030  1.00  0.00    -0.206 F 
ATOM     67  C   UNL     1       5.892   3.511  11.254  1.00  0.00     0.022 A 
BRANCH  64  68
ATOM     68  S   UNL     1       4.040   1.471  10.945  1.00  0.00     0.124 S 
ATOM     69  O   UNL     1       2.620   1.708  11.172  1.00  0.00    -0.237 OA
ATOM     70  O   UNL     1       4.379   0.746   9.723  1.00  0.00    -0.237 OA
ATOM     71  O   UNL     1       4.783   1.038  12.131  1.00  0.00    -0.744 OA
ENDBRANCH  64  68
ENDBRANCH  38  61
ENDBRANCH  12  13
ENDBRANCH   5   7
ENDBRANCH   2   3
ENDBRANCH   1   2
BRANCH   1  72
ATOM     72  C   UNL     1       5.002  -2.869   1.725  1.00  0.00     0.023 C 
BRANCH  72  73
ATOM     73  C   UNL     1       5.436  -3.871   0.665  1.00  0.00     0.116 C 
BRANCH  73  74
ATOM     74  N   UNL     1       6.783  -4.377   0.722  1.00  0.00    -0.351 N 
ATOM     75  C   UNL     1       7.363  -5.614   0.498  1.00  0.00     0.273 C 
ATOM     76  H   UNL     1       7.439  -3.688   0.977  1.00  0.00     0.163 HD
ATOM     77  O   UNL     1       8.593  -5.602   0.626  1.00  0.00    -0.267 OA
BRANCH  75  78
ATOM     78  C   UNL     1       6.688  -6.891   0.141  1.00  0.00     0.178 A 
ATOM     79  N   UNL     1       7.444  -8.051   0.284  1.00  0.00    -0.124 NA
ATOM     80  C   UNL     1       5.415  -7.293  -0.283  1.00  0.00     0.122 A 
ATOM     81  N   UNL     1       6.703  -9.109   0.003  1.00  0.00    -0.061 NA
ATOM     82  N   UNL     1       5.517  -8.669  -0.439  1.00  0.00    -0.213 N 
BRANCH  80  83
ATOM     83  C   UNL     1       4.108  -6.572  -0.307  1.00  0.00     0.262 C 
ATOM     84  C   UNL     1       3.504  -6.591   1.117  1.00  0.00     0.281 C 
ATOM     85  O   UNL     1       3.218  -7.001  -1.343  1.00  0.00    -0.477 OA
ATOM     86  O   UNL     1       2.776  -7.794   1.359  1.00  0.00    -0.485 OA
ATOM     87  C   UNL     1       1.983  -7.372  -0.879  1.00  0.00     0.162 A 
ATOM     88  C   UNL     1       1.784  -7.848   0.420  1.00  0.00     0.161 A 
ATOM     89  C   UNL     1       0.921  -7.340  -1.772  1.00  0.00     0.050 A 
ATOM     90  C   UNL     1       0.570  -8.400   0.801  1.00  0.00     0.050 A 
ATOM     91  C   UNL     1      -0.323  -7.834  -1.374  1.00  0.00     0.004 A 
ATOM     92  C   UNL     1      -0.488  -8.392  -0.102  1.00  0.00     0.004 A 
ENDBRANCH  80  83
BRANCH  82  93
ATOM     93  C   UNL     1       4.598  -9.563  -1.020  1.00  0.00     0.067 A 
ATOM     94  C   UNL     1       3.847 -10.411  -0.203  1.00  0.00     0.028 A 
ATOM     95  C   UNL     1       4.330  -9.454  -2.390  1.00  0.00     0.041 A 
ATOM     96  C   UNL     1       2.743 -11.069  -0.749  1.00  0.00     0.003 A 
ATOM     97  C   UNL     1       3.241 -10.138  -2.947  1.00  0.00     0.058 A 
ATOM     98  C   UNL     1       2.431 -10.919  -2.105  1.00  0.00     0.013 A 
BRANCH  97  99
ATOM     99  C   UNL     1       2.897  -9.974  -4.404  1.00  0.00     0.416 C 
ATOM    100  F   UNL     1       2.634 -11.162  -5.018  1.00  0.00    -0.166 F 
ATOM    101  F   UNL     1       1.794  -9.200  -4.602  1.00  0.00    -0.166 F 
ATOM    102  F   UNL     1       3.892  -9.396  -5.135  1.00  0.00    -0.166 F 
ENDBRANCH  97  99
ENDBRANCH  82  93
ENDBRANCH  75  78
ENDBRANCH  73  74
ENDBRANCH  72  73
ENDBRANCH   1  72
TORSDOF 17
