REMARK SMILES O=C(NCCCCNC(=O)c1sccc1S(=O)(=O)Nc1ccc(Cn2cncn2)cc1)c1ccc(-c2c3nc(c(-c4cc(S(=O)(=O)[O-])ccc4F)c4ccc([nH]4)c(-c4cc(S(=O)(=O)[O-])ccc4F)c4nc(c(-c5cc(S(=O)(=O)[O-])ccc5F)c5ccc2[nH]5)C=C4)C=C3)cc1
REMARK SMILES IDX 6 1 5 2 4 3 3 4 1 5 2 6 32 8 33 9 94 10 34 11 93 12 35 13
REMARK SMILES IDX 36 14 37 15 87 16 38 17 92 18 86 19 88 20 39 21 91 22 85 23
REMARK SMILES IDX 84 24 40 26 72 27 52 28 71 29 53 30 56 31 70 32 89 33 54 34
REMARK SMILES IDX 55 35 69 37 90 38 57 39 41 40 42 41 50 42 43 43 49 44 51 45
REMARK SMILES IDX 48 46 44 47 45 48 46 49 47 50 73 51 74 52 82 53 75 54 81 55
REMARK SMILES IDX 83 56 80 57 76 58 77 59 78 60 79 61 58 62 59 63 67 64 60 65
REMARK SMILES IDX 66 66 68 67 65 68 61 69 62 70 63 71 64 72 7 73 8 74 9 75
REMARK SMILES IDX 10 77 11 78 12 79 15 80 13 81 14 82 16 83 17 84 18 85 19 86
REMARK SMILES IDX 20 88 21 89 31 90 22 91 30 92 23 93 24 94 25 95 26 96 29 97
REMARK SMILES IDX 27 98 28 99
REMARK H PARENT 3 7 88 25 56 36 8 76 19 87
REMARK Flexibility Score: inf
ROOT
ATOM      1  C   UNL     1       3.768  -1.728   3.305  1.00  0.00     0.023 C 
ENDROOT
BRANCH   1   2
ATOM      2  C   UNL     1       4.437  -0.699   2.387  1.00  0.00     0.023 C 
BRANCH   2   3
ATOM      3  C   UNL     1       4.356  -1.004   0.894  1.00  0.00     0.116 C 
BRANCH   3   4
ATOM      4  N   UNL     1       3.037  -1.139   0.321  1.00  0.00    -0.352 N 
ATOM      5  O   UNL     1       1.110  -0.662  -0.667  1.00  0.00    -0.269 OA
ATOM      6  C   UNL     1       2.054  -0.242   0.004  1.00  0.00     0.251 C 
ATOM      7  H   UNL     1       2.795  -2.071   0.117  1.00  0.00     0.163 HD
BRANCH   6   8
ATOM      8  C   UNL     1       2.029   1.157   0.493  1.00  0.00     0.039 A 
ATOM      9  C   UNL     1       3.159   1.935   0.746  1.00  0.00     0.014 A 
ATOM     10  C   UNL     1       0.755   1.710   0.700  1.00  0.00     0.014 A 
ATOM     11  C   UNL     1       3.021   3.207   1.295  1.00  0.00     0.010 A 
ATOM     12  C   UNL     1       0.613   2.994   1.214  1.00  0.00     0.010 A 
ATOM     13  C   UNL     1       1.749   3.734   1.539  1.00  0.00    -0.014 A 
BRANCH  13  14
ATOM     14  C   UNL     1       1.651   5.131   1.965  1.00  0.00     0.031 A 
ATOM     15  C   UNL     1       2.127   6.138   0.974  1.00  0.00     0.074 A 
ATOM     16  C   UNL     1       1.005   5.549   3.071  1.00  0.00     0.049 A 
ATOM     17  N   UNL     1       3.032   7.050   1.122  1.00  0.00    -0.248 NA
ATOM     18  C   UNL     1       1.569   6.070  -0.386  1.00  0.00     0.031 C 
ATOM     19  C   UNL     1       0.201   4.741   3.988  1.00  0.00     0.029 A 
ATOM     20  N   UNL     1       0.828   6.823   3.533  1.00  0.00    -0.354 N 
ATOM     21  C   UNL     1       3.022   7.804  -0.051  1.00  0.00     0.074 A 
ATOM     22  C   UNL     1       2.210   7.072  -0.987  1.00  0.00     0.031 C 
ATOM     23  C   UNL     1      -0.554   5.562   4.750  1.00  0.00     0.029 A 
ATOM     24  C   UNL     1      -0.200   6.943   4.459  1.00  0.00     0.049 A 
ATOM     25  H   UNL     1       1.377   7.585   3.237  1.00  0.00     0.167 HD
ATOM     26  C   UNL     1       3.533   9.065  -0.105  1.00  0.00     0.034 A 
ATOM     27  C   UNL     1      -0.782   8.087   4.903  1.00  0.00     0.034 A 
ATOM     28  C   UNL     1       4.431   9.322   0.996  1.00  0.00     0.049 A 
ATOM     29  C   UNL     1       0.165   9.201   4.665  1.00  0.00     0.074 A 
ATOM     30  C   UNL     1       5.584   8.724   1.469  1.00  0.00     0.029 A 
ATOM     31  N   UNL     1       4.020  10.163   2.004  1.00  0.00    -0.354 N 
ATOM     32  N   UNL     1       1.306   9.329   5.282  1.00  0.00    -0.248 NA
ATOM     33  C   UNL     1       0.034   9.983   3.444  1.00  0.00     0.031 C 
ATOM     34  C   UNL     1       5.510   8.846   2.887  1.00  0.00     0.029 A 
ATOM     35  C   UNL     1       4.341   9.548   3.187  1.00  0.00     0.049 A 
ATOM     36  H   UNL     1       3.580  11.038   1.897  1.00  0.00     0.167 HD
ATOM     37  C   UNL     1       2.171   9.852   4.335  1.00  0.00     0.074 A 
ATOM     38  C   UNL     1       1.307  10.347   3.269  1.00  0.00     0.031 C 
ATOM     39  C   UNL     1       3.510   9.582   4.373  1.00  0.00     0.034 A 
BRANCH  26  40
ATOM     40  C   UNL     1       2.995  10.186  -0.973  1.00  0.00     0.023 A 
ATOM     41  C   UNL     1       3.656  11.429  -0.910  1.00  0.00     0.031 A 
ATOM     42  C   UNL     1       1.734  10.197  -1.609  1.00  0.00     0.131 A 
ATOM     43  C   UNL     1       3.030  12.608  -1.349  1.00  0.00     0.055 A 
ATOM     44  C   UNL     1       1.150  11.361  -2.120  1.00  0.00     0.041 A 
ATOM     45  F   UNL     1       0.954   9.112  -1.688  1.00  0.00    -0.206 F 
ATOM     46  C   UNL     1       1.780  12.583  -1.960  1.00  0.00     0.022 A 
BRANCH  43  47
ATOM     47  S   UNL     1       3.785  14.195  -0.906  1.00  0.00     0.124 S 
ATOM     48  O   UNL     1       3.975  14.037   0.532  1.00  0.00    -0.237 OA
ATOM     49  O   UNL     1       4.995  14.188  -1.721  1.00  0.00    -0.237 OA
ATOM     50  O   UNL     1       2.773  15.173  -1.299  1.00  0.00    -0.744 OA
ENDBRANCH  43  47
ENDBRANCH  26  40
BRANCH  27  51
ATOM     51  C   UNL     1      -2.207   8.282   5.276  1.00  0.00     0.023 A 
ATOM     52  C   UNL     1      -2.641   9.355   6.078  1.00  0.00     0.031 A 
ATOM     53  C   UNL     1      -3.213   7.510   4.650  1.00  0.00     0.131 A 
ATOM     54  C   UNL     1      -4.023   9.608   6.239  1.00  0.00     0.055 A 
ATOM     55  C   UNL     1      -4.576   7.752   4.827  1.00  0.00     0.041 A 
ATOM     56  F   UNL     1      -2.903   6.541   3.774  1.00  0.00    -0.206 F 
ATOM     57  C   UNL     1      -4.987   8.809   5.620  1.00  0.00     0.022 A 
BRANCH  54  58
ATOM     58  S   UNL     1      -4.586  11.066   7.173  1.00  0.00     0.124 S 
ATOM     59  O   UNL     1      -4.282  10.688   8.549  1.00  0.00    -0.237 OA
ATOM     60  O   UNL     1      -3.779  12.137   6.601  1.00  0.00    -0.237 OA
ATOM     61  O   UNL     1      -6.013  11.142   6.857  1.00  0.00    -0.744 OA
ENDBRANCH  54  58
ENDBRANCH  27  51
BRANCH  39  62
ATOM     62  C   UNL     1       4.108   9.024   5.644  1.00  0.00     0.023 A 
ATOM     63  C   UNL     1       3.677   7.839   6.279  1.00  0.00     0.031 A 
ATOM     64  C   UNL     1       5.252   9.661   6.159  1.00  0.00     0.131 A 
ATOM     65  C   UNL     1       4.376   7.343   7.395  1.00  0.00     0.055 A 
ATOM     66  C   UNL     1       5.953   9.157   7.254  1.00  0.00     0.041 A 
ATOM     67  F   UNL     1       5.734  10.772   5.577  1.00  0.00    -0.206 F 
ATOM     68  C   UNL     1       5.512   7.998   7.882  1.00  0.00     0.022 A 
BRANCH  65  69
ATOM     69  S   UNL     1       3.814   5.829   8.236  1.00  0.00     0.124 S 
ATOM     70  O   UNL     1       2.381   6.041   8.404  1.00  0.00    -0.237 OA
ATOM     71  O   UNL     1       4.200   4.782   7.293  1.00  0.00    -0.237 OA
ATOM     72  O   UNL     1       4.580   5.830   9.484  1.00  0.00    -0.744 OA
ENDBRANCH  65  69
ENDBRANCH  39  62
ENDBRANCH  13  14
ENDBRANCH   6   8
ENDBRANCH   3   4
ENDBRANCH   2   3
ENDBRANCH   1   2
BRANCH   1  73
ATOM     73  C   UNL     1       4.304  -3.153   3.190  1.00  0.00     0.116 C 
BRANCH  73  74
ATOM     74  N   UNL     1       5.694  -3.239   3.584  1.00  0.00    -0.351 N 
ATOM     75  C   UNL     1       6.404  -4.326   4.016  1.00  0.00     0.262 C 
ATOM     76  H   UNL     1       6.200  -2.396   3.535  1.00  0.00     0.163 HD
ATOM     77  O   UNL     1       7.512  -4.108   4.510  1.00  0.00    -0.268 OA
BRANCH  75  78
ATOM     78  C   UNL     1       5.812  -5.643   3.963  1.00  0.00     0.112 A 
ATOM     79  S   UNL     1       5.760  -6.460   5.490  1.00  0.00    -0.137 S 
ATOM     80  C   UNL     1       5.319  -6.453   2.954  1.00  0.00     0.111 A 
ATOM     81  C   UNL     1       4.995  -7.826   4.832  1.00  0.00     0.067 A 
ATOM     82  C   UNL     1       4.806  -7.694   3.479  1.00  0.00     0.035 A 
BRANCH  80  83
ATOM     83  S   UNL     1       5.262  -6.212   1.234  1.00  0.00     0.263 S 
ATOM     84  O   UNL     1       5.909  -7.394   0.717  1.00  0.00    -0.201 OA
ATOM     85  O   UNL     1       3.845  -5.988   1.000  1.00  0.00    -0.201 OA
BRANCH  83  86
ATOM     86  N   UNL     1       6.016  -4.888   0.594  1.00  0.00    -0.280 N 
ATOM     87  H   UNL     1       5.515  -4.375  -0.081  1.00  0.00     0.180 HD
BRANCH  86  88
ATOM     88  C   UNL     1       7.306  -4.420   0.920  1.00  0.00     0.049 A 
ATOM     89  C   UNL     1       7.511  -3.051   0.754  1.00  0.00     0.027 A 
ATOM     90  C   UNL     1       8.293  -5.199   1.509  1.00  0.00     0.027 A 
ATOM     91  C   UNL     1       8.560  -2.417   1.405  1.00  0.00     0.008 A 
ATOM     92  C   UNL     1       9.376  -4.569   2.130  1.00  0.00     0.008 A 
ATOM     93  C   UNL     1       9.468  -3.167   2.158  1.00  0.00    -0.026 A 
BRANCH  93  94
ATOM     94  C   UNL     1      10.439  -2.481   3.088  1.00  0.00     0.181 C 
BRANCH  94  95
ATOM     95  N   UNL     1      11.368  -1.631   2.374  1.00  0.00    -0.249 N 
ATOM     96  C   UNL     1      11.236  -0.305   2.094  1.00  0.00     0.220 A 
ATOM     97  N   UNL     1      12.544  -2.108   1.916  1.00  0.00    -0.160 NA
ATOM     98  N   UNL     1      12.285   0.106   1.421  1.00  0.00    -0.224 NA
ATOM     99  C   UNL     1      13.056  -1.017   1.340  1.00  0.00     0.246 A 
ENDBRANCH  94  95
ENDBRANCH  93  94
ENDBRANCH  86  88
ENDBRANCH  83  86
ENDBRANCH  80  83
ENDBRANCH  75  78
ENDBRANCH  73  74
ENDBRANCH   1  73
TORSDOF 19
