REMARK SMILES CCc1nnsc1C(=O)NC[C@@H](CC(C)C)C(=O)NCCCCNC(=O)c1ccc(-c2c3nc(c(-c4cc(S(=O)(=O)[O-])ccc4F)c4ccc([nH]4)c(-c4cc(S(=O)(=O)[O-])ccc4F)c4nc(c(-c5cc(S(=O)(=O)[O-])ccc5F)c5ccc2[nH]5)C=C4)C=C3)cc1
REMARK SMILES IDX 21 1 20 2 19 3 17 4 18 5 12 7 11 8 10 9 8 10 9 11 7 13 3 14
REMARK SMILES IDX 4 15 5 16 6 17 2 18 1 19 13 20 14 21 15 22 16 23 22 24 23 25
REMARK SMILES IDX 24 26 25 27 26 29 27 30 28 31 89 32 29 33 88 34 30 35 31 36
REMARK SMILES IDX 32 37 82 38 33 39 87 40 81 41 83 42 34 43 86 44 80 45 79 46
REMARK SMILES IDX 35 48 67 49 47 50 66 51 48 52 51 53 65 54 84 55 49 56 50 57
REMARK SMILES IDX 64 59 85 60 52 61 36 62 37 63 45 64 38 65 44 66 46 67 43 68
REMARK SMILES IDX 39 69 40 70 41 71 42 72 68 73 69 74 77 75 70 76 76 77 78 78
REMARK SMILES IDX 75 79 71 80 72 81 73 82 74 83 53 84 54 85 62 86 55 87 61 88
REMARK SMILES IDX 63 89 60 90 56 91 57 92 58 93 59 94
REMARK H PARENT 19 6 10 12 24 28 83 47 51 58
REMARK Flexibility Score: inf
ROOT
ATOM      1  C   UNL     1      -2.536  -0.782   1.528  1.00  0.00     0.023 C 
ENDROOT
BRANCH   1   2
ATOM      2  C   UNL     1      -1.852   0.191   2.478  1.00  0.00     0.116 C 
BRANCH   2   3
ATOM      3  N   UNL     1      -0.419  -0.015   2.557  1.00  0.00    -0.356 N 
ATOM      4  C   UNL     1       0.600   0.847   2.804  1.00  0.00     0.224 C 
ATOM      5  O   UNL     1       1.711   0.350   3.014  1.00  0.00    -0.275 OA
ATOM      6  H   UNL     1      -0.135  -0.944   2.403  1.00  0.00     0.163 HD
BRANCH   4   7
ATOM      7  C   UNL     1       0.439   2.362   2.831  1.00  0.00     0.098 C 
BRANCH   7   8
ATOM      8  C   UNL     1      -0.450   2.945   1.719  1.00  0.00     0.129 C 
BRANCH   8   9
ATOM      9  N   UNL     1       0.132   4.114   1.086  1.00  0.00    -0.350 N 
ATOM     10  C   UNL     1       0.629   4.398  -0.162  1.00  0.00     0.264 C 
ATOM     11  O   UNL     1       0.822   5.613  -0.311  1.00  0.00    -0.268 OA
ATOM     12  H   UNL     1       0.181   4.886   1.695  1.00  0.00     0.163 HD
BRANCH  10  13
ATOM     13  C   UNL     1       0.906   3.444  -1.225  1.00  0.00     0.136 A 
ATOM     14  C   UNL     1       1.055   2.067  -1.427  1.00  0.00     0.088 A 
ATOM     15  N   UNL     1       1.381   1.697  -2.736  1.00  0.00    -0.142 NA
ATOM     16  N   UNL     1       1.516   2.727  -3.539  1.00  0.00    -0.090 NA
ATOM     17  S   UNL     1       1.238   4.170  -2.779  1.00  0.00    -0.006 S 
BRANCH  14  18
ATOM     18  C   UNL     1       0.935   0.938  -0.461  1.00  0.00     0.056 C 
ATOM     19  C   UNL     1       1.506  -0.400  -0.911  1.00  0.00     0.011 C 
ENDBRANCH  14  18
ENDBRANCH  10  13
ENDBRANCH   8   9
ENDBRANCH   7   8
BRANCH   7  20
ATOM     20  C   UNL     1       0.151   2.917   4.249  1.00  0.00     0.018 C 
BRANCH  20  21
ATOM     21  C   UNL     1      -1.102   2.386   4.976  1.00  0.00    -0.017 C 
ATOM     22  C   UNL     1      -0.809   1.119   5.791  1.00  0.00     0.007 C 
ATOM     23  C   UNL     1      -1.672   3.443   5.928  1.00  0.00     0.007 C 
ENDBRANCH  20  21
ENDBRANCH   7  20
ENDBRANCH   4   7
ENDBRANCH   2   3
ENDBRANCH   1   2
BRANCH   1  24
ATOM     24  C   UNL     1      -2.553  -2.233   2.008  1.00  0.00     0.023 C 
BRANCH  24  25
ATOM     25  C   UNL     1      -3.006  -2.439   3.451  1.00  0.00     0.116 C 
BRANCH  25  26
ATOM     26  N   UNL     1      -4.291  -1.820   3.742  1.00  0.00    -0.352 N 
ATOM     27  C   UNL     1      -5.441  -2.378   4.252  1.00  0.00     0.251 C 
ATOM     28  H   UNL     1      -4.346  -0.858   3.543  1.00  0.00     0.163 HD
ATOM     29  O   UNL     1      -6.464  -1.713   4.310  1.00  0.00    -0.269 OA
BRANCH  27  30
ATOM     30  C   UNL     1      -5.431  -3.792   4.681  1.00  0.00     0.039 A 
ATOM     31  C   UNL     1      -6.443  -4.639   4.225  1.00  0.00     0.014 A 
ATOM     32  C   UNL     1      -4.402  -4.288   5.484  1.00  0.00     0.014 A 
ATOM     33  C   UNL     1      -6.370  -6.006   4.500  1.00  0.00     0.010 A 
ATOM     34  C   UNL     1      -4.285  -5.660   5.682  1.00  0.00     0.010 A 
ATOM     35  C   UNL     1      -5.263  -6.535   5.186  1.00  0.00    -0.014 A 
BRANCH  35  36
ATOM     36  C   UNL     1      -5.107  -8.002   5.371  1.00  0.00     0.031 A 
ATOM     37  C   UNL     1      -5.081  -8.593   6.754  1.00  0.00     0.074 A 
ATOM     38  C   UNL     1      -4.924  -8.791   4.294  1.00  0.00     0.049 A 
ATOM     39  N   UNL     1      -4.911  -9.838   7.117  1.00  0.00    -0.248 NA
ATOM     40  C   UNL     1      -5.233  -7.655   7.875  1.00  0.00     0.031 C 
ATOM     41  C   UNL     1      -4.870  -8.326   2.905  1.00  0.00     0.029 A 
ATOM     42  N   UNL     1      -4.745 -10.148   4.193  1.00  0.00    -0.354 N 
ATOM     43  C   UNL     1      -4.924  -9.832   8.508  1.00  0.00     0.074 A 
ATOM     44  C   UNL     1      -5.046  -8.449   8.918  1.00  0.00     0.031 C 
ATOM     45  C   UNL     1      -4.709  -9.382   2.093  1.00  0.00     0.029 A 
ATOM     46  C   UNL     1      -4.602 -10.594   2.899  1.00  0.00     0.049 A 
ATOM     47  H   UNL     1      -4.721 -10.746   4.974  1.00  0.00     0.167 HD
ATOM     48  C   UNL     1      -4.867 -10.884   9.363  1.00  0.00     0.034 A 
ATOM     49  C   UNL     1      -4.403 -11.836   2.417  1.00  0.00     0.034 A 
ATOM     50  C   UNL     1      -4.755 -12.258   8.936  1.00  0.00     0.049 A 
ATOM     51  C   UNL     1      -4.330 -12.989   3.385  1.00  0.00     0.074 A 
ATOM     52  C   UNL     1      -4.752 -13.405   9.710  1.00  0.00     0.029 A 
ATOM     53  N   UNL     1      -4.614 -12.673   7.617  1.00  0.00    -0.354 N 
ATOM     54  N   UNL     1      -4.410 -12.974   4.696  1.00  0.00    -0.248 NA
ATOM     55  C   UNL     1      -4.152 -14.327   2.807  1.00  0.00     0.031 C 
ATOM     56  C   UNL     1      -4.539 -14.503   8.870  1.00  0.00     0.029 A 
ATOM     57  C   UNL     1      -4.490 -14.053   7.560  1.00  0.00     0.049 A 
ATOM     58  H   UNL     1      -4.604 -12.073   6.835  1.00  0.00     0.167 HD
ATOM     59  C   UNL     1      -4.325 -14.305   5.095  1.00  0.00     0.074 A 
ATOM     60  C   UNL     1      -4.201 -15.093   3.886  1.00  0.00     0.031 C 
ATOM     61  C   UNL     1      -4.353 -14.828   6.348  1.00  0.00     0.034 A 
BRANCH  48  62
ATOM     62  C   UNL     1      -4.902 -10.576  10.842  1.00  0.00     0.023 A 
ATOM     63  C   UNL     1      -6.002  -9.933  11.437  1.00  0.00     0.031 A 
ATOM     64  C   UNL     1      -3.806 -10.894  11.664  1.00  0.00     0.131 A 
ATOM     65  C   UNL     1      -5.946  -9.548  12.785  1.00  0.00     0.055 A 
ATOM     66  C   UNL     1      -3.795 -10.589  13.027  1.00  0.00     0.041 A 
ATOM     67  F   UNL     1      -2.717 -11.489  11.153  1.00  0.00    -0.206 F 
ATOM     68  C   UNL     1      -4.861  -9.896  13.592  1.00  0.00     0.022 A 
BRANCH  65  69
ATOM     69  S   UNL     1      -7.238  -8.446  13.423  1.00  0.00     0.124 S 
ATOM     70  O   UNL     1      -7.119  -7.301  12.523  1.00  0.00    -0.237 OA
ATOM     71  O   UNL     1      -8.443  -9.253  13.274  1.00  0.00    -0.237 OA
ATOM     72  O   UNL     1      -6.822  -8.191  14.800  1.00  0.00    -0.744 OA
ENDBRANCH  65  69
ENDBRANCH  48  62
BRANCH  49  73
ATOM     73  C   UNL     1      -4.265 -12.062   0.950  1.00  0.00     0.023 A 
ATOM     74  C   UNL     1      -5.223 -12.804   0.240  1.00  0.00     0.031 A 
ATOM     75  C   UNL     1      -3.158 -11.565   0.240  1.00  0.00     0.131 A 
ATOM     76  C   UNL     1      -5.034 -13.065  -1.126  1.00  0.00     0.055 A 
ATOM     77  C   UNL     1      -3.000 -11.784  -1.129  1.00  0.00     0.041 A 
ATOM     78  F   UNL     1      -2.217 -10.842   0.870  1.00  0.00    -0.206 F 
ATOM     79  C   UNL     1      -3.936 -12.549  -1.818  1.00  0.00     0.022 A 
BRANCH  76  80
ATOM     80  S   UNL     1      -6.211 -14.155  -1.973  1.00  0.00     0.124 S 
ATOM     81  O   UNL     1      -6.093 -15.382  -1.193  1.00  0.00    -0.237 OA
ATOM     82  O   UNL     1      -7.462 -13.419  -1.828  1.00  0.00    -0.237 OA
ATOM     83  O   UNL     1      -5.687 -14.227  -3.335  1.00  0.00    -0.744 OA
ENDBRANCH  76  80
ENDBRANCH  49  73
BRANCH  61  84
ATOM     84  C   UNL     1      -4.293 -16.332   6.464  1.00  0.00     0.023 A 
ATOM     85  C   UNL     1      -3.148 -17.059   6.093  1.00  0.00     0.031 A 
ATOM     86  C   UNL     1      -5.406 -17.048   6.938  1.00  0.00     0.131 A 
ATOM     87  C   UNL     1      -3.163 -18.462   6.148  1.00  0.00     0.055 A 
ATOM     88  C   UNL     1      -5.393 -18.439   7.050  1.00  0.00     0.041 A 
ATOM     89  F   UNL     1      -6.527 -16.405   7.303  1.00  0.00    -0.206 F 
ATOM     90  C   UNL     1      -4.272 -19.155   6.640  1.00  0.00     0.022 A 
BRANCH  87  91
ATOM     91  S   UNL     1      -1.748 -19.375   5.475  1.00  0.00     0.124 S 
ATOM     92  O   UNL     1      -1.710 -18.902   4.095  1.00  0.00    -0.237 OA
ATOM     93  O   UNL     1      -0.654 -18.931   6.332  1.00  0.00    -0.237 OA
ATOM     94  O   UNL     1      -2.134 -20.776   5.640  1.00  0.00    -0.744 OA
ENDBRANCH  87  91
ENDBRANCH  61  84
ENDBRANCH  35  36
ENDBRANCH  27  30
ENDBRANCH  25  26
ENDBRANCH  24  25
ENDBRANCH   1  24
TORSDOF 20
