REMARK SMILES COC(=O)C[C@H](c1ccc(C(=O)NCCCCNC(=O)c2ccc(-c3c4nc(c(-c5cc(S(=O)(=O)[O-])ccc5F)c5ccc([nH]5)c(-c5cc(S(=O)(=O)[O-])ccc5F)c5nc(c(-c6cc(S(=O)(=O)[O-])ccc6F)c6ccc3[nH]6)C=C5)C=C4)cc2)cc1)c1c(O)n[nH]c1C
REMARK SMILES IDX 15 1 14 2 13 3 11 4 12 5 10 7 7 8 8 9 85 10 9 11 84 12 6 13
REMARK SMILES IDX 5 14 3 15 4 16 2 17 1 18 86 19 87 20 91 21 89 22 90 23 92 24
REMARK SMILES IDX 88 26 16 28 17 29 18 30 19 31 20 33 21 34 22 35 83 36 23 37
REMARK SMILES IDX 82 38 24 39 25 40 26 41 76 42 27 43 81 44 75 45 77 46 28 47
REMARK SMILES IDX 80 48 74 49 73 50 29 52 61 53 41 54 60 55 42 56 45 57 59 58
REMARK SMILES IDX 78 59 43 60 44 61 58 63 79 64 46 65 30 66 31 67 39 68 32 69
REMARK SMILES IDX 38 70 40 71 37 72 33 73 34 74 35 75 36 76 62 77 63 78 71 79
REMARK SMILES IDX 64 80 70 81 72 82 69 83 65 84 66 85 67 86 68 87 47 88 48 89
REMARK SMILES IDX 56 90 49 91 55 92 57 93 54 94 50 95 51 96 52 97 53 98
REMARK H PARENT 13 6 90 25 88 27 18 32 77 51 45 62
REMARK Flexibility Score: inf
ROOT
ATOM      1  C   UNL     1       1.213   0.883  -7.129  1.00  0.00     0.023 C 
ENDROOT
BRANCH   1   2
ATOM      2  C   UNL     1       0.479   1.403  -5.891  1.00  0.00     0.116 C 
BRANCH   2   3
ATOM      3  N   UNL     1      -0.907   0.982  -5.900  1.00  0.00    -0.352 N 
ATOM      4  C   UNL     1      -1.552  -0.013  -5.212  1.00  0.00     0.251 C 
ATOM      5  O   UNL     1      -2.770  -0.124  -5.353  1.00  0.00    -0.269 OA
ATOM      6  H   UNL     1      -1.486   1.499  -6.506  1.00  0.00     0.163 HD
BRANCH   4   7
ATOM      7  C   UNL     1      -0.850  -0.950  -4.294  1.00  0.00     0.039 A 
ATOM      8  C   UNL     1       0.239  -2.945  -2.604  1.00  0.00    -0.040 A 
ATOM      9  C   UNL     1      -1.046  -2.429  -2.372  1.00  0.00     0.005 A 
ATOM     10  C   UNL     1       0.987  -2.407  -3.663  1.00  0.00     0.005 A 
ATOM     11  C   UNL     1      -1.582  -1.446  -3.209  1.00  0.00     0.014 A 
ATOM     12  C   UNL     1       0.437  -1.444  -4.514  1.00  0.00     0.014 A 
BRANCH   8  13
ATOM     13  C   UNL     1       0.819  -4.107  -1.812  1.00  0.00     0.068 C 
BRANCH  13  14
ATOM     14  C   UNL     1       0.469  -4.104  -0.318  1.00  0.00     0.136 C 
BRANCH  14  15
ATOM     15  C   UNL     1       1.159  -2.972   0.398  1.00  0.00     0.306 C 
ATOM     16  O   UNL     1       0.578  -2.040   0.935  1.00  0.00    -0.252 OA
BRANCH  15  17
ATOM     17  O   UNL     1       2.508  -3.166   0.408  1.00  0.00    -0.469 OA
ATOM     18  C   UNL     1       3.245  -2.157   1.101  1.00  0.00     0.282 C 
ENDBRANCH  15  17
ENDBRANCH  14  15
ENDBRANCH  13  14
BRANCH  13  19
ATOM     19  C   UNL     1       0.429  -5.399  -2.513  1.00  0.00     0.044 A 
ATOM     20  C   UNL     1       0.924  -6.666  -2.137  1.00  0.00     0.234 A 
ATOM     21  C   UNL     1      -0.352  -5.723  -3.625  1.00  0.00     0.040 A 
ATOM     22  N   UNL     1       0.510  -7.688  -2.863  1.00  0.00    -0.137 NA
ATOM     23  N   UNL     1      -0.272  -7.087  -3.771  1.00  0.00    -0.279 N 
ATOM     24  C   UNL     1      -1.154  -4.943  -4.605  1.00  0.00     0.066 C 
ATOM     25  H   UNL     1      -0.746  -7.580  -4.479  1.00  0.00     0.190 HD
BRANCH  20  26
ATOM     26  O   UNL     1       1.761  -6.991  -1.157  1.00  0.00    -0.492 OA
ATOM     27  H   UNL     1       2.104  -6.326  -0.593  1.00  0.00     0.295 HD
ENDBRANCH  20  26
ENDBRANCH  13  19
ENDBRANCH   8  13
ENDBRANCH   4   7
ENDBRANCH   2   3
ENDBRANCH   1   2
BRANCH   1  28
ATOM     28  C   UNL     1       0.900   1.647  -8.419  1.00  0.00     0.023 C 
BRANCH  28  29
ATOM     29  C   UNL     1       1.257   3.128  -8.391  1.00  0.00     0.116 C 
BRANCH  29  30
ATOM     30  N   UNL     1       2.652   3.373  -8.065  1.00  0.00    -0.352 N 
ATOM     31  C   UNL     1       3.445   4.428  -8.456  1.00  0.00     0.251 C 
ATOM     32  H   UNL     1       3.084   2.700  -7.491  1.00  0.00     0.163 HD
ATOM     33  O   UNL     1       4.637   4.432  -8.192  1.00  0.00    -0.269 OA
BRANCH  31  34
ATOM     34  C   UNL     1       2.836   5.523  -9.241  1.00  0.00     0.039 A 
ATOM     35  C   UNL     1       3.442   5.908 -10.438  1.00  0.00     0.014 A 
ATOM     36  C   UNL     1       1.650   6.129  -8.818  1.00  0.00     0.014 A 
ATOM     37  C   UNL     1       2.820   6.859 -11.248  1.00  0.00     0.010 A 
ATOM     38  C   UNL     1       0.999   7.027  -9.658  1.00  0.00     0.010 A 
ATOM     39  C   UNL     1       1.576   7.399 -10.882  1.00  0.00    -0.014 A 
BRANCH  39  40
ATOM     40  C   UNL     1       0.864   8.356 -11.765  1.00  0.00     0.031 A 
ATOM     41  C   UNL     1       0.636   9.770 -11.308  1.00  0.00     0.074 A 
ATOM     42  C   UNL     1       0.365   7.931 -12.942  1.00  0.00     0.049 A 
ATOM     43  N   UNL     1      -0.029  10.732 -11.893  1.00  0.00    -0.248 NA
ATOM     44  C   UNL     1       1.207  10.138 -10.003  1.00  0.00     0.031 C 
ATOM     45  C   UNL     1       0.484   6.568 -13.468  1.00  0.00     0.029 A 
ATOM     46  N   UNL     1      -0.351   8.595 -13.905  1.00  0.00    -0.354 N 
ATOM     47  C   UNL     1       0.031  11.816 -11.023  1.00  0.00     0.074 A 
ATOM     48  C   UNL     1       0.744  11.368  -9.845  1.00  0.00     0.031 C 
ATOM     49  C   UNL     1      -0.120   6.505 -14.665  1.00  0.00     0.029 A 
ATOM     50  C   UNL     1      -0.704   7.806 -14.975  1.00  0.00     0.049 A 
ATOM     51  H   UNL     1      -0.591   9.547 -13.836  1.00  0.00     0.167 HD
ATOM     52  C   UNL     1      -0.446  13.073 -11.201  1.00  0.00     0.034 A 
ATOM     53  C   UNL     1      -1.426   8.096 -16.076  1.00  0.00     0.034 A 
ATOM     54  C   UNL     1      -1.143  13.503 -12.389  1.00  0.00     0.049 A 
ATOM     55  C   UNL     1      -1.954   9.498 -16.248  1.00  0.00     0.074 A 
ATOM     56  C   UNL     1      -1.619  14.764 -12.701  1.00  0.00     0.029 A 
ATOM     57  N   UNL     1      -1.471  12.680 -13.460  1.00  0.00    -0.354 N 
ATOM     58  N   UNL     1      -1.843  10.527 -15.441  1.00  0.00    -0.248 NA
ATOM     59  C   UNL     1      -2.692   9.779 -17.486  1.00  0.00     0.031 C 
ATOM     60  C   UNL     1      -2.286  14.691 -13.930  1.00  0.00     0.029 A 
ATOM     61  C   UNL     1      -2.165  13.400 -14.420  1.00  0.00     0.049 A 
ATOM     62  H   UNL     1      -1.243  11.725 -13.527  1.00  0.00     0.167 HD
ATOM     63  C   UNL     1      -2.473  11.586 -16.088  1.00  0.00     0.074 A 
ATOM     64  C   UNL     1      -2.947  11.072 -17.357  1.00  0.00     0.031 C 
ATOM     65  C   UNL     1      -2.640  12.868 -15.676  1.00  0.00     0.034 A 
BRANCH  52  66
ATOM     66  C   UNL     1      -0.245  14.056 -10.072  1.00  0.00     0.023 A 
ATOM     67  C   UNL     1       1.040  14.443  -9.651  1.00  0.00     0.031 A 
ATOM     68  C   UNL     1      -1.350  14.586  -9.383  1.00  0.00     0.131 A 
ATOM     69  C   UNL     1       1.190  15.266  -8.525  1.00  0.00     0.055 A 
ATOM     70  C   UNL     1      -1.195  15.472  -8.315  1.00  0.00     0.041 A 
ATOM     71  F   UNL     1      -2.600  14.239  -9.726  1.00  0.00    -0.206 F 
ATOM     72  C   UNL     1       0.082  15.804  -7.869  1.00  0.00     0.022 A 
BRANCH  69  73
ATOM     73  S   UNL     1       2.854  15.501  -7.843  1.00  0.00     0.124 S 
ATOM     74  O   UNL     1       3.242  14.127  -7.533  1.00  0.00    -0.237 OA
ATOM     75  O   UNL     1       3.564  16.131  -8.950  1.00  0.00    -0.237 OA
ATOM     76  O   UNL     1       2.630  16.355  -6.678  1.00  0.00    -0.744 OA
ENDBRANCH  69  73
ENDBRANCH  52  66
BRANCH  53  77
ATOM     77  C   UNL     1      -1.700   7.047 -17.099  1.00  0.00     0.023 A 
ATOM     78  C   UNL     1      -1.172   7.148 -18.395  1.00  0.00     0.031 A 
ATOM     79  C   UNL     1      -2.525   5.948 -16.805  1.00  0.00     0.131 A 
ATOM     80  C   UNL     1      -1.513   6.192 -19.365  1.00  0.00     0.055 A 
ATOM     81  C   UNL     1      -2.822   4.973 -17.759  1.00  0.00     0.041 A 
ATOM     82  F   UNL     1      -3.049   5.800 -15.578  1.00  0.00    -0.206 F 
ATOM     83  C   UNL     1      -2.325   5.099 -19.053  1.00  0.00     0.022 A 
BRANCH  80  84
ATOM     84  S   UNL     1      -0.941   6.442 -21.068  1.00  0.00     0.124 S 
ATOM     85  O   UNL     1      -1.510   7.747 -21.384  1.00  0.00    -0.237 OA
ATOM     86  O   UNL     1       0.508   6.395 -20.911  1.00  0.00    -0.237 OA
ATOM     87  O   UNL     1      -1.525   5.314 -21.792  1.00  0.00    -0.744 OA
ENDBRANCH  80  84
ENDBRANCH  53  77
BRANCH  65  88
ATOM     88  C   UNL     1      -3.329  13.809 -16.633  1.00  0.00     0.023 A 
ATOM     89  C   UNL     1      -4.689  13.669 -16.959  1.00  0.00     0.031 A 
ATOM     90  C   UNL     1      -2.606  14.853 -17.237  1.00  0.00     0.131 A 
ATOM     91  C   UNL     1      -5.271  14.526 -17.905  1.00  0.00     0.055 A 
ATOM     92  C   UNL     1      -3.205  15.739 -18.133  1.00  0.00     0.041 A 
ATOM     93  F   UNL     1      -1.303  15.031 -16.962  1.00  0.00    -0.206 F 
ATOM     94  C   UNL     1      -4.542  15.570 -18.482  1.00  0.00     0.022 A 
BRANCH  91  95
ATOM     95  S   UNL     1      -6.975  14.206 -18.439  1.00  0.00     0.124 S 
ATOM     96  O   UNL     1      -6.877  12.850 -18.969  1.00  0.00    -0.237 OA
ATOM     97  O   UNL     1      -7.724  14.351 -17.195  1.00  0.00    -0.237 OA
ATOM     98  O   UNL     1      -7.223  15.245 -19.436  1.00  0.00    -0.744 OA
ENDBRANCH  91  95
ENDBRANCH  65  88
ENDBRANCH  39  40
ENDBRANCH  31  34
ENDBRANCH  29  30
ENDBRANCH  28  29
ENDBRANCH   1  28
TORSDOF 20
