REMARK SMILES Cc1ccc(S(=O)(=O)N[C@@H](C)C(=O)Oc2csc(C(=O)NCCCCNC(=O)c3ccc(-c4c5nc(c(-c6cc(S(=O)(=O)[O-])ccc6F)c6ccc([nH]6)c(-c6cc(S(=O)(=O)[O-])ccc6F)c6nc(c(-c7cc(S(=O)(=O)[O-])ccc7F)c7ccc4[nH]7)C=C6)C=C5)cc3)c2C)cc1
REMARK SMILES IDX 22 1 21 2 19 3 20 4 18 6 15 7 16 8 92 9 17 10 93 11 14 12
REMARK SMILES IDX 12 13 13 14 10 15 11 16 9 17 6 19 7 20 8 21 5 22 1 23 2 24
REMARK SMILES IDX 3 25 95 26 4 27 94 28 23 29 24 30 25 31 26 32 27 33 28 35
REMARK SMILES IDX 29 36 30 37 91 38 31 39 90 40 32 41 33 42 34 43 84 44 35 45
REMARK SMILES IDX 89 46 83 47 85 48 36 49 88 50 82 51 81 52 37 54 69 55 49 56
REMARK SMILES IDX 68 57 50 58 53 59 67 60 86 61 51 62 52 63 66 65 87 66 54 67
REMARK SMILES IDX 38 68 39 69 47 70 40 71 46 72 48 73 45 74 41 75 42 76 43 77
REMARK SMILES IDX 44 78 70 79 71 80 79 81 72 82 78 83 80 84 77 85 73 86 74 87
REMARK SMILES IDX 75 88 76 89 55 90 56 91 64 92 57 93 63 94 65 95 62 96 58 97
REMARK SMILES IDX 59 98 60 99 61 100
REMARK H PARENT 21 5 9 18 26 34 85 53 53 64
REMARK Flexibility Score: inf
ROOT
ATOM      1  C   UNL     1      -3.974   8.273  -4.161  1.00  0.00     0.116 C 
ENDROOT
BRANCH   1   2
ATOM      2  N   UNL     1      -5.177   8.882  -3.628  1.00  0.00    -0.351 N 
ATOM      3  C   UNL     1      -6.131   8.497  -2.718  1.00  0.00     0.261 C 
ATOM      4  O   UNL     1      -6.990   9.373  -2.541  1.00  0.00    -0.268 OA
ATOM      5  H   UNL     1      -5.349   9.775  -4.004  1.00  0.00     0.163 HD
BRANCH   3   6
ATOM      6  C   UNL     1      -6.167   7.214  -1.995  1.00  0.00     0.099 A 
ATOM      7  C   UNL     1      -6.014   5.050  -1.092  1.00  0.00     0.145 A 
ATOM      8  C   UNL     1      -6.912   5.593  -0.218  1.00  0.00     0.113 A 
ATOM      9  C   UNL     1      -5.640   5.932  -2.167  1.00  0.00     0.015 A 
ATOM     10  S   UNL     1      -7.203   7.226  -0.582  1.00  0.00    -0.134 S 
ATOM     11  C   UNL     1      -4.832   5.389  -3.289  1.00  0.00     0.050 C 
BRANCH   7  12
ATOM     12  O   UNL     1      -5.631   3.753  -1.013  1.00  0.00    -0.424 OA
BRANCH  12  13
ATOM     13  C   UNL     1      -4.293   3.543  -0.785  1.00  0.00     0.329 C 
ATOM     14  O   UNL     1      -3.566   4.305  -0.151  1.00  0.00    -0.250 OA
BRANCH  13  15
ATOM     15  C   UNL     1      -3.860   2.132  -1.205  1.00  0.00     0.177 C 
ATOM     16  C   UNL     1      -4.531   1.639  -2.477  1.00  0.00     0.038 C 
BRANCH  15  17
ATOM     17  N   UNL     1      -4.165   1.272  -0.042  1.00  0.00    -0.197 NA
ATOM     18  H   UNL     1      -3.875   1.804   0.778  1.00  0.00     0.142 HD
BRANCH  17  19
ATOM     19  S   UNL     1      -3.549  -0.255   0.170  1.00  0.00     0.241 S 
ATOM     20  O   UNL     1      -3.923  -1.051  -0.986  1.00  0.00    -0.207 OA
ATOM     21  O   UNL     1      -3.950  -0.651   1.497  1.00  0.00    -0.207 OA
BRANCH  19  22
ATOM     22  C   UNL     1      -1.783  -0.123   0.183  1.00  0.00     0.082 A 
ATOM     23  C   UNL     1       2.512   0.019   0.023  1.00  0.00     0.044 C 
ATOM     24  C   UNL     1       1.014  -0.026   0.092  1.00  0.00    -0.051 A 
ATOM     25  C   UNL     1       0.344  -1.239  -0.105  1.00  0.00     0.005 A 
ATOM     26  C   UNL     1       0.271   1.130   0.367  1.00  0.00     0.005 A 
ATOM     27  C   UNL     1      -1.050  -1.287  -0.073  1.00  0.00     0.022 A 
ATOM     28  C   UNL     1      -1.125   1.083   0.429  1.00  0.00     0.022 A 
ENDBRANCH  19  22
ENDBRANCH  17  19
ENDBRANCH  15  17
ENDBRANCH  13  15
ENDBRANCH  12  13
ENDBRANCH   7  12
ENDBRANCH   3   6
ENDBRANCH   1   2
BRANCH   1  29
ATOM     29  C   UNL     1      -4.261   7.529  -5.476  1.00  0.00     0.023 C 
BRANCH  29  30
ATOM     30  C   UNL     1      -4.186   8.371  -6.742  1.00  0.00     0.023 C 
BRANCH  30  31
ATOM     31  C   UNL     1      -2.764   8.741  -7.120  1.00  0.00     0.116 C 
BRANCH  31  32
ATOM     32  N   UNL     1      -2.129   7.889  -8.117  1.00  0.00    -0.352 N 
ATOM     33  C   UNL     1      -0.864   8.018  -8.672  1.00  0.00     0.251 C 
ATOM     34  H   UNL     1      -2.664   7.127  -8.436  1.00  0.00     0.163 HD
ATOM     35  O   UNL     1      -0.498   7.313  -9.608  1.00  0.00    -0.269 OA
BRANCH  33  36
ATOM     36  C   UNL     1       0.115   8.918  -8.008  1.00  0.00     0.039 A 
ATOM     37  C   UNL     1       1.332   8.347  -7.615  1.00  0.00     0.014 A 
ATOM     38  C   UNL     1      -0.283  10.145  -7.491  1.00  0.00     0.014 A 
ATOM     39  C   UNL     1       1.993   8.856  -6.503  1.00  0.00     0.010 A 
ATOM     40  C   UNL     1       0.285  10.565  -6.309  1.00  0.00     0.010 A 
ATOM     41  C   UNL     1       1.382   9.877  -5.780  1.00  0.00    -0.014 A 
BRANCH  41  42
ATOM     42  C   UNL     1       1.761  10.239  -4.422  1.00  0.00     0.031 A 
ATOM     43  C   UNL     1       2.464  11.509  -4.178  1.00  0.00     0.074 A 
ATOM     44  C   UNL     1       1.382   9.455  -3.390  1.00  0.00     0.049 A 
ATOM     45  N   UNL     1       3.168  11.769  -3.133  1.00  0.00    -0.248 NA
ATOM     46  C   UNL     1       2.471  12.587  -5.157  1.00  0.00     0.031 C 
ATOM     47  C   UNL     1       1.440   9.761  -1.963  1.00  0.00     0.029 A 
ATOM     48  N   UNL     1       1.091   8.093  -3.441  1.00  0.00    -0.354 N 
ATOM     49  C   UNL     1       3.450  13.117  -3.144  1.00  0.00     0.074 A 
ATOM     50  C   UNL     1       3.087  13.551  -4.470  1.00  0.00     0.031 C 
ATOM     51  C   UNL     1       1.477   8.608  -1.276  1.00  0.00     0.029 A 
ATOM     52  C   UNL     1       1.583   7.533  -2.247  1.00  0.00     0.049 A 
ATOM     53  H   UNL     1       0.631   7.616  -4.169  1.00  0.00     0.167 HD
ATOM     54  C   UNL     1       3.811  13.719  -1.974  1.00  0.00     0.034 A 
ATOM     55  C   UNL     1       2.585   6.606  -2.287  1.00  0.00     0.034 A 
ATOM     56  C   UNL     1       4.060  12.716  -0.928  1.00  0.00     0.049 A 
ATOM     57  C   UNL     1       3.856   7.072  -1.605  1.00  0.00     0.074 A 
ATOM     58  C   UNL     1       3.339  12.287   0.175  1.00  0.00     0.029 A 
ATOM     59  N   UNL     1       5.068  11.771  -1.121  1.00  0.00    -0.354 N 
ATOM     60  N   UNL     1       4.110   8.313  -1.283  1.00  0.00    -0.248 NA
ATOM     61  C   UNL     1       4.935   6.169  -1.223  1.00  0.00     0.031 C 
ATOM     62  C   UNL     1       3.868  11.031   0.585  1.00  0.00     0.029 A 
ATOM     63  C   UNL     1       4.935  10.714  -0.240  1.00  0.00     0.049 A 
ATOM     64  H   UNL     1       5.781  11.848  -1.796  1.00  0.00     0.167 HD
ATOM     65  C   UNL     1       5.342   8.398  -0.681  1.00  0.00     0.074 A 
ATOM     66  C   UNL     1       5.803   7.018  -0.644  1.00  0.00     0.031 C 
ATOM     67  C   UNL     1       5.874   9.594  -0.272  1.00  0.00     0.034 A 
BRANCH  54  68
ATOM     68  C   UNL     1       3.631  15.204  -1.690  1.00  0.00     0.023 A 
ATOM     69  C   UNL     1       3.494  15.634  -0.351  1.00  0.00     0.031 A 
ATOM     70  C   UNL     1       3.498  16.229  -2.650  1.00  0.00     0.131 A 
ATOM     71  C   UNL     1       3.142  16.962  -0.030  1.00  0.00     0.055 A 
ATOM     72  C   UNL     1       3.103  17.537  -2.337  1.00  0.00     0.041 A 
ATOM     73  F   UNL     1       3.799  16.046  -3.938  1.00  0.00    -0.206 F 
ATOM     74  C   UNL     1       2.909  17.908  -1.021  1.00  0.00     0.022 A 
BRANCH  71  75
ATOM     75  S   UNL     1       2.987  17.444   1.711  1.00  0.00     0.124 S 
ATOM     76  O   UNL     1       1.908  16.579   2.176  1.00  0.00    -0.237 OA
ATOM     77  O   UNL     1       4.319  17.155   2.231  1.00  0.00    -0.237 OA
ATOM     78  O   UNL     1       2.651  18.866   1.640  1.00  0.00    -0.744 OA
ENDBRANCH  71  75
ENDBRANCH  54  68
BRANCH  55  79
ATOM     79  C   UNL     1       2.482   5.709  -3.479  1.00  0.00     0.023 A 
ATOM     80  C   UNL     1       1.265   5.000  -3.636  1.00  0.00     0.031 A 
ATOM     81  C   UNL     1       3.296   5.867  -4.607  1.00  0.00     0.131 A 
ATOM     82  C   UNL     1       0.805   4.653  -4.913  1.00  0.00     0.055 A 
ATOM     83  C   UNL     1       2.869   5.443  -5.874  1.00  0.00     0.041 A 
ATOM     84  F   UNL     1       4.447   6.552  -4.530  1.00  0.00    -0.206 F 
ATOM     85  C   UNL     1       1.598   4.884  -6.039  1.00  0.00     0.022 A 
BRANCH  82  86
ATOM     86  S   UNL     1      -0.930   4.148  -5.139  1.00  0.00     0.124 S 
ATOM     87  O   UNL     1      -0.806   2.727  -5.440  1.00  0.00    -0.237 OA
ATOM     88  O   UNL     1      -1.561   4.454  -3.856  1.00  0.00    -0.237 OA
ATOM     89  O   UNL     1      -1.382   4.996  -6.240  1.00  0.00    -0.744 OA
ENDBRANCH  82  86
ENDBRANCH  55  79
BRANCH  67  90
ATOM     90  C   UNL     1       7.299   9.824   0.213  1.00  0.00     0.023 A 
ATOM     91  C   UNL     1       8.329   8.881   0.089  1.00  0.00     0.031 A 
ATOM     92  C   UNL     1       7.690  11.066   0.779  1.00  0.00     0.131 A 
ATOM     93  C   UNL     1       9.624   9.133   0.583  1.00  0.00     0.055 A 
ATOM     94  C   UNL     1       8.998  11.348   1.190  1.00  0.00     0.041 A 
ATOM     95  F   UNL     1       6.822  12.074   0.951  1.00  0.00    -0.206 F 
ATOM     96  C   UNL     1       9.974  10.370   1.112  1.00  0.00     0.022 A 
BRANCH  93  97
ATOM     97  S   UNL     1      10.819   7.771   0.582  1.00  0.00     0.124 S 
ATOM     98  O   UNL     1      10.172   6.804   1.464  1.00  0.00    -0.237 OA
ATOM     99  O   UNL     1      10.873   7.402  -0.829  1.00  0.00    -0.237 OA
ATOM    100  O   UNL     1      12.037   8.379   1.113  1.00  0.00    -0.744 OA
ENDBRANCH  93  97
ENDBRANCH  67  90
ENDBRANCH  41  42
ENDBRANCH  33  36
ENDBRANCH  31  32
ENDBRANCH  30  31
ENDBRANCH  29  30
ENDBRANCH   1  29
TORSDOF 20
