REMARK SMILES O=C(NCCCCNC(=O)c1ccc(-n2cc(CSc3nc4ccccc4c(=O)n3-c3ccccc3)nn2)cc1)c1ccc(-c2c3nc(c(-c4cc(S(=O)(=O)[O-])ccc4F)c4ccc([nH]4)c(-c4cc(S(=O)(=O)[O-])ccc4F)c4nc(c(-c5cc(S(=O)(=O)[O-])ccc5F)c5ccc2[nH]5)C=C4)C=C3)cc1
REMARK SMILES IDX 6 1 5 2 4 3 3 4 1 5 2 6 41 8 42 9 103 10 43 11 102 12 44 13
REMARK SMILES IDX 45 14 46 15 96 16 47 17 101 18 95 19 97 20 48 21 100 22
REMARK SMILES IDX 94 23 93 24 49 26 81 27 61 28 80 29 62 30 65 31 79 32 98 33
REMARK SMILES IDX 63 34 64 35 78 37 99 38 66 39 50 40 51 41 59 42 52 43 58 44
REMARK SMILES IDX 60 45 57 46 53 47 54 48 55 49 56 50 82 51 83 52 91 53 84 54
REMARK SMILES IDX 90 55 92 56 89 57 85 58 86 59 87 60 88 61 67 62 68 63 76 64
REMARK SMILES IDX 69 65 75 66 77 67 74 68 70 69 71 70 72 71 73 72 7 73 8 74
REMARK SMILES IDX 9 75 10 77 11 78 12 79 40 80 13 81 39 82 14 83 15 84 16 85
REMARK SMILES IDX 38 86 17 87 37 88 18 89 19 90 20 91 21 92 30 93 22 94 28 95
REMARK SMILES IDX 23 96 27 97 29 98 24 99 26 100 25 101 31 102 32 103 36 104
REMARK SMILES IDX 33 105 35 106 34 107
REMARK H PARENT 3 7 97 25 65 36 8 76
REMARK Flexibility Score: inf
ROOT
ATOM      1  C   UNL     1       4.403   3.526   0.590  1.00  0.00     0.023 C 
ENDROOT
BRANCH   1   2
ATOM      2  C   UNL     1       4.894   2.265  -0.134  1.00  0.00     0.023 C 
BRANCH   2   3
ATOM      3  C   UNL     1       4.575   0.939   0.553  1.00  0.00     0.116 C 
BRANCH   3   4
ATOM      4  N   UNL     1       3.165   0.700   0.782  1.00  0.00    -0.352 N 
ATOM      5  O   UNL     1       1.107  -0.075   0.701  1.00  0.00    -0.269 OA
ATOM      6  C   UNL     1       2.152   0.117   0.070  1.00  0.00     0.251 C 
ATOM      7  H   UNL     1       2.864   1.036   1.657  1.00  0.00     0.163 HD
BRANCH   6   8
ATOM      8  C   UNL     1       2.192  -0.241  -1.378  1.00  0.00     0.039 A 
ATOM      9  C   UNL     1       3.329  -0.296  -2.184  1.00  0.00     0.014 A 
ATOM     10  C   UNL     1       0.943  -0.524  -1.970  1.00  0.00     0.014 A 
ATOM     11  C   UNL     1       3.212  -0.555  -3.553  1.00  0.00     0.010 A 
ATOM     12  C   UNL     1       0.823  -0.786  -3.333  1.00  0.00     0.010 A 
ATOM     13  C   UNL     1       1.957  -0.770  -4.137  1.00  0.00    -0.014 A 
BRANCH  13  14
ATOM     14  C   UNL     1       1.891  -1.133  -5.557  1.00  0.00     0.031 A 
ATOM     15  C   UNL     1       2.568  -2.422  -5.900  1.00  0.00     0.074 A 
ATOM     16  C   UNL     1       1.170  -0.474  -6.490  1.00  0.00     0.049 A 
ATOM     17  N   UNL     1       3.559  -2.619  -6.707  1.00  0.00    -0.248 NA
ATOM     18  C   UNL     1       2.152  -3.631  -5.171  1.00  0.00     0.031 C 
ATOM     19  C   UNL     1       0.235   0.636  -6.297  1.00  0.00     0.029 A 
ATOM     20  N   UNL     1       1.061  -0.728  -7.830  1.00  0.00    -0.354 N 
ATOM     21  C   UNL     1       3.779  -3.995  -6.736  1.00  0.00     0.074 A 
ATOM     22  C   UNL     1       2.979  -4.548  -5.675  1.00  0.00     0.031 C 
ATOM     23  C   UNL     1      -0.495   0.815  -7.424  1.00  0.00     0.029 A 
ATOM     24  C   UNL     1       0.009  -0.069  -8.464  1.00  0.00     0.049 A 
ATOM     25  H   UNL     1       1.676  -1.330  -8.308  1.00  0.00     0.167 HD
ATOM     26  C   UNL     1       4.477  -4.596  -7.742  1.00  0.00     0.034 A 
ATOM     27  C   UNL     1      -0.444  -0.256  -9.736  1.00  0.00     0.034 A 
ATOM     28  C   UNL     1       5.297  -3.646  -8.450  1.00  0.00     0.049 A 
ATOM     29  C   UNL     1       0.666  -0.868 -10.505  1.00  0.00     0.074 A 
ATOM     30  C   UNL     1       6.338  -2.813  -8.085  1.00  0.00     0.029 A 
ATOM     31  N   UNL     1       4.850  -3.156  -9.655  1.00  0.00    -0.354 N 
ATOM     32  N   UNL     1       1.784  -0.249 -10.762  1.00  0.00    -0.248 NA
ATOM     33  C   UNL     1       0.732  -2.320 -10.572  1.00  0.00     0.031 C 
ATOM     34  C   UNL     1       6.093  -1.596  -8.787  1.00  0.00     0.029 A 
ATOM     35  C   UNL     1       4.972  -1.788  -9.598  1.00  0.00     0.049 A 
ATOM     36  H   UNL     1       4.508  -3.684 -10.413  1.00  0.00     0.167 HD
ATOM     37  C   UNL     1       2.771  -1.205 -10.586  1.00  0.00     0.074 A 
ATOM     38  C   UNL     1       2.058  -2.482 -10.559  1.00  0.00     0.031 C 
ATOM     39  C   UNL     1       4.037  -0.861 -10.205  1.00  0.00     0.034 A 
BRANCH  26  40
ATOM     40  C   UNL     1       4.210  -5.989  -8.271  1.00  0.00     0.023 A 
ATOM     41  C   UNL     1       5.059  -6.498  -9.275  1.00  0.00     0.031 A 
ATOM     42  C   UNL     1       3.023  -6.721  -8.043  1.00  0.00     0.131 A 
ATOM     43  C   UNL     1       4.688  -7.624 -10.036  1.00  0.00     0.055 A 
ATOM     44  C   UNL     1       2.689  -7.875  -8.758  1.00  0.00     0.041 A 
ATOM     45  F   UNL     1       2.077  -6.310  -7.189  1.00  0.00    -0.206 F 
ATOM     46  C   UNL     1       3.509  -8.319  -9.779  1.00  0.00     0.022 A 
BRANCH  43  47
ATOM     47  S   UNL     1       5.688  -8.071 -11.482  1.00  0.00     0.124 S 
ATOM     48  O   UNL     1       5.743  -6.808 -12.209  1.00  0.00    -0.237 OA
ATOM     49  O   UNL     1       6.933  -8.512 -10.862  1.00  0.00    -0.237 OA
ATOM     50  O   UNL     1       4.905  -9.124 -12.123  1.00  0.00    -0.744 OA
ENDBRANCH  43  47
ENDBRANCH  26  40
BRANCH  27  51
ATOM     51  C   UNL     1      -1.862  -0.274 -10.205  1.00  0.00     0.023 A 
ATOM     52  C   UNL     1      -2.244  -0.106 -11.557  1.00  0.00     0.031 A 
ATOM     53  C   UNL     1      -2.866  -0.726  -9.319  1.00  0.00     0.131 A 
ATOM     54  C   UNL     1      -3.575  -0.381 -11.963  1.00  0.00     0.055 A 
ATOM     55  C   UNL     1      -4.174  -0.998  -9.726  1.00  0.00     0.041 A 
ATOM     56  F   UNL     1      -2.583  -1.006  -8.037  1.00  0.00    -0.206 F 
ATOM     57  C   UNL     1      -4.533  -0.834 -11.053  1.00  0.00     0.022 A 
BRANCH  54  58
ATOM     58  S   UNL     1      -4.074  -0.233 -13.715  1.00  0.00     0.124 S 
ATOM     59  O   UNL     1      -3.976   1.203 -13.947  1.00  0.00    -0.237 OA
ATOM     60  O   UNL     1      -3.091  -1.070 -14.394  1.00  0.00    -0.237 OA
ATOM     61  O   UNL     1      -5.438  -0.764 -13.729  1.00  0.00    -0.744 OA
ENDBRANCH  54  58
ENDBRANCH  27  51
BRANCH  39  62
ATOM     62  C   UNL     1       4.421   0.609 -10.212  1.00  0.00     0.023 A 
ATOM     63  C   UNL     1       3.743   1.628  -9.501  1.00  0.00     0.031 A 
ATOM     64  C   UNL     1       5.606   0.966 -10.882  1.00  0.00     0.131 A 
ATOM     65  C   UNL     1       4.251   2.944  -9.493  1.00  0.00     0.055 A 
ATOM     66  C   UNL     1       6.117   2.262 -10.851  1.00  0.00     0.041 A 
ATOM     67  F   UNL     1       6.312   0.042 -11.554  1.00  0.00    -0.206 F 
ATOM     68  C   UNL     1       5.438   3.259 -10.161  1.00  0.00     0.022 A 
BRANCH  65  69
ATOM     69  S   UNL     1       3.367   4.281  -8.622  1.00  0.00     0.124 S 
ATOM     70  O   UNL     1       1.991   4.137  -9.080  1.00  0.00    -0.237 OA
ATOM     71  O   UNL     1       3.613   3.962  -7.218  1.00  0.00    -0.237 OA
ATOM     72  O   UNL     1       4.040   5.494  -9.092  1.00  0.00    -0.744 OA
ENDBRANCH  65  69
ENDBRANCH  39  62
ENDBRANCH  13  14
ENDBRANCH   6   8
ENDBRANCH   3   4
ENDBRANCH   2   3
ENDBRANCH   1   2
BRANCH   1  73
ATOM     73  C   UNL     1       4.780   3.656   2.065  1.00  0.00     0.116 C 
BRANCH  73  74
ATOM     74  N   UNL     1       6.215   3.686   2.294  1.00  0.00    -0.352 N 
ATOM     75  C   UNL     1       7.002   4.664   2.855  1.00  0.00     0.251 C 
ATOM     76  H   UNL     1       6.699   2.880   2.002  1.00  0.00     0.163 HD
ATOM     77  O   UNL     1       8.212   4.523   2.918  1.00  0.00    -0.269 OA
BRANCH  75  78
ATOM     78  C   UNL     1       6.391   5.907   3.375  1.00  0.00     0.039 A 
ATOM     79  C   UNL     1       6.864   7.129   2.886  1.00  0.00     0.016 A 
ATOM     80  C   UNL     1       5.418   5.876   4.378  1.00  0.00     0.016 A 
ATOM     81  C   UNL     1       6.323   8.328   3.355  1.00  0.00     0.029 A 
ATOM     82  C   UNL     1       4.896   7.075   4.872  1.00  0.00     0.029 A 
ATOM     83  C   UNL     1       5.352   8.304   4.362  1.00  0.00     0.066 A 
BRANCH  83  84
ATOM     84  N   UNL     1       4.899   9.526   4.910  1.00  0.00    -0.220 N 
ATOM     85  C   UNL     1       4.349   9.725   6.150  1.00  0.00     0.141 A 
ATOM     86  N   UNL     1       4.996  10.717   4.274  1.00  0.00    -0.062 NA
ATOM     87  C   UNL     1       4.200  11.088   6.277  1.00  0.00     0.093 A 
ATOM     88  N   UNL     1       4.542  11.668   5.086  1.00  0.00    -0.134 NA
BRANCH  87  89
ATOM     89  C   UNL     1       3.573  11.857   7.373  1.00  0.00     0.138 C 
BRANCH  89  90
ATOM     90  S   UNL     1       4.528  12.638   8.678  1.00  0.00    -0.081 SA
BRANCH  90  91
ATOM     91  C   UNL     1       6.133  11.970   8.843  1.00  0.00     0.176 A 
ATOM     92  N   UNL     1       7.009  12.892   9.128  1.00  0.00    -0.223 NA
ATOM     93  N   UNL     1       6.492  10.633   8.728  1.00  0.00    -0.255 N 
ATOM     94  C   UNL     1       8.360  12.538   9.199  1.00  0.00     0.079 A 
ATOM     95  C   UNL     1       7.765  10.428   8.172  1.00  0.00     0.266 A 
ATOM     96  C   UNL     1       9.297  13.383   9.796  1.00  0.00     0.029 A 
ATOM     97  C   UNL     1       8.806  11.380   8.583  1.00  0.00     0.066 A 
ATOM     98  O   UNL     1       8.078   9.541   7.381  1.00  0.00    -0.268 OA
ATOM     99  C   UNL     1      10.665  13.094   9.711  1.00  0.00     0.002 A 
ATOM    100  C   UNL     1      10.170  11.103   8.441  1.00  0.00     0.016 A 
ATOM    101  C   UNL     1      11.103  11.974   9.003  1.00  0.00     0.001 A 
BRANCH  93 102
ATOM    102  C   UNL     1       5.704   9.467   9.087  1.00  0.00     0.051 A 
ATOM    103  C   UNL     1       6.283   8.181   9.048  1.00  0.00     0.027 A 
ATOM    104  C   UNL     1       4.372   9.508   9.515  1.00  0.00     0.027 A 
ATOM    105  C   UNL     1       5.528   7.012   9.190  1.00  0.00     0.002 A 
ATOM    106  C   UNL     1       3.589   8.345   9.595  1.00  0.00     0.002 A 
ATOM    107  C   UNL     1       4.162   7.096   9.396  1.00  0.00     0.000 A 
ENDBRANCH  93 102
ENDBRANCH  90  91
ENDBRANCH  89  90
ENDBRANCH  87  89
ENDBRANCH  83  84
ENDBRANCH  75  78
ENDBRANCH  73  74
ENDBRANCH   1  73
TORSDOF 19
