REMARK SMILES O=C(NCCCCNC(=O)c1[nH]ncc1C[N@H+]1CCC[C@@H](C(=O)c2ccc(Oc3ccccc3)cc2)C1)c1ccc(-c2c3nc(c(-c4cc(S(=O)(=O)[O-])ccc4F)c4ccc([nH]4)c(-c4cc(S(=O)(=O)[O-])ccc4F)c4nc(c(-c5cc(S(=O)(=O)[O-])ccc5F)c5ccc2[nH]5)C=C4)C=C3)cc1
REMARK SMILES IDX 7 1 6 2 5 3 4 4 3 5 1 6 2 7 38 9 39 10 100 11 40 12 99 13
REMARK SMILES IDX 41 14 42 15 43 16 93 17 44 18 98 19 92 20 94 21 45 22 97 23
REMARK SMILES IDX 91 24 90 25 46 27 78 28 58 29 77 30 59 31 62 32 76 33 95 34
REMARK SMILES IDX 60 35 61 36 75 38 96 39 63 40 47 41 48 42 56 43 49 44 55 45
REMARK SMILES IDX 57 46 54 47 50 48 51 49 52 50 53 51 79 52 80 53 88 54 81 55
REMARK SMILES IDX 87 56 89 57 86 58 82 59 83 60 84 61 85 62 64 63 65 64 73 65
REMARK SMILES IDX 66 66 72 67 74 68 71 69 67 70 68 71 69 72 70 73 8 74 9 75
REMARK SMILES IDX 10 77 11 78 12 79 15 80 13 81 14 83 16 84 17 85 18 86 37 87
REMARK SMILES IDX 19 89 21 90 20 91 22 92 23 93 24 94 25 95 36 96 26 97 35 98
REMARK SMILES IDX 27 99 28 100 29 101 30 102 34 103 31 104 33 105 32 106
REMARK H PARENT 3 8 94 26 62 37 8 76 12 82 17 88
REMARK Flexibility Score: inf
ROOT
ATOM      1  C   UNL     1       4.921  -0.707  -4.070  1.00  0.00     0.116 C 
ENDROOT
BRANCH   1   2
ATOM      2  C   UNL     1       4.543  -1.851  -3.143  1.00  0.00     0.023 C 
BRANCH   2   3
ATOM      3  C   UNL     1       4.990  -1.671  -1.699  1.00  0.00     0.023 C 
BRANCH   3   4
ATOM      4  C   UNL     1       4.616  -0.335  -1.076  1.00  0.00     0.116 C 
BRANCH   4   5
ATOM      5  N   UNL     1       3.177  -0.117  -1.005  1.00  0.00    -0.352 N 
ATOM      6  O   UNL     1       1.166   0.111   0.003  1.00  0.00    -0.269 OA
ATOM      7  C   UNL     1       2.388   0.077   0.107  1.00  0.00     0.251 C 
ATOM      8  H   UNL     1       2.705  -0.108  -1.869  1.00  0.00     0.163 HD
BRANCH   7   9
ATOM      9  C   UNL     1       3.035   0.217   1.427  1.00  0.00     0.039 A 
ATOM     10  C   UNL     1       4.137   1.061   1.574  1.00  0.00     0.014 A 
ATOM     11  C   UNL     1       2.576  -0.541   2.506  1.00  0.00     0.014 A 
ATOM     12  C   UNL     1       4.890   1.006   2.738  1.00  0.00     0.010 A 
ATOM     13  C   UNL     1       3.270  -0.502   3.720  1.00  0.00     0.010 A 
ATOM     14  C   UNL     1       4.453   0.245   3.835  1.00  0.00    -0.014 A 
BRANCH  14  15
ATOM     15  C   UNL     1       5.217   0.317   5.107  1.00  0.00     0.031 A 
ATOM     16  C   UNL     1       5.867  -0.901   5.704  1.00  0.00     0.074 A 
ATOM     17  C   UNL     1       5.342   1.517   5.707  1.00  0.00     0.049 A 
ATOM     18  N   UNL     1       6.563  -1.003   6.808  1.00  0.00    -0.248 NA
ATOM     19  C   UNL     1       5.711  -2.168   4.976  1.00  0.00     0.031 C 
ATOM     20  C   UNL     1       4.751   2.766   5.214  1.00  0.00     0.029 A 
ATOM     21  N   UNL     1       6.013   1.897   6.840  1.00  0.00    -0.354 N 
ATOM     22  C   UNL     1       6.912  -2.345   6.921  1.00  0.00     0.074 A 
ATOM     23  C   UNL     1       6.323  -3.023   5.784  1.00  0.00     0.031 C 
ATOM     24  C   UNL     1       5.128   3.776   6.009  1.00  0.00     0.029 A 
ATOM     25  C   UNL     1       5.905   3.239   7.118  1.00  0.00     0.049 A 
ATOM     26  H   UNL     1       6.523   1.269   7.401  1.00  0.00     0.167 HD
ATOM     27  C   UNL     1       7.657  -2.947   7.883  1.00  0.00     0.034 A 
ATOM     28  C   UNL     1       6.346   3.959   8.166  1.00  0.00     0.034 A 
ATOM     29  C   UNL     1       8.233  -2.246   9.008  1.00  0.00     0.049 A 
ATOM     30  C   UNL     1       7.121   3.256   9.245  1.00  0.00     0.074 A 
ATOM     31  C   UNL     1       9.034  -2.752  10.019  1.00  0.00     0.029 A 
ATOM     32  N   UNL     1       8.059  -0.894   9.285  1.00  0.00    -0.354 N 
ATOM     33  N   UNL     1       7.458   1.989   9.325  1.00  0.00    -0.248 NA
ATOM     34  C   UNL     1       7.578   4.077  10.370  1.00  0.00     0.031 C 
ATOM     35  C   UNL     1       9.269  -1.732  10.947  1.00  0.00     0.029 A 
ATOM     36  C   UNL     1       8.701  -0.562  10.470  1.00  0.00     0.049 A 
ATOM     37  H   UNL     1       7.554  -0.264   8.722  1.00  0.00     0.167 HD
ATOM     38  C   UNL     1       8.188   1.868  10.503  1.00  0.00     0.074 A 
ATOM     39  C   UNL     1       8.260   3.194  11.083  1.00  0.00     0.031 C 
ATOM     40  C   UNL     1       8.751   0.761  11.052  1.00  0.00     0.034 A 
BRANCH  27  41
ATOM     41  C   UNL     1       7.847  -4.444   7.792  1.00  0.00     0.023 A 
ATOM     42  C   UNL     1       8.532  -5.047   6.723  1.00  0.00     0.031 A 
ATOM     43  C   UNL     1       7.333  -5.285   8.798  1.00  0.00     0.131 A 
ATOM     44  C   UNL     1       8.628  -6.447   6.651  1.00  0.00     0.055 A 
ATOM     45  C   UNL     1       7.503  -6.670   8.762  1.00  0.00     0.041 A 
ATOM     46  F   UNL     1       6.651  -4.772   9.834  1.00  0.00    -0.206 F 
ATOM     47  C   UNL     1       8.142  -7.261   7.677  1.00  0.00     0.022 A 
BRANCH  44  48
ATOM     48  S   UNL     1       9.272  -7.195   5.129  1.00  0.00     0.124 S 
ATOM     49  O   UNL     1       8.364  -6.649   4.123  1.00  0.00    -0.237 OA
ATOM     50  O   UNL     1      10.642  -6.698   5.088  1.00  0.00    -0.237 OA
ATOM     51  O   UNL     1       9.135  -8.630   5.367  1.00  0.00    -0.744 OA
ENDBRANCH  44  48
ENDBRANCH  27  41
BRANCH  28  52
ATOM     52  C   UNL     1       6.021   5.410   8.264  1.00  0.00     0.023 A 
ATOM     53  C   UNL     1       7.031   6.383   8.265  1.00  0.00     0.031 A 
ATOM     54  C   UNL     1       4.687   5.843   8.380  1.00  0.00     0.131 A 
ATOM     55  C   UNL     1       6.694   7.737   8.423  1.00  0.00     0.055 A 
ATOM     56  C   UNL     1       4.353   7.194   8.472  1.00  0.00     0.041 A 
ATOM     57  F   UNL     1       3.681   4.953   8.382  1.00  0.00    -0.206 F 
ATOM     58  C   UNL     1       5.362   8.150   8.508  1.00  0.00     0.022 A 
BRANCH  55  59
ATOM     59  S   UNL     1       8.032   8.946   8.608  1.00  0.00     0.124 S 
ATOM     60  O   UNL     1       8.743   8.426   9.770  1.00  0.00    -0.237 OA
ATOM     61  O   UNL     1       8.723   8.831   7.327  1.00  0.00    -0.237 OA
ATOM     62  O   UNL     1       7.323  10.206   8.821  1.00  0.00    -0.744 OA
ENDBRANCH  55  59
ENDBRANCH  28  52
BRANCH  40  63
ATOM     63  C   UNL     1       9.533   0.955  12.329  1.00  0.00     0.023 A 
ATOM     64  C   UNL     1       8.914   1.367  13.523  1.00  0.00     0.031 A 
ATOM     65  C   UNL     1      10.923   0.745  12.344  1.00  0.00     0.131 A 
ATOM     66  C   UNL     1       9.693   1.619  14.662  1.00  0.00     0.055 A 
ATOM     67  C   UNL     1      11.682   0.927  13.500  1.00  0.00     0.041 A 
ATOM     68  F   UNL     1      11.569   0.359  11.232  1.00  0.00    -0.206 F 
ATOM     69  C   UNL     1      11.070   1.381  14.665  1.00  0.00     0.022 A 
BRANCH  66  70
ATOM     70  S   UNL     1       8.899   2.368  16.111  1.00  0.00     0.124 S 
ATOM     71  O   UNL     1       8.359   3.604  15.554  1.00  0.00    -0.237 OA
ATOM     72  O   UNL     1       7.919   1.356  16.488  1.00  0.00    -0.237 OA
ATOM     73  O   UNL     1      10.003   2.544  17.054  1.00  0.00    -0.744 OA
ENDBRANCH  66  70
ENDBRANCH  40  63
ENDBRANCH  14  15
ENDBRANCH   7   9
ENDBRANCH   4   5
ENDBRANCH   3   4
ENDBRANCH   2   3
ENDBRANCH   1   2
BRANCH   1  74
ATOM     74  N   UNL     1       6.357  -0.506  -4.187  1.00  0.00    -0.351 N 
ATOM     75  C   UNL     1       7.121  -0.463  -5.325  1.00  0.00     0.269 C 
ATOM     76  H   UNL     1       6.844  -0.386  -3.340  1.00  0.00     0.163 HD
ATOM     77  O   UNL     1       8.348  -0.465  -5.231  1.00  0.00    -0.268 OA
BRANCH  75  78
ATOM     78  C   UNL     1       6.449  -0.493  -6.589  1.00  0.00     0.131 A 
ATOM     79  N   UNL     1       6.812  -1.366  -7.575  1.00  0.00    -0.272 N 
ATOM     80  C   UNL     1       5.397   0.252  -7.108  1.00  0.00     0.057 A 
ATOM     81  N   UNL     1       5.942  -1.412  -8.596  1.00  0.00    -0.183 NA
ATOM     82  H   UNL     1       7.633  -1.909  -7.541  1.00  0.00     0.190 HD
ATOM     83  C   UNL     1       5.080  -0.435  -8.307  1.00  0.00     0.145 A 
BRANCH  80  84
ATOM     84  C   UNL     1       4.703   1.425  -6.483  1.00  0.00     0.303 C 
BRANCH  84  85
ATOM     85  N   UNL     1       4.833   2.688  -7.221  1.00  0.00    -0.330 N 
ATOM     86  C   UNL     1       6.223   3.139  -7.348  1.00  0.00     0.262 C 
ATOM     87  C   UNL     1       4.128   2.666  -8.500  1.00  0.00     0.274 C 
ATOM     88  H   UNL     1       4.365   3.392  -6.650  1.00  0.00     0.348 HD
ATOM     89  C   UNL     1       6.290   4.524  -7.998  1.00  0.00     0.062 C 
ATOM     90  C   UNL     1       4.144   4.027  -9.194  1.00  0.00     0.116 C 
ATOM     91  C   UNL     1       5.575   4.542  -9.347  1.00  0.00     0.023 C 
BRANCH  90  92
ATOM     92  C   UNL     1       3.491   3.814 -10.548  1.00  0.00     0.171 C 
ATOM     93  O   UNL     1       3.957   3.072 -11.410  1.00  0.00    -0.294 OA
BRANCH  92  94
ATOM     94  C   UNL     1       2.181   4.446 -10.797  1.00  0.00     0.018 A 
ATOM     95  C   UNL     1       1.163   3.678 -11.370  1.00  0.00     0.015 A 
ATOM     96  C   UNL     1       1.971   5.790 -10.493  1.00  0.00     0.015 A 
ATOM     97  C   UNL     1      -0.067   4.269 -11.658  1.00  0.00     0.048 A 
ATOM     98  C   UNL     1       0.736   6.373 -10.774  1.00  0.00     0.048 A 
ATOM     99  C   UNL     1      -0.277   5.624 -11.387  1.00  0.00     0.127 A 
BRANCH  99 100
ATOM    100  O   UNL     1      -1.518   6.106 -11.743  1.00  0.00    -0.457 OA
BRANCH 100 101
ATOM    101  C   UNL     1      -1.720   7.463 -11.742  1.00  0.00     0.127 A 
ATOM    102  C   UNL     1      -2.727   7.958 -10.914  1.00  0.00     0.047 A 
ATOM    103  C   UNL     1      -0.994   8.325 -12.567  1.00  0.00     0.047 A 
ATOM    104  C   UNL     1      -2.967   9.330 -10.863  1.00  0.00     0.004 A 
ATOM    105  C   UNL     1      -1.225   9.699 -12.502  1.00  0.00     0.004 A 
ATOM    106  C   UNL     1      -2.208  10.200 -11.647  1.00  0.00     0.000 A 
ENDBRANCH 100 101
ENDBRANCH  99 100
ENDBRANCH  92  94
ENDBRANCH  90  92
ENDBRANCH  84  85
ENDBRANCH  80  84
ENDBRANCH  75  78
ENDBRANCH   1  74
TORSDOF 20
