REMARK SMILES Cc1cccc(-c2cc(C(=O)NCCCCNC(=O)c3ccc(-c4c5nc(c(-c6cc(S(=O)(=O)[O-])ccc6F)c6ccc([nH]6)c(-c6cc(S(=O)(=O)[O-])ccc6F)c6nc(c(-c7cc(S(=O)(=O)[O-])ccc7F)c7ccc4[nH]7)C=C6)C=C5)cc3)ccn2)c1
REMARK SMILES IDX 15 1 14 2 13 3 12 4 10 5 11 6 9 8 7 9 8 10 85 11 84 12 83 13
REMARK SMILES IDX 6 14 1 15 2 16 3 17 86 18 4 19 5 20 16 21 17 22 18 23 19 25
REMARK SMILES IDX 20 26 21 27 82 28 22 29 81 30 23 31 24 32 25 33 75 34 26 35
REMARK SMILES IDX 80 36 74 37 76 38 27 39 79 40 73 41 72 42 28 44 60 45 40 46
REMARK SMILES IDX 59 47 41 48 44 49 58 50 77 51 42 52 43 53 57 55 78 56 45 57
REMARK SMILES IDX 29 58 30 59 38 60 31 61 37 62 39 63 36 64 32 65 33 66 34 67
REMARK SMILES IDX 35 68 61 69 62 70 70 71 63 72 69 73 71 74 68 75 64 76 65 77
REMARK SMILES IDX 66 78 67 79 46 80 47 81 55 82 48 83 54 84 56 85 53 86 49 87
REMARK SMILES IDX 50 88 51 89 52 90
REMARK H PARENT 12 7 17 24 76 43 44 54
REMARK Flexibility Score: inf
ROOT
ATOM      1  C   UNL     1      -1.315   3.686  -5.844  1.00  0.00     0.023 C 
ENDROOT
BRANCH   1   2
ATOM      2  C   UNL     1      -1.034   3.241  -4.405  1.00  0.00     0.023 C 
BRANCH   2   3
ATOM      3  C   UNL     1      -0.430   4.334  -3.510  1.00  0.00     0.116 C 
BRANCH   3   4
ATOM      4  N   UNL     1      -1.433   5.317  -3.117  1.00  0.00    -0.352 N 
ATOM      5  C   UNL     1      -2.307   5.411  -2.065  1.00  0.00     0.251 C 
ATOM      6  O   UNL     1      -3.038   6.406  -2.038  1.00  0.00    -0.269 OA
ATOM      7  H   UNL     1      -1.497   6.075  -3.741  1.00  0.00     0.163 HD
BRANCH   5   8
ATOM      8  C   UNL     1      -2.428   4.419  -0.956  1.00  0.00     0.043 A 
ATOM      9  C   UNL     1      -2.013   2.340   0.183  1.00  0.00     0.071 A 
ATOM     10  C   UNL     1      -1.861   3.152  -0.941  1.00  0.00     0.042 A 
ATOM     11  N   UNL     1      -2.768   2.694   1.249  1.00  0.00    -0.256 NA
ATOM     12  C   UNL     1      -3.332   3.917   1.211  1.00  0.00     0.112 A 
ATOM     13  C   UNL     1      -3.186   4.802   0.157  1.00  0.00     0.034 A 
BRANCH   9  14
ATOM     14  C   UNL     1      -1.291   1.067   0.268  1.00  0.00     0.000 A 
ATOM     15  C   UNL     1       2.330  -0.129   0.034  1.00  0.00     0.044 C 
ATOM     16  C   UNL     1       0.836  -0.143   0.167  1.00  0.00    -0.050 A 
ATOM     17  C   UNL     1       0.138  -1.352   0.219  1.00  0.00     0.003 A 
ATOM     18  C   UNL     1       0.114   1.054   0.190  1.00  0.00     0.013 A 
ATOM     19  C   UNL     1      -1.255  -1.361   0.317  1.00  0.00     0.001 A 
ATOM     20  C   UNL     1      -1.965  -0.158   0.351  1.00  0.00     0.010 A 
ENDBRANCH   9  14
ENDBRANCH   5   8
ENDBRANCH   3   4
ENDBRANCH   2   3
ENDBRANCH   1   2
BRANCH   1  21
ATOM     21  C   UNL     1      -0.049   4.004  -6.637  1.00  0.00     0.116 C 
BRANCH  21  22
ATOM     22  N   UNL     1       0.347   3.001  -7.618  1.00  0.00    -0.352 N 
ATOM     23  C   UNL     1       1.463   3.019  -8.442  1.00  0.00     0.251 C 
ATOM     24  H   UNL     1      -0.246   2.220  -7.706  1.00  0.00     0.163 HD
ATOM     25  O   UNL     1       1.666   2.155  -9.283  1.00  0.00    -0.269 OA
BRANCH  23  26
ATOM     26  C   UNL     1       2.495   4.055  -8.188  1.00  0.00     0.039 A 
ATOM     27  C   UNL     1       3.763   3.604  -7.804  1.00  0.00     0.014 A 
ATOM     28  C   UNL     1       2.145   5.397  -8.048  1.00  0.00     0.014 A 
ATOM     29  C   UNL     1       4.584   4.441  -7.055  1.00  0.00     0.010 A 
ATOM     30  C   UNL     1       2.926   6.203  -7.236  1.00  0.00     0.010 A 
ATOM     31  C   UNL     1       4.104   5.694  -6.674  1.00  0.00    -0.014 A 
BRANCH  31  32
ATOM     32  C   UNL     1       4.673   6.438  -5.552  1.00  0.00     0.031 A 
ATOM     33  C   UNL     1       5.482   7.653  -5.766  1.00  0.00     0.074 A 
ATOM     34  C   UNL     1       4.466   6.000  -4.289  1.00  0.00     0.049 A 
ATOM     35  N   UNL     1       6.327   8.120  -4.907  1.00  0.00    -0.248 NA
ATOM     36  C   UNL     1       5.479   8.394  -7.023  1.00  0.00     0.031 C 
ATOM     37  C   UNL     1       4.748   6.705  -3.042  1.00  0.00     0.029 A 
ATOM     38  N   UNL     1       4.224   4.684  -3.896  1.00  0.00    -0.354 N 
ATOM     39  C   UNL     1       6.716   9.363  -5.341  1.00  0.00     0.074 A 
ATOM     40  C   UNL     1       6.299   9.405  -6.719  1.00  0.00     0.031 C 
ATOM     41  C   UNL     1       4.935   5.801  -2.067  1.00  0.00     0.029 A 
ATOM     42  C   UNL     1       4.904   4.487  -2.681  1.00  0.00     0.049 A 
ATOM     43  H   UNL     1       3.680   4.019  -4.378  1.00  0.00     0.167 HD
ATOM     44  C   UNL     1       7.193  10.258  -4.429  1.00  0.00     0.034 A 
ATOM     45  C   UNL     1       5.871   3.533  -2.560  1.00  0.00     0.034 A 
ATOM     46  C   UNL     1       7.591   9.585  -3.184  1.00  0.00     0.049 A 
ATOM     47  C   UNL     1       7.226   4.077  -2.175  1.00  0.00     0.074 A 
ATOM     48  C   UNL     1       7.098   9.575  -1.890  1.00  0.00     0.029 A 
ATOM     49  N   UNL     1       8.547   8.568  -3.238  1.00  0.00    -0.354 N 
ATOM     50  N   UNL     1       7.543   5.343  -2.189  1.00  0.00    -0.248 NA
ATOM     51  C   UNL     1       8.343   3.228  -1.774  1.00  0.00     0.031 C 
ATOM     52  C   UNL     1       7.697   8.482  -1.199  1.00  0.00     0.029 A 
ATOM     53  C   UNL     1       8.588   7.856  -2.054  1.00  0.00     0.049 A 
ATOM     54  H   UNL     1       9.117   8.382  -4.019  1.00  0.00     0.167 HD
ATOM     55  C   UNL     1       8.870   5.491  -1.868  1.00  0.00     0.074 A 
ATOM     56  C   UNL     1       9.311   4.138  -1.571  1.00  0.00     0.031 C 
ATOM     57  C   UNL     1       9.489   6.712  -1.905  1.00  0.00     0.034 A 
BRANCH  44  58
ATOM     58  C   UNL     1       7.079  11.778  -4.562  1.00  0.00     0.023 A 
ATOM     59  C   UNL     1       7.400  12.591  -3.448  1.00  0.00     0.031 A 
ATOM     60  C   UNL     1       6.541  12.485  -5.663  1.00  0.00     0.131 A 
ATOM     61  C   UNL     1       7.155  13.984  -3.450  1.00  0.00     0.055 A 
ATOM     62  C   UNL     1       6.339  13.871  -5.679  1.00  0.00     0.041 A 
ATOM     63  F   UNL     1       6.128  11.889  -6.784  1.00  0.00    -0.206 F 
ATOM     64  C   UNL     1       6.634  14.629  -4.565  1.00  0.00     0.022 A 
BRANCH  61  65
ATOM     65  S   UNL     1       7.450  14.953  -1.943  1.00  0.00     0.124 S 
ATOM     66  O   UNL     1       6.534  14.331  -0.993  1.00  0.00    -0.237 OA
ATOM     67  O   UNL     1       8.873  14.739  -1.709  1.00  0.00    -0.237 OA
ATOM     68  O   UNL     1       7.090  16.315  -2.339  1.00  0.00    -0.744 OA
ENDBRANCH  61  65
ENDBRANCH  44  58
BRANCH  45  69
ATOM     69  C   UNL     1       5.617   2.326  -3.395  1.00  0.00     0.023 A 
ATOM     70  C   UNL     1       4.392   1.659  -3.185  1.00  0.00     0.031 A 
ATOM     71  C   UNL     1       6.308   2.067  -4.585  1.00  0.00     0.131 A 
ATOM     72  C   UNL     1       3.804   0.918  -4.216  1.00  0.00     0.055 A 
ATOM     73  C   UNL     1       5.754   1.254  -5.584  1.00  0.00     0.041 A 
ATOM     74  F   UNL     1       7.463   2.692  -4.855  1.00  0.00    -0.206 F 
ATOM     75  C   UNL     1       4.474   0.716  -5.423  1.00  0.00     0.022 A 
BRANCH  72  76
ATOM     76  S   UNL     1       2.046   0.480  -4.074  1.00  0.00     0.124 S 
ATOM     77  O   UNL     1       2.113  -0.900  -3.612  1.00  0.00    -0.237 OA
ATOM     78  O   UNL     1       1.548   1.458  -3.107  1.00  0.00    -0.237 OA
ATOM     79  O   UNL     1       1.542   0.675  -5.431  1.00  0.00    -0.744 OA
ENDBRANCH  72  76
ENDBRANCH  45  69
BRANCH  57  80
ATOM     80  C   UNL     1      10.982   6.955  -1.746  1.00  0.00     0.023 A 
ATOM     81  C   UNL     1      11.957   5.948  -1.836  1.00  0.00     0.031 A 
ATOM     82  C   UNL     1      11.487   8.266  -1.553  1.00  0.00     0.131 A 
ATOM     83  C   UNL     1      13.324   6.227  -1.644  1.00  0.00     0.055 A 
ATOM     84  C   UNL     1      12.852   8.553  -1.442  1.00  0.00     0.041 A 
ATOM     85  F   UNL     1      10.675   9.330  -1.472  1.00  0.00    -0.206 F 
ATOM     86  C   UNL     1      13.783   7.527  -1.467  1.00  0.00     0.022 A 
BRANCH  83  87
ATOM     87  S   UNL     1      14.486   4.835  -1.568  1.00  0.00     0.124 S 
ATOM     88  O   UNL     1      14.006   4.107  -0.396  1.00  0.00    -0.237 OA
ATOM     89  O   UNL     1      14.271   4.176  -2.852  1.00  0.00    -0.237 OA
ATOM     90  O   UNL     1      15.788   5.478  -1.409  1.00  0.00    -0.744 OA
ENDBRANCH  83  87
ENDBRANCH  57  80
ENDBRANCH  31  32
ENDBRANCH  23  26
ENDBRANCH  21  22
ENDBRANCH   1  21
TORSDOF 15
