REMARK SMILES Cc1ccc(-c2ncccc2C(=O)NCCCCNC(=O)c2ccc(-c3c4nc(c(-c5cc(S(=O)(=O)[O-])ccc5F)c5ccc([nH]5)c(-c5cc(S(=O)(=O)[O-])ccc5F)c5nc(c(-c6cc(S(=O)(=O)[O-])ccc6F)c6ccc3[nH]6)C=C5)C=C4)cc2)c(C)c1
REMARK SMILES IDX 17 1 16 2 15 3 14 4 12 5 13 6 11 8 6 9 7 10 8 11 10 12 9 13
REMARK SMILES IDX 5 14 1 15 2 16 3 17 87 18 4 19 85 20 86 21 18 22 19 23 20 24
REMARK SMILES IDX 21 26 22 27 23 28 84 29 24 30 83 31 25 32 26 33 27 34 77 35
REMARK SMILES IDX 28 36 82 37 76 38 78 39 29 40 81 41 75 42 74 43 30 45 62 46
REMARK SMILES IDX 42 47 61 48 43 49 46 50 60 51 79 52 44 53 45 54 59 56 80 57
REMARK SMILES IDX 47 58 31 59 32 60 40 61 33 62 39 63 41 64 38 65 34 66 35 67
REMARK SMILES IDX 36 68 37 69 63 70 64 71 72 72 65 73 71 74 73 75 70 76 66 77
REMARK SMILES IDX 67 78 68 79 69 80 48 81 49 82 57 83 50 84 56 85 58 86 55 87
REMARK SMILES IDX 51 88 52 89 53 90 54 91
REMARK H PARENT 14 7 19 25 78 44 46 55
REMARK Flexibility Score: inf
ROOT
ATOM      1  C   UNL     1      -2.253  -6.512   4.235  1.00  0.00     0.023 C 
ENDROOT
BRANCH   1   2
ATOM      2  C   UNL     1      -3.227  -5.864   3.239  1.00  0.00     0.023 C 
BRANCH   2   3
ATOM      3  C   UNL     1      -3.561  -4.404   3.548  1.00  0.00     0.116 C 
BRANCH   3   4
ATOM      4  N   UNL     1      -2.453  -3.538   3.207  1.00  0.00    -0.352 N 
ATOM      5  C   UNL     1      -2.069  -2.808   2.111  1.00  0.00     0.253 C 
ATOM      6  O   UNL     1      -1.018  -2.191   2.286  1.00  0.00    -0.269 OA
ATOM      7  H   UNL     1      -1.812  -3.451   3.950  1.00  0.00     0.163 HD
BRANCH   5   8
ATOM      8  C   UNL     1      -2.826  -2.695   0.816  1.00  0.00     0.066 A 
ATOM      9  C   UNL     1      -2.442  -1.760  -0.172  1.00  0.00     0.083 A 
ATOM     10  N   UNL     1      -3.173  -1.538  -1.312  1.00  0.00    -0.255 NA
ATOM     11  C   UNL     1      -4.284  -2.266  -1.511  1.00  0.00     0.112 A 
ATOM     12  C   UNL     1      -3.947  -3.478   0.510  1.00  0.00     0.018 A 
ATOM     13  C   UNL     1      -4.696  -3.253  -0.647  1.00  0.00     0.021 A 
BRANCH   9  14
ATOM     14  C   UNL     1      -1.195  -0.966  -0.165  1.00  0.00     0.004 A 
ATOM     15  C   UNL     1       2.567   1.182  -0.064  1.00  0.00     0.044 C 
ATOM     16  C   UNL     1       1.271   0.433  -0.129  1.00  0.00    -0.051 A 
ATOM     17  C   UNL     1       1.251  -0.948  -0.307  1.00  0.00     0.004 A 
ATOM     18  C   UNL     1       0.055   1.119  -0.011  1.00  0.00     0.007 A 
ATOM     19  C   UNL     1       0.035  -1.633  -0.339  1.00  0.00     0.011 A 
ATOM     20  C   UNL     1      -1.178   0.438  -0.018  1.00  0.00    -0.041 A 
ATOM     21  C   UNL     1      -2.436   1.257   0.088  1.00  0.00     0.045 C 
ENDBRANCH   9  14
ENDBRANCH   5   8
ENDBRANCH   3   4
ENDBRANCH   2   3
ENDBRANCH   1   2
BRANCH   1  22
ATOM     22  C   UNL     1      -2.694  -6.486   5.697  1.00  0.00     0.116 C 
BRANCH  22  23
ATOM     23  N   UNL     1      -4.028  -7.027   5.904  1.00  0.00    -0.352 N 
ATOM     24  C   UNL     1      -4.534  -7.673   7.008  1.00  0.00     0.251 C 
ATOM     25  H   UNL     1      -4.653  -6.917   5.151  1.00  0.00     0.163 HD
ATOM     26  O   UNL     1      -5.655  -8.159   6.969  1.00  0.00    -0.269 OA
BRANCH  24  27
ATOM     27  C   UNL     1      -3.692  -7.808   8.216  1.00  0.00     0.039 A 
ATOM     28  C   UNL     1      -3.559  -9.069   8.802  1.00  0.00     0.014 A 
ATOM     29  C   UNL     1      -3.018  -6.706   8.748  1.00  0.00     0.014 A 
ATOM     30  C   UNL     1      -2.692  -9.239   9.883  1.00  0.00     0.010 A 
ATOM     31  C   UNL     1      -2.108  -6.890   9.785  1.00  0.00     0.010 A 
ATOM     32  C   UNL     1      -1.932  -8.158  10.359  1.00  0.00    -0.014 A 
BRANCH  32  33
ATOM     33  C   UNL     1      -0.947  -8.336  11.456  1.00  0.00     0.031 A 
ATOM     34  C   UNL     1      -1.158  -7.651  12.776  1.00  0.00     0.074 A 
ATOM     35  C   UNL     1       0.167  -9.062  11.238  1.00  0.00     0.049 A 
ATOM     36  N   UNL     1      -0.384  -7.626  13.831  1.00  0.00    -0.248 NA
ATOM     37  C   UNL     1      -2.391  -6.863  12.913  1.00  0.00     0.031 C 
ATOM     38  C   UNL     1       0.499  -9.742   9.984  1.00  0.00     0.029 A 
ATOM     39  N   UNL     1       1.227  -9.344  12.060  1.00  0.00    -0.354 N 
ATOM     40  C   UNL     1      -1.032  -6.814  14.756  1.00  0.00     0.074 A 
ATOM     41  C   UNL     1      -2.223  -6.310  14.104  1.00  0.00     0.031 C 
ATOM     42  C   UNL     1       1.667 -10.388  10.133  1.00  0.00     0.029 A 
ATOM     43  C   UNL     1       2.186 -10.135  11.473  1.00  0.00     0.049 A 
ATOM     44  H   UNL     1       1.295  -9.012  12.985  1.00  0.00     0.167 HD
ATOM     45  C   UNL     1      -0.682  -6.538  16.038  1.00  0.00     0.034 A 
ATOM     46  C   UNL     1       3.354 -10.599  11.959  1.00  0.00     0.034 A 
ATOM     47  C   UNL     1       0.512  -7.048  16.669  1.00  0.00     0.049 A 
ATOM     48  C   UNL     1       3.747 -10.246  13.370  1.00  0.00     0.074 A 
ATOM     49  C   UNL     1       0.949  -6.867  17.970  1.00  0.00     0.029 A 
ATOM     50  N   UNL     1       1.470  -7.834  16.038  1.00  0.00    -0.354 N 
ATOM     51  N   UNL     1       3.104  -9.512  14.248  1.00  0.00    -0.248 NA
ATOM     52  C   UNL     1       5.019 -10.794  13.855  1.00  0.00     0.031 C 
ATOM     53  C   UNL     1       2.196  -7.489  18.106  1.00  0.00     0.029 A 
ATOM     54  C   UNL     1       2.507  -8.121  16.913  1.00  0.00     0.049 A 
ATOM     55  H   UNL     1       1.419  -8.142  15.104  1.00  0.00     0.167 HD
ATOM     56  C   UNL     1       3.882  -9.536  15.402  1.00  0.00     0.074 A 
ATOM     57  C   UNL     1       5.034 -10.365  15.108  1.00  0.00     0.031 C 
ATOM     58  C   UNL     1       3.660  -8.934  16.599  1.00  0.00     0.034 A 
BRANCH  45  59
ATOM     59  C   UNL     1      -1.599  -5.621  16.815  1.00  0.00     0.023 A 
ATOM     60  C   UNL     1      -2.944  -5.958  17.052  1.00  0.00     0.031 A 
ATOM     61  C   UNL     1      -1.149  -4.368  17.266  1.00  0.00     0.131 A 
ATOM     62  C   UNL     1      -3.815  -5.016  17.620  1.00  0.00     0.055 A 
ATOM     63  C   UNL     1      -1.999  -3.472  17.919  1.00  0.00     0.041 A 
ATOM     64  F   UNL     1       0.118  -3.979  17.056  1.00  0.00    -0.206 F 
ATOM     65  C   UNL     1      -3.346  -3.784  18.079  1.00  0.00     0.022 A 
BRANCH  62  66
ATOM     66  S   UNL     1      -5.597  -5.354  17.576  1.00  0.00     0.124 S 
ATOM     67  O   UNL     1      -5.827  -5.538  16.144  1.00  0.00    -0.237 OA
ATOM     68  O   UNL     1      -5.712  -6.551  18.401  1.00  0.00    -0.237 OA
ATOM     69  O   UNL     1      -6.189  -4.144  18.143  1.00  0.00    -0.744 OA
ENDBRANCH  62  66
ENDBRANCH  45  59
BRANCH  46  70
ATOM     70  C   UNL     1       4.232 -11.455  11.114  1.00  0.00     0.023 A 
ATOM     71  C   UNL     1       4.443 -12.804  11.437  1.00  0.00     0.031 A 
ATOM     72  C   UNL     1       4.889 -10.933   9.986  1.00  0.00     0.131 A 
ATOM     73  C   UNL     1       5.319 -13.579  10.662  1.00  0.00     0.055 A 
ATOM     74  C   UNL     1       5.726 -11.720   9.193  1.00  0.00     0.041 A 
ATOM     75  F   UNL     1       4.713  -9.651   9.630  1.00  0.00    -0.206 F 
ATOM     76  C   UNL     1       5.953 -13.050   9.536  1.00  0.00     0.022 A 
BRANCH  73  77
ATOM     77  S   UNL     1       5.664 -15.282  11.184  1.00  0.00     0.124 S 
ATOM     78  O   UNL     1       6.240 -15.076  12.508  1.00  0.00    -0.237 OA
ATOM     79  O   UNL     1       4.335 -15.884  11.148  1.00  0.00    -0.237 OA
ATOM     80  O   UNL     1       6.593 -15.768  10.166  1.00  0.00    -0.744 OA
ENDBRANCH  73  77
ENDBRANCH  46  70
BRANCH  58  81
ATOM     81  C   UNL     1       4.671  -9.194  17.689  1.00  0.00     0.023 A 
ATOM     82  C   UNL     1       5.986  -8.704  17.611  1.00  0.00     0.031 A 
ATOM     83  C   UNL     1       4.315  -9.961  18.813  1.00  0.00     0.131 A 
ATOM     84  C   UNL     1       6.914  -9.033  18.611  1.00  0.00     0.055 A 
ATOM     85  C   UNL     1       5.226 -10.236  19.833  1.00  0.00     0.041 A 
ATOM     86  F   UNL     1       3.073 -10.456  18.937  1.00  0.00    -0.206 F 
ATOM     87  C   UNL     1       6.538  -9.783  19.729  1.00  0.00     0.022 A 
BRANCH  84  88
ATOM     88  S   UNL     1       8.647  -8.545  18.388  1.00  0.00     0.124 S 
ATOM     89  O   UNL     1       8.989  -9.206  17.132  1.00  0.00    -0.237 OA
ATOM     90  O   UNL     1       8.557  -7.089  18.338  1.00  0.00    -0.237 OA
ATOM     91  O   UNL     1       9.311  -9.083  19.573  1.00  0.00    -0.744 OA
ENDBRANCH  84  88
ENDBRANCH  58  81
ENDBRANCH  32  33
ENDBRANCH  24  27
ENDBRANCH  22  23
ENDBRANCH   1  22
TORSDOF 15
