REMARK SMILES O=C(NCCCCNC(=O)[C@@]1([NH2+]C2CC2)CC[C@@H]([N@@H+]2CC[N@@H+]3CCC[C@@H]3C2)C1)c1ccc(-c2c3nc(c(-c4cc(S(=O)(=O)[O-])ccc4F)c4ccc([nH]4)c(-c4cc(S(=O)(=O)[O-])ccc4F)c4nc(c(-c5cc(S(=O)(=O)[O-])ccc5F)c5ccc2[nH]5)C=C4)C=C3)cc1
REMARK SMILES IDX 5 1 4 2 3 3 1 4 2 5 29 7 30 8 91 9 31 10 90 11 32 12 33 13
REMARK SMILES IDX 34 14 84 15 35 16 89 17 83 18 85 19 36 20 88 21 82 22 81 23
REMARK SMILES IDX 37 25 69 26 49 27 68 28 50 29 53 30 67 31 86 32 51 33 52 34
REMARK SMILES IDX 66 36 87 37 54 38 38 39 39 40 47 41 40 42 46 43 48 44 45 45
REMARK SMILES IDX 41 46 42 47 43 48 44 49 70 50 71 51 79 52 72 53 78 54 80 55
REMARK SMILES IDX 77 56 73 57 74 58 75 59 76 60 55 61 56 62 64 63 57 64 63 65
REMARK SMILES IDX 65 66 62 67 58 68 59 69 60 70 61 71 6 72 7 73 8 74 9 75
REMARK SMILES IDX 10 77 11 78 16 79 28 80 17 81 18 82 12 83 13 86 14 87 15 88
REMARK SMILES IDX 19 89 20 90 27 91 21 93 26 94 22 95 25 96 23 97 24 99
REMARK H PARENT 3 6 85 24 53 35 8 76 12 84 12 85 19 92 22 98
REMARK Flexibility Score: inf
ROOT
ATOM      1  C   UNL     1       5.441  -2.045   1.390  1.00  0.00     0.023 C 
ENDROOT
BRANCH   1   2
ATOM      2  C   UNL     1       4.928  -1.438   0.086  1.00  0.00     0.116 C 
BRANCH   2   3
ATOM      3  N   UNL     1       3.480  -1.291   0.023  1.00  0.00    -0.352 N 
ATOM      4  O   UNL     1       1.457  -0.318   0.147  1.00  0.00    -0.269 OA
ATOM      5  C   UNL     1       2.675  -0.181   0.167  1.00  0.00     0.251 C 
ATOM      6  H   UNL     1       2.993  -2.128  -0.152  1.00  0.00     0.163 HD
BRANCH   5   7
ATOM      7  C   UNL     1       3.260   1.164   0.387  1.00  0.00     0.039 A 
ATOM      8  C   UNL     1       4.330   1.627  -0.376  1.00  0.00     0.014 A 
ATOM      9  C   UNL     1       2.713   1.986   1.379  1.00  0.00     0.014 A 
ATOM     10  C   UNL     1       4.980   2.805  -0.017  1.00  0.00     0.010 A 
ATOM     11  C   UNL     1       3.308   3.218   1.675  1.00  0.00     0.010 A 
ATOM     12  C   UNL     1       4.485   3.613   1.020  1.00  0.00    -0.014 A 
BRANCH  12  13
ATOM     13  C   UNL     1       5.218   4.853   1.399  1.00  0.00     0.031 A 
ATOM     14  C   UNL     1       5.832   5.001   2.768  1.00  0.00     0.074 A 
ATOM     15  C   UNL     1       5.376   5.833   0.487  1.00  0.00     0.049 A 
ATOM     16  N   UNL     1       6.530   5.994   3.262  1.00  0.00    -0.248 NA
ATOM     17  C   UNL     1       5.623   3.893   3.711  1.00  0.00     0.031 C 
ATOM     18  C   UNL     1       4.832   5.810  -0.872  1.00  0.00     0.029 A 
ATOM     19  N   UNL     1       6.056   7.022   0.552  1.00  0.00    -0.354 N 
ATOM     20  C   UNL     1       6.827   5.641   4.575  1.00  0.00     0.074 A 
ATOM     21  C   UNL     1       6.194   4.360   4.811  1.00  0.00     0.031 C 
ATOM     22  C   UNL     1       5.245   6.902  -1.529  1.00  0.00     0.029 A 
ATOM     23  C   UNL     1       6.025   7.737  -0.622  1.00  0.00     0.049 A 
ATOM     24  H   UNL     1       6.522   7.334   1.361  1.00  0.00     0.167 HD
ATOM     25  C   UNL     1       7.566   6.316   5.494  1.00  0.00     0.034 A 
ATOM     26  C   UNL     1       6.551   8.938  -0.935  1.00  0.00     0.034 A 
ATOM     27  C   UNL     1       8.197   7.591   5.241  1.00  0.00     0.049 A 
ATOM     28  C   UNL     1       7.329   9.688   0.111  1.00  0.00     0.074 A 
ATOM     29  C   UNL     1       8.995   8.343   6.087  1.00  0.00     0.029 A 
ATOM     30  N   UNL     1       8.093   8.312   4.057  1.00  0.00    -0.354 N 
ATOM     31  N   UNL     1       7.609   9.334   1.344  1.00  0.00    -0.248 NA
ATOM     32  C   UNL     1       7.863  10.998  -0.280  1.00  0.00     0.031 C 
ATOM     33  C   UNL     1       9.315   9.544   5.442  1.00  0.00     0.029 A 
ATOM     34  C   UNL     1       8.782   9.512   4.163  1.00  0.00     0.049 A 
ATOM     35  H   UNL     1       7.602   8.014   3.257  1.00  0.00     0.167 HD
ATOM     36  C   UNL     1       8.369  10.373   1.871  1.00  0.00     0.074 A 
ATOM     37  C   UNL     1       8.517  11.356   0.816  1.00  0.00     0.031 C 
ATOM     38  C   UNL     1       8.902  10.499   3.114  1.00  0.00     0.034 A 
BRANCH  25  39
ATOM     39  C   UNL     1       7.684   5.704   6.873  1.00  0.00     0.023 A 
ATOM     40  C   UNL     1       8.296   4.455   7.084  1.00  0.00     0.031 A 
ATOM     41  C   UNL     1       7.136   6.359   7.990  1.00  0.00     0.131 A 
ATOM     42  C   UNL     1       8.267   3.863   8.357  1.00  0.00     0.055 A 
ATOM     43  C   UNL     1       7.186   5.805   9.271  1.00  0.00     0.041 A 
ATOM     44  F   UNL     1       6.522   7.545   7.854  1.00  0.00    -0.206 F 
ATOM     45  C   UNL     1       7.737   4.540   9.457  1.00  0.00     0.022 A 
BRANCH  42  46
ATOM     46  S   UNL     1       8.774   2.128   8.518  1.00  0.00     0.124 S 
ATOM     47  O   UNL     1       7.911   1.473   7.536  1.00  0.00    -0.237 OA
ATOM     48  O   UNL     1      10.192   2.182   8.185  1.00  0.00    -0.237 OA
ATOM     49  O   UNL     1       8.469   1.809   9.911  1.00  0.00    -0.744 OA
ENDBRANCH  42  46
ENDBRANCH  25  39
BRANCH  26  50
ATOM     50  C   UNL     1       6.337   9.511  -2.293  1.00  0.00     0.023 A 
ATOM     51  C   UNL     1       7.408   9.691  -3.181  1.00  0.00     0.031 A 
ATOM     52  C   UNL     1       5.051   9.888  -2.720  1.00  0.00     0.131 A 
ATOM     53  C   UNL     1       7.178  10.258  -4.444  1.00  0.00     0.055 A 
ATOM     54  C   UNL     1       4.820  10.406  -3.994  1.00  0.00     0.041 A 
ATOM     55  F   UNL     1       3.993   9.729  -1.909  1.00  0.00    -0.206 F 
ATOM     56  C   UNL     1       5.890  10.602  -4.862  1.00  0.00     0.022 A 
BRANCH  53  57
ATOM     57  S   UNL     1       8.599  10.585  -5.522  1.00  0.00     0.124 S 
ATOM     58  O   UNL     1       9.377  11.517  -4.714  1.00  0.00    -0.237 OA
ATOM     59  O   UNL     1       9.167   9.251  -5.689  1.00  0.00    -0.237 OA
ATOM     60  O   UNL     1       7.991  11.155  -6.722  1.00  0.00    -0.744 OA
ENDBRANCH  53  57
ENDBRANCH  26  50
BRANCH  38  61
ATOM     61  C   UNL     1       9.726  11.736   3.377  1.00  0.00     0.023 A 
ATOM     62  C   UNL     1       9.147  13.017   3.412  1.00  0.00     0.031 A 
ATOM     63  C   UNL     1      11.116  11.632   3.564  1.00  0.00     0.131 A 
ATOM     64  C   UNL     1       9.963  14.148   3.569  1.00  0.00     0.055 A 
ATOM     65  C   UNL     1      11.914  12.756   3.779  1.00  0.00     0.041 A 
ATOM     66  F   UNL     1      11.721  10.434   3.537  1.00  0.00    -0.206 F 
ATOM     67  C   UNL     1      11.341  14.025   3.768  1.00  0.00     0.022 A 
BRANCH  64  68
ATOM     68  S   UNL     1       9.214  15.793   3.412  1.00  0.00     0.124 S 
ATOM     69  O   UNL     1       8.643  15.739   2.069  1.00  0.00    -0.237 OA
ATOM     70  O   UNL     1       8.255  15.806   4.512  1.00  0.00    -0.237 OA
ATOM     71  O   UNL     1      10.347  16.703   3.567  1.00  0.00    -0.744 OA
ENDBRANCH  64  68
ENDBRANCH  38  61
ENDBRANCH  12  13
ENDBRANCH   5   7
ENDBRANCH   2   3
ENDBRANCH   1   2
BRANCH   1  72
ATOM     72  C   UNL     1       5.085  -3.510   1.667  1.00  0.00     0.023 C 
BRANCH  72  73
ATOM     73  C   UNL     1       5.170  -4.472   0.484  1.00  0.00     0.116 C 
BRANCH  73  74
ATOM     74  N   UNL     1       6.451  -4.521  -0.189  1.00  0.00    -0.351 N 
ATOM     75  C   UNL     1       6.844  -5.217  -1.301  1.00  0.00     0.281 C 
ATOM     76  H   UNL     1       7.153  -3.964   0.218  1.00  0.00     0.163 HD
ATOM     77  O   UNL     1       7.938  -4.884  -1.777  1.00  0.00    -0.268 OA
BRANCH  75  78
ATOM     78  C   UNL     1       6.082  -6.449  -1.880  1.00  0.00     0.181 C 
ATOM     79  C   UNL     1       6.489  -6.792  -3.329  1.00  0.00     0.085 C 
ATOM     80  C   UNL     1       6.632  -7.726  -1.164  1.00  0.00     0.144 C 
ATOM     81  C   UNL     1       6.056  -8.247  -3.483  1.00  0.00     0.072 C 
ATOM     82  C   UNL     1       6.509  -8.904  -2.169  1.00  0.00     0.191 C 
BRANCH  78  83
ATOM     83  N   UNL     1       4.602  -6.405  -1.785  1.00  0.00    -0.331 N 
ATOM     84  H   UNL     1       4.373  -6.461  -0.793  1.00  0.00     0.347 HD
ATOM     85  H   UNL     1       4.316  -7.174  -2.391  1.00  0.00     0.347 HD
BRANCH  83  86
ATOM     86  C   UNL     1       3.841  -5.268  -2.325  1.00  0.00     0.183 C 
ATOM     87  C   UNL     1       4.412  -4.167  -3.173  1.00  0.00     0.071 C 
ATOM     88  C   UNL     1       3.499  -5.190  -3.784  1.00  0.00     0.071 C 
ENDBRANCH  83  86
ENDBRANCH  78  83
BRANCH  82  89
ATOM     89  N   UNL     1       7.697  -9.743  -2.368  1.00  0.00    -0.323 N 
ATOM     90  C   UNL     1       8.091 -10.584  -1.227  1.00  0.00     0.324 C 
ATOM     91  C   UNL     1       8.855  -9.150  -3.038  1.00  0.00     0.328 C 
ATOM     92  H   UNL     1       7.308 -10.371  -3.071  1.00  0.00     0.348 HD
ATOM     93  C   UNL     1       9.604 -10.975  -1.177  1.00  0.00     0.324 C 
ATOM     94  C   UNL     1       9.796 -10.275  -3.518  1.00  0.00     0.240 C 
ATOM     95  N   UNL     1      10.228 -11.239  -2.482  1.00  0.00    -0.323 N 
ATOM     96  C   UNL     1      11.066  -9.736  -4.168  1.00  0.00     0.077 C 
ATOM     97  C   UNL     1      11.694 -11.216  -2.435  1.00  0.00     0.263 C 
ATOM     98  H   UNL     1       9.915 -12.178  -2.726  1.00  0.00     0.348 HD
ATOM     99  C   UNL     1      12.102 -10.789  -3.835  1.00  0.00     0.068 C 
ENDBRANCH  82  89
ENDBRANCH  75  78
ENDBRANCH  73  74
ENDBRANCH  72  73
ENDBRANCH   1  72
TORSDOF 17
