REMARK SMILES COc1ccc(C(=O)NCCCCNC(=O)c2ccc(-c3c4nc(c(-c5cc(S(=O)(=O)[O-])ccc5F)c5ccc([nH]5)c(-c5cc(S(=O)(=O)[O-])ccc5F)c5nc(c(-c6cc(S(=O)(=O)[O-])ccc6F)c6ccc3[nH]6)C=C5)C=C4)cc2)cc1NC(=O)c1ccccc1[N+](=O)[O-]
REMARK SMILES IDX 11 1 10 2 9 3 7 4 8 5 6 7 3 8 4 9 81 10 5 11 80 12 2 13 1 14
REMARK SMILES IDX 82 15 83 16 84 18 85 19 86 20 90 21 87 22 89 23 88 24 91 25
REMARK SMILES IDX 92 26 93 27 12 28 13 29 14 30 15 31 16 33 17 34 18 35 79 36
REMARK SMILES IDX 19 37 78 38 20 39 21 40 22 41 72 42 23 43 77 44 71 45 73 46
REMARK SMILES IDX 24 47 76 48 70 49 69 50 25 52 57 53 37 54 56 55 38 56 41 57
REMARK SMILES IDX 55 58 74 59 39 60 40 61 54 63 75 64 42 65 26 66 27 67 35 68
REMARK SMILES IDX 28 69 34 70 36 71 33 72 29 73 30 74 31 75 32 76 58 77 59 78
REMARK SMILES IDX 67 79 60 80 66 81 68 82 65 83 61 84 62 85 63 86 64 87 43 88
REMARK SMILES IDX 44 89 52 90 45 91 51 92 53 93 50 94 46 95 47 96 48 97 49 98
REMARK H PARENT 9 6 82 17 14 32 73 51 41 62
REMARK Flexibility Score: inf
ROOT
ATOM      1  C   UNL     1       4.951  -5.433  -4.553  1.00  0.00     0.023 C 
ENDROOT
BRANCH   1   2
ATOM      2  C   UNL     1       3.824  -4.574  -5.130  1.00  0.00     0.116 C 
BRANCH   2   3
ATOM      3  N   UNL     1       2.554  -5.259  -5.022  1.00  0.00    -0.352 N 
ATOM      4  C   UNL     1       1.443  -5.068  -4.245  1.00  0.00     0.251 C 
ATOM      5  O   UNL     1       0.484  -5.813  -4.461  1.00  0.00    -0.269 OA
ATOM      6  H   UNL     1       2.471  -6.024  -5.636  1.00  0.00     0.163 HD
BRANCH   4   7
ATOM      7  C   UNL     1       1.303  -4.023  -3.186  1.00  0.00     0.042 A 
ATOM      8  C   UNL     1       0.754  -2.232  -1.099  1.00  0.00     0.142 A 
ATOM      9  C   UNL     1      -0.299  -2.799  -1.804  1.00  0.00     0.049 A 
ATOM     10  C   UNL     1       2.087  -2.530  -1.431  1.00  0.00     0.084 A 
ATOM     11  C   UNL     1      -0.021  -3.669  -2.856  1.00  0.00     0.018 A 
ATOM     12  C   UNL     1       2.357  -3.462  -2.446  1.00  0.00     0.044 A 
BRANCH   8  13
ATOM     13  O   UNL     1       0.454  -1.427  -0.027  1.00  0.00    -0.495 OA
ATOM     14  C   UNL     1       0.464  -0.046  -0.398  1.00  0.00     0.278 C 
ENDBRANCH   8  13
BRANCH  10  15
ATOM     15  N   UNL     1       3.075  -1.883  -0.672  1.00  0.00    -0.319 N 
ATOM     16  C   UNL     1       4.370  -1.517  -0.919  1.00  0.00     0.262 C 
ATOM     17  H   UNL     1       2.771  -1.640   0.233  1.00  0.00     0.170 HD
ATOM     18  O   UNL     1       5.066  -1.095   0.005  1.00  0.00    -0.269 OA
BRANCH  16  19
ATOM     19  C   UNL     1       4.969  -1.542  -2.268  1.00  0.00     0.117 A 
ATOM     20  C   UNL     1       6.249  -2.109  -2.362  1.00  0.00     0.021 A 
ATOM     21  C   UNL     1       4.417  -0.952  -3.409  1.00  0.00     0.282 A 
ATOM     22  C   UNL     1       6.934  -2.117  -3.579  1.00  0.00     0.001 A 
ATOM     23  C   UNL     1       5.081  -0.996  -4.646  1.00  0.00     0.086 A 
ATOM     24  C   UNL     1       6.342  -1.584  -4.724  1.00  0.00     0.007 A 
BRANCH  21  25
ATOM     25  N   UNL     1       3.175  -0.208  -3.353  1.00  0.00     0.063 N 
ATOM     26  O   UNL     1       2.314  -0.488  -4.198  1.00  0.00    -0.258 OA
ATOM     27  O   UNL     1       3.073   0.677  -2.494  1.00  0.00    -0.258 OA
ENDBRANCH  21  25
ENDBRANCH  16  19
ENDBRANCH  10  15
ENDBRANCH   4   7
ENDBRANCH   2   3
ENDBRANCH   1   2
BRANCH   1  28
ATOM     28  C   UNL     1       5.710  -6.260  -5.600  1.00  0.00     0.023 C 
BRANCH  28  29
ATOM     29  C   UNL     1       6.540  -5.452  -6.601  1.00  0.00     0.116 C 
BRANCH  29  30
ATOM     30  N   UNL     1       7.545  -4.609  -5.971  1.00  0.00    -0.352 N 
ATOM     31  C   UNL     1       8.727  -4.125  -6.486  1.00  0.00     0.251 C 
ATOM     32  H   UNL     1       7.351  -4.346  -5.043  1.00  0.00     0.163 HD
ATOM     33  O   UNL     1       9.447  -3.413  -5.797  1.00  0.00    -0.269 OA
BRANCH  31  34
ATOM     34  C   UNL     1       9.148  -4.546  -7.838  1.00  0.00     0.039 A 
ATOM     35  C   UNL     1      10.392  -5.168  -7.975  1.00  0.00     0.014 A 
ATOM     36  C   UNL     1       8.280  -4.441  -8.927  1.00  0.00     0.014 A 
ATOM     37  C   UNL     1      10.708  -5.812  -9.171  1.00  0.00     0.010 A 
ATOM     38  C   UNL     1       8.574  -5.128 -10.100  1.00  0.00     0.010 A 
ATOM     39  C   UNL     1       9.767  -5.861 -10.211  1.00  0.00    -0.014 A 
BRANCH  39  40
ATOM     40  C   UNL     1       9.949  -6.775 -11.366  1.00  0.00     0.031 A 
ATOM     41  C   UNL     1      10.124  -6.229 -12.751  1.00  0.00     0.074 A 
ATOM     42  C   UNL     1       9.837  -8.104 -11.161  1.00  0.00     0.049 A 
ATOM     43  N   UNL     1      10.171  -6.869 -13.889  1.00  0.00    -0.248 NA
ATOM     44  C   UNL     1      10.234  -4.768 -12.871  1.00  0.00     0.031 C 
ATOM     45  C   UNL     1       9.620  -8.743  -9.859  1.00  0.00     0.029 A 
ATOM     46  N   UNL     1       9.869  -9.157 -12.040  1.00  0.00    -0.354 N 
ATOM     47  C   UNL     1      10.297  -5.890 -14.869  1.00  0.00     0.074 A 
ATOM     48  C   UNL     1      10.285  -4.612 -14.187  1.00  0.00     0.031 C 
ATOM     49  C   UNL     1       9.551 -10.073 -10.025  1.00  0.00     0.029 A 
ATOM     50  C   UNL     1       9.670 -10.382 -11.445  1.00  0.00     0.049 A 
ATOM     51  H   UNL     1      10.021  -9.046 -13.007  1.00  0.00     0.167 HD
ATOM     52  C   UNL     1      10.418  -6.050 -16.209  1.00  0.00     0.034 A 
ATOM     53  C   UNL     1       9.572 -11.613 -11.985  1.00  0.00     0.034 A 
ATOM     54  C   UNL     1      10.443  -7.335 -16.866  1.00  0.00     0.049 A 
ATOM     55  C   UNL     1       9.695 -11.757 -13.480  1.00  0.00     0.074 A 
ATOM     56  C   UNL     1      10.643  -7.614 -18.207  1.00  0.00     0.029 A 
ATOM     57  N   UNL     1      10.248  -8.555 -16.233  1.00  0.00    -0.354 N 
ATOM     58  N   UNL     1       9.880 -10.824 -14.385  1.00  0.00    -0.248 NA
ATOM     59  C   UNL     1       9.597 -13.117 -14.024  1.00  0.00     0.031 C 
ATOM     60  C   UNL     1      10.511  -8.995 -18.393  1.00  0.00     0.029 A 
ATOM     61  C   UNL     1      10.288  -9.586 -17.160  1.00  0.00     0.049 A 
ATOM     62  H   UNL     1      10.104  -8.672 -15.266  1.00  0.00     0.167 HD
ATOM     63  C   UNL     1       9.950 -11.491 -15.604  1.00  0.00     0.074 A 
ATOM     64  C   UNL     1       9.799 -12.903 -15.315  1.00  0.00     0.031 C 
ATOM     65  C   UNL     1      10.125 -10.986 -16.851  1.00  0.00     0.034 A 
BRANCH  52  66
ATOM     66  C   UNL     1      10.498  -4.803 -17.052  1.00  0.00     0.023 A 
ATOM     67  C   UNL     1      11.588  -3.921 -16.965  1.00  0.00     0.031 A 
ATOM     68  C   UNL     1       9.458  -4.482 -17.942  1.00  0.00     0.131 A 
ATOM     69  C   UNL     1      11.583  -2.728 -17.704  1.00  0.00     0.055 A 
ATOM     70  C   UNL     1       9.493  -3.329 -18.728  1.00  0.00     0.041 A 
ATOM     71  F   UNL     1       8.383  -5.279 -18.052  1.00  0.00    -0.206 F 
ATOM     72  C   UNL     1      10.554  -2.437 -18.602  1.00  0.00     0.022 A 
BRANCH  69  73
ATOM     73  S   UNL     1      12.883  -1.505 -17.384  1.00  0.00     0.124 S 
ATOM     74  O   UNL     1      12.649  -1.189 -15.977  1.00  0.00    -0.237 OA
ATOM     75  O   UNL     1      14.100  -2.252 -17.677  1.00  0.00    -0.237 OA
ATOM     76  O   UNL     1      12.574  -0.424 -18.318  1.00  0.00    -0.744 OA
ENDBRANCH  69  73
ENDBRANCH  52  66
BRANCH  53  77
ATOM     77  C   UNL     1       9.325 -12.806 -11.127  1.00  0.00     0.023 A 
ATOM     78  C   UNL     1      10.286 -13.823 -11.019  1.00  0.00     0.031 A 
ATOM     79  C   UNL     1       8.105 -12.975 -10.449  1.00  0.00     0.131 A 
ATOM     80  C   UNL     1       9.993 -14.989 -10.294  1.00  0.00     0.055 A 
ATOM     81  C   UNL     1       7.837 -14.115  -9.688  1.00  0.00     0.041 A 
ATOM     82  F   UNL     1       7.155 -12.029 -10.512  1.00  0.00    -0.206 F 
ATOM     83  C   UNL     1       8.779 -15.137  -9.620  1.00  0.00     0.022 A 
BRANCH  80  84
ATOM     84  S   UNL     1      11.189 -16.352 -10.325  1.00  0.00     0.124 S 
ATOM     85  O   UNL     1      11.339 -16.584 -11.757  1.00  0.00    -0.237 OA
ATOM     86  O   UNL     1      12.337 -15.759  -9.647  1.00  0.00    -0.237 OA
ATOM     87  O   UNL     1      10.512 -17.415  -9.586  1.00  0.00    -0.744 OA
ENDBRANCH  80  84
ENDBRANCH  53  77
BRANCH  65  88
ATOM     88  C   UNL     1      10.202 -11.981 -17.979  1.00  0.00     0.023 A 
ATOM     89  C   UNL     1       9.076 -12.713 -18.392  1.00  0.00     0.031 A 
ATOM     90  C   UNL     1      11.425 -12.215 -18.631  1.00  0.00     0.131 A 
ATOM     91  C   UNL     1       9.206 -13.684 -19.395  1.00  0.00     0.055 A 
ATOM     92  C   UNL     1      11.537 -13.145 -19.665  1.00  0.00     0.041 A 
ATOM     93  F   UNL     1      12.530 -11.543 -18.272  1.00  0.00    -0.206 F 
ATOM     94  C   UNL     1      10.426 -13.894 -20.044  1.00  0.00     0.022 A 
BRANCH  91  95
ATOM     95  S   UNL     1       7.774 -14.724 -19.790  1.00  0.00     0.124 S 
ATOM     96  O   UNL     1       7.522 -15.389 -18.516  1.00  0.00    -0.237 OA
ATOM     97  O   UNL     1       6.778 -13.742 -20.204  1.00  0.00    -0.237 OA
ATOM     98  O   UNL     1       8.266 -15.594 -20.858  1.00  0.00    -0.744 OA
ENDBRANCH  91  95
ENDBRANCH  65  88
ENDBRANCH  39  40
ENDBRANCH  31  34
ENDBRANCH  29  30
ENDBRANCH  28  29
ENDBRANCH   1  28
TORSDOF 18
