REMARK SMILES CCn1c(CC2CC[NH+](Cc3cn[nH]c3C(=O)NCCCCNC(=O)c3ccc(-c4c5nc(c(-c6cc(S(=O)(=O)[O-])ccc6F)c6ccc([nH]6)c(-c6cc(S(=O)(=O)[O-])ccc6F)c6nc(c(-c7cc(S(=O)(=O)[O-])ccc7F)c7ccc4[nH]7)C=C6)C=C5)cc3)CC2)nn(C)c1=O
REMARK SMILES IDX 19 1 18 2 16 3 17 4 15 6 11 7 12 8 13 9 14 10 10 12 9 13
REMARK SMILES IDX 6 14 7 15 90 16 8 17 89 18 5 20 4 21 3 22 94 23 91 24 92 25
REMARK SMILES IDX 95 26 93 27 2 28 1 29 20 30 21 31 22 32 23 33 24 34 25 36
REMARK SMILES IDX 26 37 27 38 88 39 28 40 87 41 29 42 30 43 31 44 81 45 32 46
REMARK SMILES IDX 86 47 80 48 82 49 33 50 85 51 79 52 78 53 34 55 66 56 46 57
REMARK SMILES IDX 65 58 47 59 50 60 64 61 83 62 48 63 49 64 63 66 84 67 51 68
REMARK SMILES IDX 35 69 36 70 44 71 37 72 43 73 45 74 42 75 38 76 39 77 40 78
REMARK SMILES IDX 41 79 67 80 68 81 76 82 69 83 75 84 77 85 74 86 70 87 71 88
REMARK SMILES IDX 72 89 73 90 52 91 53 92 61 93 54 94 60 95 62 96 59 97 55 98
REMARK SMILES IDX 56 99 57 100 58 101
REMARK H PARENT 18 5 14 11 9 19 23 35 82 54 50 65
REMARK Flexibility Score: inf
ROOT
ATOM      1  C   UNL     1      -2.451  -1.829   6.087  1.00  0.00     0.116 C 
ENDROOT
BRANCH   1   2
ATOM      2  N   UNL     1      -1.886  -2.765   5.165  1.00  0.00    -0.351 N 
ATOM      3  C   UNL     1      -0.596  -2.888   4.731  1.00  0.00     0.269 C 
ATOM      4  O   UNL     1      -0.342  -3.928   4.120  1.00  0.00    -0.268 OA
ATOM      5  H   UNL     1      -2.519  -3.417   4.787  1.00  0.00     0.163 HD
BRANCH   3   6
ATOM      6  C   UNL     1       0.460  -1.913   4.973  1.00  0.00     0.131 A 
ATOM      7  C   UNL     1       0.689  -0.240   5.628  1.00  0.00     0.057 A 
ATOM      8  C   UNL     1       2.617   0.155   5.453  1.00  0.00     0.145 A 
ATOM      9  N   UNL     1       3.420  -1.155   4.648  1.00  0.00    -0.183 NA
ATOM     10  N   UNL     1       2.151  -2.497   4.396  1.00  0.00    -0.272 N 
ATOM     11  H   UNL     1       2.339  -3.385   4.014  1.00  0.00     0.190 HD
BRANCH   7  12
ATOM     12  C   UNL     1      -0.214   0.790   6.283  1.00  0.00     0.303 C 
BRANCH  12  13
ATOM     13  N   UNL     1      -0.758   1.826   5.386  1.00  0.00    -0.331 N 
ATOM     14  C   UNL     1      -0.470   3.135   2.759  1.00  0.00     0.008 C 
ATOM     15  C   UNL     1      -0.096   3.856   4.060  1.00  0.00     0.065 C 
ATOM     16  C   UNL     1      -1.697   2.300   3.062  1.00  0.00     0.065 C 
ATOM     17  C   UNL     1       0.192   2.921   5.222  1.00  0.00     0.262 C 
ATOM     18  C   UNL     1      -1.449   1.325   4.204  1.00  0.00     0.262 C 
ATOM     19  H   UNL     1      -1.558   2.259   5.847  1.00  0.00     0.348 HD
BRANCH  14  20
ATOM     20  C   UNL     1       0.646   2.353   2.018  1.00  0.00     0.081 C 
BRANCH  20  21
ATOM     21  C   UNL     1       1.048   0.974   2.522  1.00  0.00     0.133 A 
ATOM     22  N   UNL     1       0.894  -0.168   1.849  1.00  0.00    -0.279 N 
ATOM     23  C   UNL     1       1.363  -1.241   2.603  1.00  0.00     0.345 A 
ATOM     24  N   UNL     1       1.554   0.843   3.699  1.00  0.00    -0.155 NA
ATOM     25  N   UNL     1       1.670  -0.727   4.027  1.00  0.00    -0.216 N 
ATOM     26  O   UNL     1       1.437  -2.391   2.172  1.00  0.00    -0.246 OA
ATOM     27  C   UNL     1       2.090  -1.566   6.004  1.00  0.00     0.179 C 
BRANCH  22  28
ATOM     28  C   UNL     1       0.239  -0.425   0.575  1.00  0.00     0.125 C 
ATOM     29  C   UNL     1       0.955   0.165  -0.627  1.00  0.00     0.028 C 
ENDBRANCH  22  28
ENDBRANCH  20  21
ENDBRANCH  14  20
ENDBRANCH  12  13
ENDBRANCH   7  12
ENDBRANCH   3   6
ENDBRANCH   1   2
BRANCH   1  30
ATOM     30  C   UNL     1      -3.438  -0.872   5.426  1.00  0.00     0.023 C 
BRANCH  30  31
ATOM     31  C   UNL     1      -4.931  -1.144   5.569  1.00  0.00     0.023 C 
BRANCH  31  32
ATOM     32  C   UNL     1      -5.381  -1.132   7.018  1.00  0.00     0.116 C 
BRANCH  32  33
ATOM     33  N   UNL     1      -5.406   0.189   7.650  1.00  0.00    -0.352 N 
ATOM     34  C   UNL     1      -5.987   0.475   8.884  1.00  0.00     0.251 C 
ATOM     35  H   UNL     1      -4.979   0.932   7.166  1.00  0.00     0.163 HD
ATOM     36  O   UNL     1      -6.346   1.606   9.182  1.00  0.00    -0.269 OA
BRANCH  34  37
ATOM     37  C   UNL     1      -6.044  -0.634   9.862  1.00  0.00     0.039 A 
ATOM     38  C   UNL     1      -7.134  -0.975  10.664  1.00  0.00     0.014 A 
ATOM     39  C   UNL     1      -4.899  -1.410   9.907  1.00  0.00     0.014 A 
ATOM     40  C   UNL     1      -7.018  -2.114  11.490  1.00  0.00     0.010 A 
ATOM     41  C   UNL     1      -5.046  -2.700  10.317  1.00  0.00     0.010 A 
ATOM     42  C   UNL     1      -5.896  -2.962  11.365  1.00  0.00    -0.014 A 
BRANCH  42  43
ATOM     43  C   UNL     1      -5.781  -4.348  11.860  1.00  0.00     0.031 A 
ATOM     44  C   UNL     1      -6.967  -5.121  11.363  1.00  0.00     0.074 A 
ATOM     45  C   UNL     1      -4.664  -4.863  12.475  1.00  0.00     0.049 A 
ATOM     46  N   UNL     1      -8.089  -5.250  11.997  1.00  0.00    -0.248 NA
ATOM     47  C   UNL     1      -7.117  -5.451   9.921  1.00  0.00     0.031 C 
ATOM     48  C   UNL     1      -3.397  -4.203  12.846  1.00  0.00     0.029 A 
ATOM     49  N   UNL     1      -4.415  -6.147  12.935  1.00  0.00    -0.354 N 
ATOM     50  C   UNL     1      -8.866  -6.072  11.192  1.00  0.00     0.074 A 
ATOM     51  C   UNL     1      -8.395  -5.843   9.862  1.00  0.00     0.031 C 
ATOM     52  C   UNL     1      -2.461  -5.115  13.239  1.00  0.00     0.029 A 
ATOM     53  C   UNL     1      -3.057  -6.442  13.293  1.00  0.00     0.049 A 
ATOM     54  H   UNL     1      -5.130  -6.819  13.012  1.00  0.00     0.167 HD
ATOM     55  C   UNL     1      -9.459  -7.169  11.744  1.00  0.00     0.034 A 
ATOM     56  C   UNL     1      -2.530  -7.653  13.732  1.00  0.00     0.034 A 
ATOM     57  C   UNL     1      -9.453  -7.033  13.190  1.00  0.00     0.049 A 
ATOM     58  C   UNL     1      -3.698  -8.423  14.242  1.00  0.00     0.074 A 
ATOM     59  C   UNL     1      -9.920  -6.087  14.082  1.00  0.00     0.029 A 
ATOM     60  N   UNL     1      -8.457  -7.718  13.848  1.00  0.00    -0.354 N 
ATOM     61  N   UNL     1      -4.368  -8.038  15.295  1.00  0.00    -0.248 NA
ATOM     62  C   UNL     1      -4.447  -9.163  13.235  1.00  0.00     0.031 C 
ATOM     63  C   UNL     1      -8.873  -5.937  15.041  1.00  0.00     0.029 A 
ATOM     64  C   UNL     1      -7.906  -6.916  14.813  1.00  0.00     0.049 A 
ATOM     65  H   UNL     1      -8.182  -8.644  13.654  1.00  0.00     0.167 HD
ATOM     66  C   UNL     1      -5.688  -8.044  14.876  1.00  0.00     0.074 A 
ATOM     67  C   UNL     1      -5.671  -8.748  13.583  1.00  0.00     0.031 C 
ATOM     68  C   UNL     1      -6.604  -7.174  15.401  1.00  0.00     0.034 A 
BRANCH  55  69
ATOM     69  C   UNL     1      -9.544  -8.540  11.086  1.00  0.00     0.023 A 
ATOM     70  C   UNL     1     -10.104  -9.570  11.867  1.00  0.00     0.031 A 
ATOM     71  C   UNL     1      -8.871  -8.966   9.917  1.00  0.00     0.131 A 
ATOM     72  C   UNL     1      -9.892 -10.923  11.552  1.00  0.00     0.055 A 
ATOM     73  C   UNL     1      -8.715 -10.314   9.574  1.00  0.00     0.041 A 
ATOM     74  F   UNL     1      -8.253  -8.128   9.079  1.00  0.00    -0.206 F 
ATOM     75  C   UNL     1      -9.203 -11.305  10.407  1.00  0.00     0.022 A 
BRANCH  72  76
ATOM     76  S   UNL     1     -10.386 -12.169  12.769  1.00  0.00     0.124 S 
ATOM     77  O   UNL     1      -9.613 -11.756  13.934  1.00  0.00    -0.237 OA
ATOM     78  O   UNL     1     -11.828 -11.957  12.843  1.00  0.00    -0.237 OA
ATOM     79  O   UNL     1      -9.972 -13.426  12.151  1.00  0.00    -0.744 OA
ENDBRANCH  72  76
ENDBRANCH  55  69
BRANCH  56  80
ATOM     80  C   UNL     1      -1.243  -8.400  13.352  1.00  0.00     0.023 A 
ATOM     81  C   UNL     1      -0.744  -9.618  13.947  1.00  0.00     0.031 A 
ATOM     82  C   UNL     1      -0.634  -8.042  12.136  1.00  0.00     0.131 A 
ATOM     83  C   UNL     1       0.286 -10.390  13.308  1.00  0.00     0.055 A 
ATOM     84  C   UNL     1       0.341  -8.824  11.500  1.00  0.00     0.041 A 
ATOM     85  F   UNL     1      -1.030  -6.949  11.468  1.00  0.00    -0.206 F 
ATOM     86  C   UNL     1       0.794 -10.001  12.070  1.00  0.00     0.022 A 
BRANCH  83  87
ATOM     87  S   UNL     1       1.004 -11.949  14.008  1.00  0.00     0.124 S 
ATOM     88  O   UNL     1       1.721 -11.468  15.184  1.00  0.00    -0.237 OA
ATOM     89  O   UNL     1      -0.172 -12.774  14.255  1.00  0.00    -0.237 OA
ATOM     90  O   UNL     1       1.873 -12.443  12.935  1.00  0.00    -0.744 OA
ENDBRANCH  83  87
ENDBRANCH  56  80
BRANCH  68  91
ATOM     91  C   UNL     1      -6.238  -6.379  16.643  1.00  0.00     0.023 A 
ATOM     92  C   UNL     1      -5.204  -5.416  16.775  1.00  0.00     0.031 A 
ATOM     93  C   UNL     1      -7.098  -6.561  17.739  1.00  0.00     0.131 A 
ATOM     94  C   UNL     1      -5.064  -4.700  17.990  1.00  0.00     0.055 A 
ATOM     95  C   UNL     1      -6.981  -5.826  18.913  1.00  0.00     0.041 A 
ATOM     96  F   UNL     1      -8.106  -7.446  17.668  1.00  0.00    -0.206 F 
ATOM     97  C   UNL     1      -5.958  -4.899  19.048  1.00  0.00     0.022 A 
BRANCH  94  98
ATOM     98  S   UNL     1      -3.678  -3.538  18.262  1.00  0.00     0.124 S 
ATOM     99  O   UNL     1      -2.512  -4.303  17.837  1.00  0.00    -0.237 OA
ATOM    100  O   UNL     1      -4.040  -2.404  17.416  1.00  0.00    -0.237 OA
ATOM    101  O   UNL     1      -3.737  -3.265  19.700  1.00  0.00    -0.744 OA
ENDBRANCH  94  98
ENDBRANCH  68  91
ENDBRANCH  42  43
ENDBRANCH  34  37
ENDBRANCH  32  33
ENDBRANCH  31  32
ENDBRANCH  30  31
ENDBRANCH   1  30
TORSDOF 19
