REMARK SMILES NC(=O)[C@@H]1CCCCN1c1cncc(C(=O)NCCCCNC(=O)c2ccc(-c3c4nc(c(-c5cc(S(=O)(=O)[O-])ccc5F)c5ccc([nH]5)c(-c5cc(S(=O)(=O)[O-])ccc5F)c5nc(c(-c6cc(S(=O)(=O)[O-])ccc6F)c6ccc3[nH]6)C=C5)C=C4)cc2)n1
REMARK SMILES IDX 20 1 19 2 18 3 17 4 15 5 16 6 14 8 10 9 11 10 88 11 12 12
REMARK SMILES IDX 13 13 9 14 4 15 5 16 6 17 8 18 7 19 2 20 1 21 3 24 21 25
REMARK SMILES IDX 22 26 23 27 24 29 25 30 26 31 87 32 27 33 86 34 28 35 29 36
REMARK SMILES IDX 30 37 80 38 31 39 85 40 79 41 81 42 32 43 84 44 78 45 77 46
REMARK SMILES IDX 33 48 65 49 45 50 64 51 46 52 49 53 63 54 82 55 47 56 48 57
REMARK SMILES IDX 62 59 83 60 50 61 34 62 35 63 43 64 36 65 42 66 44 67 41 68
REMARK SMILES IDX 37 69 38 70 39 71 40 72 66 73 67 74 75 75 68 76 74 77 76 78
REMARK SMILES IDX 73 79 69 80 70 81 71 82 72 83 51 84 52 85 60 86 53 87 59 88
REMARK SMILES IDX 61 89 58 90 54 91 55 92 56 93 57 94
REMARK H PARENT 17 7 1 22 1 23 22 28 81 47 49 58
REMARK Flexibility Score: inf
ROOT
ATOM      1  C   UNL     1      -4.779   1.765   4.404  1.00  0.00     0.023 C 
ENDROOT
BRANCH   1   2
ATOM      2  C   UNL     1      -3.610   2.318   3.590  1.00  0.00     0.023 C 
BRANCH   2   3
ATOM      3  C   UNL     1      -3.340   1.560   2.294  1.00  0.00     0.116 C 
BRANCH   3   4
ATOM      4  N   UNL     1      -4.314   1.885   1.270  1.00  0.00    -0.351 N 
ATOM      5  C   UNL     1      -4.189   2.613   0.109  1.00  0.00     0.271 C 
ATOM      6  O   UNL     1      -5.201   2.751  -0.585  1.00  0.00    -0.267 OA
ATOM      7  H   UNL     1      -5.215   1.524   1.432  1.00  0.00     0.163 HD
BRANCH   5   8
ATOM      8  C   UNL     1      -2.913   3.242  -0.348  1.00  0.00     0.148 A 
ATOM      9  C   UNL     1      -0.640   3.623  -0.130  1.00  0.00     0.148 A 
ATOM     10  C   UNL     1      -0.706   4.384  -1.306  1.00  0.00     0.157 A 
ATOM     11  N   UNL     1      -1.764   3.074   0.360  1.00  0.00    -0.222 NA
ATOM     12  N   UNL     1      -1.836   4.590  -2.027  1.00  0.00    -0.258 NA
ATOM     13  C   UNL     1      -2.938   3.985  -1.522  1.00  0.00     0.145 A 
BRANCH   9  14
ATOM     14  N   UNL     1       0.568   3.447   0.528  1.00  0.00    -0.343 N 
ATOM     15  C   UNL     1       0.960   2.150   1.135  1.00  0.00     0.172 C 
ATOM     16  C   UNL     1       0.727   2.137   2.647  1.00  0.00     0.035 C 
ATOM     17  C   UNL     1       1.396   3.339   3.305  1.00  0.00     0.004 C 
ATOM     18  C   UNL     1       1.119   4.649   1.163  1.00  0.00     0.119 C 
ATOM     19  C   UNL     1       0.882   4.631   2.677  1.00  0.00     0.022 C 
BRANCH  15  20
ATOM     20  C   UNL     1       0.373   0.877   0.484  1.00  0.00     0.240 C 
ATOM     21  N   UNL     1       1.199   0.226  -0.393  1.00  0.00    -0.368 N 
ATOM     22  H   UNL     1       0.891  -0.592  -0.845  1.00  0.00     0.159 HD
ATOM     23  H   UNL     1       2.102   0.577  -0.572  1.00  0.00     0.159 HD
ATOM     24  O   UNL     1      -0.718   0.378   0.741  1.00  0.00    -0.273 OA
ENDBRANCH  15  20
ENDBRANCH   9  14
ENDBRANCH   5   8
ENDBRANCH   3   4
ENDBRANCH   2   3
ENDBRANCH   1   2
BRANCH   1  25
ATOM     25  C   UNL     1      -4.675   0.286   4.769  1.00  0.00     0.116 C 
BRANCH  25  26
ATOM     26  N   UNL     1      -3.443  -0.049   5.469  1.00  0.00    -0.352 N 
ATOM     27  C   UNL     1      -3.264  -0.906   6.528  1.00  0.00     0.251 C 
ATOM     28  H   UNL     1      -2.630   0.398   5.140  1.00  0.00     0.163 HD
ATOM     29  O   UNL     1      -2.170  -0.985   7.081  1.00  0.00    -0.269 OA
BRANCH  27  30
ATOM     30  C   UNL     1      -4.412  -1.700   7.018  1.00  0.00     0.039 A 
ATOM     31  C   UNL     1      -4.698  -1.705   8.385  1.00  0.00     0.014 A 
ATOM     32  C   UNL     1      -5.225  -2.401   6.123  1.00  0.00     0.014 A 
ATOM     33  C   UNL     1      -5.845  -2.355   8.847  1.00  0.00     0.010 A 
ATOM     34  C   UNL     1      -6.403  -2.987   6.576  1.00  0.00     0.010 A 
ATOM     35  C   UNL     1      -6.727  -2.967   7.942  1.00  0.00    -0.014 A 
BRANCH  35  36
ATOM     36  C   UNL     1      -7.990  -3.601   8.402  1.00  0.00     0.031 A 
ATOM     37  C   UNL     1      -8.189  -5.083   8.233  1.00  0.00     0.074 A 
ATOM     38  C   UNL     1      -8.978  -2.838   8.910  1.00  0.00     0.049 A 
ATOM     39  N   UNL     1      -9.248  -5.811   8.479  1.00  0.00    -0.248 NA
ATOM     40  C   UNL     1      -7.052  -5.838   7.687  1.00  0.00     0.031 C 
ATOM     41  C   UNL     1      -8.917  -1.386   9.092  1.00  0.00     0.029 A 
ATOM     42  N   UNL     1     -10.231  -3.174   9.358  1.00  0.00    -0.354 N 
ATOM     43  C   UNL     1      -8.908  -7.109   8.110  1.00  0.00     0.074 A 
ATOM     44  C   UNL     1      -7.570  -7.050   7.561  1.00  0.00     0.031 C 
ATOM     45  C   UNL     1     -10.070  -0.961   9.634  1.00  0.00     0.029 A 
ATOM     46  C   UNL     1     -10.970  -2.099   9.796  1.00  0.00     0.049 A 
ATOM     47  H   UNL     1     -10.570  -4.098   9.364  1.00  0.00     0.167 HD
ATOM     48  C   UNL     1      -9.634  -8.247   8.241  1.00  0.00     0.034 A 
ATOM     49  C   UNL     1     -12.233  -2.037  10.265  1.00  0.00     0.034 A 
ATOM     50  C   UNL     1     -10.965  -8.290   8.796  1.00  0.00     0.049 A 
ATOM     51  C   UNL     1     -13.033  -3.312  10.370  1.00  0.00     0.074 A 
ATOM     52  C   UNL     1     -11.781  -9.390   8.999  1.00  0.00     0.029 A 
ATOM     53  N   UNL     1     -11.678  -7.182   9.236  1.00  0.00    -0.354 N 
ATOM     54  N   UNL     1     -12.685  -4.536  10.047  1.00  0.00    -0.248 NA
ATOM     55  C   UNL     1     -14.392  -3.197  10.914  1.00  0.00     0.031 C 
ATOM     56  C   UNL     1     -13.004  -8.941   9.511  1.00  0.00     0.029 A 
ATOM     57  C   UNL     1     -12.928  -7.570   9.693  1.00  0.00     0.049 A 
ATOM     58  H   UNL     1     -11.343  -6.256   9.226  1.00  0.00     0.167 HD
ATOM     59  C   UNL     1     -13.770  -5.340  10.387  1.00  0.00     0.074 A 
ATOM     60  C   UNL     1     -14.776  -4.464  10.949  1.00  0.00     0.031 C 
ATOM     61  C   UNL     1     -13.920  -6.682  10.252  1.00  0.00     0.034 A 
BRANCH  48  62
ATOM     62  C   UNL     1      -8.999  -9.529   7.757  1.00  0.00     0.023 A 
ATOM     63  C   UNL     1      -7.822 -10.031   8.342  1.00  0.00     0.031 A 
ATOM     64  C   UNL     1      -9.550 -10.240   6.677  1.00  0.00     0.131 A 
ATOM     65  C   UNL     1      -7.192 -11.158   7.795  1.00  0.00     0.055 A 
ATOM     66  C   UNL     1      -8.963 -11.410   6.191  1.00  0.00     0.041 A 
ATOM     67  F   UNL     1     -10.661  -9.800   6.065  1.00  0.00    -0.206 F 
ATOM     68  C   UNL     1      -7.768 -11.866   6.739  1.00  0.00     0.022 A 
BRANCH  65  69
ATOM     69  S   UNL     1      -5.535 -11.596   8.389  1.00  0.00     0.124 S 
ATOM     70  O   UNL     1      -4.777 -10.390   8.063  1.00  0.00    -0.237 OA
ATOM     71  O   UNL     1      -5.763 -11.844   9.808  1.00  0.00    -0.237 OA
ATOM     72  O   UNL     1      -5.188 -12.774   7.598  1.00  0.00    -0.744 OA
ENDBRANCH  65  69
ENDBRANCH  48  62
BRANCH  49  73
ATOM     73  C   UNL     1     -12.833  -0.733  10.669  1.00  0.00     0.023 A 
ATOM     74  C   UNL     1     -13.211  -0.497  12.000  1.00  0.00     0.031 A 
ATOM     75  C   UNL     1     -13.095   0.272   9.722  1.00  0.00     0.131 A 
ATOM     76  C   UNL     1     -13.883   0.688  12.338  1.00  0.00     0.055 A 
ATOM     77  C   UNL     1     -13.713   1.474  10.073  1.00  0.00     0.041 A 
ATOM     78  F   UNL     1     -12.749   0.101   8.436  1.00  0.00    -0.206 F 
ATOM     79  C   UNL     1     -14.126   1.680  11.386  1.00  0.00     0.022 A 
BRANCH  76  80
ATOM     80  S   UNL     1     -14.527   0.869  14.024  1.00  0.00     0.124 S 
ATOM     81  O   UNL     1     -15.374  -0.312  14.147  1.00  0.00    -0.237 OA
ATOM     82  O   UNL     1     -13.302   0.866  14.817  1.00  0.00    -0.237 OA
ATOM     83  O   UNL     1     -15.237   2.145  13.982  1.00  0.00    -0.744 OA
ENDBRANCH  76  80
ENDBRANCH  49  73
BRANCH  61  84
ATOM     84  C   UNL     1     -15.198  -7.284  10.782  1.00  0.00     0.023 A 
ATOM     85  C   UNL     1     -16.445  -7.022  10.187  1.00  0.00     0.031 A 
ATOM     86  C   UNL     1     -15.165  -8.119  11.912  1.00  0.00     0.131 A 
ATOM     87  C   UNL     1     -17.614  -7.546  10.759  1.00  0.00     0.055 A 
ATOM     88  C   UNL     1     -16.326  -8.683  12.443  1.00  0.00     0.041 A 
ATOM     89  F   UNL     1     -14.002  -8.401  12.520  1.00  0.00    -0.206 F 
ATOM     90  C   UNL     1     -17.561  -8.387  11.874  1.00  0.00     0.022 A 
BRANCH  87  91
ATOM     91  S   UNL     1     -19.218  -7.042  10.078  1.00  0.00     0.124 S 
ATOM     92  O   UNL     1     -19.173  -5.592  10.234  1.00  0.00    -0.237 OA
ATOM     93  O   UNL     1     -19.146  -7.538   8.708  1.00  0.00    -0.237 OA
ATOM     94  O   UNL     1     -20.185  -7.728  10.934  1.00  0.00    -0.744 OA
ENDBRANCH  87  91
ENDBRANCH  61  84
ENDBRANCH  35  36
ENDBRANCH  27  30
ENDBRANCH  25  26
ENDBRANCH   1  25
TORSDOF 16
