REMARK SMILES COc1cc(C)cc2c1[C@@H](C)[C@@H](CC(=O)N[C@@H](Cc1c[nH]c3ccccc13)C(=O)NCCCCNC(=O)c1ccc(-c3c4nc(c(-c5cc(S(=O)(=O)[O-])ccc5F)c5ccc([nH]5)c(-c5cc(S(=O)(=O)[O-])ccc5F)c5nc(c(-c6cc(S(=O)(=O)[O-])ccc6F)c6ccc3[nH]6)C=C5)C=C4)cc1)C(=O)O2
REMARK SMILES IDX 32 1 31 2 30 3 28 4 29 5 17 7 16 8 14 9 15 10 13 12 12 13
REMARK SMILES IDX 3 14 4 15 9 16 5 17 8 18 10 19 6 20 7 21 103 22 11 23 101 24
REMARK SMILES IDX 102 25 2 26 1 27 18 28 19 29 20 30 27 31 21 32 22 33 26 34
REMARK SMILES IDX 23 36 25 37 24 38 33 39 34 40 35 41 36 42 37 44 38 45 39 46
REMARK SMILES IDX 100 47 40 48 99 49 41 50 42 51 43 52 93 53 44 54 98 55 92 56
REMARK SMILES IDX 94 57 45 58 97 59 91 60 90 61 46 63 78 64 58 65 77 66 59 67
REMARK SMILES IDX 62 68 76 69 95 70 60 71 61 72 75 74 96 75 63 76 47 77 48 78
REMARK SMILES IDX 56 79 49 80 55 81 57 82 54 83 50 84 51 85 52 86 53 87 79 88
REMARK SMILES IDX 80 89 88 90 81 91 87 92 89 93 86 94 82 95 83 96 84 97 85 98
REMARK SMILES IDX 64 99 65 100 73 101 66 102 72 103 74 104 71 105 67 106
REMARK SMILES IDX 68 107 69 108 70 109
REMARK H PARENT 30 6 16 11 21 35 35 43 94 62 62 73
REMARK Flexibility Score: inf
ROOT
ATOM      1  C   UNL     1      -4.509  -4.465  -8.620  1.00  0.00     0.023 C 
ENDROOT
BRANCH   1   2
ATOM      2  C   UNL     1      -3.507  -5.434  -8.003  1.00  0.00     0.116 C 
BRANCH   2   3
ATOM      3  N   UNL     1      -2.268  -4.757  -7.725  1.00  0.00    -0.354 N 
ATOM      4  C   UNL     1      -1.990  -3.857  -6.754  1.00  0.00     0.242 C 
ATOM      5  O   UNL     1      -0.929  -3.229  -6.870  1.00  0.00    -0.273 OA
ATOM      6  H   UNL     1      -1.519  -4.980  -8.324  1.00  0.00     0.163 HD
BRANCH   4   7
ATOM      7  C   UNL     1      -2.905  -3.584  -5.536  1.00  0.00     0.175 C 
BRANCH   7   8
ATOM      8  N   UNL     1      -3.368  -2.216  -5.379  1.00  0.00    -0.344 N 
ATOM      9  C   UNL     1      -3.368  -1.501  -4.213  1.00  0.00     0.221 C 
ATOM     10  O   UNL     1      -4.240  -0.657  -4.016  1.00  0.00    -0.275 OA
ATOM     11  H   UNL     1      -3.711  -1.763  -6.183  1.00  0.00     0.164 HD
BRANCH   9  12
ATOM     12  C   UNL     1      -2.198  -1.670  -3.256  1.00  0.00     0.116 C 
BRANCH  12  13
ATOM     13  C   UNL     1      -2.364  -2.624  -2.048  1.00  0.00     0.116 C 
ATOM     14  C   UNL     1       1.126  -1.726  -0.914  1.00  0.00     0.126 A 
ATOM     15  C   UNL     1       2.373  -1.846  -1.552  1.00  0.00     0.050 A 
ATOM     16  C   UNL     1       0.020  -2.442  -1.376  1.00  0.00     0.041 A 
ATOM     17  C   UNL     1       2.540  -2.671  -2.673  1.00  0.00    -0.044 A 
ATOM     18  C   UNL     1       0.253  -3.361  -2.416  1.00  0.00     0.138 A 
ATOM     19  C   UNL     1      -1.411  -2.296  -0.867  1.00  0.00     0.038 C 
ATOM     20  C   UNL     1       3.862  -2.755  -3.375  1.00  0.00     0.044 C 
ATOM     21  C   UNL     1       1.472  -3.464  -3.082  1.00  0.00     0.051 A 
ATOM     22  O   UNL     1      -0.741  -4.262  -2.833  1.00  0.00    -0.426 OA
ATOM     23  C   UNL     1      -1.813  -0.962  -0.232  1.00  0.00     0.014 C 
ATOM     24  C   UNL     1      -2.006  -4.068  -2.320  1.00  0.00     0.315 C 
ATOM     25  O   UNL     1      -2.757  -5.010  -2.093  1.00  0.00    -0.251 OA
BRANCH  14  26
ATOM     26  O   UNL     1       0.998  -1.000   0.238  1.00  0.00    -0.496 OA
ATOM     27  C   UNL     1       1.389   0.361   0.082  1.00  0.00     0.278 C 
ENDBRANCH  14  26
ENDBRANCH  12  13
ENDBRANCH   9  12
ENDBRANCH   7   8
BRANCH   7  28
ATOM     28  C   UNL     1      -3.866  -4.607  -4.941  1.00  0.00     0.072 C 
BRANCH  28  29
ATOM     29  C   UNL     1      -5.325  -4.833  -5.247  1.00  0.00    -0.020 A 
ATOM     30  C   UNL     1      -5.877  -6.056  -4.882  1.00  0.00     0.087 A 
ATOM     31  C   UNL     1      -6.429  -4.028  -5.715  1.00  0.00     0.003 A 
ATOM     32  N   UNL     1      -7.230  -5.978  -4.961  1.00  0.00    -0.361 N 
ATOM     33  C   UNL     1      -7.595  -4.787  -5.529  1.00  0.00     0.046 A 
ATOM     34  C   UNL     1      -6.615  -2.736  -6.259  1.00  0.00     0.010 A 
ATOM     35  H   UNL     1      -7.855  -6.675  -4.656  1.00  0.00     0.166 HD
ATOM     36  C   UNL     1      -8.882  -4.343  -5.858  1.00  0.00     0.026 A 
ATOM     37  C   UNL     1      -7.893  -2.288  -6.634  1.00  0.00     0.001 A 
ATOM     38  C   UNL     1      -9.011  -3.085  -6.436  1.00  0.00     0.002 A 
ENDBRANCH  28  29
ENDBRANCH   7  28
ENDBRANCH   4   7
ENDBRANCH   2   3
ENDBRANCH   1   2
BRANCH   1  39
ATOM     39  C   UNL     1      -4.299  -4.247 -10.115  1.00  0.00     0.023 C 
BRANCH  39  40
ATOM     40  C   UNL     1      -4.407  -5.517 -10.942  1.00  0.00     0.116 C 
BRANCH  40  41
ATOM     41  N   UNL     1      -5.649  -6.255 -10.735  1.00  0.00    -0.352 N 
ATOM     42  C   UNL     1      -6.253  -7.118 -11.626  1.00  0.00     0.251 C 
ATOM     43  H   UNL     1      -6.103  -6.123  -9.872  1.00  0.00     0.163 HD
ATOM     44  O   UNL     1      -7.334  -7.631 -11.391  1.00  0.00    -0.269 OA
BRANCH  42  45
ATOM     45  C   UNL     1      -5.549  -7.342 -12.903  1.00  0.00     0.039 A 
ATOM     46  C   UNL     1      -4.223  -7.774 -12.871  1.00  0.00     0.014 A 
ATOM     47  C   UNL     1      -6.137  -6.895 -14.086  1.00  0.00     0.014 A 
ATOM     48  C   UNL     1      -3.424  -7.566 -13.985  1.00  0.00     0.010 A 
ATOM     49  C   UNL     1      -5.353  -6.794 -15.236  1.00  0.00     0.010 A 
ATOM     50  C   UNL     1      -3.976  -7.067 -15.178  1.00  0.00    -0.014 A 
BRANCH  50  51
ATOM     51  C   UNL     1      -3.094  -6.843 -16.352  1.00  0.00     0.031 A 
ATOM     52  C   UNL     1      -2.919  -5.469 -16.945  1.00  0.00     0.074 A 
ATOM     53  C   UNL     1      -2.417  -7.891 -16.860  1.00  0.00     0.049 A 
ATOM     54  N   UNL     1      -2.207  -5.108 -17.981  1.00  0.00    -0.248 NA
ATOM     55  C   UNL     1      -3.639  -4.357 -16.302  1.00  0.00     0.031 C 
ATOM     56  C   UNL     1      -2.503  -9.261 -16.353  1.00  0.00     0.029 A 
ATOM     57  N   UNL     1      -1.517  -7.974 -17.892  1.00  0.00    -0.354 N 
ATOM     58  C   UNL     1      -2.414  -3.741 -18.134  1.00  0.00     0.074 A 
ATOM     59  C   UNL     1      -3.341  -3.340 -17.100  1.00  0.00     0.031 C 
ATOM     60  C   UNL     1      -1.654 -10.036 -17.037  1.00  0.00     0.029 A 
ATOM     61  C   UNL     1      -1.035  -9.246 -18.096  1.00  0.00     0.049 A 
ATOM     62  H   UNL     1      -1.243  -7.199 -18.433  1.00  0.00     0.167 HD
ATOM     63  C   UNL     1      -1.870  -2.903 -19.050  1.00  0.00     0.034 A 
ATOM     64  C   UNL     1      -0.213  -9.737 -19.045  1.00  0.00     0.034 A 
ATOM     65  C   UNL     1      -0.921  -3.323 -20.052  1.00  0.00     0.049 A 
ATOM     66  C   UNL     1       0.355  -8.790 -20.066  1.00  0.00     0.074 A 
ATOM     67  C   UNL     1      -0.276  -2.540 -20.994  1.00  0.00     0.029 A 
ATOM     68  N   UNL     1      -0.477  -4.624 -20.244  1.00  0.00    -0.354 N 
ATOM     69  N   UNL     1       0.182  -7.493 -20.169  1.00  0.00    -0.248 NA
ATOM     70  C   UNL     1       1.227  -9.363 -21.098  1.00  0.00     0.031 C 
ATOM     71  C   UNL     1       0.494  -3.375 -21.802  1.00  0.00     0.029 A 
ATOM     72  C   UNL     1       0.405  -4.669 -21.313  1.00  0.00     0.049 A 
ATOM     73  H   UNL     1      -0.748  -5.399 -19.702  1.00  0.00     0.167 HD
ATOM     74  C   UNL     1       0.937  -7.092 -21.267  1.00  0.00     0.074 A 
ATOM     75  C   UNL     1       1.592  -8.281 -21.774  1.00  0.00     0.031 C 
ATOM     76  C   UNL     1       1.067  -5.854 -21.806  1.00  0.00     0.034 A 
BRANCH  63  77
ATOM     77  C   UNL     1      -2.260  -1.443 -19.036  1.00  0.00     0.023 A 
ATOM     78  C   UNL     1      -2.886  -0.875 -20.164  1.00  0.00     0.031 A 
ATOM     79  C   UNL     1      -1.880  -0.585 -17.989  1.00  0.00     0.131 A 
ATOM     80  C   UNL     1      -3.070   0.511 -20.238  1.00  0.00     0.055 A 
ATOM     81  C   UNL     1      -2.109   0.791 -18.047  1.00  0.00     0.041 A 
ATOM     82  F   UNL     1      -1.277  -1.073 -16.892  1.00  0.00    -0.206 F 
ATOM     83  C   UNL     1      -2.692   1.347 -19.183  1.00  0.00     0.022 A 
BRANCH  80  84
ATOM     84  S   UNL     1      -3.730   1.292 -21.737  1.00  0.00     0.124 S 
ATOM     85  O   UNL     1      -4.922   1.965 -21.224  1.00  0.00    -0.237 OA
ATOM     86  O   UNL     1      -2.635   2.176 -22.127  1.00  0.00    -0.237 OA
ATOM     87  O   UNL     1      -3.988   0.171 -22.633  1.00  0.00    -0.744 OA
ENDBRANCH  80  84
ENDBRANCH  63  77
BRANCH  64  88
ATOM     88  C   UNL     1       0.118 -11.192 -19.027  1.00  0.00     0.023 A 
ATOM     89  C   UNL     1      -0.899 -12.161 -19.127  1.00  0.00     0.031 A 
ATOM     90  C   UNL     1       1.425 -11.632 -18.769  1.00  0.00     0.131 A 
ATOM     91  C   UNL     1      -0.608 -13.507 -18.877  1.00  0.00     0.055 A 
ATOM     92  C   UNL     1       1.726 -12.986 -18.606  1.00  0.00     0.041 A 
ATOM     93  F   UNL     1       2.426 -10.747 -18.649  1.00  0.00    -0.206 F 
ATOM     94  C   UNL     1       0.703 -13.929 -18.636  1.00  0.00     0.022 A 
BRANCH  91  95
ATOM     95  S   UNL     1      -1.941 -14.724 -18.689  1.00  0.00     0.124 S 
ATOM     96  O   UNL     1      -1.639 -15.674 -19.755  1.00  0.00    -0.237 OA
ATOM     97  O   UNL     1      -1.713 -15.207 -17.329  1.00  0.00    -0.237 OA
ATOM     98  O   UNL     1      -3.155 -13.936 -18.869  1.00  0.00    -0.744 OA
ENDBRANCH  91  95
ENDBRANCH  64  88
BRANCH  76  99
ATOM     99  C   UNL     1       1.956  -5.681 -23.015  1.00  0.00     0.023 A 
ATOM    100  C   UNL     1       3.078  -4.833 -22.944  1.00  0.00     0.031 A 
ATOM    101  C   UNL     1       1.603  -6.214 -24.267  1.00  0.00     0.131 A 
ATOM    102  C   UNL     1       3.773  -4.497 -24.112  1.00  0.00     0.055 A 
ATOM    103  C   UNL     1       2.333  -5.921 -25.419  1.00  0.00     0.041 A 
ATOM    104  F   UNL     1       0.536  -7.020 -24.388  1.00  0.00    -0.206 F 
ATOM    105  C   UNL     1       3.413  -5.045 -25.348  1.00  0.00     0.022 A 
BRANCH 102 106
ATOM    106  S   UNL     1       5.101  -3.262 -24.088  1.00  0.00     0.124 S 
ATOM    107  O   UNL     1       6.240  -4.033 -24.580  1.00  0.00    -0.237 OA
ATOM    108  O   UNL     1       4.592  -2.246 -25.006  1.00  0.00    -0.237 OA
ATOM    109  O   UNL     1       5.182  -2.859 -22.688  1.00  0.00    -0.744 OA
ENDBRANCH 102 106
ENDBRANCH  76  99
ENDBRANCH  50  51
ENDBRANCH  42  45
ENDBRANCH  40  41
ENDBRANCH  39  40
ENDBRANCH   1  39
TORSDOF 20
