REMARK SMILES CCOC(=O)c1ccc(NC(=O)[C@H]2CC=CC[C@@]2(C)C(=O)NCCCCNC(=O)c2ccc(-c3c4nc(c(-c5cc(S(=O)(=O)[O-])ccc5F)c5ccc([nH]5)c(-c5cc(S(=O)(=O)[O-])ccc5F)c5nc(c(-c6cc(S(=O)(=O)[O-])ccc6F)c6ccc3[nH]6)C=C5)C=C4)cc2)cc1
REMARK SMILES IDX 23 1 22 2 20 3 21 4 18 6 13 7 14 8 15 9 17 10 19 11 16 12
REMARK SMILES IDX 11 13 10 14 12 16 9 17 6 18 7 19 94 20 8 21 93 22 4 23 5 24
REMARK SMILES IDX 3 25 2 26 1 27 24 28 25 29 26 30 27 31 28 32 29 34 30 35
REMARK SMILES IDX 31 36 92 37 32 38 91 39 33 40 34 41 35 42 85 43 36 44 90 45
REMARK SMILES IDX 84 46 86 47 37 48 89 49 83 50 82 51 38 53 70 54 50 55 69 56
REMARK SMILES IDX 51 57 54 58 68 59 87 60 52 61 53 62 67 64 88 65 55 66 39 67
REMARK SMILES IDX 40 68 48 69 41 70 47 71 49 72 46 73 42 74 43 75 44 76 45 77
REMARK SMILES IDX 71 78 72 79 80 80 73 81 79 82 81 83 78 84 74 85 75 86 76 87
REMARK SMILES IDX 77 88 56 89 57 90 65 91 58 92 64 93 66 94 63 95 59 96 60 97
REMARK SMILES IDX 61 98 62 99
REMARK H PARENT 22 5 10 15 27 33 86 52 54 63
REMARK Flexibility Score: inf
ROOT
ATOM      1  C   UNL     1       9.540  -0.298  -6.856  1.00  0.00     0.116 C 
ENDROOT
BRANCH   1   2
ATOM      2  N   UNL     1       8.456  -0.613  -7.770  1.00  0.00    -0.356 N 
ATOM      3  C   UNL     1       7.440  -1.520  -7.747  1.00  0.00     0.227 C 
ATOM      4  O   UNL     1       6.755  -1.544  -8.770  1.00  0.00    -0.274 OA
ATOM      5  H   UNL     1       8.456  -0.051  -8.578  1.00  0.00     0.163 HD
BRANCH   3   6
ATOM      6  C   UNL     1       7.195  -2.479  -6.556  1.00  0.00     0.062 C 
ATOM      7  C   UNL     1       5.826  -3.292  -6.673  1.00  0.00     0.098 C 
ATOM      8  C   UNL     1       5.955  -4.771  -7.106  1.00  0.00     0.041 C 
ATOM      9  C   UNL     1       7.141  -5.488  -6.565  1.00  0.00    -0.030 C 
ATOM     10  C   UNL     1       8.463  -3.386  -6.447  1.00  0.00     0.044 C 
ATOM     11  C   UNL     1       7.077  -1.626  -5.261  1.00  0.00     0.023 C 
ATOM     12  C   UNL     1       8.275  -4.856  -6.269  1.00  0.00    -0.030 C 
BRANCH   7  13
ATOM     13  C   UNL     1       4.706  -2.680  -7.539  1.00  0.00     0.228 C 
ATOM     14  N   UNL     1       3.901  -1.646  -7.175  1.00  0.00    -0.326 N 
ATOM     15  H   UNL     1       3.481  -1.224  -7.959  1.00  0.00     0.169 HD
ATOM     16  O   UNL     1       4.457  -3.143  -8.662  1.00  0.00    -0.274 OA
BRANCH  14  17
ATOM     17  C   UNL     1       3.507  -1.020  -5.984  1.00  0.00     0.041 A 
ATOM     18  C   UNL     1       2.539   0.338  -3.723  1.00  0.00     0.060 A 
ATOM     19  C   UNL     1       3.422  -0.728  -3.578  1.00  0.00     0.018 A 
ATOM     20  C   UNL     1       2.110   0.729  -4.987  1.00  0.00     0.018 A 
ATOM     21  C   UNL     1       3.866  -1.423  -4.703  1.00  0.00     0.027 A 
ATOM     22  C   UNL     1       2.609   0.058  -6.112  1.00  0.00     0.027 A 
BRANCH  18  23
ATOM     23  C   UNL     1       2.084   1.005  -2.496  1.00  0.00     0.338 C 
ATOM     24  O   UNL     1       2.830   1.582  -1.728  1.00  0.00    -0.246 OA
BRANCH  23  25
ATOM     25  O   UNL     1       0.782   0.682  -2.302  1.00  0.00    -0.462 OA
BRANCH  25  26
ATOM     26  C   UNL     1       0.280   0.996  -0.995  1.00  0.00     0.230 C 
ATOM     27  C   UNL     1       0.706  -0.068   0.005  1.00  0.00     0.049 C 
ENDBRANCH  25  26
ENDBRANCH  23  25
ENDBRANCH  18  23
ENDBRANCH  14  17
ENDBRANCH   7  13
ENDBRANCH   3   6
ENDBRANCH   1   2
BRANCH   1  28
ATOM     28  C   UNL     1      10.915  -0.464  -7.494  1.00  0.00     0.023 C 
BRANCH  28  29
ATOM     29  C   UNL     1      11.172   0.395  -8.728  1.00  0.00     0.023 C 
BRANCH  29  30
ATOM     30  C   UNL     1      10.848   1.876  -8.569  1.00  0.00     0.116 C 
BRANCH  30  31
ATOM     31  N   UNL     1      11.572   2.499  -7.471  1.00  0.00    -0.352 N 
ATOM     32  C   UNL     1      12.405   3.593  -7.485  1.00  0.00     0.251 C 
ATOM     33  H   UNL     1      11.446   2.077  -6.591  1.00  0.00     0.163 HD
ATOM     34  O   UNL     1      13.048   3.880  -6.480  1.00  0.00    -0.269 OA
BRANCH  32  35
ATOM     35  C   UNL     1      12.548   4.391  -8.722  1.00  0.00     0.039 A 
ATOM     36  C   UNL     1      13.828   4.737  -9.157  1.00  0.00     0.014 A 
ATOM     37  C   UNL     1      11.426   4.769  -9.465  1.00  0.00     0.014 A 
ATOM     38  C   UNL     1      13.987   5.396 -10.378  1.00  0.00     0.010 A 
ATOM     39  C   UNL     1      11.592   5.348 -10.720  1.00  0.00     0.010 A 
ATOM     40  C   UNL     1      12.874   5.668 -11.192  1.00  0.00    -0.014 A 
BRANCH  40  41
ATOM     41  C   UNL     1      13.036   6.282 -12.537  1.00  0.00     0.031 A 
ATOM     42  C   UNL     1      12.420   7.625 -12.830  1.00  0.00     0.074 A 
ATOM     43  C   UNL     1      13.681   5.603 -13.508  1.00  0.00     0.049 A 
ATOM     44  N   UNL     1      12.398   8.295 -13.954  1.00  0.00    -0.248 NA
ATOM     45  C   UNL     1      11.714   8.291 -11.724  1.00  0.00     0.031 C 
ATOM     46  C   UNL     1      14.277   4.272 -13.356  1.00  0.00     0.029 A 
ATOM     47  N   UNL     1      13.938   5.927 -14.818  1.00  0.00    -0.354 N 
ATOM     48  C   UNL     1      11.658   9.445 -13.697  1.00  0.00     0.074 A 
ATOM     49  C   UNL     1      11.211   9.360 -12.324  1.00  0.00     0.031 C 
ATOM     50  C   UNL     1      14.846   3.907 -14.516  1.00  0.00     0.029 A 
ATOM     51  C   UNL     1      14.614   4.948 -15.512  1.00  0.00     0.049 A 
ATOM     52  H   UNL     1      13.663   6.781 -15.224  1.00  0.00     0.167 HD
ATOM     53  C   UNL     1      11.390  10.481 -14.528  1.00  0.00     0.034 A 
ATOM     54  C   UNL     1      14.988   4.888 -16.807  1.00  0.00     0.034 A 
ATOM     55  C   UNL     1      11.870  10.564 -15.885  1.00  0.00     0.049 A 
ATOM     56  C   UNL     1      14.673   6.059 -17.708  1.00  0.00     0.074 A 
ATOM     57  C   UNL     1      11.734  11.611 -16.779  1.00  0.00     0.029 A 
ATOM     58  N   UNL     1      12.565   9.562 -16.548  1.00  0.00    -0.354 N 
ATOM     59  N   UNL     1      14.046   7.177 -17.420  1.00  0.00    -0.248 NA
ATOM     60  C   UNL     1      15.127   5.968 -19.102  1.00  0.00     0.031 C 
ATOM     61  C   UNL     1      12.270  11.211 -18.006  1.00  0.00     0.029 A 
ATOM     62  C   UNL     1      12.826   9.951 -17.853  1.00  0.00     0.049 A 
ATOM     63  H   UNL     1      12.834   8.703 -16.151  1.00  0.00     0.167 HD
ATOM     64  C   UNL     1      14.068   7.935 -18.588  1.00  0.00     0.074 A 
ATOM     65  C   UNL     1      14.786   7.156 -19.575  1.00  0.00     0.031 C 
ATOM     66  C   UNL     1      13.546   9.165 -18.826  1.00  0.00     0.034 A 
BRANCH  53  67
ATOM     67  C   UNL     1      10.516  11.598 -14.011  1.00  0.00     0.023 A 
ATOM     68  C   UNL     1      10.919  12.438 -12.959  1.00  0.00     0.031 A 
ATOM     69  C   UNL     1       9.266  11.844 -14.608  1.00  0.00     0.131 A 
ATOM     70  C   UNL     1      10.062  13.453 -12.507  1.00  0.00     0.055 A 
ATOM     71  C   UNL     1       8.450  12.900 -14.202  1.00  0.00     0.041 A 
ATOM     72  F   UNL     1       8.818  11.059 -15.601  1.00  0.00    -0.206 F 
ATOM     73  C   UNL     1       8.843  13.708 -13.140  1.00  0.00     0.022 A 
BRANCH  70  74
ATOM     74  S   UNL     1      10.517  14.374 -11.012  1.00  0.00     0.124 S 
ATOM     75  O   UNL     1      10.580  13.307 -10.016  1.00  0.00    -0.237 OA
ATOM     76  O   UNL     1      11.792  14.975 -11.386  1.00  0.00    -0.237 OA
ATOM     77  O   UNL     1       9.411  15.314 -10.839  1.00  0.00    -0.744 OA
ENDBRANCH  70  74
ENDBRANCH  53  67
BRANCH  54  78
ATOM     78  C   UNL     1      15.676   3.678 -17.353  1.00  0.00     0.023 A 
ATOM     79  C   UNL     1      16.958   3.766 -17.920  1.00  0.00     0.031 A 
ATOM     80  C   UNL     1      15.024   2.433 -17.399  1.00  0.00     0.131 A 
ATOM     81  C   UNL     1      17.514   2.655 -18.574  1.00  0.00     0.055 A 
ATOM     82  C   UNL     1      15.612   1.311 -17.988  1.00  0.00     0.041 A 
ATOM     83  F   UNL     1      13.797   2.287 -16.873  1.00  0.00    -0.206 F 
ATOM     84  C   UNL     1      16.856   1.424 -18.599  1.00  0.00     0.022 A 
BRANCH  81  85
ATOM     85  S   UNL     1      19.047   2.883 -19.517  1.00  0.00     0.124 S 
ATOM     86  O   UNL     1      18.690   3.986 -20.401  1.00  0.00    -0.237 OA
ATOM     87  O   UNL     1      20.007   3.190 -18.463  1.00  0.00    -0.237 OA
ATOM     88  O   UNL     1      19.236   1.591 -20.175  1.00  0.00    -0.744 OA
ENDBRANCH  81  85
ENDBRANCH  54  78
BRANCH  66  89
ATOM     89  C   UNL     1      13.789   9.768 -20.189  1.00  0.00     0.023 A 
ATOM     90  C   UNL     1      13.243   9.210 -21.357  1.00  0.00     0.031 A 
ATOM     91  C   UNL     1      14.588  10.919 -20.316  1.00  0.00     0.131 A 
ATOM     92  C   UNL     1      13.551   9.769 -22.607  1.00  0.00     0.055 A 
ATOM     93  C   UNL     1      14.834  11.510 -21.555  1.00  0.00     0.041 A 
ATOM     94  F   UNL     1      15.139  11.492 -19.234  1.00  0.00    -0.206 F 
ATOM     95  C   UNL     1      14.326  10.927 -22.712  1.00  0.00     0.022 A 
BRANCH  92  96
ATOM     96  S   UNL     1      13.005   8.905 -24.106  1.00  0.00     0.124 S 
ATOM     97  O   UNL     1      13.630   7.596 -23.946  1.00  0.00    -0.237 OA
ATOM     98  O   UNL     1      11.552   8.938 -23.974  1.00  0.00    -0.237 OA
ATOM     99  O   UNL     1      13.547   9.723 -25.189  1.00  0.00    -0.744 OA
ENDBRANCH  92  96
ENDBRANCH  66  89
ENDBRANCH  40  41
ENDBRANCH  32  35
ENDBRANCH  30  31
ENDBRANCH  29  30
ENDBRANCH  28  29
ENDBRANCH   1  28
TORSDOF 19
