REMARK SMILES O=C(NCCCCNC(=O)[C@H](CCc1ccccn1)c1ccccc1Br)c1ccc(-c2c3nc(c(-c4cc(S(=O)(=O)[O-])ccc4F)c4ccc([nH]4)c(-c4cc(S(=O)(=O)[O-])ccc4F)c4nc(c(-c5cc(S(=O)(=O)[O-])ccc5F)c5ccc2[nH]5)C=C4)C=C3)cc1
REMARK SMILES IDX 5 1 4 2 3 3 1 4 2 5 27 7 28 8 89 9 29 10 88 11 30 12 31 13
REMARK SMILES IDX 32 14 82 15 33 16 87 17 81 18 83 19 34 20 86 21 80 22 79 23
REMARK SMILES IDX 35 25 67 26 47 27 66 28 48 29 51 30 65 31 84 32 49 33 50 34
REMARK SMILES IDX 64 36 85 37 52 38 36 39 37 40 45 41 38 42 44 43 46 44 43 45
REMARK SMILES IDX 39 46 40 47 41 48 42 49 68 50 69 51 77 52 70 53 76 54 78 55
REMARK SMILES IDX 75 56 71 57 72 58 73 59 74 60 53 61 54 62 62 63 55 64 61 65
REMARK SMILES IDX 63 66 60 67 56 68 57 69 58 70 59 71 6 72 7 73 8 74 9 75
REMARK SMILES IDX 10 77 11 78 20 79 21 80 25 81 22 82 24 83 26 84 23 85 12 86
REMARK SMILES IDX 13 87 14 88 15 89 19 90 16 91 18 92 17 93
REMARK H PARENT 3 6 83 24 51 35 8 76
REMARK Flexibility Score: inf
ROOT
ATOM      1  C   UNL     1       4.407  -5.532   9.752  1.00  0.00     0.023 C 
ENDROOT
BRANCH   1   2
ATOM      2  C   UNL     1       2.959  -5.871   9.421  1.00  0.00     0.116 C 
BRANCH   2   3
ATOM      3  N   UNL     1       2.693  -7.298   9.500  1.00  0.00    -0.352 N 
ATOM      4  O   UNL     1       1.935  -9.214  10.407  1.00  0.00    -0.269 OA
ATOM      5  C   UNL     1       1.889  -7.985  10.374  1.00  0.00     0.251 C 
ATOM      6  H   UNL     1       3.157  -7.851   8.830  1.00  0.00     0.163 HD
BRANCH   5   7
ATOM      7  C   UNL     1       0.985  -7.250  11.283  1.00  0.00     0.039 A 
ATOM      8  C   UNL     1       0.175  -6.213  10.807  1.00  0.00     0.014 A 
ATOM      9  C   UNL     1       0.932  -7.621  12.629  1.00  0.00     0.014 A 
ATOM     10  C   UNL     1      -0.596  -5.470  11.697  1.00  0.00     0.010 A 
ATOM     11  C   UNL     1       0.100  -6.921  13.506  1.00  0.00     0.010 A 
ATOM     12  C   UNL     1      -0.653  -5.826  13.052  1.00  0.00    -0.014 A 
BRANCH  12  13
ATOM     13  C   UNL     1      -1.538  -5.085  13.989  1.00  0.00     0.031 A 
ATOM     14  C   UNL     1      -0.958  -4.317  15.141  1.00  0.00     0.074 A 
ATOM     15  C   UNL     1      -2.872  -5.148  13.819  1.00  0.00     0.049 A 
ATOM     16  N   UNL     1      -1.570  -3.717  16.130  1.00  0.00    -0.248 NA
ATOM     17  C   UNL     1       0.507  -4.226  15.194  1.00  0.00     0.031 C 
ATOM     18  C   UNL     1      -3.548  -5.857  12.732  1.00  0.00     0.029 A 
ATOM     19  N   UNL     1      -3.898  -4.627  14.567  1.00  0.00    -0.354 N 
ATOM     20  C   UNL     1      -0.567  -3.195  16.939  1.00  0.00     0.074 A 
ATOM     21  C   UNL     1       0.694  -3.586  16.339  1.00  0.00     0.031 C 
ATOM     22  C   UNL     1      -4.874  -5.730  12.883  1.00  0.00     0.029 A 
ATOM     23  C   UNL     1      -5.143  -4.996  14.114  1.00  0.00     0.049 A 
ATOM     24  H   UNL     1      -3.757  -4.047  15.349  1.00  0.00     0.167 HD
ATOM     25  C   UNL     1      -0.691  -2.458  18.072  1.00  0.00     0.034 A 
ATOM     26  C   UNL     1      -6.364  -4.813  14.653  1.00  0.00     0.034 A 
ATOM     27  C   UNL     1      -1.963  -2.097  18.655  1.00  0.00     0.049 A 
ATOM     28  C   UNL     1      -6.483  -4.059  15.949  1.00  0.00     0.074 A 
ATOM     29  C   UNL     1      -2.211  -1.324  19.776  1.00  0.00     0.029 A 
ATOM     30  N   UNL     1      -3.204  -2.504  18.176  1.00  0.00    -0.354 N 
ATOM     31  N   UNL     1      -5.529  -3.553  16.697  1.00  0.00    -0.248 NA
ATOM     32  C   UNL     1      -7.838  -3.844  16.471  1.00  0.00     0.031 C 
ATOM     33  C   UNL     1      -3.587  -1.336  20.024  1.00  0.00     0.029 A 
ATOM     34  C   UNL     1      -4.214  -2.034  19.004  1.00  0.00     0.049 A 
ATOM     35  H   UNL     1      -3.346  -3.047  17.367  1.00  0.00     0.167 HD
ATOM     36  C   UNL     1      -6.172  -2.932  17.763  1.00  0.00     0.074 A 
ATOM     37  C   UNL     1      -7.593  -3.131  17.563  1.00  0.00     0.031 C 
ATOM     38  C   UNL     1      -5.631  -2.246  18.802  1.00  0.00     0.034 A 
BRANCH  25  39
ATOM     39  C   UNL     1       0.584  -2.055  18.780  1.00  0.00     0.023 A 
ATOM     40  C   UNL     1       1.563  -1.263  18.155  1.00  0.00     0.031 A 
ATOM     41  C   UNL     1       0.853  -2.519  20.081  1.00  0.00     0.131 A 
ATOM     42  C   UNL     1       2.801  -1.051  18.782  1.00  0.00     0.055 A 
ATOM     43  C   UNL     1       2.048  -2.220  20.740  1.00  0.00     0.041 A 
ATOM     44  F   UNL     1      -0.031  -3.296  20.727  1.00  0.00    -0.206 F 
ATOM     45  C   UNL     1       3.040  -1.501  20.082  1.00  0.00     0.022 A 
BRANCH  42  46
ATOM     46  S   UNL     1       4.158  -0.354  17.798  1.00  0.00     0.124 S 
ATOM     47  O   UNL     1       4.197  -1.266  16.657  1.00  0.00    -0.237 OA
ATOM     48  O   UNL     1       3.685   0.997  17.520  1.00  0.00    -0.237 OA
ATOM     49  O   UNL     1       5.311  -0.442  18.692  1.00  0.00    -0.744 OA
ENDBRANCH  42  46
ENDBRANCH  25  39
BRANCH  26  50
ATOM     50  C   UNL     1      -7.553  -5.410  13.984  1.00  0.00     0.023 A 
ATOM     51  C   UNL     1      -8.537  -4.607  13.390  1.00  0.00     0.031 A 
ATOM     52  C   UNL     1      -7.701  -6.808  13.905  1.00  0.00     0.131 A 
ATOM     53  C   UNL     1      -9.636  -5.208  12.757  1.00  0.00     0.055 A 
ATOM     54  C   UNL     1      -8.769  -7.400  13.232  1.00  0.00     0.041 A 
ATOM     55  F   UNL     1      -6.781  -7.619  14.451  1.00  0.00    -0.206 F 
ATOM     56  C   UNL     1      -9.749  -6.597  12.658  1.00  0.00     0.022 A 
BRANCH  53  57
ATOM     57  S   UNL     1     -10.947  -4.144  12.096  1.00  0.00     0.124 S 
ATOM     58  O   UNL     1     -11.405  -3.457  13.298  1.00  0.00    -0.237 OA
ATOM     59  O   UNL     1     -10.220  -3.329  11.128  1.00  0.00    -0.237 OA
ATOM     60  O   UNL     1     -11.897  -5.093  11.519  1.00  0.00    -0.744 OA
ENDBRANCH  53  57
ENDBRANCH  26  50
BRANCH  38  61
ATOM     61  C   UNL     1      -6.583  -1.596  19.776  1.00  0.00     0.023 A 
ATOM     62  C   UNL     1      -7.373  -2.343  20.666  1.00  0.00     0.031 A 
ATOM     63  C   UNL     1      -6.667  -0.192  19.834  1.00  0.00     0.131 A 
ATOM     64  C   UNL     1      -8.233  -1.682  21.558  1.00  0.00     0.055 A 
ATOM     65  C   UNL     1      -7.482   0.460  20.758  1.00  0.00     0.041 A 
ATOM     66  F   UNL     1      -5.938   0.569  19.002  1.00  0.00    -0.206 F 
ATOM     67  C   UNL     1      -8.277  -0.286  21.623  1.00  0.00     0.022 A 
BRANCH  64  68
ATOM     68  S   UNL     1      -9.341  -2.668  22.603  1.00  0.00     0.124 S 
ATOM     69  O   UNL     1     -10.154  -3.364  21.611  1.00  0.00    -0.237 OA
ATOM     70  O   UNL     1      -8.407  -3.496  23.358  1.00  0.00    -0.237 OA
ATOM     71  O   UNL     1     -10.053  -1.663  23.392  1.00  0.00    -0.744 OA
ENDBRANCH  64  68
ENDBRANCH  38  61
ENDBRANCH  12  13
ENDBRANCH   5   7
ENDBRANCH   2   3
ENDBRANCH   1   2
BRANCH   1  72
ATOM     72  C   UNL     1       5.454  -6.134   8.813  1.00  0.00     0.023 C 
BRANCH  72  73
ATOM     73  C   UNL     1       5.191  -5.948   7.323  1.00  0.00     0.116 C 
BRANCH  73  74
ATOM     74  N   UNL     1       4.917  -4.573   6.957  1.00  0.00    -0.356 N 
ATOM     75  C   UNL     1       5.003  -3.998   5.720  1.00  0.00     0.227 C 
ATOM     76  H   UNL     1       4.633  -3.979   7.690  1.00  0.00     0.163 HD
ATOM     77  O   UNL     1       4.214  -3.084   5.501  1.00  0.00    -0.274 OA
BRANCH  75  78
ATOM     78  C   UNL     1       6.018  -4.536   4.700  1.00  0.00     0.110 C 
BRANCH  78  79
ATOM     79  C   UNL     1       5.394  -5.601   3.794  1.00  0.00    -0.021 A 
ATOM     80  C   UNL     1       5.898  -6.918   3.920  1.00  0.00     0.006 A 
ATOM     81  C   UNL     1       4.307  -5.408   2.925  1.00  0.00     0.021 A 
ATOM     82  C   UNL     1       5.304  -8.000   3.271  1.00  0.00     0.000 A 
ATOM     83  C   UNL     1       3.712  -6.503   2.278  1.00  0.00     0.016 A 
ATOM     84  Br  UNL     1       3.541  -3.724   2.517  1.00  0.00    -0.051 Br
ATOM     85  C   UNL     1       4.197  -7.794   2.462  1.00  0.00     0.001 A 
ENDBRANCH  78  79
BRANCH  78  86
ATOM     86  C   UNL     1       7.022  -3.563   4.022  1.00  0.00     0.025 C 
BRANCH  86  87
ATOM     87  C   UNL     1       6.660  -2.124   3.628  1.00  0.00     0.057 C 
BRANCH  87  88
ATOM     88  C   UNL     1       6.177  -1.194   4.709  1.00  0.00     0.040 A 
ATOM     89  C   UNL     1       6.697  -1.221   6.002  1.00  0.00     0.024 A 
ATOM     90  N   UNL     1       5.152  -0.379   4.359  1.00  0.00    -0.261 NA
ATOM     91  C   UNL     1       6.052  -0.493   6.999  1.00  0.00     0.003 A 
ATOM     92  C   UNL     1       4.536   0.302   5.350  1.00  0.00     0.111 A 
ATOM     93  C   UNL     1       4.934   0.264   6.674  1.00  0.00     0.020 A 
ENDBRANCH  87  88
ENDBRANCH  86  87
ENDBRANCH  78  86
ENDBRANCH  75  78
ENDBRANCH  73  74
ENDBRANCH  72  73
ENDBRANCH   1  72
TORSDOF 18
