REMARK SMILES Nc1ncc(C(=O)NCCCCNC(=O)c2ccc(-c3c4nc(c(-c5cc(S(=O)(=O)[O-])ccc5F)c5ccc([nH]5)c(-c5cc(S(=O)(=O)[O-])ccc5F)c5nc(c(-c6cc(S(=O)(=O)[O-])ccc6F)c6ccc3[nH]6)C=C5)C=C4)cc2)c(-c2ccccc2)n1
REMARK SMILES IDX 11 1 10 2 9 3 8 4 6 5 7 6 5 8 2 9 3 10 86 11 4 12 79 13 1 14
REMARK SMILES IDX 80 17 81 18 85 19 82 20 84 21 83 22 12 23 13 24 14 25 15 27
REMARK SMILES IDX 16 28 17 29 78 30 18 31 77 32 19 33 20 34 21 35 71 36 22 37
REMARK SMILES IDX 76 38 70 39 72 40 23 41 75 42 69 43 68 44 24 46 56 47 36 48
REMARK SMILES IDX 55 49 37 50 40 51 54 52 73 53 38 54 39 55 53 57 74 58 41 59
REMARK SMILES IDX 25 60 26 61 34 62 27 63 33 64 35 65 32 66 28 67 29 68 30 69
REMARK SMILES IDX 31 70 57 71 58 72 66 73 59 74 65 75 67 76 64 77 60 78 61 79
REMARK SMILES IDX 62 80 63 81 42 82 43 83 51 84 44 85 50 86 52 87 49 88 45 89
REMARK SMILES IDX 46 90 47 91 48 92
REMARK H PARENT 8 7 1 15 1 16 13 26 72 45 40 56
REMARK Flexibility Score: inf
ROOT
ATOM      1  C   UNL     1       6.044  -3.312  -1.537  1.00  0.00     0.023 C 
ENDROOT
BRANCH   1   2
ATOM      2  C   UNL     1       4.682  -2.915  -2.107  1.00  0.00     0.023 C 
BRANCH   2   3
ATOM      3  C   UNL     1       3.656  -2.362  -1.130  1.00  0.00     0.116 C 
BRANCH   3   4
ATOM      4  N   UNL     1       3.991  -1.128  -0.464  1.00  0.00    -0.352 N 
ATOM      5  C   UNL     1       3.177  -0.213   0.160  1.00  0.00     0.255 C 
ATOM      6  O   UNL     1       3.729   0.735   0.726  1.00  0.00    -0.269 OA
ATOM      7  H   UNL     1       4.950  -0.907  -0.455  1.00  0.00     0.163 HD
BRANCH   5   8
ATOM      8  C   UNL     1       1.692  -0.213   0.130  1.00  0.00     0.084 A 
ATOM      9  C   UNL     1      -1.014   0.230   0.071  1.00  0.00     0.220 A 
ATOM     10  N   UNL     1      -0.220   1.290  -0.030  1.00  0.00    -0.221 NA
ATOM     11  N   UNL     1      -0.577  -1.019   0.208  1.00  0.00    -0.212 NA
ATOM     12  C   UNL     1       1.111   1.042   0.009  1.00  0.00     0.131 A 
ATOM     13  C   UNL     1       0.769  -1.240   0.255  1.00  0.00     0.089 A 
BRANCH   9  14
ATOM     14  N   UNL     1      -2.361   0.425   0.032  1.00  0.00    -0.368 N 
ATOM     15  H   UNL     1      -2.724   1.335  -0.069  1.00  0.00     0.159 HD
ATOM     16  H   UNL     1      -2.972  -0.343   0.104  1.00  0.00     0.159 HD
ENDBRANCH   9  14
BRANCH  13  17
ATOM     17  C   UNL     1       1.055  -2.668   0.432  1.00  0.00     0.001 A 
ATOM     18  C   UNL     1       1.697  -3.176   1.571  1.00  0.00     0.010 A 
ATOM     19  C   UNL     1       0.671  -3.577  -0.579  1.00  0.00     0.010 A 
ATOM     20  C   UNL     1       2.005  -4.539   1.661  1.00  0.00     0.001 A 
ATOM     21  C   UNL     1       0.997  -4.930  -0.497  1.00  0.00     0.001 A 
ATOM     22  C   UNL     1       1.672  -5.409   0.621  1.00  0.00     0.000 A 
ENDBRANCH  13  17
ENDBRANCH   5   8
ENDBRANCH   3   4
ENDBRANCH   2   3
ENDBRANCH   1   2
BRANCH   1  23
ATOM     23  C   UNL     1       6.067  -4.059  -0.205  1.00  0.00     0.116 C 
BRANCH  23  24
ATOM     24  N   UNL     1       5.297  -5.294  -0.183  1.00  0.00    -0.352 N 
ATOM     25  C   UNL     1       5.684  -6.603   0.029  1.00  0.00     0.251 C 
ATOM     26  H   UNL     1       4.334  -5.176  -0.348  1.00  0.00     0.163 HD
ATOM     27  O   UNL     1       4.851  -7.493  -0.019  1.00  0.00    -0.269 OA
BRANCH  25  28
ATOM     28  C   UNL     1       7.114  -6.929   0.254  1.00  0.00     0.039 A 
ATOM     29  C   UNL     1       7.693  -7.960  -0.492  1.00  0.00     0.014 A 
ATOM     30  C   UNL     1       7.891  -6.202   1.155  1.00  0.00     0.014 A 
ATOM     31  C   UNL     1       9.075  -8.171  -0.430  1.00  0.00     0.010 A 
ATOM     32  C   UNL     1       9.275  -6.351   1.146  1.00  0.00     0.010 A 
ATOM     33  C   UNL     1       9.887  -7.319   0.335  1.00  0.00    -0.014 A 
BRANCH  33  34
ATOM     34  C   UNL     1      11.374  -7.389   0.277  1.00  0.00     0.031 A 
ATOM     35  C   UNL     1      12.168  -7.653   1.528  1.00  0.00     0.074 A 
ATOM     36  C   UNL     1      12.012  -7.100  -0.877  1.00  0.00     0.049 A 
ATOM     37  N   UNL     1      13.461  -7.594   1.720  1.00  0.00    -0.248 NA
ATOM     38  C   UNL     1      11.395  -7.983   2.734  1.00  0.00     0.031 C 
ATOM     39  C   UNL     1      11.358  -6.773  -2.148  1.00  0.00     0.029 A 
ATOM     40  N   UNL     1      13.351  -7.016  -1.168  1.00  0.00    -0.354 N 
ATOM     41  C   UNL     1      13.655  -7.847   3.074  1.00  0.00     0.074 A 
ATOM     42  C   UNL     1      12.341  -8.001   3.662  1.00  0.00     0.031 C 
ATOM     43  C   UNL     1      12.295  -6.548  -3.082  1.00  0.00     0.029 A 
ATOM     44  C   UNL     1      13.615  -6.663  -2.473  1.00  0.00     0.049 A 
ATOM     45  H   UNL     1      14.058  -7.192  -0.505  1.00  0.00     0.167 HD
ATOM     46  C   UNL     1      14.821  -7.959   3.760  1.00  0.00     0.034 A 
ATOM     47  C   UNL     1      14.786  -6.440  -3.104  1.00  0.00     0.034 A 
ATOM     48  C   UNL     1      16.124  -7.832   3.151  1.00  0.00     0.049 A 
ATOM     49  C   UNL     1      16.069  -6.585  -2.327  1.00  0.00     0.074 A 
ATOM     50  C   UNL     1      17.369  -7.995   3.733  1.00  0.00     0.029 A 
ATOM     51  N   UNL     1      16.350  -7.510   1.818  1.00  0.00    -0.354 N 
ATOM     52  N   UNL     1      16.237  -6.870  -1.056  1.00  0.00    -0.248 NA
ATOM     53  C   UNL     1      17.319  -6.387  -3.071  1.00  0.00     0.031 C 
ATOM     54  C   UNL     1      18.345  -7.717   2.769  1.00  0.00     0.029 A 
ATOM     55  C   UNL     1      17.712  -7.448   1.566  1.00  0.00     0.049 A 
ATOM     56  H   UNL     1      15.645  -7.350   1.149  1.00  0.00     0.167 HD
ATOM     57  C   UNL     1      17.613  -6.915  -0.857  1.00  0.00     0.074 A 
ATOM     58  C   UNL     1      18.227  -6.641  -2.140  1.00  0.00     0.031 C 
ATOM     59  C   UNL     1      18.308  -7.165   0.282  1.00  0.00     0.034 A 
BRANCH  46  60
ATOM     60  C   UNL     1      14.729  -8.211   5.247  1.00  0.00     0.023 A 
ATOM     61  C   UNL     1      14.126  -9.371   5.764  1.00  0.00     0.031 A 
ATOM     62  C   UNL     1      15.212  -7.260   6.164  1.00  0.00     0.131 A 
ATOM     63  C   UNL     1      13.937  -9.508   7.147  1.00  0.00     0.055 A 
ATOM     64  C   UNL     1      15.101  -7.444   7.544  1.00  0.00     0.041 A 
ATOM     65  F   UNL     1      15.783  -6.123   5.734  1.00  0.00    -0.206 F 
ATOM     66  C   UNL     1      14.444  -8.564   8.043  1.00  0.00     0.022 A 
BRANCH  63  67
ATOM     67  S   UNL     1      12.880 -10.855   7.744  1.00  0.00     0.124 S 
ATOM     68  O   UNL     1      11.615 -10.553   7.079  1.00  0.00    -0.237 OA
ATOM     69  O   UNL     1      13.583 -12.042   7.271  1.00  0.00    -0.237 OA
ATOM     70  O   UNL     1      12.873 -10.669   9.194  1.00  0.00    -0.744 OA
ENDBRANCH  63  67
ENDBRANCH  46  60
BRANCH  47  71
ATOM     71  C   UNL     1      14.809  -6.056  -4.544  1.00  0.00     0.023 A 
ATOM     72  C   UNL     1      15.358  -6.915  -5.509  1.00  0.00     0.031 A 
ATOM     73  C   UNL     1      14.316  -4.811  -4.974  1.00  0.00     0.131 A 
ATOM     74  C   UNL     1      15.442  -6.503  -6.848  1.00  0.00     0.055 A 
ATOM     75  C   UNL     1      14.358  -4.425  -6.315  1.00  0.00     0.041 A 
ATOM     76  F   UNL     1      13.773  -3.955  -4.094  1.00  0.00    -0.206 F 
ATOM     77  C   UNL     1      14.935  -5.269  -7.260  1.00  0.00     0.022 A 
BRANCH  74  78
ATOM     78  S   UNL     1      16.294  -7.577  -8.036  1.00  0.00     0.124 S 
ATOM     79  O   UNL     1      17.619  -7.692  -7.436  1.00  0.00    -0.237 OA
ATOM     80  O   UNL     1      15.468  -8.780  -8.002  1.00  0.00    -0.237 OA
ATOM     81  O   UNL     1      16.236  -6.819  -9.283  1.00  0.00    -0.744 OA
ENDBRANCH  74  78
ENDBRANCH  47  71
BRANCH  59  82
ATOM     82  C   UNL     1      19.812  -7.200   0.170  1.00  0.00     0.023 A 
ATOM     83  C   UNL     1      20.561  -6.042  -0.100  1.00  0.00     0.031 A 
ATOM     84  C   UNL     1      20.501  -8.417   0.322  1.00  0.00     0.131 A 
ATOM     85  C   UNL     1      21.952  -6.134  -0.262  1.00  0.00     0.055 A 
ATOM     86  C   UNL     1      21.890  -8.492   0.215  1.00  0.00     0.041 A 
ATOM     87  F   UNL     1      19.833  -9.553   0.578  1.00  0.00    -0.206 F 
ATOM     88  C   UNL     1      22.622  -7.348  -0.091  1.00  0.00     0.022 A 
BRANCH  85  89
ATOM     89  S   UNL     1      22.867  -4.657  -0.785  1.00  0.00     0.124 S 
ATOM     90  O   UNL     1      22.227  -4.339  -2.058  1.00  0.00    -0.237 OA
ATOM     91  O   UNL     1      22.609  -3.727   0.309  1.00  0.00    -0.237 OA
ATOM     92  O   UNL     1      24.247  -5.127  -0.886  1.00  0.00    -0.744 OA
ENDBRANCH  85  89
ENDBRANCH  59  82
ENDBRANCH  33  34
ENDBRANCH  25  28
ENDBRANCH  23  24
ENDBRANCH   1  23
TORSDOF 16
