REMARK SMILES O=C(NCCCCNC(=O)c1ccc2nc(-c3c[nH]nc3-c3ccc(F)cc3F)[nH]c2c1)c1ccc(-c2c3nc(c(-c4cc(S(=O)(=O)[O-])ccc4F)c4ccc([nH]4)c(-c4cc(S(=O)(=O)[O-])ccc4F)c4nc(c(-c5cc(S(=O)(=O)[O-])ccc5F)c5ccc2[nH]5)C=C4)C=C3)cc1
REMARK SMILES IDX 5 1 4 2 3 3 1 4 2 5 33 7 34 8 95 9 35 10 94 11 36 12 37 13
REMARK SMILES IDX 38 14 88 15 39 16 93 17 87 18 89 19 40 20 92 21 86 22 85 23
REMARK SMILES IDX 41 25 73 26 53 27 72 28 54 29 57 30 71 31 90 32 55 33 56 34
REMARK SMILES IDX 70 36 91 37 58 38 42 39 43 40 51 41 44 42 50 43 52 44 49 45
REMARK SMILES IDX 45 46 46 47 47 48 48 49 74 50 75 51 83 52 76 53 82 54 84 55
REMARK SMILES IDX 81 56 77 57 78 58 79 59 80 60 59 61 60 62 68 63 61 64 67 65
REMARK SMILES IDX 69 66 66 67 62 68 63 69 64 70 65 71 6 72 7 73 8 74 9 75
REMARK SMILES IDX 10 77 11 78 12 79 32 80 13 81 31 82 14 83 30 84 15 85 16 86
REMARK SMILES IDX 17 88 18 89 21 90 19 91 20 92 22 94 23 95 28 96 24 97 27 98
REMARK SMILES IDX 29 99 25 100 26 101
REMARK H PARENT 3 6 89 24 57 35 8 76 30 87 19 93
REMARK Flexibility Score: inf
ROOT
ATOM      1  C   UNL     1       5.029  -0.403   2.539  1.00  0.00     0.023 C 
ENDROOT
BRANCH   1   2
ATOM      2  C   UNL     1       4.691  -0.599   1.065  1.00  0.00     0.116 C 
BRANCH   2   3
ATOM      3  N   UNL     1       3.261  -0.728   0.829  1.00  0.00    -0.352 N 
ATOM      4  O   UNL     1       1.232  -0.173   0.030  1.00  0.00    -0.269 OA
ATOM      5  C   UNL     1       2.449  -0.012  -0.015  1.00  0.00     0.251 C 
ATOM      6  H   UNL     1       2.811  -1.431   1.350  1.00  0.00     0.163 HD
BRANCH   5   7
ATOM      7  C   UNL     1       3.035   0.966  -0.956  1.00  0.00     0.039 A 
ATOM      8  C   UNL     1       4.141   0.634  -1.745  1.00  0.00     0.014 A 
ATOM      9  C   UNL     1       2.456   2.233  -1.055  1.00  0.00     0.014 A 
ATOM     10  C   UNL     1       4.740   1.606  -2.543  1.00  0.00     0.010 A 
ATOM     11  C   UNL     1       3.020   3.187  -1.904  1.00  0.00     0.010 A 
ATOM     12  C   UNL     1       4.182   2.890  -2.634  1.00  0.00    -0.014 A 
BRANCH  12  13
ATOM     13  C   UNL     1       4.797   3.917  -3.511  1.00  0.00     0.031 A 
ATOM     14  C   UNL     1       5.405   5.158  -2.921  1.00  0.00     0.074 A 
ATOM     15  C   UNL     1       4.771   3.744  -4.846  1.00  0.00     0.049 A 
ATOM     16  N   UNL     1       5.888   6.213  -3.525  1.00  0.00    -0.248 NA
ATOM     17  C   UNL     1       5.464   5.223  -1.454  1.00  0.00     0.031 C 
ATOM     18  C   UNL     1       4.210   2.579  -5.532  1.00  0.00     0.029 A 
ATOM     19  N   UNL     1       5.209   4.552  -5.864  1.00  0.00    -0.354 N 
ATOM     20  C   UNL     1       6.289   7.081  -2.515  1.00  0.00     0.074 A 
ATOM     21  C   UNL     1       5.959   6.436  -1.260  1.00  0.00     0.031 C 
ATOM     22  C   UNL     1       4.333   2.749  -6.856  1.00  0.00     0.029 A 
ATOM     23  C   UNL     1       4.923   4.058  -7.114  1.00  0.00     0.049 A 
ATOM     24  H   UNL     1       5.681   5.403  -5.713  1.00  0.00     0.167 HD
ATOM     25  C   UNL     1       6.882   8.297  -2.628  1.00  0.00     0.034 A 
ATOM     26  C   UNL     1       5.075   4.612  -8.332  1.00  0.00     0.034 A 
ATOM     27  C   UNL     1       7.195   8.921  -3.893  1.00  0.00     0.049 A 
ATOM     28  C   UNL     1       5.680   5.984  -8.439  1.00  0.00     0.074 A 
ATOM     29  C   UNL     1       7.829  10.129  -4.128  1.00  0.00     0.029 A 
ATOM     30  N   UNL     1       6.880   8.393  -5.140  1.00  0.00    -0.354 N 
ATOM     31  N   UNL     1       6.072   6.788  -7.478  1.00  0.00    -0.248 NA
ATOM     32  C   UNL     1       5.869   6.522  -9.792  1.00  0.00     0.031 C 
ATOM     33  C   UNL     1       7.836  10.363  -5.508  1.00  0.00     0.029 A 
ATOM     34  C   UNL     1       7.275   9.266  -6.144  1.00  0.00     0.049 A 
ATOM     35  H   UNL     1       6.440   7.525  -5.290  1.00  0.00     0.167 HD
ATOM     36  C   UNL     1       6.577   7.918  -8.111  1.00  0.00     0.074 A 
ATOM     37  C   UNL     1       6.440   7.691  -9.537  1.00  0.00     0.031 C 
ATOM     38  C   UNL     1       7.119   9.034  -7.561  1.00  0.00     0.034 A 
BRANCH  25  39
ATOM     39  C   UNL     1       7.173   9.046  -1.348  1.00  0.00     0.023 A 
ATOM     40  C   UNL     1       8.050   8.536  -0.373  1.00  0.00     0.031 A 
ATOM     41  C   UNL     1       6.522  10.262  -1.071  1.00  0.00     0.131 A 
ATOM     42  C   UNL     1       8.180   9.187   0.864  1.00  0.00     0.055 A 
ATOM     43  C   UNL     1       6.724  10.951   0.127  1.00  0.00     0.041 A 
ATOM     44  F   UNL     1       5.659  10.791  -1.952  1.00  0.00    -0.206 F 
ATOM     45  C   UNL     1       7.541  10.404   1.111  1.00  0.00     0.022 A 
BRANCH  42  46
ATOM     46  S   UNL     1       9.049   8.329   2.205  1.00  0.00     0.124 S 
ATOM     47  O   UNL     1       8.334   7.055   2.257  1.00  0.00    -0.237 OA
ATOM     48  O   UNL     1      10.418   8.272   1.708  1.00  0.00    -0.237 OA
ATOM     49  O   UNL     1       8.838   9.197   3.362  1.00  0.00    -0.744 OA
ENDBRANCH  42  46
ENDBRANCH  25  39
BRANCH  26  50
ATOM     50  C   UNL     1       4.593   3.878  -9.533  1.00  0.00     0.023 A 
ATOM     51  C   UNL     1       5.490   3.345 -10.470  1.00  0.00     0.031 A 
ATOM     52  C   UNL     1       3.216   3.671  -9.737  1.00  0.00     0.131 A 
ATOM     53  C   UNL     1       4.997   2.643 -11.581  1.00  0.00     0.055 A 
ATOM     54  C   UNL     1       2.734   2.938 -10.821  1.00  0.00     0.041 A 
ATOM     55  F   UNL     1       2.321   4.152  -8.859  1.00  0.00    -0.206 F 
ATOM     56  C   UNL     1       3.628   2.424 -11.755  1.00  0.00     0.022 A 
BRANCH  53  57
ATOM     57  S   UNL     1       6.176   2.039 -12.819  1.00  0.00     0.124 S 
ATOM     58  O   UNL     1       6.768   3.283 -13.298  1.00  0.00    -0.237 OA
ATOM     59  O   UNL     1       7.044   1.181 -12.020  1.00  0.00    -0.237 OA
ATOM     60  O   UNL     1       5.328   1.339 -13.782  1.00  0.00    -0.744 OA
ENDBRANCH  53  57
ENDBRANCH  26  50
BRANCH  38  61
ATOM     61  C   UNL     1       7.656  10.075  -8.510  1.00  0.00     0.023 A 
ATOM     62  C   UNL     1       6.807  10.880  -9.290  1.00  0.00     0.031 A 
ATOM     63  C   UNL     1       9.044  10.272  -8.619  1.00  0.00     0.131 A 
ATOM     64  C   UNL     1       7.359  11.824 -10.170  1.00  0.00     0.055 A 
ATOM     65  C   UNL     1       9.585  11.244  -9.460  1.00  0.00     0.041 A 
ATOM     66  F   UNL     1       9.897   9.527  -7.897  1.00  0.00    -0.206 F 
ATOM     67  C   UNL     1       8.741  12.022 -10.247  1.00  0.00     0.022 A 
BRANCH  64  68
ATOM     68  S   UNL     1       6.249  12.765 -11.254  1.00  0.00     0.124 S 
ATOM     69  O   UNL     1       5.655  11.709 -12.068  1.00  0.00    -0.237 OA
ATOM     70  O   UNL     1       5.356  13.415 -10.302  1.00  0.00    -0.237 OA
ATOM     71  O   UNL     1       7.151  13.666 -11.970  1.00  0.00    -0.744 OA
ENDBRANCH  64  68
ENDBRANCH  38  61
ENDBRANCH  12  13
ENDBRANCH   5   7
ENDBRANCH   2   3
ENDBRANCH   1   2
BRANCH   1  72
ATOM     72  C   UNL     1       4.539  -1.506   3.479  1.00  0.00     0.023 C 
BRANCH  72  73
ATOM     73  C   UNL     1       4.912  -2.926   3.059  1.00  0.00     0.116 C 
BRANCH  73  74
ATOM     74  N   UNL     1       6.351  -3.120   3.004  1.00  0.00    -0.352 N 
ATOM     75  C   UNL     1       7.133  -3.922   3.790  1.00  0.00     0.251 C 
ATOM     76  H   UNL     1       6.825  -2.606   2.311  1.00  0.00     0.163 HD
ATOM     77  O   UNL     1       8.357  -3.889   3.724  1.00  0.00    -0.269 OA
BRANCH  75  78
ATOM     78  C   UNL     1       6.486  -4.838   4.743  1.00  0.00     0.042 A 
ATOM     79  C   UNL     1       5.725  -5.912   4.263  1.00  0.00     0.016 A 
ATOM     80  C   UNL     1       6.674  -4.604   6.112  1.00  0.00     0.042 A 
ATOM     81  C   UNL     1       5.122  -6.801   5.159  1.00  0.00     0.031 A 
ATOM     82  C   UNL     1       6.035  -5.494   6.974  1.00  0.00     0.067 A 
ATOM     83  C   UNL     1       5.302  -6.591   6.534  1.00  0.00     0.089 A 
ATOM     84  N   UNL     1       5.939  -5.553   8.341  1.00  0.00    -0.338 N 
ATOM     85  N   UNL     1       4.866  -7.340   7.593  1.00  0.00    -0.228 NA
ATOM     86  C   UNL     1       5.251  -6.692   8.672  1.00  0.00     0.142 A 
ATOM     87  H   UNL     1       6.302  -4.893   8.975  1.00  0.00     0.168 HD
BRANCH  86  88
ATOM     88  C   UNL     1       4.984  -7.157  10.051  1.00  0.00     0.063 A 
ATOM     89  C   UNL     1       4.931  -6.375  11.179  1.00  0.00     0.117 A 
ATOM     90  C   UNL     1       4.738  -8.488  10.490  1.00  0.00     0.106 A 
ATOM     91  N   UNL     1       4.585  -7.225  12.189  1.00  0.00    -0.284 N 
ATOM     92  N   UNL     1       4.509  -8.511  11.815  1.00  0.00    -0.175 NA
ATOM     93  H   UNL     1       4.408  -6.921  13.109  1.00  0.00     0.189 HD
BRANCH  90  94
ATOM     94  C   UNL     1       4.864  -9.720   9.721  1.00  0.00     0.039 A 
ATOM     95  C   UNL     1       6.079 -10.004   9.071  1.00  0.00     0.016 A 
ATOM     96  C   UNL     1       3.812 -10.632   9.615  1.00  0.00     0.135 A 
ATOM     97  C   UNL     1       6.226 -11.176   8.327  1.00  0.00     0.040 A 
ATOM     98  C   UNL     1       3.955 -11.805   8.876  1.00  0.00     0.079 A 
ATOM     99  F   UNL     1       2.631 -10.396  10.206  1.00  0.00    -0.206 F 
ATOM    100  C   UNL     1       5.162 -12.065   8.239  1.00  0.00     0.126 A 
ATOM    101  F   UNL     1       5.305 -13.191   7.529  1.00  0.00    -0.207 F 
ENDBRANCH  90  94
ENDBRANCH  86  88
ENDBRANCH  75  78
ENDBRANCH  73  74
ENDBRANCH  72  73
ENDBRANCH   1  72
TORSDOF 16
