REMARK SMILES COc1cccc(/C=C(/CC(=O)NCCCCNC(=O)c2ccc(-c3c4nc(c(-c5cc(S(=O)(=O)[O-])ccc5F)c5ccc([nH]5)c(-c5cc(S(=O)(=O)[O-])ccc5F)c5nc(c(-c6cc(S(=O)(=O)[O-])ccc6F)c6ccc3[nH]6)C=C5)C=C4)cc2)c2nc3ccccc3o2)c1
REMARK SMILES IDX 15 1 14 2 13 3 11 4 12 5 10 7 9 8 8 9 7 10 3 11 4 12 93 13
REMARK SMILES IDX 5 14 6 15 2 16 1 17 84 18 85 19 92 20 86 21 91 22 87 23
REMARK SMILES IDX 90 24 88 25 89 26 16 27 17 28 18 29 19 30 20 32 21 33 22 34
REMARK SMILES IDX 83 35 23 36 82 37 24 38 25 39 26 40 76 41 27 42 81 43 75 44
REMARK SMILES IDX 77 45 28 46 80 47 74 48 73 49 29 51 61 52 41 53 60 54 42 55
REMARK SMILES IDX 45 56 59 57 78 58 43 59 44 60 58 62 79 63 46 64 30 65 31 66
REMARK SMILES IDX 39 67 32 68 38 69 40 70 37 71 33 72 34 73 35 74 36 75 62 76
REMARK SMILES IDX 63 77 71 78 64 79 70 80 72 81 69 82 65 83 66 84 67 85 68 86
REMARK SMILES IDX 47 87 48 88 56 89 49 90 55 91 57 92 54 93 50 94 51 95 52 96
REMARK SMILES IDX 53 97
REMARK H PARENT 13 6 18 31 77 50 45 61
REMARK Flexibility Score: inf
ROOT
ATOM      1  C   UNL     1       4.390  -6.290   1.001  1.00  0.00     0.023 C 
ENDROOT
BRANCH   1   2
ATOM      2  C   UNL     1       5.655  -5.858   0.263  1.00  0.00     0.116 C 
BRANCH   2   3
ATOM      3  N   UNL     1       6.115  -6.846  -0.693  1.00  0.00    -0.356 N 
ATOM      4  C   UNL     1       6.055  -6.824  -2.058  1.00  0.00     0.224 C 
ATOM      5  O   UNL     1       6.630  -7.716  -2.686  1.00  0.00    -0.275 OA
ATOM      6  H   UNL     1       6.531  -7.648  -0.302  1.00  0.00     0.163 HD
BRANCH   4   7
ATOM      7  C   UNL     1       5.360  -5.669  -2.781  1.00  0.00     0.141 C 
BRANCH   7   8
ATOM      8  C   UNL     1       3.847  -5.637  -2.552  1.00  0.00     0.025 C 
ATOM      9  C   UNL     1       3.325  -4.520  -1.985  1.00  0.00     0.018 C 
BRANCH   9  10
ATOM     10  C   UNL     1       2.014  -4.098  -1.424  1.00  0.00    -0.021 A 
ATOM     11  C   UNL     1       0.796  -2.397  -0.139  1.00  0.00     0.119 A 
ATOM     12  C   UNL     1      -0.350  -3.179  -0.166  1.00  0.00     0.046 A 
ATOM     13  C   UNL     1       1.967  -2.850  -0.760  1.00  0.00     0.054 A 
ATOM     14  C   UNL     1      -0.332  -4.403  -0.823  1.00  0.00     0.004 A 
ATOM     15  C   UNL     1       0.844  -4.861  -1.429  1.00  0.00     0.008 A 
BRANCH  11  16
ATOM     16  O   UNL     1       0.718  -1.249   0.601  1.00  0.00    -0.497 OA
ATOM     17  C   UNL     1       1.243  -0.101  -0.053  1.00  0.00     0.278 C 
ENDBRANCH  11  16
ENDBRANCH   9  10
BRANCH   8  18
ATOM     18  C   UNL     1       3.074  -6.799  -2.884  1.00  0.00     0.223 A 
ATOM     19  N   UNL     1       3.476  -8.042  -2.648  1.00  0.00    -0.210 NA
ATOM     20  O   UNL     1       1.879  -6.773  -3.592  1.00  0.00    -0.436 OA
ATOM     21  C   UNL     1       2.513  -8.853  -3.174  1.00  0.00     0.110 A 
ATOM     22  C   UNL     1       1.513  -8.080  -3.725  1.00  0.00     0.155 A 
ATOM     23  C   UNL     1       2.410 -10.248  -3.220  1.00  0.00     0.032 A 
ATOM     24  C   UNL     1       0.354  -8.586  -4.301  1.00  0.00     0.049 A 
ATOM     25  C   UNL     1       1.260 -10.802  -3.800  1.00  0.00     0.003 A 
ATOM     26  C   UNL     1       0.247  -9.983  -4.318  1.00  0.00     0.004 A 
ENDBRANCH   8  18
ENDBRANCH   7   8
ENDBRANCH   4   7
ENDBRANCH   2   3
ENDBRANCH   1   2
BRANCH   1  27
ATOM     27  C   UNL     1       4.570  -7.465   1.968  1.00  0.00     0.023 C 
BRANCH  27  28
ATOM     28  C   UNL     1       5.660  -7.295   3.023  1.00  0.00     0.116 C 
BRANCH  28  29
ATOM     29  N   UNL     1       5.480  -6.111   3.846  1.00  0.00    -0.352 N 
ATOM     30  C   UNL     1       5.646  -5.950   5.199  1.00  0.00     0.251 C 
ATOM     31  H   UNL     1       5.195  -5.303   3.361  1.00  0.00     0.163 HD
ATOM     32  O   UNL     1       5.318  -4.883   5.718  1.00  0.00    -0.269 OA
BRANCH  30  33
ATOM     33  C   UNL     1       6.175  -7.051   6.039  1.00  0.00     0.039 A 
ATOM     34  C   UNL     1       5.587  -7.275   7.286  1.00  0.00     0.014 A 
ATOM     35  C   UNL     1       7.241  -7.853   5.621  1.00  0.00     0.014 A 
ATOM     36  C   UNL     1       6.026  -8.336   8.082  1.00  0.00     0.010 A 
ATOM     37  C   UNL     1       7.625  -8.959   6.382  1.00  0.00     0.010 A 
ATOM     38  C   UNL     1       7.022  -9.214   7.621  1.00  0.00    -0.014 A 
BRANCH  38  39
ATOM     39  C   UNL     1       7.402 -10.408   8.427  1.00  0.00     0.031 A 
ATOM     40  C   UNL     1       8.793 -10.557   8.983  1.00  0.00     0.074 A 
ATOM     41  C   UNL     1       6.484 -11.372   8.643  1.00  0.00     0.049 A 
ATOM     42  N   UNL     1       9.282 -11.506   9.742  1.00  0.00    -0.248 NA
ATOM     43  C   UNL     1       9.768  -9.519   8.621  1.00  0.00     0.031 C 
ATOM     44  C   UNL     1       5.121 -11.372   8.107  1.00  0.00     0.029 A 
ATOM     45  N   UNL     1       6.548 -12.530   9.377  1.00  0.00    -0.354 N 
ATOM     46  C   UNL     1      10.619 -11.180   9.949  1.00  0.00     0.074 A 
ATOM     47  C   UNL     1      10.878  -9.983   9.177  1.00  0.00     0.031 C 
ATOM     48  C   UNL     1       4.464 -12.446   8.570  1.00  0.00     0.029 A 
ATOM     49  C   UNL     1       5.368 -13.238   9.398  1.00  0.00     0.049 A 
ATOM     50  H   UNL     1       7.362 -12.827   9.845  1.00  0.00     0.167 HD
ATOM     51  C   UNL     1      11.536 -11.805  10.730  1.00  0.00     0.034 A 
ATOM     52  C   UNL     1       5.045 -14.392  10.015  1.00  0.00     0.034 A 
ATOM     53  C   UNL     1      11.262 -13.003  11.490  1.00  0.00     0.049 A 
ATOM     54  C   UNL     1       6.085 -15.073  10.868  1.00  0.00     0.074 A 
ATOM     55  C   UNL     1      12.104 -13.693  12.346  1.00  0.00     0.029 A 
ATOM     56  N   UNL     1      10.059 -13.700  11.478  1.00  0.00    -0.354 N 
ATOM     57  N   UNL     1       7.326 -14.714  11.106  1.00  0.00    -0.248 NA
ATOM     58  C   UNL     1       5.671 -16.303  11.551  1.00  0.00     0.031 C 
ATOM     59  C   UNL     1      11.439 -14.843  12.788  1.00  0.00     0.029 A 
ATOM     60  C   UNL     1      10.148 -14.826  12.285  1.00  0.00     0.049 A 
ATOM     61  H   UNL     1       9.259 -13.433  10.970  1.00  0.00     0.167 HD
ATOM     62  C   UNL     1       7.829 -15.660  11.995  1.00  0.00     0.074 A 
ATOM     63  C   UNL     1       6.747 -16.584  12.270  1.00  0.00     0.031 C 
ATOM     64  C   UNL     1       9.071 -15.756  12.537  1.00  0.00     0.034 A 
BRANCH  51  65
ATOM     65  C   UNL     1      12.929 -11.216  10.777  1.00  0.00     0.023 A 
ATOM     66  C   UNL     1      13.168  -9.916  11.261  1.00  0.00     0.031 A 
ATOM     67  C   UNL     1      14.034 -11.955  10.319  1.00  0.00     0.131 A 
ATOM     68  C   UNL     1      14.460  -9.371  11.205  1.00  0.00     0.055 A 
ATOM     69  C   UNL     1      15.332 -11.438  10.347  1.00  0.00     0.041 A 
ATOM     70  F   UNL     1      13.872 -13.193   9.825  1.00  0.00    -0.206 F 
ATOM     71  C   UNL     1      15.549 -10.133  10.777  1.00  0.00     0.022 A 
BRANCH  68  72
ATOM     72  S   UNL     1      14.672  -7.604  11.557  1.00  0.00     0.124 S 
ATOM     73  O   UNL     1      13.786  -6.997  10.567  1.00  0.00    -0.237 OA
ATOM     74  O   UNL     1      14.242  -7.505  12.947  1.00  0.00    -0.237 OA
ATOM     75  O   UNL     1      16.097  -7.377  11.327  1.00  0.00    -0.744 OA
ENDBRANCH  68  72
ENDBRANCH  51  65
BRANCH  52  76
ATOM     76  C   UNL     1       3.681 -14.979   9.860  1.00  0.00     0.023 A 
ATOM     77  C   UNL     1       2.826 -15.134  10.963  1.00  0.00     0.031 A 
ATOM     78  C   UNL     1       3.231 -15.438   8.609  1.00  0.00     0.131 A 
ATOM     79  C   UNL     1       1.589 -15.780  10.805  1.00  0.00     0.055 A 
ATOM     80  C   UNL     1       1.975 -16.023   8.445  1.00  0.00     0.041 A 
ATOM     81  F   UNL     1       4.006 -15.312   7.520  1.00  0.00    -0.206 F 
ATOM     82  C   UNL     1       1.152 -16.211   9.551  1.00  0.00     0.022 A 
BRANCH  79  83
ATOM     83  S   UNL     1       0.599 -16.137  12.283  1.00  0.00     0.124 S 
ATOM     84  O   UNL     1       1.527 -16.934  13.076  1.00  0.00    -0.237 OA
ATOM     85  O   UNL     1       0.311 -14.798  12.785  1.00  0.00    -0.237 OA
ATOM     86  O   UNL     1      -0.553 -16.862  11.752  1.00  0.00    -0.744 OA
ENDBRANCH  79  83
ENDBRANCH  52  76
BRANCH  64  87
ATOM     87  C   UNL     1       9.300 -16.885  13.518  1.00  0.00     0.023 A 
ATOM     88  C   UNL     1       9.188 -18.234  13.137  1.00  0.00     0.031 A 
ATOM     89  C   UNL     1       9.578 -16.606  14.869  1.00  0.00     0.131 A 
ATOM     90  C   UNL     1       9.257 -19.245  14.107  1.00  0.00     0.055 A 
ATOM     91  C   UNL     1       9.728 -17.621  15.816  1.00  0.00     0.041 A 
ATOM     92  F   UNL     1       9.694 -15.338  15.296  1.00  0.00    -0.206 F 
ATOM     93  C   UNL     1       9.545 -18.948  15.441  1.00  0.00     0.022 A 
BRANCH  90  94
ATOM     94  S   UNL     1       8.810 -20.938  13.630  1.00  0.00     0.124 S 
ATOM     95  O   UNL     1       7.480 -20.751  13.061  1.00  0.00    -0.237 OA
ATOM     96  O   UNL     1       9.866 -21.283  12.684  1.00  0.00    -0.237 OA
ATOM     97  O   UNL     1       8.846 -21.671  14.895  1.00  0.00    -0.744 OA
ENDBRANCH  90  94
ENDBRANCH  64  87
ENDBRANCH  38  39
ENDBRANCH  30  33
ENDBRANCH  28  29
ENDBRANCH  27  28
ENDBRANCH   1  27
TORSDOF 18
