REMARK SMILES O=C(NCCCCNC(=O)[C@@H]1[C@@H](C(=O)NCc2ccccc2OCc2ccccc2)[C@@H]2C=C[C@H]1C2)c1ccc(-c2c3nc(c(-c4cc(S(=O)(=O)[O-])ccc4F)c4ccc([nH]4)c(-c4cc(S(=O)(=O)[O-])ccc4F)c4nc(c(-c5cc(S(=O)(=O)[O-])ccc5F)c5ccc2[nH]5)C=C4)C=C3)cc1
REMARK SMILES IDX 7 1 6 2 5 3 4 4 3 5 1 6 2 7 36 9 37 10 98 11 38 12 97 13
REMARK SMILES IDX 39 14 40 15 41 16 91 17 42 18 96 19 90 20 92 21 43 22 95 23
REMARK SMILES IDX 89 24 88 25 44 27 76 28 56 29 75 30 57 31 60 32 74 33 93 34
REMARK SMILES IDX 58 35 59 36 73 38 94 39 61 40 45 41 46 42 54 43 47 44 53 45
REMARK SMILES IDX 55 46 52 47 48 48 49 49 50 50 51 51 77 52 78 53 86 54 79 55
REMARK SMILES IDX 85 56 87 57 84 58 80 59 81 60 82 61 83 62 62 63 63 64 71 65
REMARK SMILES IDX 64 66 70 67 72 68 69 69 65 70 66 71 67 72 68 73 8 74 9 75
REMARK SMILES IDX 10 77 11 78 12 79 34 80 31 81 33 82 35 83 32 84 13 85 14 86
REMARK SMILES IDX 15 87 16 89 17 90 18 91 22 92 19 93 21 94 20 95 23 96 24 97
REMARK SMILES IDX 25 98 26 99 30 100 27 101 29 102 28 103
REMARK H PARENT 3 8 92 26 60 37 8 76 15 88
REMARK Flexibility Score: inf
ROOT
ATOM      1  C   UNL     1       4.713  -0.374  -4.267  1.00  0.00     0.116 C 
ENDROOT
BRANCH   1   2
ATOM      2  C   UNL     1       4.296  -1.552  -3.399  1.00  0.00     0.023 C 
BRANCH   2   3
ATOM      3  C   UNL     1       4.784  -1.492  -1.955  1.00  0.00     0.023 C 
BRANCH   3   4
ATOM      4  C   UNL     1       4.516  -0.174  -1.242  1.00  0.00     0.116 C 
BRANCH   4   5
ATOM      5  N   UNL     1       3.092   0.106  -1.103  1.00  0.00    -0.352 N 
ATOM      6  O   UNL     1       1.099   0.201  -0.045  1.00  0.00    -0.269 OA
ATOM      7  C   UNL     1       2.321   0.121   0.036  1.00  0.00     0.251 C 
ATOM      8  H   UNL     1       2.617   0.314  -1.940  1.00  0.00     0.163 HD
BRANCH   7   9
ATOM      9  C   UNL     1       2.981   0.020   1.353  1.00  0.00     0.039 A 
ATOM     10  C   UNL     1       4.093   0.814   1.637  1.00  0.00     0.014 A 
ATOM     11  C   UNL     1       2.509  -0.898   2.295  1.00  0.00     0.014 A 
ATOM     12  C   UNL     1       4.835   0.571   2.784  1.00  0.00     0.010 A 
ATOM     13  C   UNL     1       3.198  -1.064   3.500  1.00  0.00     0.010 A 
ATOM     14  C   UNL     1       4.386  -0.355   3.740  1.00  0.00    -0.014 A 
BRANCH  14  15
ATOM     15  C   UNL     1       5.149  -0.509   5.005  1.00  0.00     0.031 A 
ATOM     16  C   UNL     1       5.806  -1.813   5.368  1.00  0.00     0.074 A 
ATOM     17  C   UNL     1       5.277   0.565   5.809  1.00  0.00     0.049 A 
ATOM     18  N   UNL     1       6.503  -2.115   6.434  1.00  0.00    -0.248 NA
ATOM     19  C   UNL     1       5.652  -2.924   4.418  1.00  0.00     0.031 C 
ATOM     20  C   UNL     1       4.685   1.882   5.549  1.00  0.00     0.029 A 
ATOM     21  N   UNL     1       5.957   0.737   6.986  1.00  0.00    -0.354 N 
ATOM     22  C   UNL     1       6.862  -3.451   6.293  1.00  0.00     0.074 A 
ATOM     23  C   UNL     1       6.272  -3.910   5.052  1.00  0.00     0.031 C 
ATOM     24  C   UNL     1       5.071   2.735   6.506  1.00  0.00     0.029 A 
ATOM     25  C   UNL     1       5.863   2.012   7.492  1.00  0.00     0.049 A 
ATOM     26  H   UNL     1       6.463   0.017   7.427  1.00  0.00     0.167 HD
ATOM     27  C   UNL     1       7.621  -4.216   7.119  1.00  0.00     0.034 A 
ATOM     28  C   UNL     1       6.335   2.538   8.638  1.00  0.00     0.034 A 
ATOM     29  C   UNL     1       8.198  -3.735   8.354  1.00  0.00     0.049 A 
ATOM     30  C   UNL     1       7.125   1.653   9.562  1.00  0.00     0.074 A 
ATOM     31  C   UNL     1       8.991  -4.418   9.261  1.00  0.00     0.029 A 
ATOM     32  N   UNL     1       8.039  -2.450   8.862  1.00  0.00    -0.354 N 
ATOM     33  N   UNL     1       7.454   0.390   9.412  1.00  0.00    -0.248 NA
ATOM     34  C   UNL     1       7.606   2.261  10.806  1.00  0.00     0.031 C 
ATOM     35  C   UNL     1       9.254  -3.571  10.344  1.00  0.00     0.029 A 
ATOM     36  C   UNL     1       8.693  -2.332  10.080  1.00  0.00     0.049 A 
ATOM     37  H   UNL     1       7.536  -1.728   8.420  1.00  0.00     0.167 HD
ATOM     38  C   UNL     1       8.200   0.060  10.538  1.00  0.00     0.074 A 
ATOM     39  C   UNL     1       8.292   1.263  11.341  1.00  0.00     0.031 C 
ATOM     40  C   UNL     1       8.759  -1.129  10.878  1.00  0.00     0.034 A 
BRANCH  27  41
ATOM     41  C   UNL     1       7.830  -5.663   6.736  1.00  0.00     0.023 A 
ATOM     42  C   UNL     1       8.525  -6.030   5.570  1.00  0.00     0.031 A 
ATOM     43  C   UNL     1       7.313  -6.694   7.542  1.00  0.00     0.131 A 
ATOM     44  C   UNL     1       8.627  -7.383   5.209  1.00  0.00     0.055 A 
ATOM     45  C   UNL     1       7.485  -8.042   7.218  1.00  0.00     0.041 A 
ATOM     46  F   UNL     1       6.622  -6.409   8.657  1.00  0.00    -0.206 F 
ATOM     47  C   UNL     1       8.134  -8.393   6.038  1.00  0.00     0.022 A 
BRANCH  44  48
ATOM     48  S   UNL     1       9.293  -7.798   3.573  1.00  0.00     0.124 S 
ATOM     49  O   UNL     1       8.383  -7.071   2.691  1.00  0.00    -0.237 OA
ATOM     50  O   UNL     1      10.656  -7.285   3.648  1.00  0.00    -0.237 OA
ATOM     51  O   UNL     1       9.175  -9.254   3.514  1.00  0.00    -0.744 OA
ENDBRANCH  44  48
ENDBRANCH  27  41
BRANCH  28  52
ATOM     52  C   UNL     1       6.037   3.955   8.992  1.00  0.00     0.023 A 
ATOM     53  C   UNL     1       7.065   4.898   9.137  1.00  0.00     0.031 A 
ATOM     54  C   UNL     1       4.715   4.378   9.220  1.00  0.00     0.131 A 
ATOM     55  C   UNL     1       6.758   6.206   9.541  1.00  0.00     0.055 A 
ATOM     56  C   UNL     1       4.410   5.696   9.561  1.00  0.00     0.041 A 
ATOM     57  F   UNL     1       3.693   3.517   9.092  1.00  0.00    -0.206 F 
ATOM     58  C   UNL     1       5.437   6.616   9.738  1.00  0.00     0.022 A 
BRANCH  55  59
ATOM     59  S   UNL     1       8.124   7.345   9.896  1.00  0.00     0.124 S 
ATOM     60  O   UNL     1       8.874   6.605  10.904  1.00  0.00    -0.237 OA
ATOM     61  O   UNL     1       8.758   7.473   8.588  1.00  0.00    -0.237 OA
ATOM     62  O   UNL     1       7.447   8.547  10.379  1.00  0.00    -0.744 OA
ENDBRANCH  55  59
ENDBRANCH  28  52
BRANCH  40  63
ATOM     63  C   UNL     1       9.550  -1.160  12.162  1.00  0.00     0.023 A 
ATOM     64  C   UNL     1       8.933  -0.988  13.414  1.00  0.00     0.031 A 
ATOM     65  C   UNL     1      10.946  -1.327  12.129  1.00  0.00     0.131 A 
ATOM     66  C   UNL     1       9.717  -0.922  14.575  1.00  0.00     0.055 A 
ATOM     67  C   UNL     1      11.714  -1.323  13.294  1.00  0.00     0.041 A 
ATOM     68  F   UNL     1      11.587  -1.490  10.960  1.00  0.00    -0.206 F 
ATOM     69  C   UNL     1      11.101  -1.105  14.525  1.00  0.00     0.022 A 
BRANCH  66  70
ATOM     70  S   UNL     1       8.914  -0.492  16.144  1.00  0.00     0.124 S 
ATOM     71  O   UNL     1       8.332   0.811  15.839  1.00  0.00    -0.237 OA
ATOM     72  O   UNL     1       7.967  -1.587  16.321  1.00  0.00    -0.237 OA
ATOM     73  O   UNL     1      10.020  -0.469  17.100  1.00  0.00    -0.744 OA
ENDBRANCH  66  70
ENDBRANCH  40  63
ENDBRANCH  14  15
ENDBRANCH   7   9
ENDBRANCH   4   5
ENDBRANCH   3   4
ENDBRANCH   2   3
ENDBRANCH   1   2
BRANCH   1  74
ATOM     74  N   UNL     1       6.144  -0.168  -4.295  1.00  0.00    -0.356 N 
ATOM     75  C   UNL     1       6.902   0.363  -5.294  1.00  0.00     0.224 C 
ATOM     76  H   UNL     1       6.634  -0.448  -3.488  1.00  0.00     0.163 HD
ATOM     77  O   UNL     1       8.113   0.478  -5.103  1.00  0.00    -0.275 OA
BRANCH  75  78
ATOM     78  C   UNL     1       6.228   0.753  -6.602  1.00  0.00     0.098 C 
ATOM     79  C   UNL     1       7.244   1.471  -7.583  1.00  0.00     0.098 C 
ATOM     80  C   UNL     1       5.093   1.814  -6.446  1.00  0.00     0.025 C 
ATOM     81  C   UNL     1       6.575   2.864  -7.703  1.00  0.00     0.025 C 
ATOM     82  C   UNL     1       5.616   2.962  -5.620  1.00  0.00    -0.027 C 
ATOM     83  C   UNL     1       5.104   2.483  -7.817  1.00  0.00     0.017 C 
ATOM     84  C   UNL     1       6.554   3.561  -6.361  1.00  0.00    -0.027 C 
BRANCH  79  85
ATOM     85  C   UNL     1       7.424   0.613  -8.861  1.00  0.00     0.224 C 
ATOM     86  O   UNL     1       7.193  -0.599  -8.870  1.00  0.00    -0.275 OA
ATOM     87  N   UNL     1       7.937   1.144 -10.014  1.00  0.00    -0.352 N 
ATOM     88  H   UNL     1       8.287   0.521 -10.690  1.00  0.00     0.163 HD
BRANCH  87  89
ATOM     89  C   UNL     1       7.997   2.547 -10.303  1.00  0.00     0.155 C 
BRANCH  89  90
ATOM     90  C   UNL     1       8.670   3.050 -11.541  1.00  0.00     0.013 A 
ATOM     91  C   UNL     1       9.677   2.276 -12.152  1.00  0.00     0.009 A 
ATOM     92  C   UNL     1       8.463   4.370 -11.996  1.00  0.00     0.124 A 
ATOM     93  C   UNL     1      10.502   2.814 -13.140  1.00  0.00     0.001 A 
ATOM     94  C   UNL     1       9.348   4.909 -12.941  1.00  0.00     0.047 A 
ATOM     95  C   UNL     1      10.362   4.145 -13.508  1.00  0.00     0.004 A 
BRANCH  92  96
ATOM     96  O   UNL     1       7.527   5.296 -11.645  1.00  0.00    -0.489 OA
BRANCH  96  97
ATOM     97  C   UNL     1       6.234   5.053 -11.097  1.00  0.00     0.265 C 
BRANCH  97  98
ATOM     98  C   UNL     1       5.180   4.354 -11.940  1.00  0.00    -0.011 A 
ATOM     99  C   UNL     1       5.455   3.296 -12.816  1.00  0.00     0.007 A 
ATOM    100  C   UNL     1       3.832   4.716 -11.760  1.00  0.00     0.007 A 
ATOM    101  C   UNL     1       4.428   2.626 -13.488  1.00  0.00     0.000 A 
ATOM    102  C   UNL     1       2.805   4.058 -12.443  1.00  0.00     0.000 A 
ATOM    103  C   UNL     1       3.104   3.009 -13.305  1.00  0.00     0.000 A 
ENDBRANCH  97  98
ENDBRANCH  96  97
ENDBRANCH  92  96
ENDBRANCH  89  90
ENDBRANCH  87  89
ENDBRANCH  79  85
ENDBRANCH  75  78
ENDBRANCH   1  74
TORSDOF 20
