REMARK SMILES N#C[C@@H]1CN(C(=O)N[C@@H](Cc2cnc[nH]2)C(=O)NCCCCNC(=O)c2ccc(-c3c4nc(c(-c5cc(S(=O)(=O)[O-])ccc5F)c5ccc([nH]5)c(-c5cc(S(=O)(=O)[O-])ccc5F)c5nc(c(-c6cc(S(=O)(=O)[O-])ccc6F)c6ccc3[nH]6)C=C5)C=C4)cc2)CCO1
REMARK SMILES IDX 20 1 19 2 18 3 16 4 17 5 9 7 8 8 6 9 7 10 5 12 3 13 4 14
REMARK SMILES IDX 91 15 90 16 89 17 2 18 1 19 10 20 11 21 12 22 15 23 13 24
REMARK SMILES IDX 14 25 21 27 22 28 23 29 24 30 25 32 26 33 27 34 88 35 28 36
REMARK SMILES IDX 87 37 29 38 30 39 31 40 81 41 32 42 86 43 80 44 82 45 33 46
REMARK SMILES IDX 85 47 79 48 78 49 34 51 66 52 46 53 65 54 47 55 50 56 64 57
REMARK SMILES IDX 83 58 48 59 49 60 63 62 84 63 51 64 35 65 36 66 44 67 37 68
REMARK SMILES IDX 43 69 45 70 42 71 38 72 39 73 40 74 41 75 67 76 68 77 76 78
REMARK SMILES IDX 69 79 75 80 77 81 74 82 70 83 71 84 72 85 73 86 52 87 53 88
REMARK SMILES IDX 61 89 54 90 60 91 62 92 59 93 55 94 56 95 57 96 58 97
REMARK H PARENT 18 6 8 11 15 26 23 31 82 50 50 61
REMARK Flexibility Score: inf
ROOT
ATOM      1  C   UNL     1      -0.928   4.621  -3.595  1.00  0.00     0.023 C 
ENDROOT
BRANCH   1   2
ATOM      2  C   UNL     1       0.376   4.950  -2.896  1.00  0.00     0.116 C 
BRANCH   2   3
ATOM      3  N   UNL     1       0.481   4.402  -1.566  1.00  0.00    -0.354 N 
ATOM      4  C   UNL     1       1.596   3.998  -0.907  1.00  0.00     0.243 C 
ATOM      5  O   UNL     1       1.546   3.951   0.328  1.00  0.00    -0.273 OA
ATOM      6  H   UNL     1      -0.366   4.310  -1.072  1.00  0.00     0.163 HD
BRANCH   4   7
ATOM      7  C   UNL     1       2.929   3.695  -1.615  1.00  0.00     0.179 C 
BRANCH   7   8
ATOM      8  N   UNL     1       2.869   2.796  -2.775  1.00  0.00    -0.326 N 
ATOM      9  C   UNL     1       3.296   1.576  -3.126  1.00  0.00     0.318 C 
ATOM     10  O   UNL     1       2.965   1.226  -4.264  1.00  0.00    -0.249 OA
ATOM     11  H   UNL     1       2.368   3.214  -3.512  1.00  0.00     0.166 HD
BRANCH   9  12
ATOM     12  N   UNL     1       4.034   0.760  -2.332  1.00  0.00    -0.319 N 
ATOM     13  C   UNL     1       3.701  -0.032  -0.051  1.00  0.00     0.240 C 
ATOM     14  C   UNL     1       4.461   0.924  -0.952  1.00  0.00     0.169 C 
ATOM     15  O   UNL     1       4.153  -1.375  -0.446  1.00  0.00    -0.360 OA
ATOM     16  C   UNL     1       3.813  -1.667  -1.825  1.00  0.00     0.183 C 
ATOM     17  C   UNL     1       4.340  -0.602  -2.809  1.00  0.00     0.150 C 
BRANCH  13  18
ATOM     18  C   UNL     1       2.181  -0.032  -0.051  1.00  0.00     0.096 C 
ATOM     19  N   UNL     1       0.920  -0.032  -0.051  1.00  0.00    -0.195 NA
ENDBRANCH  13  18
ENDBRANCH   9  12
ENDBRANCH   7   8
BRANCH   7  20
ATOM     20  C   UNL     1       3.880   4.891  -1.801  1.00  0.00     0.090 C 
BRANCH  20  21
ATOM     21  C   UNL     1       3.477   5.923  -2.794  1.00  0.00     0.037 A 
ATOM     22  C   UNL     1       3.358   5.904  -4.168  1.00  0.00     0.134 A 
ATOM     23  N   UNL     1       3.175   7.219  -2.442  1.00  0.00    -0.348 N 
ATOM     24  N   UNL     1       2.909   7.110  -4.634  1.00  0.00    -0.245 NA
ATOM     25  C   UNL     1       2.821   7.886  -3.579  1.00  0.00     0.196 A 
ATOM     26  H   UNL     1       3.209   7.597  -1.533  1.00  0.00     0.167 HD
ENDBRANCH  20  21
ENDBRANCH   7  20
ENDBRANCH   4   7
ENDBRANCH   2   3
ENDBRANCH   1   2
BRANCH   1  27
ATOM     27  C   UNL     1      -2.161   5.280  -2.991  1.00  0.00     0.023 C 
BRANCH  27  28
ATOM     28  C   UNL     1      -2.027   6.766  -2.681  1.00  0.00     0.116 C 
BRANCH  28  29
ATOM     29  N   UNL     1      -1.598   7.572  -3.817  1.00  0.00    -0.352 N 
ATOM     30  C   UNL     1      -2.172   8.713  -4.330  1.00  0.00     0.251 C 
ATOM     31  H   UNL     1      -0.788   7.258  -4.280  1.00  0.00     0.163 HD
ATOM     32  O   UNL     1      -1.731   9.228  -5.352  1.00  0.00    -0.269 OA
BRANCH  30  33
ATOM     33  C   UNL     1      -3.356   9.282  -3.656  1.00  0.00     0.039 A 
ATOM     34  C   UNL     1      -4.510   9.522  -4.403  1.00  0.00     0.014 A 
ATOM     35  C   UNL     1      -3.347   9.491  -2.275  1.00  0.00     0.014 A 
ATOM     36  C   UNL     1      -5.688   9.884  -3.747  1.00  0.00     0.010 A 
ATOM     37  C   UNL     1      -4.541   9.760  -1.617  1.00  0.00     0.010 A 
ATOM     38  C   UNL     1      -5.726   9.954  -2.345  1.00  0.00    -0.014 A 
BRANCH  38  39
ATOM     39  C   UNL     1      -6.995  10.218  -1.617  1.00  0.00     0.031 A 
ATOM     40  C   UNL     1      -7.117  11.434  -0.740  1.00  0.00     0.074 A 
ATOM     41  C   UNL     1      -7.997   9.319  -1.671  1.00  0.00     0.049 A 
ATOM     42  N   UNL     1      -8.096  11.793   0.049  1.00  0.00    -0.248 NA
ATOM     43  C   UNL     1      -5.962  12.344  -0.716  1.00  0.00     0.031 C 
ATOM     44  C   UNL     1      -7.969   8.064  -2.427  1.00  0.00     0.029 A 
ATOM     45  N   UNL     1      -9.229   9.310  -1.065  1.00  0.00    -0.354 N 
ATOM     46  C   UNL     1      -7.665  12.953   0.684  1.00  0.00     0.074 A 
ATOM     47  C   UNL     1      -6.310  13.195   0.236  1.00  0.00     0.031 C 
ATOM     48  C   UNL     1      -9.133   7.418  -2.253  1.00  0.00     0.029 A 
ATOM     49  C   UNL     1      -9.975   8.188  -1.344  1.00  0.00     0.049 A 
ATOM     50  H   UNL     1      -9.548  10.038  -0.485  1.00  0.00     0.167 HD
ATOM     51  C   UNL     1      -8.345  13.755   1.540  1.00  0.00     0.034 A 
ATOM     52  C   UNL     1     -11.194   7.815  -0.907  1.00  0.00     0.034 A 
ATOM     53  C   UNL     1      -9.705  13.510   1.953  1.00  0.00     0.049 A 
ATOM     54  C   UNL     1     -11.944   8.731   0.025  1.00  0.00     0.074 A 
ATOM     55  C   UNL     1     -10.523  14.300   2.741  1.00  0.00     0.029 A 
ATOM     56  N   UNL     1     -10.447  12.382   1.619  1.00  0.00    -0.354 N 
ATOM     57  N   UNL     1     -11.556   9.869   0.553  1.00  0.00    -0.248 NA
ATOM     58  C   UNL     1     -13.301   8.321   0.406  1.00  0.00     0.031 C 
ATOM     59  C   UNL     1     -11.731  13.621   2.939  1.00  0.00     0.029 A 
ATOM     60  C   UNL     1     -11.699  12.441   2.213  1.00  0.00     0.049 A 
ATOM     61  H   UNL     1     -10.129  11.649   1.044  1.00  0.00     0.167 HD
ATOM     62  C   UNL     1     -12.631  10.322   1.312  1.00  0.00     0.074 A 
ATOM     63  C   UNL     1     -13.688   9.343   1.157  1.00  0.00     0.031 C 
ATOM     64  C   UNL     1     -12.737  11.447   2.065  1.00  0.00     0.034 A 
BRANCH  51  65
ATOM     65  C   UNL     1      -7.610  14.953   2.099  1.00  0.00     0.023 A 
ATOM     66  C   UNL     1      -7.108  15.969   1.266  1.00  0.00     0.031 A 
ATOM     67  C   UNL     1      -7.364  15.056   3.479  1.00  0.00     0.131 A 
ATOM     68  C   UNL     1      -6.305  16.985   1.805  1.00  0.00     0.055 A 
ATOM     69  C   UNL     1      -6.642  16.122   4.022  1.00  0.00     0.041 A 
ATOM     70  F   UNL     1      -7.800  14.109   4.325  1.00  0.00    -0.206 F 
ATOM     71  C   UNL     1      -6.091  17.084   3.181  1.00  0.00     0.022 A 
BRANCH  68  72
ATOM     72  S   UNL     1      -5.405  18.072   0.664  1.00  0.00     0.124 S 
ATOM     73  O   UNL     1      -4.629  17.106  -0.111  1.00  0.00    -0.237 OA
ATOM     74  O   UNL     1      -6.485  18.743  -0.050  1.00  0.00    -0.237 OA
ATOM     75  O   UNL     1      -4.617  18.924   1.552  1.00  0.00    -0.744 OA
ENDBRANCH  68  72
ENDBRANCH  51  65
BRANCH  52  76
ATOM     76  C   UNL     1     -11.777   6.511  -1.333  1.00  0.00     0.023 A 
ATOM     77  C   UNL     1     -12.911   6.456  -2.159  1.00  0.00     0.031 A 
ATOM     78  C   UNL     1     -11.214   5.296  -0.903  1.00  0.00     0.131 A 
ATOM     79  C   UNL     1     -13.470   5.213  -2.498  1.00  0.00     0.055 A 
ATOM     80  C   UNL     1     -11.745   4.062  -1.282  1.00  0.00     0.041 A 
ATOM     81  F   UNL     1     -10.123   5.294  -0.121  1.00  0.00    -0.206 F 
ATOM     82  C   UNL     1     -12.887   4.016  -2.075  1.00  0.00     0.022 A 
BRANCH  79  83
ATOM     83  S   UNL     1     -15.012   5.183  -3.453  1.00  0.00     0.124 S 
ATOM     84  O   UNL     1     -15.918   5.918  -2.577  1.00  0.00    -0.237 OA
ATOM     85  O   UNL     1     -14.619   5.861  -4.684  1.00  0.00    -0.237 OA
ATOM     86  O   UNL     1     -15.298   3.757  -3.594  1.00  0.00    -0.744 OA
ENDBRANCH  79  83
ENDBRANCH  52  76
BRANCH  64  87
ATOM     87  C   UNL     1     -14.060  11.690   2.749  1.00  0.00     0.023 A 
ATOM     88  C   UNL     1     -14.521  10.861   3.787  1.00  0.00     0.031 A 
ATOM     89  C   UNL     1     -14.877  12.762   2.346  1.00  0.00     0.131 A 
ATOM     90  C   UNL     1     -15.786  11.085   4.351  1.00  0.00     0.055 A 
ATOM     91  C   UNL     1     -16.108  13.015   2.951  1.00  0.00     0.041 A 
ATOM     92  F   UNL     1     -14.488  13.583   1.358  1.00  0.00    -0.206 F 
ATOM     93  C   UNL     1     -16.575  12.167   3.951  1.00  0.00     0.022 A 
BRANCH  90  94
ATOM     94  S   UNL     1     -16.429   9.888   5.552  1.00  0.00     0.124 S 
ATOM     95  O   UNL     1     -16.413   8.648   4.784  1.00  0.00    -0.237 OA
ATOM     96  O   UNL     1     -15.456   9.980   6.636  1.00  0.00    -0.237 OA
ATOM     97  O   UNL     1     -17.760  10.403   5.870  1.00  0.00    -0.744 OA
ENDBRANCH  90  94
ENDBRANCH  64  87
ENDBRANCH  38  39
ENDBRANCH  30  33
ENDBRANCH  28  29
ENDBRANCH  27  28
ENDBRANCH   1  27
TORSDOF 19
