REMARK SMILES O=C(NCCCCNC(=O)c1ccc(-c2c3nc(c(-c4cc(S(=O)(=O)[O-])ccc4F)c4ccc([nH]4)c(-c4cc(S(=O)(=O)[O-])ccc4F)c4nc(c(-c5cc(S(=O)(=O)[O-])ccc5F)c5ccc2[nH]5)C=C4)C=C3)cc1)c1ccc(/[NH+]=C2\S[C@@H](Cc3ccc(F)cc3)C(=O)N2Cc2ccccc2)cc1
REMARK SMILES IDX 5 1 4 2 3 3 1 4 2 5 74 7 75 8 101 9 76 10 100 11 77 12 78 13
REMARK SMILES IDX 79 14 80 16 92 17 81 18 90 19 91 20 93 21 94 22 95 23 99 24
REMARK SMILES IDX 96 25 98 26 97 27 82 28 83 29 84 30 89 31 85 32 88 33 86 34
REMARK SMILES IDX 87 35 6 36 7 37 8 38 9 39 10 41 11 42 12 43 73 44 13 45
REMARK SMILES IDX 72 46 14 47 15 48 16 49 66 50 17 51 71 52 65 53 67 54 18 55
REMARK SMILES IDX 70 56 64 57 63 58 19 60 51 61 31 62 50 63 32 64 35 65 49 66
REMARK SMILES IDX 68 67 33 68 34 69 48 71 69 72 36 73 20 74 21 75 29 76 22 77
REMARK SMILES IDX 28 78 30 79 27 80 23 81 24 82 25 83 26 84 52 85 53 86 61 87
REMARK SMILES IDX 54 88 60 89 62 90 59 91 55 92 56 93 57 94 58 95 37 96 38 97
REMARK SMILES IDX 46 98 39 99 45 100 47 101 44 102 40 103 41 104 42 105 43 106
REMARK H PARENT 3 6 78 15 8 40 67 59 35 70
REMARK Flexibility Score: inf
ROOT
ATOM      1  C   UNL     1       4.952  -2.145   1.367  1.00  0.00     0.023 C 
ENDROOT
BRANCH   1   2
ATOM      2  C   UNL     1       4.579  -1.324   0.136  1.00  0.00     0.116 C 
BRANCH   2   3
ATOM      3  N   UNL     1       3.140  -1.210  -0.047  1.00  0.00    -0.352 N 
ATOM      4  O   UNL     1       1.114  -0.206  -0.011  1.00  0.00    -0.269 OA
ATOM      5  C   UNL     1       2.337  -0.098   0.012  1.00  0.00     0.251 C 
ATOM      6  H   UNL     1       2.673  -2.055  -0.241  1.00  0.00     0.163 HD
BRANCH   5   7
ATOM      7  C   UNL     1       2.945   1.243   0.118  1.00  0.00     0.040 A 
ATOM      8  C   UNL     1       3.952   1.635  -0.763  1.00  0.00     0.018 A 
ATOM      9  C   UNL     1       2.481   2.130   1.096  1.00  0.00     0.018 A 
ATOM     10  C   UNL     1       4.575   2.866  -0.586  1.00  0.00     0.052 A 
ATOM     11  C   UNL     1       3.086   3.382   1.243  1.00  0.00     0.052 A 
ATOM     12  C   UNL     1       4.167   3.737   0.431  1.00  0.00     0.125 A 
BRANCH  12  13
ATOM     13  N   UNL     1       4.816   4.971   0.518  1.00  0.00    -0.235 N 
ATOM     14  C   UNL     1       5.614   5.265   1.487  1.00  0.00     0.320 C 
ATOM     15  H   UNL     1       4.658   5.640  -0.187  1.00  0.00     0.313 HD
ATOM     16  S   UNL     1       5.917   4.356   2.942  1.00  0.00    -0.022 SA
ATOM     17  N   UNL     1       6.388   6.394   1.456  1.00  0.00    -0.186 N 
ATOM     18  C   UNL     1       6.784   5.752   3.731  1.00  0.00     0.178 C 
ATOM     19  C   UNL     1       7.149   6.669   2.573  1.00  0.00     0.324 C 
ATOM     20  O   UNL     1       7.960   7.586   2.651  1.00  0.00    -0.245 OA
BRANCH  17  21
ATOM     21  C   UNL     1       6.474   7.234   0.267  1.00  0.00     0.283 C 
BRANCH  21  22
ATOM     22  C   UNL     1       7.394   6.660  -0.793  1.00  0.00    -0.006 A 
ATOM     23  C   UNL     1       8.752   7.001  -0.834  1.00  0.00     0.008 A 
ATOM     24  C   UNL     1       6.902   5.758  -1.750  1.00  0.00     0.008 A 
ATOM     25  C   UNL     1       9.592   6.452  -1.808  1.00  0.00     0.000 A 
ATOM     26  C   UNL     1       7.746   5.187  -2.703  1.00  0.00     0.000 A 
ATOM     27  C   UNL     1       9.092   5.538  -2.735  1.00  0.00     0.000 A 
ENDBRANCH  21  22
ENDBRANCH  17  21
BRANCH  18  28
ATOM     28  C   UNL     1       7.975   5.260   4.554  1.00  0.00     0.063 C 
BRANCH  28  29
ATOM     29  C   UNL     1       8.622   6.322   5.420  1.00  0.00    -0.046 A 
ATOM     30  C   UNL     1       9.985   6.621   5.256  1.00  0.00     0.007 A 
ATOM     31  C   UNL     1       7.892   7.003   6.408  1.00  0.00     0.007 A 
ATOM     32  C   UNL     1      10.598   7.596   6.045  1.00  0.00     0.039 A 
ATOM     33  C   UNL     1       8.506   7.983   7.191  1.00  0.00     0.039 A 
ATOM     34  C   UNL     1       9.851   8.272   7.001  1.00  0.00     0.123 A 
ATOM     35  F   UNL     1      10.438   9.213   7.753  1.00  0.00    -0.207 F 
ENDBRANCH  28  29
ENDBRANCH  18  28
ENDBRANCH  12  13
ENDBRANCH   5   7
ENDBRANCH   2   3
ENDBRANCH   1   2
BRANCH   1  36
ATOM     36  C   UNL     1       4.493  -3.601   1.342  1.00  0.00     0.023 C 
BRANCH  36  37
ATOM     37  C   UNL     1       4.882  -4.394   0.098  1.00  0.00     0.116 C 
BRANCH  37  38
ATOM     38  N   UNL     1       6.318  -4.443  -0.125  1.00  0.00    -0.352 N 
ATOM     39  C   UNL     1       7.125  -5.529  -0.377  1.00  0.00     0.251 C 
ATOM     40  H   UNL     1       6.780  -3.574  -0.091  1.00  0.00     0.163 HD
ATOM     41  O   UNL     1       8.343  -5.382  -0.417  1.00  0.00    -0.269 OA
BRANCH  39  42
ATOM     42  C   UNL     1       6.526  -6.871  -0.554  1.00  0.00     0.039 A 
ATOM     43  C   UNL     1       7.087  -7.955   0.128  1.00  0.00     0.014 A 
ATOM     44  C   UNL     1       5.405  -7.060  -1.367  1.00  0.00     0.014 A 
ATOM     45  C   UNL     1       6.475  -9.209   0.059  1.00  0.00     0.010 A 
ATOM     46  C   UNL     1       4.755  -8.293  -1.375  1.00  0.00     0.010 A 
ATOM     47  C   UNL     1       5.279  -9.379  -0.657  1.00  0.00    -0.014 A 
BRANCH  47  48
ATOM     48  C   UNL     1       4.558 -10.680  -0.661  1.00  0.00     0.031 A 
ATOM     49  C   UNL     1       4.380 -11.441  -1.947  1.00  0.00     0.074 A 
ATOM     50  C   UNL     1       4.001 -11.140   0.478  1.00  0.00     0.049 A 
ATOM     51  N   UNL     1       3.705 -12.538  -2.175  1.00  0.00    -0.248 NA
ATOM     52  C   UNL     1       5.024 -10.872  -3.141  1.00  0.00     0.031 C 
ATOM     53  C   UNL     1       4.067 -10.473   1.780  1.00  0.00     0.029 A 
ATOM     54  N   UNL     1       3.259 -12.268   0.723  1.00  0.00    -0.354 N 
ATOM     55  C   UNL     1       3.829 -12.784  -3.538  1.00  0.00     0.074 A 
ATOM     56  C   UNL     1       4.596 -11.688  -4.092  1.00  0.00     0.031 C 
ATOM     57  C   UNL     1       3.412 -11.214   2.688  1.00  0.00     0.029 A 
ATOM     58  C   UNL     1       2.839 -12.383   2.029  1.00  0.00     0.049 A 
ATOM     59  H   UNL     1       3.047 -12.934   0.029  1.00  0.00     0.167 HD
ATOM     60  C   UNL     1       3.366 -13.838  -4.257  1.00  0.00     0.034 A 
ATOM     61  C   UNL     1       2.068 -13.315   2.624  1.00  0.00     0.034 A 
ATOM     62  C   UNL     1       2.616 -14.931  -3.688  1.00  0.00     0.049 A 
ATOM     63  C   UNL     1       1.549 -14.466   1.801  1.00  0.00     0.074 A 
ATOM     64  C   UNL     1       2.148 -16.074  -4.314  1.00  0.00     0.029 A 
ATOM     65  N   UNL     1       2.217 -15.017  -2.360  1.00  0.00    -0.354 N 
ATOM     66  N   UNL     1       1.716 -14.709   0.521  1.00  0.00    -0.248 NA
ATOM     67  C   UNL     1       0.746 -15.474   2.505  1.00  0.00     0.031 C 
ATOM     68  C   UNL     1       1.415 -16.818  -3.382  1.00  0.00     0.029 A 
ATOM     69  C   UNL     1       1.486 -16.177  -2.155  1.00  0.00     0.049 A 
ATOM     70  H   UNL     1       2.423 -14.350  -1.665  1.00  0.00     0.167 HD
ATOM     71  C   UNL     1       1.063 -15.914   0.276  1.00  0.00     0.074 A 
ATOM     72  C   UNL     1       0.514 -16.354   1.542  1.00  0.00     0.031 C 
ATOM     73  C   UNL     1       0.933 -16.598  -0.889  1.00  0.00     0.034 A 
BRANCH  60  74
ATOM     74  C   UNL     1       3.642 -13.838  -5.742  1.00  0.00     0.023 A 
ATOM     75  C   UNL     1       4.952 -13.890  -6.249  1.00  0.00     0.031 A 
ATOM     76  C   UNL     1       2.583 -13.761  -6.664  1.00  0.00     0.131 A 
ATOM     77  C   UNL     1       5.174 -13.784  -7.630  1.00  0.00     0.055 A 
ATOM     78  C   UNL     1       2.807 -13.739  -8.042  1.00  0.00     0.041 A 
ATOM     79  F   UNL     1       1.311 -13.689  -6.240  1.00  0.00    -0.206 F 
ATOM     80  C   UNL     1       4.110 -13.735  -8.532  1.00  0.00     0.022 A 
BRANCH  77  81
ATOM     81  S   UNL     1       6.876 -13.568  -8.219  1.00  0.00     0.124 S 
ATOM     82  O   UNL     1       7.268 -12.335  -7.540  1.00  0.00    -0.237 OA
ATOM     83  O   UNL     1       7.528 -14.787  -7.755  1.00  0.00    -0.237 OA
ATOM     84  O   UNL     1       6.726 -13.453  -9.668  1.00  0.00    -0.744 OA
ENDBRANCH  77  81
ENDBRANCH  60  74
BRANCH  61  85
ATOM     85  C   UNL     1       1.723 -13.200   4.070  1.00  0.00     0.023 A 
ATOM     86  C   UNL     1       2.174 -14.153   4.998  1.00  0.00     0.031 A 
ATOM     87  C   UNL     1       0.897 -12.163   4.538  1.00  0.00     0.131 A 
ATOM     88  C   UNL     1       1.757 -14.078   6.336  1.00  0.00     0.055 A 
ATOM     89  C   UNL     1       0.528 -12.063   5.881  1.00  0.00     0.041 A 
ATOM     90  F   UNL     1       0.444 -11.222   3.694  1.00  0.00    -0.206 F 
ATOM     91  C   UNL     1       0.948 -13.033   6.787  1.00  0.00     0.022 A 
BRANCH  88  92
ATOM     92  S   UNL     1       2.221 -15.419   7.466  1.00  0.00     0.124 S 
ATOM     93  O   UNL     1       1.656 -16.583   6.793  1.00  0.00    -0.237 OA
ATOM     94  O   UNL     1       3.677 -15.322   7.468  1.00  0.00    -0.237 OA
ATOM     95  O   UNL     1       1.572 -15.046   8.721  1.00  0.00    -0.744 OA
ENDBRANCH  88  92
ENDBRANCH  61  85
BRANCH  73  96
ATOM     96  C   UNL     1       0.204 -17.918  -0.830  1.00  0.00     0.023 A 
ATOM     97  C   UNL     1      -1.173 -17.991  -0.556  1.00  0.00     0.031 A 
ATOM     98  C   UNL     1       0.903 -19.120  -1.036  1.00  0.00     0.131 A 
ATOM     99  C   UNL     1      -1.796 -19.243  -0.442  1.00  0.00     0.055 A 
ATOM    100  C   UNL     1       0.266 -20.360  -0.979  1.00  0.00     0.041 A 
ATOM    101  F   UNL     1       2.220 -19.108  -1.299  1.00  0.00    -0.206 F 
ATOM    102  C   UNL     1      -1.089 -20.427  -0.668  1.00  0.00     0.022 A 
BRANCH  99 103
ATOM    103  S   UNL     1      -3.529 -19.309   0.092  1.00  0.00     0.124 S 
ATOM    104  O   UNL     1      -3.471 -18.647   1.391  1.00  0.00    -0.237 OA
ATOM    105  O   UNL     1      -4.210 -18.574  -0.969  1.00  0.00    -0.237 OA
ATOM    106  O   UNL     1      -3.819 -20.741   0.138  1.00  0.00    -0.744 OA
ENDBRANCH  99 103
ENDBRANCH  73  96
ENDBRANCH  47  48
ENDBRANCH  39  42
ENDBRANCH  37  38
ENDBRANCH  36  37
ENDBRANCH   1  36
TORSDOF 19
