REMARK SMILES CC(C)c1ccc([C@]2(C(=O)NCCCCNC(=O)c3ccc(-c4c5nc(c(-c6cc(S(=O)(=O)[O-])ccc6F)c6ccc([nH]6)c(-c6cc(S(=O)(=O)[O-])ccc6F)c6nc(c(-c7cc(S(=O)(=O)[O-])ccc7F)c7ccc4[nH]7)C=C6)C=C5)cc3)CCC[C@@H]2C)cc1
REMARK SMILES IDX 14 1 13 2 12 3 11 4 9 5 10 6 8 8 82 9 85 10 83 11 84 12
REMARK SMILES IDX 86 13 7 14 4 15 5 16 88 17 6 18 87 19 2 20 1 21 3 22 15 23
REMARK SMILES IDX 16 24 17 25 18 27 19 28 20 29 81 30 21 31 80 32 22 33 23 34
REMARK SMILES IDX 24 35 74 36 25 37 79 38 73 39 75 40 26 41 78 42 72 43 71 44
REMARK SMILES IDX 27 46 59 47 39 48 58 49 40 50 43 51 57 52 76 53 41 54 42 55
REMARK SMILES IDX 56 57 77 58 44 59 28 60 29 61 37 62 30 63 36 64 38 65 35 66
REMARK SMILES IDX 31 67 32 68 33 69 34 70 60 71 61 72 69 73 62 74 68 75 70 76
REMARK SMILES IDX 67 77 63 78 64 79 65 80 66 81 45 82 46 83 54 84 47 85 53 86
REMARK SMILES IDX 55 87 52 88 48 89 49 90 50 91 51 92
REMARK H PARENT 11 7 16 26 75 45 43 56
REMARK Flexibility Score: inf
ROOT
ATOM      1  C   UNL     1      -9.810  -3.898   2.607  1.00  0.00     0.023 C 
ENDROOT
BRANCH   1   2
ATOM      2  C   UNL     1      -8.956  -3.068   1.652  1.00  0.00     0.023 C 
BRANCH   2   3
ATOM      3  C   UNL     1      -8.354  -1.806   2.256  1.00  0.00     0.116 C 
BRANCH   3   4
ATOM      4  N   UNL     1      -7.029  -1.966   2.798  1.00  0.00    -0.355 N 
ATOM      5  C   UNL     1      -5.845  -1.358   2.520  1.00  0.00     0.230 C 
ATOM      6  O   UNL     1      -5.081  -1.338   3.498  1.00  0.00    -0.274 OA
ATOM      7  H   UNL     1      -6.970  -2.648   3.506  1.00  0.00     0.163 HD
BRANCH   5   8
ATOM      8  C   UNL     1      -5.387  -0.755   1.115  1.00  0.00     0.077 C 
ATOM      9  C   UNL     1      -5.973  -1.535  -0.090  1.00  0.00     0.022 C 
ATOM     10  C   UNL     1      -5.893   0.716   0.841  1.00  0.00     0.006 C 
ATOM     11  C   UNL     1      -7.131  -0.727  -0.681  1.00  0.00     0.002 C 
ATOM     12  C   UNL     1      -7.227   0.579   0.096  1.00  0.00     0.005 C 
ATOM     13  C   UNL     1      -5.043   1.616  -0.084  1.00  0.00     0.009 C 
BRANCH   8  14
ATOM     14  C   UNL     1      -3.828  -0.863   1.144  1.00  0.00    -0.032 A 
ATOM     15  C   UNL     1      -0.980  -1.008   1.217  1.00  0.00    -0.045 A 
ATOM     16  C   UNL     1      -1.655   0.094   1.744  1.00  0.00     0.004 A 
ATOM     17  C   UNL     1      -1.744  -2.072   0.722  1.00  0.00     0.004 A 
ATOM     18  C   UNL     1      -3.051   0.139   1.751  1.00  0.00     0.005 A 
ATOM     19  C   UNL     1      -3.145  -2.004   0.691  1.00  0.00     0.005 A 
BRANCH  15  20
ATOM     20  C   UNL     1       0.535  -1.060   1.155  1.00  0.00     0.013 C 
ATOM     21  C   UNL     1       1.050  -0.161   0.026  1.00  0.00     0.012 C 
ATOM     22  C   UNL     1       1.201  -0.687   2.484  1.00  0.00     0.012 C 
ENDBRANCH  15  20
ENDBRANCH   8  14
ENDBRANCH   5   8
ENDBRANCH   3   4
ENDBRANCH   2   3
ENDBRANCH   1   2
BRANCH   1  23
ATOM     23  C   UNL     1     -10.898  -3.137   3.361  1.00  0.00     0.116 C 
BRANCH  23  24
ATOM     24  N   UNL     1     -11.768  -2.332   2.517  1.00  0.00    -0.352 N 
ATOM     25  C   UNL     1     -13.092  -2.006   2.730  1.00  0.00     0.251 C 
ATOM     26  H   UNL     1     -11.362  -1.977   1.693  1.00  0.00     0.163 HD
ATOM     27  O   UNL     1     -13.716  -1.382   1.886  1.00  0.00    -0.269 OA
BRANCH  25  28
ATOM     28  C   UNL     1     -13.748  -2.473   3.972  1.00  0.00     0.039 A 
ATOM     29  C   UNL     1     -14.964  -3.152   3.881  1.00  0.00     0.014 A 
ATOM     30  C   UNL     1     -13.129  -2.296   5.212  1.00  0.00     0.014 A 
ATOM     31  C   UNL     1     -15.525  -3.715   5.030  1.00  0.00     0.010 A 
ATOM     32  C   UNL     1     -13.643  -2.932   6.336  1.00  0.00     0.010 A 
ATOM     33  C   UNL     1     -14.852  -3.640   6.261  1.00  0.00    -0.014 A 
BRANCH  33  34
ATOM     34  C   UNL     1     -15.415  -4.266   7.485  1.00  0.00     0.031 A 
ATOM     35  C   UNL     1     -15.799  -3.403   8.657  1.00  0.00     0.074 A 
ATOM     36  C   UNL     1     -15.528  -5.607   7.562  1.00  0.00     0.049 A 
ATOM     37  N   UNL     1     -16.277  -3.752   9.824  1.00  0.00    -0.248 NA
ATOM     38  C   UNL     1     -15.577  -1.957   8.510  1.00  0.00     0.031 C 
ATOM     39  C   UNL     1     -15.131  -6.552   6.516  1.00  0.00     0.029 A 
ATOM     40  N   UNL     1     -16.013  -6.410   8.564  1.00  0.00    -0.354 N 
ATOM     41  C   UNL     1     -16.391  -2.574  10.555  1.00  0.00     0.074 A 
ATOM     42  C   UNL     1     -15.860  -1.514   9.724  1.00  0.00     0.031 C 
ATOM     43  C   UNL     1     -15.428  -7.800   6.914  1.00  0.00     0.029 A 
ATOM     44  C   UNL     1     -16.003  -7.750   8.254  1.00  0.00     0.049 A 
ATOM     45  H   UNL     1     -16.337  -6.059   9.425  1.00  0.00     0.167 HD
ATOM     46  C   UNL     1     -16.918  -2.386  11.791  1.00  0.00     0.034 A 
ATOM     47  C   UNL     1     -16.420  -8.815   8.968  1.00  0.00     0.034 A 
ATOM     48  C   UNL     1     -17.468  -3.452  12.591  1.00  0.00     0.049 A 
ATOM     49  C   UNL     1     -17.019  -8.582  10.333  1.00  0.00     0.074 A 
ATOM     50  C   UNL     1     -18.091  -3.374  13.824  1.00  0.00     0.029 A 
ATOM     51  N   UNL     1     -17.459  -4.796  12.237  1.00  0.00    -0.354 N 
ATOM     52  N   UNL     1     -17.187  -7.453  10.982  1.00  0.00    -0.248 NA
ATOM     53  C   UNL     1     -17.502  -9.768  11.050  1.00  0.00     0.031 C 
ATOM     54  C   UNL     1     -18.401  -4.673  14.242  1.00  0.00     0.029 A 
ATOM     55  C   UNL     1     -18.041  -5.558  13.238  1.00  0.00     0.049 A 
ATOM     56  H   UNL     1     -17.092  -5.155  11.397  1.00  0.00     0.167 HD
ATOM     57  C   UNL     1     -17.832  -7.791  12.169  1.00  0.00     0.074 A 
ATOM     58  C   UNL     1     -18.034  -9.226  12.135  1.00  0.00     0.031 C 
ATOM     59  C   UNL     1     -18.229  -6.990  13.191  1.00  0.00     0.034 A 
BRANCH  46  60
ATOM     60  C   UNL     1     -16.895  -0.981  12.347  1.00  0.00     0.023 A 
ATOM     61  C   UNL     1     -17.565   0.079  11.708  1.00  0.00     0.031 A 
ATOM     62  C   UNL     1     -16.151  -0.683  13.502  1.00  0.00     0.131 A 
ATOM     63  C   UNL     1     -17.398   1.394  12.169  1.00  0.00     0.055 A 
ATOM     64  C   UNL     1     -16.066   0.616  14.010  1.00  0.00     0.041 A 
ATOM     65  F   UNL     1     -15.474  -1.646  14.147  1.00  0.00    -0.206 F 
ATOM     66  C   UNL     1     -16.675   1.667  13.331  1.00  0.00     0.022 A 
BRANCH  63  67
ATOM     67  S   UNL     1     -17.997   2.756  11.130  1.00  0.00     0.124 S 
ATOM     68  O   UNL     1     -17.260   2.525   9.889  1.00  0.00    -0.237 OA
ATOM     69  O   UNL     1     -19.433   2.504  11.076  1.00  0.00    -0.237 OA
ATOM     70  O   UNL     1     -17.599   3.952  11.869  1.00  0.00    -0.744 OA
ENDBRANCH  63  67
ENDBRANCH  46  60
BRANCH  47  71
ATOM     71  C   UNL     1     -16.318 -10.193   8.408  1.00  0.00     0.023 A 
ATOM     72  C   UNL     1     -17.473 -10.940   8.122  1.00  0.00     0.031 A 
ATOM     73  C   UNL     1     -15.070 -10.801   8.191  1.00  0.00     0.131 A 
ATOM     74  C   UNL     1     -17.358 -12.268   7.684  1.00  0.00     0.055 A 
ATOM     75  C   UNL     1     -14.960 -12.107   7.707  1.00  0.00     0.041 A 
ATOM     76  F   UNL     1     -13.935 -10.129   8.438  1.00  0.00    -0.206 F 
ATOM     77  C   UNL     1     -16.110 -12.853   7.464  1.00  0.00     0.022 A 
BRANCH  74  78
ATOM     78  S   UNL     1     -18.870 -13.250   7.484  1.00  0.00     0.124 S 
ATOM     79  O   UNL     1     -19.446 -13.188   8.822  1.00  0.00    -0.237 OA
ATOM     80  O   UNL     1     -19.577 -12.507   6.446  1.00  0.00    -0.237 OA
ATOM     81  O   UNL     1     -18.372 -14.562   7.078  1.00  0.00    -0.744 OA
ENDBRANCH  74  78
ENDBRANCH  47  71
BRANCH  59  82
ATOM     82  C   UNL     1     -18.971  -7.651  14.328  1.00  0.00     0.023 A 
ATOM     83  C   UNL     1     -18.351  -8.587  15.173  1.00  0.00     0.031 A 
ATOM     84  C   UNL     1     -20.329  -7.357  14.547  1.00  0.00     0.131 A 
ATOM     85  C   UNL     1     -19.105  -9.248  16.155  1.00  0.00     0.055 A 
ATOM     86  C   UNL     1     -21.057  -7.969  15.569  1.00  0.00     0.041 A 
ATOM     87  F   UNL     1     -20.972  -6.472  13.769  1.00  0.00    -0.206 F 
ATOM     88  C   UNL     1     -20.449  -8.933  16.369  1.00  0.00     0.022 A 
BRANCH  85  89
ATOM     89  S   UNL     1     -18.334 -10.607  17.075  1.00  0.00     0.124 S 
ATOM     90  O   UNL     1     -17.906 -11.497  16.000  1.00  0.00    -0.237 OA
ATOM     91  O   UNL     1     -17.267  -9.926  17.801  1.00  0.00    -0.237 OA
ATOM     92  O   UNL     1     -19.421 -11.119  17.907  1.00  0.00    -0.744 OA
ENDBRANCH  85  89
ENDBRANCH  59  82
ENDBRANCH  33  34
ENDBRANCH  25  28
ENDBRANCH  23  24
ENDBRANCH   1  23
TORSDOF 16
