REMARK SMILES CCN1CC(=O)N(C[C@@H]([NH3+])C(=O)NCCCCNC(=O)c2ccc(-c3c4nc(c(-c5cc(S(=O)(=O)[O-])ccc5F)c5ccc([nH]5)c(-c5cc(S(=O)(=O)[O-])ccc5F)c5nc(c(-c6cc(S(=O)(=O)[O-])ccc6F)c6ccc3[nH]6)C=C5)C=C4)cc2)CC1=O
REMARK SMILES IDX 15 1 14 2 13 3 11 4 12 5 9 7 8 8 7 9 3 10 4 11 85 12 5 13
REMARK SMILES IDX 84 14 86 15 6 16 2 17 1 18 10 19 16 23 17 24 18 25 19 26
REMARK SMILES IDX 20 28 21 29 22 30 83 31 23 32 82 33 24 34 25 35 26 36 76 37
REMARK SMILES IDX 27 38 81 39 75 40 77 41 28 42 80 43 74 44 73 45 29 47 61 48
REMARK SMILES IDX 41 49 60 50 42 51 45 52 59 53 78 54 43 55 44 56 58 58 79 59
REMARK SMILES IDX 46 60 30 61 31 62 39 63 32 64 38 65 40 66 37 67 33 68 34 69
REMARK SMILES IDX 35 70 36 71 62 72 63 73 71 74 64 75 70 76 72 77 69 78 65 79
REMARK SMILES IDX 66 80 67 81 68 82 47 83 48 84 56 85 49 86 55 87 57 88 54 89
REMARK SMILES IDX 50 90 51 91 52 92 53 93
REMARK H PARENT 13 6 10 20 10 21 10 22 18 27 77 46 45 57
REMARK Flexibility Score: inf
ROOT
ATOM      1  C   UNL     1      -2.268   6.516   3.481  1.00  0.00     0.023 C 
ENDROOT
BRANCH   1   2
ATOM      2  C   UNL     1      -0.810   6.922   3.707  1.00  0.00     0.116 C 
BRANCH   2   3
ATOM      3  N   UNL     1      -0.509   7.013   5.126  1.00  0.00    -0.351 N 
ATOM      4  C   UNL     1       0.275   6.217   5.911  1.00  0.00     0.280 C 
ATOM      5  O   UNL     1       0.375   6.502   7.107  1.00  0.00    -0.268 OA
ATOM      6  H   UNL     1      -0.937   7.766   5.594  1.00  0.00     0.163 HD
BRANCH   4   7
ATOM      7  C   UNL     1       1.074   5.037   5.318  1.00  0.00     0.290 C 
BRANCH   7   8
ATOM      8  C   UNL     1       0.117   3.942   4.792  1.00  0.00     0.195 C 
BRANCH   8   9
ATOM      9  N   UNL     1       0.725   2.823   4.068  1.00  0.00    -0.325 N 
ATOM     10  N   UNL     1       0.935   0.780   2.172  1.00  0.00    -0.332 N 
ATOM     11  C   UNL     1       1.169   0.462   3.587  1.00  0.00     0.219 C 
ATOM     12  C   UNL     1       1.156   2.081   1.730  1.00  0.00     0.242 C 
ATOM     13  C   UNL     1       0.618   1.525   4.541  1.00  0.00     0.242 C 
ATOM     14  C   UNL     1       1.476   3.080   2.839  1.00  0.00     0.220 C 
ATOM     15  O   UNL     1       1.227   2.413   0.550  1.00  0.00    -0.273 OA
ATOM     16  O   UNL     1       0.225   1.244   5.671  1.00  0.00    -0.273 OA
BRANCH  10  17
ATOM     17  C   UNL     1       0.495  -0.301   1.291  1.00  0.00     0.116 C 
ATOM     18  C   UNL     1       0.987  -0.265  -0.149  1.00  0.00     0.027 C 
ENDBRANCH  10  17
ENDBRANCH   8   9
ENDBRANCH   7   8
BRANCH   7  19
ATOM     19  N   UNL     1       2.074   5.574   4.356  1.00  0.00    -0.346 N 
ATOM     20  H   UNL     1       1.593   6.080   3.613  1.00  0.00     0.345 HD
ATOM     21  H   UNL     1       2.605   4.802   3.953  1.00  0.00     0.345 HD
ATOM     22  H   UNL     1       2.709   6.206   4.843  1.00  0.00     0.345 HD
ENDBRANCH   7  19
ENDBRANCH   4   7
ENDBRANCH   2   3
ENDBRANCH   1   2
BRANCH   1  23
ATOM     23  C   UNL     1      -3.290   7.586   3.873  1.00  0.00     0.023 C 
BRANCH  23  24
ATOM     24  C   UNL     1      -3.128   8.924   3.161  1.00  0.00     0.116 C 
BRANCH  24  25
ATOM     25  N   UNL     1      -3.196   8.801   1.714  1.00  0.00    -0.352 N 
ATOM     26  C   UNL     1      -3.875   9.576   0.808  1.00  0.00     0.251 C 
ATOM     27  H   UNL     1      -2.681   8.056   1.330  1.00  0.00     0.163 HD
ATOM     28  O   UNL     1      -3.943   9.213  -0.365  1.00  0.00    -0.269 OA
BRANCH  26  29
ATOM     29  C   UNL     1      -4.551  10.817   1.246  1.00  0.00     0.039 A 
ATOM     30  C   UNL     1      -5.832  11.088   0.758  1.00  0.00     0.014 A 
ATOM     31  C   UNL     1      -3.937  11.708   2.131  1.00  0.00     0.014 A 
ATOM     32  C   UNL     1      -6.519  12.216   1.209  1.00  0.00     0.010 A 
ATOM     33  C   UNL     1      -4.654  12.790   2.639  1.00  0.00     0.010 A 
ATOM     34  C   UNL     1      -5.954  13.055   2.185  1.00  0.00    -0.014 A 
BRANCH  34  35
ATOM     35  C   UNL     1      -6.736  14.189   2.748  1.00  0.00     0.031 A 
ATOM     36  C   UNL     1      -6.276  15.609   2.558  1.00  0.00     0.074 A 
ATOM     37  C   UNL     1      -7.850  13.927   3.462  1.00  0.00     0.049 A 
ATOM     38  N   UNL     1      -6.835  16.718   2.970  1.00  0.00    -0.248 NA
ATOM     39  C   UNL     1      -5.012  15.809   1.833  1.00  0.00     0.031 C 
ATOM     40  C   UNL     1      -8.362  12.586   3.762  1.00  0.00     0.029 A 
ATOM     41  N   UNL     1      -8.754  14.765   4.064  1.00  0.00    -0.354 N 
ATOM     42  C   UNL     1      -5.991  17.746   2.562  1.00  0.00     0.074 A 
ATOM     43  C   UNL     1      -4.853  17.121   1.921  1.00  0.00     0.031 C 
ATOM     44  C   UNL     1      -9.505  12.696   4.455  1.00  0.00     0.029 A 
ATOM     45  C   UNL     1      -9.785  14.107   4.696  1.00  0.00     0.049 A 
ATOM     46  H   UNL     1      -8.674  15.746   4.045  1.00  0.00     0.167 HD
ATOM     47  C   UNL     1      -6.161  19.085   2.693  1.00  0.00     0.034 A 
ATOM     48  C   UNL     1     -10.832  14.583   5.400  1.00  0.00     0.034 A 
ATOM     49  C   UNL     1      -7.307  19.689   3.329  1.00  0.00     0.049 A 
ATOM     50  C   UNL     1     -10.990  16.076   5.540  1.00  0.00     0.074 A 
ATOM     51  C   UNL     1      -7.614  21.034   3.450  1.00  0.00     0.029 A 
ATOM     52  N   UNL     1      -8.327  18.993   3.967  1.00  0.00    -0.354 N 
ATOM     53  N   UNL     1     -10.223  17.036   5.074  1.00  0.00    -0.248 NA
ATOM     54  C   UNL     1     -12.161  16.550   6.286  1.00  0.00     0.031 C 
ATOM     55  C   UNL     1      -8.768  21.153   4.232  1.00  0.00     0.029 A 
ATOM     56  C   UNL     1      -9.237  19.882   4.522  1.00  0.00     0.049 A 
ATOM     57  H   UNL     1      -8.394  18.012   4.018  1.00  0.00     0.167 HD
ATOM     58  C   UNL     1     -10.836  18.227   5.453  1.00  0.00     0.074 A 
ATOM     59  C   UNL     1     -12.049  17.863   6.156  1.00  0.00     0.031 C 
ATOM     60  C   UNL     1     -10.433  19.507   5.242  1.00  0.00     0.034 A 
BRANCH  47  61
ATOM     61  C   UNL     1      -5.069  19.988   2.167  1.00  0.00     0.023 A 
ATOM     62  C   UNL     1      -4.736  20.037   0.801  1.00  0.00     0.031 A 
ATOM     63  C   UNL     1      -4.352  20.820   3.046  1.00  0.00     0.131 A 
ATOM     64  C   UNL     1      -3.679  20.850   0.365  1.00  0.00     0.055 A 
ATOM     65  C   UNL     1      -3.355  21.686   2.595  1.00  0.00     0.041 A 
ATOM     66  F   UNL     1      -4.607  20.802   4.364  1.00  0.00    -0.206 F 
ATOM     67  C   UNL     1      -3.004  21.696   1.248  1.00  0.00     0.022 A 
BRANCH  64  68
ATOM     68  S   UNL     1      -3.110  20.690  -1.350  1.00  0.00     0.124 S 
ATOM     69  O   UNL     1      -2.751  19.275  -1.411  1.00  0.00    -0.237 OA
ATOM     70  O   UNL     1      -4.289  21.084  -2.112  1.00  0.00    -0.237 OA
ATOM     71  O   UNL     1      -1.980  21.615  -1.424  1.00  0.00    -0.744 OA
ENDBRANCH  64  68
ENDBRANCH  47  61
BRANCH  48  72
ATOM     72  C   UNL     1     -11.801  13.649   6.044  1.00  0.00     0.023 A 
ATOM     73  C   UNL     1     -13.158  13.642   5.684  1.00  0.00     0.031 A 
ATOM     74  C   UNL     1     -11.391  12.782   7.074  1.00  0.00     0.131 A 
ATOM     75  C   UNL     1     -14.065  12.829   6.384  1.00  0.00     0.055 A 
ATOM     76  C   UNL     1     -12.284  11.929   7.723  1.00  0.00     0.041 A 
ATOM     77  F   UNL     1     -10.105  12.746   7.460  1.00  0.00    -0.206 F 
ATOM     78  C   UNL     1     -13.634  11.962   7.390  1.00  0.00     0.022 A 
BRANCH  75  79
ATOM     79  S   UNL     1     -15.837  13.002   6.035  1.00  0.00     0.124 S 
ATOM     80  O   UNL     1     -16.051  14.423   6.285  1.00  0.00    -0.237 OA
ATOM     81  O   UNL     1     -15.913  12.577   4.641  1.00  0.00    -0.237 OA
ATOM     82  O   UNL     1     -16.463  12.097   6.996  1.00  0.00    -0.744 OA
ENDBRANCH  75  79
ENDBRANCH  48  72
BRANCH  60  83
ATOM     83  C   UNL     1     -11.338  20.602   5.757  1.00  0.00     0.023 A 
ATOM     84  C   UNL     1     -11.590  20.767   7.131  1.00  0.00     0.031 A 
ATOM     85  C   UNL     1     -11.983  21.473   4.860  1.00  0.00     0.131 A 
ATOM     86  C   UNL     1     -12.520  21.724   7.562  1.00  0.00     0.055 A 
ATOM     87  C   UNL     1     -12.848  22.475   5.301  1.00  0.00     0.041 A 
ATOM     88  F   UNL     1     -11.785  21.362   3.537  1.00  0.00    -0.206 F 
ATOM     89  C   UNL     1     -13.136  22.593   6.658  1.00  0.00     0.022 A 
BRANCH  86  90
ATOM     90  S   UNL     1     -13.009  21.735   9.309  1.00  0.00     0.124 S 
ATOM     91  O   UNL     1     -13.497  20.372   9.494  1.00  0.00    -0.237 OA
ATOM     92  O   UNL     1     -11.756  22.060   9.982  1.00  0.00    -0.237 OA
ATOM     93  O   UNL     1     -14.035  22.775   9.371  1.00  0.00    -0.744 OA
ENDBRANCH  86  90
ENDBRANCH  60  83
ENDBRANCH  34  35
ENDBRANCH  26  29
ENDBRANCH  24  25
ENDBRANCH  23  24
ENDBRANCH   1  23
TORSDOF 18
