REMARK SMILES Cc1cc2c(c(C)c1Cl)C=C(C(=O)NCCCCNC(=O)c1ccc(-c3c4nc(c(-c5cc(S(=O)(=O)[O-])ccc5F)c5ccc([nH]5)c(-c5cc(S(=O)(=O)[O-])ccc5F)c5nc(c(-c6cc(S(=O)(=O)[O-])ccc6F)c6ccc3[nH]6)C=C5)C=C4)cc1)[C@@H](C(F)(F)F)O2
REMARK SMILES IDX 17 1 16 2 15 3 14 4 12 5 13 6 11 8 1 9 2 10 3 11 8 12 4 13
REMARK SMILES IDX 6 14 9 15 5 16 90 17 7 18 10 19 85 20 86 21 87 22 88 23
REMARK SMILES IDX 89 24 18 25 19 26 20 27 21 29 22 30 23 31 84 32 24 33 83 34
REMARK SMILES IDX 25 35 26 36 27 37 77 38 28 39 82 40 76 41 78 42 29 43 81 44
REMARK SMILES IDX 75 45 74 46 30 48 62 49 42 50 61 51 43 52 46 53 60 54 79 55
REMARK SMILES IDX 44 56 45 57 59 59 80 60 47 61 31 62 32 63 40 64 33 65 39 66
REMARK SMILES IDX 41 67 38 68 34 69 35 70 36 71 37 72 63 73 64 74 72 75 65 76
REMARK SMILES IDX 71 77 73 78 70 79 66 80 67 81 68 82 69 83 48 84 49 85 57 86
REMARK SMILES IDX 50 87 56 88 58 89 55 90 51 91 52 92 53 93 54 94
REMARK H PARENT 14 7 19 28 78 47 46 58
REMARK Flexibility Score: inf
ROOT
ATOM      1  C   UNL     1      -0.756 -10.300  -3.480  1.00  0.00     0.023 C 
ENDROOT
BRANCH   1   2
ATOM      2  C   UNL     1      -0.353  -9.007  -2.764  1.00  0.00     0.023 C 
BRANCH   2   3
ATOM      3  C   UNL     1       0.663  -8.164  -3.528  1.00  0.00     0.116 C 
BRANCH   3   4
ATOM      4  N   UNL     1       0.020  -7.283  -4.488  1.00  0.00    -0.352 N 
ATOM      5  C   UNL     1      -0.259  -5.963  -4.588  1.00  0.00     0.251 C 
ATOM      6  O   UNL     1      -0.857  -5.628  -5.616  1.00  0.00    -0.270 OA
ATOM      7  H   UNL     1      -0.298  -7.780  -5.277  1.00  0.00     0.163 HD
BRANCH   5   8
ATOM      8  C   UNL     1       0.099  -4.924  -3.576  1.00  0.00     0.067 C 
ATOM      9  C   UNL     1       0.985   0.398   0.058  1.00  0.00     0.046 C 
ATOM     10  C   UNL     1       0.573  -0.593  -0.997  1.00  0.00    -0.028 A 
ATOM     11  C   UNL     1       0.848  -1.942  -0.743  1.00  0.00     0.052 A 
ATOM     12  C   UNL     1      -0.012  -0.241  -2.230  1.00  0.00     0.047 A 
ATOM     13  C   UNL     1       0.541  -2.918  -1.684  1.00  0.00     0.128 A 
ATOM     14  C   UNL     1      -0.355  -1.231  -3.187  1.00  0.00    -0.021 A 
ATOM     15  Cl  UNL     1      -0.308   1.439  -2.566  1.00  0.00    -0.084 Cl
ATOM     16  C   UNL     1      -0.067  -2.588  -2.898  1.00  0.00     0.022 A 
ATOM     17  O   UNL     1       0.834  -4.200  -1.316  1.00  0.00    -0.475 OA
ATOM     18  C   UNL     1      -1.010  -0.879  -4.503  1.00  0.00     0.047 C 
ATOM     19  C   UNL     1      -0.400  -3.693  -3.804  1.00  0.00     0.026 C 
ATOM     20  C   UNL     1       0.986  -5.163  -2.393  1.00  0.00     0.314 C 
BRANCH  20  21
ATOM     21  C   UNL     1       2.475  -5.272  -2.773  1.00  0.00     0.429 C 
ATOM     22  F   UNL     1       3.189  -5.792  -1.744  1.00  0.00    -0.167 F 
ATOM     23  F   UNL     1       2.682  -6.085  -3.835  1.00  0.00    -0.167 F 
ATOM     24  F   UNL     1       3.022  -4.074  -3.081  1.00  0.00    -0.167 F 
ENDBRANCH  20  21
ENDBRANCH   5   8
ENDBRANCH   3   4
ENDBRANCH   2   3
ENDBRANCH   1   2
BRANCH   1  25
ATOM     25  C   UNL     1       0.400 -11.223  -3.866  1.00  0.00     0.116 C 
BRANCH  25  26
ATOM     26  N   UNL     1       1.311 -11.501  -2.766  1.00  0.00    -0.352 N 
ATOM     27  C   UNL     1       1.994 -12.662  -2.497  1.00  0.00     0.251 C 
ATOM     28  H   UNL     1       1.457 -10.762  -2.132  1.00  0.00     0.163 HD
ATOM     29  O   UNL     1       2.647 -12.768  -1.464  1.00  0.00    -0.269 OA
BRANCH  27  30
ATOM     30  C   UNL     1       1.899 -13.787  -3.448  1.00  0.00     0.039 A 
ATOM     31  C   UNL     1       1.534 -15.046  -2.969  1.00  0.00     0.014 A 
ATOM     32  C   UNL     1       2.132 -13.582  -4.811  1.00  0.00     0.014 A 
ATOM     33  C   UNL     1       1.338 -16.093  -3.870  1.00  0.00     0.010 A 
ATOM     34  C   UNL     1       1.882 -14.611  -5.713  1.00  0.00     0.010 A 
ATOM     35  C   UNL     1       1.481 -15.874  -5.250  1.00  0.00    -0.014 A 
BRANCH  35  36
ATOM     36  C   UNL     1       1.248 -16.961  -6.230  1.00  0.00     0.031 A 
ATOM     37  C   UNL     1       2.402 -17.495  -7.030  1.00  0.00     0.074 A 
ATOM     38  C   UNL     1       0.001 -17.426  -6.435  1.00  0.00     0.049 A 
ATOM     39  N   UNL     1       2.398 -18.347  -8.021  1.00  0.00    -0.248 NA
ATOM     40  C   UNL     1       3.736 -16.981  -6.681  1.00  0.00     0.031 C 
ATOM     41  C   UNL     1      -1.198 -16.979  -5.722  1.00  0.00     0.029 A 
ATOM     42  N   UNL     1      -0.466 -18.377  -7.306  1.00  0.00    -0.354 N 
ATOM     43  C   UNL     1       3.723 -18.463  -8.423  1.00  0.00     0.074 A 
ATOM     44  C   UNL     1       4.496 -17.557  -7.600  1.00  0.00     0.031 C 
ATOM     45  C   UNL     1      -2.258 -17.675  -6.166  1.00  0.00     0.029 A 
ATOM     46  C   UNL     1      -1.823 -18.583  -7.224  1.00  0.00     0.049 A 
ATOM     47  H   UNL     1       0.115 -18.866  -7.932  1.00  0.00     0.167 HD
ATOM     48  C   UNL     1       4.250 -19.269  -9.377  1.00  0.00     0.034 A 
ATOM     49  C   UNL     1      -2.626 -19.402  -7.930  1.00  0.00     0.034 A 
ATOM     50  C   UNL     1       3.472 -20.180 -10.177  1.00  0.00     0.049 A 
ATOM     51  C   UNL     1      -2.023 -20.262  -9.008  1.00  0.00     0.074 A 
ATOM     52  C   UNL     1       3.907 -21.050 -11.161  1.00  0.00     0.029 A 
ATOM     53  N   UNL     1       2.096 -20.343 -10.080  1.00  0.00    -0.354 N 
ATOM     54  N   UNL     1      -0.771 -20.340  -9.397  1.00  0.00    -0.248 NA
ATOM     55  C   UNL     1      -2.941 -21.141  -9.745  1.00  0.00     0.031 C 
ATOM     56  C   UNL     1       2.790 -21.707 -11.689  1.00  0.00     0.029 A 
ATOM     57  C   UNL     1       1.665 -21.289 -10.996  1.00  0.00     0.049 A 
ATOM     58  H   UNL     1       1.513 -19.858  -9.453  1.00  0.00     0.167 HD
ATOM     59  C   UNL     1      -0.750 -21.289 -10.415  1.00  0.00     0.074 A 
ATOM     60  C   UNL     1      -2.111 -21.762 -10.571  1.00  0.00     0.031 C 
ATOM     61  C   UNL     1       0.300 -21.731 -11.151  1.00  0.00     0.034 A 
BRANCH  48  62
ATOM     62  C   UNL     1       5.734 -19.179  -9.612  1.00  0.00     0.023 A 
ATOM     63  C   UNL     1       6.656 -19.603  -8.639  1.00  0.00     0.031 A 
ATOM     64  C   UNL     1       6.235 -18.648 -10.813  1.00  0.00     0.131 A 
ATOM     65  C   UNL     1       8.031 -19.438  -8.861  1.00  0.00     0.055 A 
ATOM     66  C   UNL     1       7.606 -18.548 -11.055  1.00  0.00     0.041 A 
ATOM     67  F   UNL     1       5.399 -18.208 -11.766  1.00  0.00    -0.206 F 
ATOM     68  C   UNL     1       8.513 -18.935 -10.072  1.00  0.00     0.022 A 
BRANCH  65  69
ATOM     69  S   UNL     1       9.179 -19.800  -7.506  1.00  0.00     0.124 S 
ATOM     70  O   UNL     1       8.822 -18.768  -6.536  1.00  0.00    -0.237 OA
ATOM     71  O   UNL     1       8.824 -21.167  -7.144  1.00  0.00    -0.237 OA
ATOM     72  O   UNL     1      10.495 -19.640  -8.121  1.00  0.00    -0.744 OA
ENDBRANCH  65  69
ENDBRANCH  48  62
BRANCH  49  73
ATOM     73  C   UNL     1      -4.086 -19.445  -7.649  1.00  0.00     0.023 A 
ATOM     74  C   UNL     1      -4.668 -20.573  -7.050  1.00  0.00     0.031 A 
ATOM     75  C   UNL     1      -4.920 -18.364  -7.981  1.00  0.00     0.131 A 
ATOM     76  C   UNL     1      -6.053 -20.606  -6.824  1.00  0.00     0.055 A 
ATOM     77  C   UNL     1      -6.292 -18.388  -7.723  1.00  0.00     0.041 A 
ATOM     78  F   UNL     1      -4.407 -17.260  -8.546  1.00  0.00    -0.206 F 
ATOM     79  C   UNL     1      -6.867 -19.517  -7.147  1.00  0.00     0.022 A 
BRANCH  76  80
ATOM     80  S   UNL     1      -6.785 -22.109  -6.121  1.00  0.00     0.124 S 
ATOM     81  O   UNL     1      -6.540 -23.082  -7.180  1.00  0.00    -0.237 OA
ATOM     82  O   UNL     1      -6.009 -22.283  -4.898  1.00  0.00    -0.237 OA
ATOM     83  O   UNL     1      -8.185 -21.743  -5.919  1.00  0.00    -0.744 OA
ENDBRANCH  76  80
ENDBRANCH  49  73
BRANCH  61  84
ATOM     84  C   UNL     1       0.016 -22.797 -12.175  1.00  0.00     0.023 A 
ATOM     85  C   UNL     1      -0.700 -22.512 -13.349  1.00  0.00     0.031 A 
ATOM     86  C   UNL     1       0.480 -24.109 -11.978  1.00  0.00     0.131 A 
ATOM     87  C   UNL     1      -0.968 -23.538 -14.267  1.00  0.00     0.055 A 
ATOM     88  C   UNL     1       0.252 -25.115 -12.917  1.00  0.00     0.041 A 
ATOM     89  F   UNL     1       1.170 -24.431 -10.872  1.00  0.00    -0.206 F 
ATOM     90  C   UNL     1      -0.483 -24.834 -14.066  1.00  0.00     0.022 A 
BRANCH  87  91
ATOM     91  S   UNL     1      -2.007 -23.170 -15.706  1.00  0.00     0.124 S 
ATOM     92  O   UNL     1      -3.273 -22.803 -15.078  1.00  0.00    -0.237 OA
ATOM     93  O   UNL     1      -1.278 -22.083 -16.352  1.00  0.00    -0.237 OA
ATOM     94  O   UNL     1      -2.025 -24.429 -16.448  1.00  0.00    -0.744 OA
ENDBRANCH  87  91
ENDBRANCH  61  84
ENDBRANCH  35  36
ENDBRANCH  27  30
ENDBRANCH  25  26
ENDBRANCH   1  25
TORSDOF 15
