REMARK SMILES O=C(NCCCCNC(=O)c1ccc(C[N@H+]2CC[N@H+]3CCCC[C@@H]3C2)c(F)c1)c1ccc(-c2c3nc(c(-c4cc(S(=O)(=O)[O-])ccc4F)c4ccc([nH]4)c(-c4cc(S(=O)(=O)[O-])ccc4F)c4nc(c(-c5cc(S(=O)(=O)[O-])ccc5F)c5ccc2[nH]5)C=C4)C=C3)cc1
REMARK SMILES IDX 5 1 4 2 3 3 1 4 2 5 29 7 30 8 91 9 31 10 90 11 32 12 33 13
REMARK SMILES IDX 34 14 84 15 35 16 89 17 83 18 85 19 36 20 88 21 82 22 81 23
REMARK SMILES IDX 37 25 69 26 49 27 68 28 50 29 53 30 67 31 86 32 51 33 52 34
REMARK SMILES IDX 66 36 87 37 54 38 38 39 39 40 47 41 40 42 46 43 48 44 45 45
REMARK SMILES IDX 41 46 42 47 43 48 44 49 70 50 71 51 79 52 72 53 78 54 80 55
REMARK SMILES IDX 77 56 73 57 74 58 75 59 76 60 55 61 56 62 64 63 57 64 63 65
REMARK SMILES IDX 65 66 62 67 58 68 59 69 60 70 61 71 6 72 7 73 8 74 9 75
REMARK SMILES IDX 10 77 11 78 12 79 28 80 13 81 26 82 14 83 27 84 15 85 16 86
REMARK SMILES IDX 17 87 25 88 18 90 24 91 19 92 23 93 20 94 22 96 21 97
REMARK H PARENT 3 6 85 24 53 35 8 76 16 89 19 95
REMARK Flexibility Score: inf
ROOT
ATOM      1  C   UNL     1       5.467   0.644  -2.681  1.00  0.00     0.023 C 
ENDROOT
BRANCH   1   2
ATOM      2  C   UNL     1       4.932   0.535  -1.256  1.00  0.00     0.116 C 
BRANCH   2   3
ATOM      3  N   UNL     1       3.481   0.632  -1.136  1.00  0.00    -0.352 N 
ATOM      4  O   UNL     1       1.443   0.080  -0.310  1.00  0.00    -0.269 OA
ATOM      5  C   UNL     1       2.653  -0.059  -0.266  1.00  0.00     0.251 C 
ATOM      6  H   UNL     1       3.037   1.264  -1.747  1.00  0.00     0.163 HD
BRANCH   5   7
ATOM      7  C   UNL     1       3.271  -1.010   0.691  1.00  0.00     0.039 A 
ATOM      8  C   UNL     1       4.378  -0.618   1.441  1.00  0.00     0.014 A 
ATOM      9  C   UNL     1       2.803  -2.326   0.760  1.00  0.00     0.014 A 
ATOM     10  C   UNL     1       5.138  -1.582   2.087  1.00  0.00     0.010 A 
ATOM     11  C   UNL     1       3.512  -3.275   1.508  1.00  0.00     0.010 A 
ATOM     12  C   UNL     1       4.717  -2.923   2.134  1.00  0.00    -0.014 A 
BRANCH  12  13
ATOM     13  C   UNL     1       5.556  -3.902   2.878  1.00  0.00     0.031 A 
ATOM     14  C   UNL     1       6.227  -5.059   2.185  1.00  0.00     0.074 A 
ATOM     15  C   UNL     1       5.790  -3.673   4.186  1.00  0.00     0.049 A 
ATOM     16  N   UNL     1       7.069  -5.933   2.679  1.00  0.00    -0.248 NA
ATOM     17  C   UNL     1       5.911  -5.272   0.766  1.00  0.00     0.031 C 
ATOM     18  C   UNL     1       5.191  -2.583   4.962  1.00  0.00     0.029 A 
ATOM     19  N   UNL     1       6.627  -4.293   5.077  1.00  0.00    -0.354 N 
ATOM     20  C   UNL     1       7.364  -6.813   1.643  1.00  0.00     0.074 A 
ATOM     21  C   UNL     1       6.594  -6.378   0.497  1.00  0.00     0.031 C 
ATOM     22  C   UNL     1       5.755  -2.548   6.176  1.00  0.00     0.029 A 
ATOM     23  C   UNL     1       6.689  -3.661   6.297  1.00  0.00     0.049 A 
ATOM     24  H   UNL     1       7.133  -5.110   4.865  1.00  0.00     0.167 HD
ATOM     25  C   UNL     1       8.200  -7.881   1.651  1.00  0.00     0.034 A 
ATOM     26  C   UNL     1       7.410  -3.941   7.399  1.00  0.00     0.034 A 
ATOM     27  C   UNL     1       8.980  -8.286   2.796  1.00  0.00     0.049 A 
ATOM     28  C   UNL     1       8.315  -5.135   7.391  1.00  0.00     0.074 A 
ATOM     29  C   UNL     1       9.889  -9.328   2.893  1.00  0.00     0.029 A 
ATOM     30  N   UNL     1       8.944  -7.676   4.043  1.00  0.00    -0.354 N 
ATOM     31  N   UNL     1       8.561  -5.968   6.408  1.00  0.00    -0.248 NA
ATOM     32  C   UNL     1       9.024  -5.441   8.639  1.00  0.00     0.031 C 
ATOM     33  C   UNL     1      10.352  -9.386   4.212  1.00  0.00     0.029 A 
ATOM     34  C   UNL     1       9.787  -8.339   4.922  1.00  0.00     0.049 A 
ATOM     35  H   UNL     1       8.400  -6.888   4.269  1.00  0.00     0.167 HD
ATOM     36  C   UNL     1       9.453  -6.902   6.919  1.00  0.00     0.074 A 
ATOM     37  C   UNL     1       9.711  -6.524   8.295  1.00  0.00     0.031 C 
ATOM     38  C   UNL     1      10.010  -7.972   6.300  1.00  0.00     0.034 A 
BRANCH  25  39
ATOM     39  C   UNL     1       8.285  -8.720   0.399  1.00  0.00     0.023 A 
ATOM     40  C   UNL     1       8.857  -8.233  -0.788  1.00  0.00     0.031 A 
ATOM     41  C   UNL     1       7.803 -10.042   0.405  1.00  0.00     0.131 A 
ATOM     42  C   UNL     1       8.890  -9.045  -1.933  1.00  0.00     0.055 A 
ATOM     43  C   UNL     1       7.896 -10.866  -0.718  1.00  0.00     0.041 A 
ATOM     44  F   UNL     1       7.232 -10.555   1.506  1.00  0.00    -0.206 F 
ATOM     45  C   UNL     1       8.435 -10.366  -1.899  1.00  0.00     0.022 A 
BRANCH  42  46
ATOM     46  S   UNL     1       9.452  -8.322  -3.499  1.00  0.00     0.124 S 
ATOM     47  O   UNL     1       8.471  -7.258  -3.700  1.00  0.00    -0.237 OA
ATOM     48  O   UNL     1      10.807  -7.888  -3.179  1.00  0.00    -0.237 OA
ATOM     49  O   UNL     1       9.359  -9.433  -4.444  1.00  0.00    -0.744 OA
ENDBRANCH  42  46
ENDBRANCH  25  39
BRANCH  26  50
ATOM     50  C   UNL     1       7.260  -3.074   8.598  1.00  0.00     0.023 A 
ATOM     51  C   UNL     1       8.272  -2.180   8.976  1.00  0.00     0.031 A 
ATOM     52  C   UNL     1       6.057  -3.069   9.326  1.00  0.00     0.131 A 
ATOM     53  C   UNL     1       8.057  -1.307  10.055  1.00  0.00     0.055 A 
ATOM     54  C   UNL     1       5.836  -2.177  10.375  1.00  0.00     0.041 A 
ATOM     55  F   UNL     1       5.055  -3.894   8.984  1.00  0.00    -0.206 F 
ATOM     56  C   UNL     1       6.841  -1.288  10.744  1.00  0.00     0.022 A 
BRANCH  53  57
ATOM     57  S   UNL     1       9.384  -0.169  10.539  1.00  0.00     0.124 S 
ATOM     58  O   UNL     1      10.388  -1.090  11.062  1.00  0.00    -0.237 OA
ATOM     59  O   UNL     1       9.707   0.483   9.274  1.00  0.00    -0.237 OA
ATOM     60  O   UNL     1       8.747   0.693  11.532  1.00  0.00    -0.744 OA
ENDBRANCH  53  57
ENDBRANCH  26  50
BRANCH  38  61
ATOM     61  C   UNL     1      10.968  -8.809   7.102  1.00  0.00     0.023 A 
ATOM     62  C   UNL     1      10.514  -9.696   8.092  1.00  0.00     0.031 A 
ATOM     63  C   UNL     1      12.347  -8.751   6.836  1.00  0.00     0.131 A 
ATOM     64  C   UNL     1      11.438 -10.478   8.800  1.00  0.00     0.055 A 
ATOM     65  C   UNL     1      13.257  -9.559   7.516  1.00  0.00     0.041 A 
ATOM     66  F   UNL     1      12.826  -7.919   5.897  1.00  0.00    -0.206 F 
ATOM     67  C   UNL     1      12.804 -10.427   8.506  1.00  0.00     0.022 A 
BRANCH  64  68
ATOM     68  S   UNL     1      10.837 -11.559  10.126  1.00  0.00     0.124 S 
ATOM     69  O   UNL     1      10.405 -10.592  11.130  1.00  0.00    -0.237 OA
ATOM     70  O   UNL     1       9.775 -12.312   9.467  1.00  0.00    -0.237 OA
ATOM     71  O   UNL     1      12.017 -12.344  10.488  1.00  0.00    -0.744 OA
ENDBRANCH  64  68
ENDBRANCH  38  61
ENDBRANCH  12  13
ENDBRANCH   5   7
ENDBRANCH   2   3
ENDBRANCH   1   2
BRANCH   1  72
ATOM     72  C   UNL     1       5.299   2.015  -3.332  1.00  0.00     0.023 C 
BRANCH  72  73
ATOM     73  C   UNL     1       6.081   3.154  -2.668  1.00  0.00     0.116 C 
BRANCH  73  74
ATOM     74  N   UNL     1       7.478   3.187  -3.060  1.00  0.00    -0.352 N 
ATOM     75  C   UNL     1       8.106   4.015  -3.959  1.00  0.00     0.251 C 
ATOM     76  H   UNL     1       8.057   2.524  -2.620  1.00  0.00     0.163 HD
ATOM     77  O   UNL     1       9.309   3.929  -4.174  1.00  0.00    -0.269 OA
BRANCH  75  78
ATOM     78  C   UNL     1       7.322   5.008  -4.714  1.00  0.00     0.042 A 
ATOM     79  C   UNL     1       6.923   6.210  -4.123  1.00  0.00     0.014 A 
ATOM     80  C   UNL     1       7.041   4.755  -6.055  1.00  0.00     0.053 A 
ATOM     81  C   UNL     1       6.168   7.129  -4.864  1.00  0.00     0.013 A 
ATOM     82  C   UNL     1       6.274   5.669  -6.772  1.00  0.00     0.132 A 
ATOM     83  C   UNL     1       5.772   6.837  -6.183  1.00  0.00     0.042 A 
ATOM     84  F   UNL     1       5.981   5.390  -8.050  1.00  0.00    -0.206 F 
BRANCH  83  85
ATOM     85  C   UNL     1       4.834   7.745  -6.952  1.00  0.00     0.302 C 
BRANCH  85  86
ATOM     86  N   UNL     1       3.380   7.499  -6.909  1.00  0.00    -0.322 N 
ATOM     87  C   UNL     1       2.926   6.186  -7.388  1.00  0.00     0.324 C 
ATOM     88  C   UNL     1       2.699   7.832  -5.650  1.00  0.00     0.328 C 
ATOM     89  H   UNL     1       3.086   8.190  -7.600  1.00  0.00     0.348 HD
ATOM     90  C   UNL     1       2.882   5.050  -6.334  1.00  0.00     0.324 C 
ATOM     91  C   UNL     1       2.829   6.738  -4.574  1.00  0.00     0.239 C 
ATOM     92  N   UNL     1       2.325   5.420  -5.009  1.00  0.00    -0.323 N 
ATOM     93  C   UNL     1       2.159   7.136  -3.255  1.00  0.00     0.071 C 
ATOM     94  C   UNL     1       2.715   4.401  -4.022  1.00  0.00     0.262 C 
ATOM     95  H   UNL     1       1.309   5.472  -5.085  1.00  0.00     0.348 HD
ATOM     96  C   UNL     1       2.605   6.155  -2.172  1.00  0.00     0.012 C 
ATOM     97  C   UNL     1       2.287   4.720  -2.585  1.00  0.00     0.062 C 
ENDBRANCH  85  86
ENDBRANCH  83  85
ENDBRANCH  75  78
ENDBRANCH  73  74
ENDBRANCH  72  73
ENDBRANCH   1  72
TORSDOF 16
