REMARK SMILES COc1cccc(CC2(CO)CCN(c3nc(C)ccc3C(=O)NCCCCNC(=O)c3ccc(-c4c5nc(c(-c6cc(S(=O)(=O)[O-])ccc6F)c6ccc([nH]6)c(-c6cc(S(=O)(=O)[O-])ccc6F)c6nc(c(-c7cc(S(=O)(=O)[O-])ccc7F)c7ccc4[nH]7)C=C6)C=C5)cc3)CC2)c1
REMARK SMILES IDX 26 1 25 2 24 3 22 4 23 5 21 7 15 8 16 9 17 10 20 11 18 12
REMARK SMILES IDX 19 13 14 14 9 15 12 16 96 17 13 18 95 19 8 20 7 21 3 22 4 23
REMARK SMILES IDX 97 24 5 25 6 26 2 27 1 28 10 29 11 30 27 32 28 33 29 34
REMARK SMILES IDX 30 35 31 37 32 38 33 39 94 40 34 41 93 42 35 43 36 44 37 45
REMARK SMILES IDX 87 46 38 47 92 48 86 49 88 50 39 51 91 52 85 53 84 54 40 56
REMARK SMILES IDX 72 57 52 58 71 59 53 60 56 61 70 62 89 63 54 64 55 65 69 67
REMARK SMILES IDX 90 68 57 69 41 70 42 71 50 72 43 73 49 74 51 75 48 76 44 77
REMARK SMILES IDX 45 78 46 79 47 80 73 81 74 82 82 83 75 84 81 85 83 86 80 87
REMARK SMILES IDX 76 88 77 89 78 90 79 91 58 92 59 93 67 94 60 95 66 96 68 97
REMARK SMILES IDX 65 98 61 99 62 100 63 101 64 102
REMARK H PARENT 24 6 11 31 29 36 88 55 56 66
REMARK Flexibility Score: inf
ROOT
ATOM      1  C   UNL     1      -0.616  -8.095   1.349  1.00  0.00     0.023 C 
ENDROOT
BRANCH   1   2
ATOM      2  C   UNL     1      -0.809  -8.247  -0.160  1.00  0.00     0.116 C 
BRANCH   2   3
ATOM      3  N   UNL     1      -0.339  -7.070  -0.859  1.00  0.00    -0.352 N 
ATOM      4  C   UNL     1       0.827  -6.698  -1.485  1.00  0.00     0.255 C 
ATOM      5  O   UNL     1       0.753  -5.593  -2.019  1.00  0.00    -0.269 OA
ATOM      6  H   UNL     1      -1.021  -6.362  -0.894  1.00  0.00     0.163 HD
BRANCH   4   7
ATOM      7  C   UNL     1       2.067  -7.542  -1.595  1.00  0.00     0.082 A 
ATOM      8  C   UNL     1       3.117  -7.198  -2.474  1.00  0.00     0.141 A 
ATOM      9  N   UNL     1       4.141  -8.060  -2.740  1.00  0.00    -0.235 NA
ATOM     10  C   UNL     1       4.220  -9.233  -2.082  1.00  0.00     0.040 A 
ATOM     11  C   UNL     1       2.246  -8.716  -0.853  1.00  0.00     0.019 A 
ATOM     12  C   UNL     1       5.384 -10.113  -2.415  1.00  0.00     0.067 C 
ATOM     13  C   UNL     1       3.319  -9.572  -1.095  1.00  0.00     0.024 A 
BRANCH   8  14
ATOM     14  N   UNL     1       3.341  -5.958  -3.021  1.00  0.00    -0.356 N 
ATOM     15  C   UNL     1       4.432  -3.560  -4.225  1.00  0.00     0.001 C 
ATOM     16  C   UNL     1       3.820  -4.731  -5.058  1.00  0.00     0.031 C 
ATOM     17  C   UNL     1       4.706  -3.992  -2.757  1.00  0.00     0.031 C 
ATOM     18  C   UNL     1       2.824  -5.643  -4.332  1.00  0.00     0.119 C 
ATOM     19  C   UNL     1       3.612  -4.849  -2.128  1.00  0.00     0.119 C 
BRANCH  15  20
ATOM     20  C   UNL     1       3.592  -2.242  -4.319  1.00  0.00     0.045 C 
BRANCH  20  21
ATOM     21  C   UNL     1       2.224  -2.181  -3.689  1.00  0.00    -0.044 A 
ATOM     22  C   UNL     1       0.788  -1.661  -1.796  1.00  0.00     0.119 A 
ATOM     23  C   UNL     1      -0.314  -2.143  -2.497  1.00  0.00     0.046 A 
ATOM     24  C   UNL     1       2.054  -1.683  -2.385  1.00  0.00     0.050 A 
ATOM     25  C   UNL     1      -0.165  -2.597  -3.806  1.00  0.00     0.004 A 
ATOM     26  C   UNL     1       1.095  -2.602  -4.403  1.00  0.00     0.004 A 
BRANCH  22  27
ATOM     27  O   UNL     1       0.552  -1.257  -0.509  1.00  0.00    -0.497 OA
ATOM     28  C   UNL     1       1.191  -0.033  -0.163  1.00  0.00     0.278 C 
ENDBRANCH  22  27
ENDBRANCH  20  21
ENDBRANCH  15  20
BRANCH  15  29
ATOM     29  C   UNL     1       5.829  -3.222  -4.838  1.00  0.00     0.163 C 
BRANCH  29  30
ATOM     30  O   UNL     1       5.738  -2.713  -6.164  1.00  0.00    -0.396 OA
ATOM     31  H   UNL     1       5.337  -3.382  -6.740  1.00  0.00     0.210 HD
ENDBRANCH  29  30
ENDBRANCH  15  29
ENDBRANCH   8  14
ENDBRANCH   4   7
ENDBRANCH   2   3
ENDBRANCH   1   2
BRANCH   1  32
ATOM     32  C   UNL     1      -1.653  -7.189   2.028  1.00  0.00     0.023 C 
BRANCH  32  33
ATOM     33  C   UNL     1      -3.107  -7.637   1.891  1.00  0.00     0.116 C 
BRANCH  33  34
ATOM     34  N   UNL     1      -3.331  -9.002   2.337  1.00  0.00    -0.352 N 
ATOM     35  C   UNL     1      -4.461  -9.550   2.898  1.00  0.00     0.251 C 
ATOM     36  H   UNL     1      -2.571  -9.618   2.222  1.00  0.00     0.163 HD
ATOM     37  O   UNL     1      -4.437 -10.700   3.317  1.00  0.00    -0.269 OA
BRANCH  35  38
ATOM     38  C   UNL     1      -5.680  -8.724   3.030  1.00  0.00     0.039 A 
ATOM     39  C   UNL     1      -6.323  -8.671   4.270  1.00  0.00     0.014 A 
ATOM     40  C   UNL     1      -6.171  -7.989   1.948  1.00  0.00     0.014 A 
ATOM     41  C   UNL     1      -7.420  -7.824   4.443  1.00  0.00     0.010 A 
ATOM     42  C   UNL     1      -7.228  -7.102   2.139  1.00  0.00     0.010 A 
ATOM     43  C   UNL     1      -7.857  -7.005   3.390  1.00  0.00    -0.014 A 
BRANCH  43  44
ATOM     44  C   UNL     1      -8.963  -6.030   3.582  1.00  0.00     0.031 A 
ATOM     45  C   UNL     1     -10.252  -6.194   2.826  1.00  0.00     0.074 A 
ATOM     46  C   UNL     1      -8.771  -4.958   4.378  1.00  0.00     0.049 A 
ATOM     47  N   UNL     1     -11.295  -5.406   2.789  1.00  0.00    -0.248 NA
ATOM     48  C   UNL     1     -10.371  -7.388   1.974  1.00  0.00     0.031 C 
ATOM     49  C   UNL     1      -7.542  -4.667   5.121  1.00  0.00     0.029 A 
ATOM     50  N   UNL     1      -9.597  -3.905   4.681  1.00  0.00    -0.354 N 
ATOM     51  C   UNL     1     -12.185  -5.994   1.896  1.00  0.00     0.074 A 
ATOM     52  C   UNL     1     -11.538  -7.182   1.381  1.00  0.00     0.031 C 
ATOM     53  C   UNL     1      -7.699  -3.519   5.800  1.00  0.00     0.029 A 
ATOM     54  C   UNL     1      -9.020  -2.970   5.511  1.00  0.00     0.049 A 
ATOM     55  H   UNL     1     -10.516  -3.825   4.338  1.00  0.00     0.167 HD
ATOM     56  C   UNL     1     -13.431  -5.586   1.552  1.00  0.00     0.034 A 
ATOM     57  C   UNL     1      -9.495  -1.795   5.973  1.00  0.00     0.034 A 
ATOM     58  C   UNL     1     -14.071  -4.414   2.097  1.00  0.00     0.049 A 
ATOM     59  C   UNL     1     -10.891  -1.374   5.584  1.00  0.00     0.074 A 
ATOM     60  C   UNL     1     -15.359  -3.957   1.879  1.00  0.00     0.029 A 
ATOM     61  N   UNL     1     -13.470  -3.509   2.962  1.00  0.00    -0.354 N 
ATOM     62  N   UNL     1     -11.747  -1.981   4.795  1.00  0.00    -0.248 NA
ATOM     63  C   UNL     1     -11.390  -0.119   6.161  1.00  0.00     0.031 C 
ATOM     64  C   UNL     1     -15.516  -2.745   2.560  1.00  0.00     0.029 A 
ATOM     65  C   UNL     1     -14.351  -2.481   3.262  1.00  0.00     0.049 A 
ATOM     66  H   UNL     1     -12.553  -3.585   3.311  1.00  0.00     0.167 HD
ATOM     67  C   UNL     1     -12.896  -1.195   4.807  1.00  0.00     0.074 A 
ATOM     68  C   UNL     1     -12.629  -0.082   5.694  1.00  0.00     0.031 C 
ATOM     69  C   UNL     1     -14.068  -1.377   4.147  1.00  0.00     0.034 A 
BRANCH  56  70
ATOM     70  C   UNL     1     -14.174  -6.399   0.520  1.00  0.00     0.023 A 
ATOM     71  C   UNL     1     -14.567  -7.726   0.765  1.00  0.00     0.031 A 
ATOM     72  C   UNL     1     -14.495  -5.836  -0.728  1.00  0.00     0.131 A 
ATOM     73  C   UNL     1     -15.203  -8.465  -0.244  1.00  0.00     0.055 A 
ATOM     74  C   UNL     1     -15.194  -6.553  -1.701  1.00  0.00     0.041 A 
ATOM     75  F   UNL     1     -14.128  -4.580  -1.025  1.00  0.00    -0.206 F 
ATOM     76  C   UNL     1     -15.542  -7.880  -1.467  1.00  0.00     0.022 A 
BRANCH  73  77
ATOM     77  S   UNL     1     -15.482 -10.237   0.022  1.00  0.00     0.124 S 
ATOM     78  O   UNL     1     -14.115 -10.729   0.182  1.00  0.00    -0.237 OA
ATOM     79  O   UNL     1     -16.310 -10.251   1.221  1.00  0.00    -0.237 OA
ATOM     80  O   UNL     1     -16.151 -10.667  -1.204  1.00  0.00    -0.744 OA
ENDBRANCH  73  77
ENDBRANCH  56  70
BRANCH  57  81
ATOM     81  C   UNL     1      -8.650  -0.919   6.835  1.00  0.00     0.023 A 
ATOM     82  C   UNL     1      -9.018  -0.631   8.158  1.00  0.00     0.031 A 
ATOM     83  C   UNL     1      -7.491  -0.306   6.326  1.00  0.00     0.131 A 
ATOM     84  C   UNL     1      -8.270   0.289   8.909  1.00  0.00     0.055 A 
ATOM     85  C   UNL     1      -6.718   0.565   7.096  1.00  0.00     0.041 A 
ATOM     86  F   UNL     1      -7.089  -0.551   5.068  1.00  0.00    -0.206 F 
ATOM     87  C   UNL     1      -7.116   0.880   8.391  1.00  0.00     0.022 A 
BRANCH  84  88
ATOM     88  S   UNL     1      -8.889   0.784  10.541  1.00  0.00     0.124 S 
ATOM     89  O   UNL     1     -10.233   1.251  10.221  1.00  0.00    -0.237 OA
ATOM     90  O   UNL     1      -8.806  -0.468  11.287  1.00  0.00    -0.237 OA
ATOM     91  O   UNL     1      -7.950   1.822  10.961  1.00  0.00    -0.744 OA
ENDBRANCH  84  88
ENDBRANCH  57  81
BRANCH  69  92
ATOM     92  C   UNL     1     -15.162  -0.372   4.406  1.00  0.00     0.023 A 
ATOM     93  C   UNL     1     -15.057   0.964   3.981  1.00  0.00     0.031 A 
ATOM     94  C   UNL     1     -16.324  -0.758   5.098  1.00  0.00     0.131 A 
ATOM     95  C   UNL     1     -16.071   1.879   4.300  1.00  0.00     0.055 A 
ATOM     96  C   UNL     1     -17.356   0.143   5.360  1.00  0.00     0.041 A 
ATOM     97  F   UNL     1     -16.476  -2.021   5.527  1.00  0.00    -0.206 F 
ATOM     98  C   UNL     1     -17.227   1.474   4.972  1.00  0.00     0.022 A 
BRANCH  95  99
ATOM     99  S   UNL     1     -15.821   3.630   3.898  1.00  0.00     0.124 S 
ATOM    100  O   UNL     1     -14.602   3.941   4.638  1.00  0.00    -0.237 OA
ATOM    101  O   UNL     1     -15.695   3.602   2.444  1.00  0.00    -0.237 OA
ATOM    102  O   UNL     1     -17.033   4.274   4.401  1.00  0.00    -0.744 OA
ENDBRANCH  95  99
ENDBRANCH  69  92
ENDBRANCH  43  44
ENDBRANCH  35  38
ENDBRANCH  33  34
ENDBRANCH  32  33
ENDBRANCH   1  32
TORSDOF 20
