REMARK SMILES C[NH+]1CCC(C(=O)N2C[C@@H](C(=O)NCCCCNC(=O)c3ccc(-c4c5nc(c(-c6cc(S(=O)(=O)[O-])ccc6F)c6ccc([nH]6)c(-c6cc(S(=O)(=O)[O-])ccc6F)c6nc(c(-c7cc(S(=O)(=O)[O-])ccc7F)c7ccc4[nH]7)C=C6)C=C5)cc3)[C@H](c3ccc4c(c3)OCO4)C2)CC1
REMARK SMILES IDX 16 1 15 2 14 3 13 4 11 5 12 6 10 8 8 9 9 10 94 11 84 12 6 13
REMARK SMILES IDX 7 14 5 15 1 16 2 17 3 18 96 19 4 21 95 22 85 23 86 24 90 25
REMARK SMILES IDX 87 26 89 27 88 28 91 29 93 30 92 31 17 32 18 33 19 34 20 36
REMARK SMILES IDX 21 37 22 38 83 39 23 40 82 41 24 42 25 43 26 44 76 45 27 46
REMARK SMILES IDX 81 47 75 48 77 49 28 50 80 51 74 52 73 53 29 55 61 56 41 57
REMARK SMILES IDX 60 58 42 59 45 60 59 61 78 62 43 63 44 64 58 66 79 67 46 68
REMARK SMILES IDX 30 69 31 70 39 71 32 72 38 73 40 74 37 75 33 76 34 77 35 78
REMARK SMILES IDX 36 79 62 80 63 81 71 82 64 83 70 84 72 85 69 86 65 87 66 88
REMARK SMILES IDX 67 89 68 90 47 91 48 92 56 93 49 94 55 95 57 96 54 97 50 98
REMARK SMILES IDX 51 99 52 100 53 101
REMARK H PARENT 13 7 2 20 18 35 77 54 45 65
REMARK Flexibility Score: inf
ROOT
ATOM      1  C   UNL     1      -0.016   0.153   8.241  1.00  0.00     0.023 C 
ENDROOT
BRANCH   1   2
ATOM      2  C   UNL     1       0.158   0.742   6.839  1.00  0.00     0.023 C 
BRANCH   2   3
ATOM      3  C   UNL     1       1.593   0.809   6.330  1.00  0.00     0.116 C 
BRANCH   3   4
ATOM      4  N   UNL     1       2.195  -0.498   6.118  1.00  0.00    -0.356 N 
ATOM      5  C   UNL     1       2.946  -0.950   5.071  1.00  0.00     0.225 C 
ATOM      6  O   UNL     1       3.484  -2.054   5.167  1.00  0.00    -0.275 OA
ATOM      7  H   UNL     1       2.038  -1.153   6.835  1.00  0.00     0.163 HD
BRANCH   5   8
ATOM      8  C   UNL     1       3.095  -0.102   3.826  1.00  0.00     0.107 C 
ATOM      9  N   UNL     1       3.618  -0.058   1.579  1.00  0.00    -0.341 N 
ATOM     10  C   UNL     1       3.142  -0.978   2.590  1.00  0.00     0.133 C 
ATOM     11  C   UNL     1       4.618   0.824   2.178  1.00  0.00     0.128 C 
ATOM     12  C   UNL     1       4.439   0.656   3.710  1.00  0.00     0.053 C 
BRANCH   9  13
ATOM     13  C   UNL     1       3.284   0.062   0.254  1.00  0.00     0.226 C 
ATOM     14  O   UNL     1       4.104   0.532  -0.545  1.00  0.00    -0.275 OA
BRANCH  13  15
ATOM     15  C   UNL     1       1.826  -0.080  -0.209  1.00  0.00     0.090 C 
ATOM     16  C   UNL     1      -2.473   0.020  -0.273  1.00  0.00     0.332 C 
ATOM     17  N   UNL     1      -1.067  -0.040   0.116  1.00  0.00    -0.337 N 
ATOM     18  C   UNL     1      -0.365   1.189  -0.269  1.00  0.00     0.262 C 
ATOM     19  C   UNL     1      -0.408  -1.223  -0.457  1.00  0.00     0.262 C 
ATOM     20  H   UNL     1      -1.026  -0.122   1.132  1.00  0.00     0.347 HD
ATOM     21  C   UNL     1       1.068   1.172   0.255  1.00  0.00     0.075 C 
ATOM     22  C   UNL     1       1.016  -1.337   0.099  1.00  0.00     0.075 C 
ENDBRANCH  13  15
ENDBRANCH   9  13
BRANCH  12  23
ATOM     23  C   UNL     1       4.418   1.900   4.578  1.00  0.00    -0.038 A 
ATOM     24  C   UNL     1       3.818   3.112   4.164  1.00  0.00     0.008 A 
ATOM     25  C   UNL     1       4.845   1.771   5.916  1.00  0.00     0.054 A 
ATOM     26  C   UNL     1       3.599   4.157   5.072  1.00  0.00     0.051 A 
ATOM     27  C   UNL     1       4.572   2.798   6.795  1.00  0.00     0.166 A 
ATOM     28  C   UNL     1       3.955   3.953   6.386  1.00  0.00     0.165 A 
ATOM     29  O   UNL     1       4.763   2.759   8.141  1.00  0.00    -0.454 OA
ATOM     30  O   UNL     1       3.695   4.793   7.423  1.00  0.00    -0.454 OA
ATOM     31  C   UNL     1       4.069   3.961   8.543  1.00  0.00     0.468 C 
ENDBRANCH  12  23
ENDBRANCH   5   8
ENDBRANCH   3   4
ENDBRANCH   2   3
ENDBRANCH   1   2
BRANCH   1  32
ATOM     32  C   UNL     1       0.843   0.765   9.347  1.00  0.00     0.116 C 
BRANCH  32  33
ATOM     33  N   UNL     1       0.684   2.203   9.493  1.00  0.00    -0.352 N 
ATOM     34  C   UNL     1       0.690   2.964  10.640  1.00  0.00     0.251 C 
ATOM     35  H   UNL     1       0.552   2.701   8.655  1.00  0.00     0.163 HD
ATOM     36  O   UNL     1       0.523   4.179  10.560  1.00  0.00    -0.269 OA
BRANCH  34  37
ATOM     37  C   UNL     1       0.854   2.322  11.964  1.00  0.00     0.039 A 
ATOM     38  C   UNL     1      -0.052   2.648  12.978  1.00  0.00     0.014 A 
ATOM     39  C   UNL     1       1.865   1.388  12.204  1.00  0.00     0.014 A 
ATOM     40  C   UNL     1      -0.003   1.971  14.199  1.00  0.00     0.010 A 
ATOM     41  C   UNL     1       1.877   0.672  13.401  1.00  0.00     0.010 A 
ATOM     42  C   UNL     1       0.930   0.941  14.402  1.00  0.00    -0.014 A 
BRANCH  42  43
ATOM     43  C   UNL     1       0.889   0.105  15.632  1.00  0.00     0.031 A 
ATOM     44  C   UNL     1       2.025   0.131  16.615  1.00  0.00     0.074 A 
ATOM     45  C   UNL     1      -0.144  -0.741  15.817  1.00  0.00     0.049 A 
ATOM     46  N   UNL     1       2.192  -0.574  17.705  1.00  0.00    -0.248 NA
ATOM     47  C   UNL     1       3.130   1.051  16.316  1.00  0.00     0.031 C 
ATOM     48  C   UNL     1      -1.278  -0.900  14.903  1.00  0.00     0.029 A 
ATOM     49  N   UNL     1      -0.402  -1.640  16.823  1.00  0.00    -0.354 N 
ATOM     50  C   UNL     1       3.427  -0.193  18.218  1.00  0.00     0.074 A 
ATOM     51  C   UNL     1       3.985   0.766  17.287  1.00  0.00     0.031 C 
ATOM     52  C   UNL     1      -2.111  -1.832  15.393  1.00  0.00     0.029 A 
ATOM     53  C   UNL     1      -1.556  -2.366  16.632  1.00  0.00     0.049 A 
ATOM     54  H   UNL     1       0.183  -1.754  17.606  1.00  0.00     0.167 HD
ATOM     55  C   UNL     1       4.029  -0.594  19.367  1.00  0.00     0.034 A 
ATOM     56  C   UNL     1      -2.098  -3.362  17.361  1.00  0.00     0.034 A 
ATOM     57  C   UNL     1       3.455  -1.550  20.285  1.00  0.00     0.049 A 
ATOM     58  C   UNL     1      -1.413  -3.795  18.630  1.00  0.00     0.074 A 
ATOM     59  C   UNL     1       3.942  -1.969  21.511  1.00  0.00     0.029 A 
ATOM     60  N   UNL     1       2.274  -2.252  20.070  1.00  0.00    -0.354 N 
ATOM     61  N   UNL     1      -0.282  -3.368  19.143  1.00  0.00    -0.248 NA
ATOM     62  C   UNL     1      -2.083  -4.832  19.424  1.00  0.00     0.031 C 
ATOM     63  C   UNL     1       3.098  -2.971  22.002  1.00  0.00     0.029 A 
ATOM     64  C   UNL     1       2.039  -3.126  21.122  1.00  0.00     0.049 A 
ATOM     65  H   UNL     1       1.690  -2.144  19.286  1.00  0.00     0.167 HD
ATOM     66  C   UNL     1      -0.118  -4.070  20.334  1.00  0.00     0.074 A 
ATOM     67  C   UNL     1      -1.273  -4.934  20.469  1.00  0.00     0.031 C 
ATOM     68  C   UNL     1       0.894  -4.000  21.237  1.00  0.00     0.034 A 
BRANCH  55  69
ATOM     69  C   UNL     1       5.395  -0.021  19.670  1.00  0.00     0.023 A 
ATOM     70  C   UNL     1       5.592   1.359  19.861  1.00  0.00     0.031 A 
ATOM     71  C   UNL     1       6.522  -0.859  19.730  1.00  0.00     0.131 A 
ATOM     72  C   UNL     1       6.891   1.867  20.014  1.00  0.00     0.055 A 
ATOM     73  C   UNL     1       7.803  -0.355  19.970  1.00  0.00     0.041 A 
ATOM     74  F   UNL     1       6.402  -2.182  19.539  1.00  0.00    -0.206 F 
ATOM     75  C   UNL     1       7.996   1.017  20.095  1.00  0.00     0.022 A 
BRANCH  72  76
ATOM     76  S   UNL     1       7.129   3.664  19.943  1.00  0.00     0.124 S 
ATOM     77  O   UNL     1       6.549   3.987  18.641  1.00  0.00    -0.237 OA
ATOM     78  O   UNL     1       6.384   4.127  21.107  1.00  0.00    -0.237 OA
ATOM     79  O   UNL     1       8.580   3.821  20.025  1.00  0.00    -0.744 OA
ENDBRANCH  72  76
ENDBRANCH  55  69
BRANCH  56  80
ATOM     80  C   UNL     1      -3.347  -4.031  16.897  1.00  0.00     0.023 A 
ATOM     81  C   UNL     1      -4.549  -3.906  17.610  1.00  0.00     0.031 A 
ATOM     82  C   UNL     1      -3.346  -4.825  15.736  1.00  0.00     0.131 A 
ATOM     83  C   UNL     1      -5.694  -4.593  17.175  1.00  0.00     0.055 A 
ATOM     84  C   UNL     1      -4.498  -5.468  15.281  1.00  0.00     0.041 A 
ATOM     85  F   UNL     1      -2.224  -4.968  15.013  1.00  0.00    -0.206 F 
ATOM     86  C   UNL     1      -5.679  -5.362  16.009  1.00  0.00     0.022 A 
BRANCH  83  87
ATOM     87  S   UNL     1      -7.194  -4.515  18.191  1.00  0.00     0.124 S 
ATOM     88  O   UNL     1      -6.726  -5.071  19.456  1.00  0.00    -0.237 OA
ATOM     89  O   UNL     1      -7.488  -3.086  18.188  1.00  0.00    -0.237 OA
ATOM     90  O   UNL     1      -8.146  -5.345  17.456  1.00  0.00    -0.744 OA
ENDBRANCH  83  87
ENDBRANCH  56  80
BRANCH  68  91
ATOM     91  C   UNL     1       0.771  -4.863  22.470  1.00  0.00     0.023 A 
ATOM     92  C   UNL     1       0.832  -6.266  22.402  1.00  0.00     0.031 A 
ATOM     93  C   UNL     1       0.578  -4.270  23.730  1.00  0.00     0.131 A 
ATOM     94  C   UNL     1       0.649  -7.031  23.565  1.00  0.00     0.055 A 
ATOM     95  C   UNL     1       0.455  -5.034  24.892  1.00  0.00     0.041 A 
ATOM     96  F   UNL     1       0.508  -2.935  23.854  1.00  0.00    -0.206 F 
ATOM     97  C   UNL     1       0.477  -6.423  24.811  1.00  0.00     0.022 A 
BRANCH  94  98
ATOM     98  S   UNL     1       0.548  -8.836  23.415  1.00  0.00     0.124 S 
ATOM     99  O   UNL     1      -0.582  -9.002  22.507  1.00  0.00    -0.237 OA
ATOM    100  O   UNL     1       1.859  -9.178  22.872  1.00  0.00    -0.237 OA
ATOM    101  O   UNL     1       0.311  -9.281  24.787  1.00  0.00    -0.744 OA
ENDBRANCH  94  98
ENDBRANCH  68  91
ENDBRANCH  42  43
ENDBRANCH  34  37
ENDBRANCH  32  33
ENDBRANCH   1  32
TORSDOF 17
