REMARK SMILES [NH3+][C@@]1(C(=O)NCCCCNC(=O)c2ccc(-c3c4nc(c(-c5cc(S(=O)(=O)[O-])ccc5F)c5ccc([nH]5)c(-c5cc(S(=O)(=O)[O-])ccc5F)c5nc(c(-c6cc(S(=O)(=O)[O-])ccc6F)c6ccc3[nH]6)C=C5)C=C4)cc2)CCC[C@H]1CCOC1CCCCCC1
REMARK SMILES IDX 3 1 4 2 5 3 2 5 76 6 79 7 77 8 78 9 1 10 80 14 81 15 82 16
REMARK SMILES IDX 83 17 84 18 85 19 86 20 87 21 89 23 88 24 6 26 7 27 8 28
REMARK SMILES IDX 9 29 10 30 11 31 12 33 13 34 14 35 75 36 15 37 74 38 16 39
REMARK SMILES IDX 17 40 18 41 68 42 19 43 73 44 67 45 69 46 20 47 72 48 66 49
REMARK SMILES IDX 65 50 21 52 53 53 33 54 52 55 34 56 37 57 51 58 70 59 35 60
REMARK SMILES IDX 36 61 50 63 71 64 38 65 22 66 23 67 31 68 24 69 30 70 32 71
REMARK SMILES IDX 29 72 25 73 26 74 27 75 28 76 54 77 55 78 63 79 56 80 62 81
REMARK SMILES IDX 64 82 61 83 57 84 58 85 59 86 60 87 39 88 40 89 48 90 41 91
REMARK SMILES IDX 47 92 49 93 46 94 42 95 43 96 44 97 45 98
REMARK H PARENT 5 4 1 11 1 12 1 13 10 32 69 51 37 62
REMARK Flexibility Score: 80.00
ROOT
ATOM      1  C   UNL     1      -1.347   0.651   1.114  1.00  0.00     0.281 C 
ATOM      2  O   UNL     1      -2.300   0.138   0.470  1.00  0.00    -0.268 OA
ATOM      3  N   UNL     1      -2.309   1.061   2.108  1.00  0.00    -0.351 N 
ATOM      4  H   UNL     1      -3.152   0.638   1.828  1.00  0.00     0.163 HD
ENDROOT
BRANCH   1   5
ATOM      5  C   UNL     1       0.671   0.900   0.657  1.00  0.00     0.176 C 
ATOM      6  C   UNL     1       2.058   0.665   1.692  1.00  0.00     0.079 C 
ATOM      7  C   UNL     1       1.403   2.318   0.005  1.00  0.00     0.063 C 
ATOM      8  C   UNL     1       2.617   1.986   2.174  1.00  0.00     0.008 C 
ATOM      9  C   UNL     1       2.578   2.824   0.920  1.00  0.00     0.011 C 
BRANCH   5  10
ATOM     10  N   UNL     1       1.292  -0.172  -0.254  1.00  0.00    -0.345 N 
ATOM     11  H   UNL     1       0.944  -1.092   0.018  1.00  0.00     0.345 HD
ATOM     12  H   UNL     1       2.307  -0.152  -0.160  1.00  0.00     0.345 HD
ATOM     13  H   UNL     1       1.036   0.015  -1.223  1.00  0.00     0.345 HD
ENDBRANCH   5  10
BRANCH   7  14
ATOM     14  C   UNL     1       1.862   2.337  -1.461  1.00  0.00     0.039 C 
BRANCH  14  15
ATOM     15  C   UNL     1       0.877   1.845  -2.509  1.00  0.00     0.161 C 
BRANCH  15  16
ATOM     16  O   UNL     1      -0.478   2.118  -2.229  1.00  0.00    -0.378 OA
BRANCH  16  17
ATOM     17  C   UNL     1      -1.124   1.474  -1.113  1.00  0.00     0.118 C 
BRANCH  17  18
ATOM     18  C   UNL     1      -1.033  -0.357  -1.140  1.00  0.00     0.032 C 
BRANCH  18  19
ATOM     19  C   UNL     1      -0.685  -1.452   0.320  1.00  0.00     0.003 C 
BRANCH  19  20
ATOM     20  C   UNL     1      -0.220  -0.996   2.043  1.00  0.00     0.000 C 
BRANCH  20  21
ATOM     21  C   UNL     1      -0.103   0.694   2.885  1.00  0.00     0.000 CG0
ATOM     22  G   UNL     1      -0.391   2.403   2.016  1.00  0.00     0.000 G0
ENDBRANCH  20  21
ENDBRANCH  19  20
ENDBRANCH  18  19
ENDBRANCH  17  18
BRANCH  17  23
ATOM     23  C   UNL     1      -1.208   2.650   0.310  1.00  0.00     0.032 C 
BRANCH  23  24
ATOM     24  C   UNL     1      -0.391   2.403   2.016  1.00  0.00     0.003 CG0
ATOM     25  G   UNL     1      -0.103   0.694   2.885  1.00  0.00     0.000 G0
ENDBRANCH  23  24
ENDBRANCH  17  23
ENDBRANCH  16  17
ENDBRANCH  15  16
ENDBRANCH  14  15
ENDBRANCH   7  14
ENDBRANCH   1   5
BRANCH   3  26
ATOM     26  C   UNL     1      -2.663   1.822   3.375  1.00  0.00     0.116 C 
BRANCH  26  27
ATOM     27  C   UNL     1      -3.196   3.249   3.149  1.00  0.00     0.023 C 
BRANCH  27  28
ATOM     28  C   UNL     1      -4.422   3.558   3.979  1.00  0.00     0.023 C 
BRANCH  28  29
ATOM     29  C   UNL     1      -4.220   3.334   5.465  1.00  0.00     0.116 C 
BRANCH  29  30
ATOM     30  N   UNL     1      -3.243   4.224   6.089  1.00  0.00    -0.352 N 
ATOM     31  C   UNL     1      -3.360   4.785   7.347  1.00  0.00     0.251 C 
ATOM     32  H   UNL     1      -2.435   4.444   5.570  1.00  0.00     0.163 HD
ATOM     33  O   UNL     1      -2.547   5.584   7.789  1.00  0.00    -0.269 OA
BRANCH  31  34
ATOM     34  C   UNL     1      -4.547   4.369   8.116  1.00  0.00     0.039 A 
ATOM     35  C   UNL     1      -5.603   5.269   8.265  1.00  0.00     0.014 A 
ATOM     36  C   UNL     1      -4.712   2.999   8.339  1.00  0.00     0.014 A 
ATOM     37  C   UNL     1      -6.864   4.773   8.591  1.00  0.00     0.010 A 
ATOM     38  C   UNL     1      -5.992   2.505   8.523  1.00  0.00     0.010 A 
ATOM     39  C   UNL     1      -7.076   3.386   8.681  1.00  0.00    -0.014 A 
BRANCH  39  40
ATOM     40  C   UNL     1      -8.408   2.830   9.023  1.00  0.00     0.031 A 
ATOM     41  C   UNL     1      -8.543   2.011  10.278  1.00  0.00     0.074 A 
ATOM     42  C   UNL     1      -9.465   3.022   8.210  1.00  0.00     0.049 A 
ATOM     43  N   UNL     1      -9.589   1.393  10.759  1.00  0.00    -0.248 NA
ATOM     44  C   UNL     1      -7.318   1.820  11.072  1.00  0.00     0.031 C 
ATOM     45  C   UNL     1      -9.442   3.757   6.942  1.00  0.00     0.029 A 
ATOM     46  N   UNL     1     -10.772   2.624   8.335  1.00  0.00    -0.354 N 
ATOM     47  C   UNL     1      -9.138   0.735  11.898  1.00  0.00     0.074 A 
ATOM     48  C   UNL     1      -7.709   0.928  11.963  1.00  0.00     0.031 C 
ATOM     49  C   UNL     1     -10.687   3.808   6.440  1.00  0.00     0.029 A 
ATOM     50  C   UNL     1     -11.588   3.070   7.320  1.00  0.00     0.049 A 
ATOM     51  H   UNL     1     -11.097   2.071   9.082  1.00  0.00     0.167 HD
ATOM     52  C   UNL     1      -9.856   0.073  12.837  1.00  0.00     0.034 A 
ATOM     53  C   UNL     1     -12.912   2.904   7.131  1.00  0.00     0.034 A 
ATOM     54  C   UNL     1     -11.283  -0.096  12.756  1.00  0.00     0.049 A 
ATOM     55  C   UNL     1     -13.693   2.123   8.159  1.00  0.00     0.074 A 
ATOM     56  C   UNL     1     -12.132  -0.710  13.656  1.00  0.00     0.029 A 
ATOM     57  N   UNL     1     -12.073   0.348  11.700  1.00  0.00    -0.354 N 
ATOM     58  N   UNL     1     -13.266   1.551   9.263  1.00  0.00    -0.248 NA
ATOM     59  C   UNL     1     -15.133   1.974   7.922  1.00  0.00     0.031 C 
ATOM     60  C   UNL     1     -13.418  -0.713  13.107  1.00  0.00     0.029 A 
ATOM     61  C   UNL     1     -13.393  -0.014  11.909  1.00  0.00     0.049 A 
ATOM     62  H   UNL     1     -11.741   0.847  10.919  1.00  0.00     0.167 HD
ATOM     63  C   UNL     1     -14.394   1.005   9.870  1.00  0.00     0.074 A 
ATOM     64  C   UNL     1     -15.518   1.329   9.013  1.00  0.00     0.031 C 
ATOM     65  C   UNL     1     -14.496   0.308  11.032  1.00  0.00     0.034 A 
BRANCH  52  66
ATOM     66  C   UNL     1      -9.087  -0.526  13.992  1.00  0.00     0.023 A 
ATOM     67  C   UNL     1      -8.290   0.268  14.840  1.00  0.00     0.031 A 
ATOM     68  C   UNL     1      -9.075  -1.916  14.197  1.00  0.00     0.131 A 
ATOM     69  C   UNL     1      -7.429  -0.339  15.765  1.00  0.00     0.055 A 
ATOM     70  C   UNL     1      -8.297  -2.506  15.196  1.00  0.00     0.041 A 
ATOM     71  F   UNL     1      -9.790  -2.731  13.407  1.00  0.00    -0.206 F 
ATOM     72  C   UNL     1      -7.449  -1.719  15.971  1.00  0.00     0.022 A 
BRANCH  69  73
ATOM     73  S   UNL     1      -6.139   0.677  16.538  1.00  0.00     0.124 S 
ATOM     74  O   UNL     1      -5.431   1.194  15.368  1.00  0.00    -0.237 OA
ATOM     75  O   UNL     1      -6.916   1.651  17.296  1.00  0.00    -0.237 OA
ATOM     76  O   UNL     1      -5.383  -0.281  17.341  1.00  0.00    -0.744 OA
ENDBRANCH  69  73
ENDBRANCH  52  66
BRANCH  53  77
ATOM     77  C   UNL     1     -13.589   3.499   5.941  1.00  0.00     0.023 A 
ATOM     78  C   UNL     1     -14.562   4.501   6.088  1.00  0.00     0.031 A 
ATOM     79  C   UNL     1     -13.290   3.061   4.639  1.00  0.00     0.131 A 
ATOM     80  C   UNL     1     -15.228   5.005   4.959  1.00  0.00     0.055 A 
ATOM     81  C   UNL     1     -13.917   3.602   3.514  1.00  0.00     0.041 A 
ATOM     82  F   UNL     1     -12.367   2.107   4.439  1.00  0.00    -0.206 F 
ATOM     83  C   UNL     1     -14.900   4.573   3.672  1.00  0.00     0.022 A 
BRANCH  80  84
ATOM     84  S   UNL     1     -16.584   6.185   5.201  1.00  0.00     0.124 S 
ATOM     85  O   UNL     1     -17.507   5.412   6.024  1.00  0.00    -0.237 OA
ATOM     86  O   UNL     1     -15.907   7.294   5.864  1.00  0.00    -0.237 OA
ATOM     87  O   UNL     1     -17.042   6.461   3.841  1.00  0.00    -0.744 OA
ENDBRANCH  80  84
ENDBRANCH  53  77
BRANCH  65  88
ATOM     88  C   UNL     1     -15.881  -0.108  11.465  1.00  0.00     0.023 A 
ATOM     89  C   UNL     1     -16.645  -1.028  10.728  1.00  0.00     0.031 A 
ATOM     90  C   UNL     1     -16.443   0.428  12.639  1.00  0.00     0.131 A 
ATOM     91  C   UNL     1     -17.950  -1.337  11.137  1.00  0.00     0.055 A 
ATOM     92  C   UNL     1     -17.713   0.059  13.081  1.00  0.00     0.041 A 
ATOM     93  F   UNL     1     -15.760   1.315  13.381  1.00  0.00    -0.206 F 
ATOM     94  C   UNL     1     -18.480  -0.818  12.321  1.00  0.00     0.022 A 
BRANCH  91  95
ATOM     95  S   UNL     1     -18.988  -2.342  10.042  1.00  0.00     0.124 S 
ATOM     96  O   UNL     1     -18.979  -1.556   8.812  1.00  0.00    -0.237 OA
ATOM     97  O   UNL     1     -18.262  -3.607   9.995  1.00  0.00    -0.237 OA
ATOM     98  O   UNL     1     -20.273  -2.391  10.737  1.00  0.00    -0.744 OA
ENDBRANCH  91  95
ENDBRANCH  65  88
ENDBRANCH  39  40
ENDBRANCH  31  34
ENDBRANCH  29  30
ENDBRANCH  28  29
ENDBRANCH  27  28
ENDBRANCH  26  27
ENDBRANCH   3  26
TORSDOF 19
