REMARK SMILES C[C@H]1CC[C@](C#N)([C@H](O)C(=O)NCCCCNC(=O)c2ccc(-c3c4nc(c(-c5cc(S(=O)(=O)[O-])ccc5F)c5ccc([nH]5)c(-c5cc(S(=O)(=O)[O-])ccc5F)c5nc(c(-c6cc(S(=O)(=O)[O-])ccc6F)c6ccc3[nH]6)C=C5)C=C4)cc2)C1
REMARK SMILES IDX 15 1 14 2 13 3 12 4 10 5 11 6 8 8 5 9 1 10 2 11 3 12 83 13
REMARK SMILES IDX 4 14 6 15 7 16 9 17 16 19 17 20 18 21 19 23 20 24 21 25
REMARK SMILES IDX 82 26 22 27 81 28 23 29 24 30 25 31 75 32 26 33 80 34 74 35
REMARK SMILES IDX 76 36 27 37 79 38 73 39 72 40 28 42 60 43 40 44 59 45 41 46
REMARK SMILES IDX 44 47 58 48 77 49 42 50 43 51 57 53 78 54 45 55 29 56 30 57
REMARK SMILES IDX 38 58 31 59 37 60 39 61 36 62 32 63 33 64 34 65 35 66 61 67
REMARK SMILES IDX 62 68 70 69 63 70 69 71 71 72 68 73 64 74 65 75 66 76 67 77
REMARK SMILES IDX 46 78 47 79 55 80 48 81 54 82 56 83 53 84 49 85 50 86 51 87
REMARK SMILES IDX 52 88
REMARK H PARENT 12 7 9 18 17 22 76 41 44 52
REMARK Flexibility Score: inf
ROOT
ATOM      1  C   UNL     1       0.613   2.096  -6.726  1.00  0.00     0.023 C 
ENDROOT
BRANCH   1   2
ATOM      2  C   UNL     1       1.520   1.038  -6.110  1.00  0.00     0.023 C 
BRANCH   2   3
ATOM      3  C   UNL     1       0.827   0.053  -5.183  1.00  0.00     0.116 C 
BRANCH   3   4
ATOM      4  N   UNL     1      -0.096  -0.833  -5.851  1.00  0.00    -0.354 N 
ATOM      5  C   UNL     1      -0.295  -2.162  -5.629  1.00  0.00     0.250 C 
ATOM      6  O   UNL     1      -1.192  -2.726  -6.262  1.00  0.00    -0.272 OA
ATOM      7  H   UNL     1      -0.650  -0.426  -6.555  1.00  0.00     0.163 HD
BRANCH   5   8
ATOM      8  C   UNL     1       0.547  -2.956  -4.600  1.00  0.00     0.223 C 
BRANCH   8   9
ATOM      9  C   UNL     1       0.193  -2.741  -3.095  1.00  0.00     0.092 C 
ATOM     10  C   UNL     1      -1.353  -2.276  -0.275  1.00  0.00     0.008 C 
ATOM     11  C   UNL     1      -1.191  -1.429  -1.532  1.00  0.00    -0.013 C 
ATOM     12  C   UNL     1       0.173  -0.756  -1.605  1.00  0.00     0.005 C 
ATOM     13  C   UNL     1      -1.248  -2.239  -2.833  1.00  0.00     0.029 C 
ATOM     14  C   UNL     1       1.098  -1.762  -2.293  1.00  0.00     0.026 C 
BRANCH   9  15
ATOM     15  C   UNL     1       0.351  -4.089  -2.470  1.00  0.00     0.072 C 
ATOM     16  N   UNL     1       0.483  -5.138  -1.997  1.00  0.00    -0.198 NA
ENDBRANCH   9  15
ENDBRANCH   8   9
BRANCH   8  17
ATOM     17  O   UNL     1       1.956  -2.859  -4.814  1.00  0.00    -0.382 OA
ATOM     18  H   UNL     1       2.249  -1.953  -4.630  1.00  0.00     0.211 HD
ENDBRANCH   8  17
ENDBRANCH   5   8
ENDBRANCH   3   4
ENDBRANCH   2   3
ENDBRANCH   1   2
BRANCH   1  19
ATOM     19  C   UNL     1      -0.210   2.903  -5.729  1.00  0.00     0.116 C 
BRANCH  19  20
ATOM     20  N   UNL     1       0.610   3.647  -4.783  1.00  0.00    -0.352 N 
ATOM     21  C   UNL     1       0.675   5.005  -4.569  1.00  0.00     0.251 C 
ATOM     22  H   UNL     1       1.202   3.101  -4.216  1.00  0.00     0.163 HD
ATOM     23  O   UNL     1       1.551   5.469  -3.845  1.00  0.00    -0.269 OA
BRANCH  21  24
ATOM     24  C   UNL     1      -0.292   5.896  -5.246  1.00  0.00     0.039 A 
ATOM     25  C   UNL     1       0.176   7.039  -5.896  1.00  0.00     0.014 A 
ATOM     26  C   UNL     1      -1.651   5.575  -5.280  1.00  0.00     0.014 A 
ATOM     27  C   UNL     1      -0.709   7.811  -6.653  1.00  0.00     0.010 A 
ATOM     28  C   UNL     1      -2.507   6.286  -6.115  1.00  0.00     0.010 A 
ATOM     29  C   UNL     1      -2.047   7.413  -6.812  1.00  0.00    -0.014 A 
BRANCH  29  30
ATOM     30  C   UNL     1      -2.975   8.159  -7.705  1.00  0.00     0.031 A 
ATOM     31  C   UNL     1      -4.218   8.795  -7.140  1.00  0.00     0.074 A 
ATOM     32  C   UNL     1      -2.725   8.220  -9.030  1.00  0.00     0.049 A 
ATOM     33  N   UNL     1      -5.171   9.439  -7.762  1.00  0.00    -0.248 NA
ATOM     34  C   UNL     1      -4.430   8.671  -5.688  1.00  0.00     0.031 C 
ATOM     35  C   UNL     1      -1.570   7.617  -9.702  1.00  0.00     0.029 A 
ATOM     36  N   UNL     1      -3.423   8.816 -10.053  1.00  0.00    -0.354 N 
ATOM     37  C   UNL     1      -6.100   9.783  -6.785  1.00  0.00     0.074 A 
ATOM     38  C   UNL     1      -5.622   9.229  -5.537  1.00  0.00     0.031 C 
ATOM     39  C   UNL     1      -1.618   7.910 -11.011  1.00  0.00     0.029 A 
ATOM     40  C   UNL     1      -2.836   8.663 -11.290  1.00  0.00     0.049 A 
ATOM     41  H   UNL     1      -4.265   9.306  -9.915  1.00  0.00     0.167 HD
ATOM     42  C   UNL     1      -7.236  10.509  -6.915  1.00  0.00     0.034 A 
ATOM     43  C   UNL     1      -3.241   9.069 -12.512  1.00  0.00     0.034 A 
ATOM     44  C   UNL     1      -7.691  11.069  -8.163  1.00  0.00     0.049 A 
ATOM     45  C   UNL     1      -4.540   9.832 -12.629  1.00  0.00     0.074 A 
ATOM     46  C   UNL     1      -8.793  11.876  -8.388  1.00  0.00     0.029 A 
ATOM     47  N   UNL     1      -7.086  10.870  -9.396  1.00  0.00    -0.354 N 
ATOM     48  N   UNL     1      -5.370  10.203 -11.681  1.00  0.00    -0.248 NA
ATOM     49  C   UNL     1      -4.952  10.239 -13.979  1.00  0.00     0.031 C 
ATOM     50  C   UNL     1      -8.911  12.081  -9.765  1.00  0.00     0.029 A 
ATOM     51  C   UNL     1      -7.822  11.497 -10.391  1.00  0.00     0.049 A 
ATOM     52  H   UNL     1      -6.258  10.359  -9.544  1.00  0.00     0.167 HD
ATOM     53  C   UNL     1      -6.375  10.926 -12.320  1.00  0.00     0.074 A 
ATOM     54  C   UNL     1      -6.038  10.953 -13.727  1.00  0.00     0.031 C 
ATOM     55  C   UNL     1      -7.476  11.518 -11.792  1.00  0.00     0.034 A 
BRANCH  42  56
ATOM     56  C   UNL     1      -8.091  10.715  -5.688  1.00  0.00     0.023 A 
ATOM     57  C   UNL     1      -7.636  11.439  -4.573  1.00  0.00     0.031 A 
ATOM     58  C   UNL     1      -9.399  10.198  -5.648  1.00  0.00     0.131 A 
ATOM     59  C   UNL     1      -8.463  11.585  -3.449  1.00  0.00     0.055 A 
ATOM     60  C   UNL     1     -10.245  10.417  -4.561  1.00  0.00     0.041 A 
ATOM     61  F   UNL     1      -9.878   9.474  -6.672  1.00  0.00    -0.206 F 
ATOM     62  C   UNL     1      -9.775  11.106  -3.448  1.00  0.00     0.022 A 
BRANCH  59  63
ATOM     63  S   UNL     1      -7.760  12.302  -1.939  1.00  0.00     0.124 S 
ATOM     64  O   UNL     1      -6.657  11.384  -1.662  1.00  0.00    -0.237 OA
ATOM     65  O   UNL     1      -7.381  13.642  -2.372  1.00  0.00    -0.237 OA
ATOM     66  O   UNL     1      -8.864  12.243  -0.984  1.00  0.00    -0.744 OA
ENDBRANCH  59  63
ENDBRANCH  42  56
BRANCH  43  67
ATOM     67  C   UNL     1      -2.441   8.755 -13.735  1.00  0.00     0.023 A 
ATOM     68  C   UNL     1      -1.961   9.781 -14.565  1.00  0.00     0.031 A 
ATOM     69  C   UNL     1      -2.229   7.427 -14.148  1.00  0.00     0.131 A 
ATOM     70  C   UNL     1      -1.373   9.467 -15.800  1.00  0.00     0.055 A 
ATOM     71  C   UNL     1      -1.569   7.119 -15.340  1.00  0.00     0.041 A 
ATOM     72  F   UNL     1      -2.668   6.403 -13.399  1.00  0.00    -0.206 F 
ATOM     73  C   UNL     1      -1.157   8.143 -16.185  1.00  0.00     0.022 A 
BRANCH  70  74
ATOM     74  S   UNL     1      -1.037  10.818 -16.965  1.00  0.00     0.124 S 
ATOM     75  O   UNL     1      -2.355  11.430 -17.090  1.00  0.00    -0.237 OA
ATOM     76  O   UNL     1      -0.033  11.594 -16.247  1.00  0.00    -0.237 OA
ATOM     77  O   UNL     1      -0.554  10.124 -18.157  1.00  0.00    -0.744 OA
ENDBRANCH  70  74
ENDBRANCH  43  67
BRANCH  55  78
ATOM     78  C   UNL     1      -8.362  12.302 -12.732  1.00  0.00     0.023 A 
ATOM     79  C   UNL     1      -9.060  11.688 -13.786  1.00  0.00     0.031 A 
ATOM     80  C   UNL     1      -8.502  13.693 -12.570  1.00  0.00     0.131 A 
ATOM     81  C   UNL     1      -9.812  12.471 -14.675  1.00  0.00     0.055 A 
ATOM     82  C   UNL     1      -9.316  14.454 -13.410  1.00  0.00     0.041 A 
ATOM     83  F   UNL     1      -7.854  14.336 -11.585  1.00  0.00    -0.206 F 
ATOM     84  C   UNL     1      -9.964  13.846 -14.479  1.00  0.00     0.022 A 
BRANCH  81  85
ATOM     85  S   UNL     1     -10.497  11.685 -16.159  1.00  0.00     0.124 S 
ATOM     86  O   UNL     1      -9.300  11.146 -16.796  1.00  0.00    -0.237 OA
ATOM     87  O   UNL     1     -11.417  10.702 -15.596  1.00  0.00    -0.237 OA
ATOM     88  O   UNL     1     -11.134  12.792 -16.871  1.00  0.00    -0.744 OA
ENDBRANCH  81  85
ENDBRANCH  55  78
ENDBRANCH  29  30
ENDBRANCH  21  24
ENDBRANCH  19  20
ENDBRANCH   1  19
TORSDOF 17
