REMARK SMILES Cc1occc1C(=O)NN1C(=O)/C(=C\c2ccc(O[C@H](C)C(=O)NCCCCNC(=O)c3ccc(-c4c5nc(c(-c6cc(S(=O)(=O)[O-])ccc6F)c6ccc([nH]6)c(-c6cc(S(=O)(=O)[O-])ccc6F)c6nc(c(-c7cc(S(=O)(=O)[O-])ccc7F)c7ccc4[nH]7)C=C6)C=C5)cc3)cc2)SC1=S
REMARK SMILES IDX 25 1 24 2 22 3 23 4 20 6 21 7 19 8 18 9 15 10 16 11 96 12
REMARK SMILES IDX 17 13 95 14 14 15 10 16 11 17 98 18 12 19 13 20 97 21 99 22
REMARK SMILES IDX 9 23 7 24 8 25 6 27 1 28 2 29 3 30 4 31 5 32 26 33 27 34
REMARK SMILES IDX 28 35 29 36 30 37 31 39 32 40 33 41 94 42 34 43 93 44 35 45
REMARK SMILES IDX 36 46 37 47 87 48 38 49 92 50 86 51 88 52 39 53 91 54 85 55
REMARK SMILES IDX 84 56 40 58 72 59 52 60 71 61 53 62 56 63 70 64 89 65 54 66
REMARK SMILES IDX 55 67 69 69 90 70 57 71 41 72 42 73 50 74 43 75 49 76 51 77
REMARK SMILES IDX 48 78 44 79 45 80 46 81 47 82 73 83 74 84 82 85 75 86 81 87
REMARK SMILES IDX 83 88 80 89 76 90 77 91 78 92 79 93 58 94 59 95 67 96 60 97
REMARK SMILES IDX 66 98 68 99 65 100 61 101 62 102 63 103 64 104
REMARK H PARENT 24 5 9 26 29 38 88 57 56 68
REMARK Flexibility Score: inf
ROOT
ATOM      1  C   UNL     1       4.913  -2.327  -5.676  1.00  0.00     0.116 C 
ENDROOT
BRANCH   1   2
ATOM      2  N   UNL     1       5.483  -2.772  -6.926  1.00  0.00    -0.353 N 
ATOM      3  C   UNL     1       5.935  -3.992  -7.319  1.00  0.00     0.260 C 
ATOM      4  O   UNL     1       6.230  -4.102  -8.518  1.00  0.00    -0.271 OA
ATOM      5  H   UNL     1       5.557  -2.070  -7.612  1.00  0.00     0.163 HD
BRANCH   3   6
ATOM      6  C   UNL     1       6.209  -5.181  -6.354  1.00  0.00     0.258 C 
ATOM      7  C   UNL     1       7.637  -5.084  -5.821  1.00  0.00     0.064 C 
BRANCH   6   8
ATOM      8  O   UNL     1       5.200  -5.702  -5.499  1.00  0.00    -0.481 OA
BRANCH   8   9
ATOM      9  C   UNL     1       4.948  -5.303  -4.227  1.00  0.00     0.120 A 
ATOM     10  C   UNL     1       4.106  -4.450  -1.677  1.00  0.00    -0.024 A 
ATOM     11  C   UNL     1       5.448  -4.370  -2.054  1.00  0.00     0.012 A 
ATOM     12  C   UNL     1       3.177  -4.973  -2.578  1.00  0.00     0.012 A 
ATOM     13  C   UNL     1       5.867  -4.807  -3.312  1.00  0.00     0.047 A 
ATOM     14  C   UNL     1       3.605  -5.411  -3.837  1.00  0.00     0.047 A 
BRANCH  10  15
ATOM     15  C   UNL     1       3.780  -4.057  -0.306  1.00  0.00     0.029 C 
ATOM     16  N   UNL     1       3.196  -6.952   1.812  1.00  0.00    -0.198 N 
ATOM     17  C   UNL     1       3.484  -6.416   0.567  1.00  0.00     0.285 C 
ATOM     18  C   UNL     1       3.321  -6.140   2.918  1.00  0.00     0.168 C 
ATOM     19  O   UNL     1       3.642  -7.072  -0.448  1.00  0.00    -0.266 OA
ATOM     20  C   UNL     1       3.600  -4.934   0.691  1.00  0.00     0.082 C 
ATOM     21  S   UNL     1       3.522  -4.476   2.361  1.00  0.00    -0.052 SA
ATOM     22  S   UNL     1       3.321  -6.580   4.524  1.00  0.00    -0.050 S 
BRANCH  16  23
ATOM     23  N   UNL     1       3.038  -8.330   1.869  1.00  0.00    -0.254 N 
ATOM     24  C   UNL     1       1.858  -9.026   1.985  1.00  0.00     0.273 C 
ATOM     25  O   UNL     1       1.909 -10.240   1.769  1.00  0.00    -0.267 OA
ATOM     26  H   UNL     1       3.862  -8.867   1.820  1.00  0.00     0.192 HD
BRANCH  24  27
ATOM     27  C   UNL     1       0.621  -8.428   2.474  1.00  0.00     0.082 A 
ATOM     28  C   UNL     1       0.209  -6.009   1.417  1.00  0.00     0.088 C 
ATOM     29  C   UNL     1      -0.010  -7.210   2.247  1.00  0.00     0.113 A 
ATOM     30  O   UNL     1      -1.175  -7.144   2.960  1.00  0.00    -0.469 OA
ATOM     31  C   UNL     1      -1.346  -8.325   3.590  1.00  0.00     0.196 A 
ATOM     32  C   UNL     1      -0.295  -9.155   3.310  1.00  0.00     0.056 A 
ENDBRANCH  24  27
ENDBRANCH  16  23
ENDBRANCH  10  15
ENDBRANCH   8   9
ENDBRANCH   6   8
ENDBRANCH   3   6
ENDBRANCH   1   2
BRANCH   1  33
ATOM     33  C   UNL     1       5.907  -1.564  -4.803  1.00  0.00     0.023 C 
BRANCH  33  34
ATOM     34  C   UNL     1       5.928  -0.053  -5.051  1.00  0.00     0.023 C 
BRANCH  34  35
ATOM     35  C   UNL     1       4.596   0.666  -4.839  1.00  0.00     0.116 C 
BRANCH  35  36
ATOM     36  N   UNL     1       4.011   0.452  -3.524  1.00  0.00    -0.352 N 
ATOM     37  C   UNL     1       3.192   1.299  -2.811  1.00  0.00     0.251 C 
ATOM     38  H   UNL     1       4.227  -0.405  -3.090  1.00  0.00     0.163 HD
ATOM     39  O   UNL     1       2.856   1.009  -1.667  1.00  0.00    -0.269 OA
BRANCH  37  40
ATOM     40  C   UNL     1       2.772   2.579  -3.424  1.00  0.00     0.039 A 
ATOM     41  C   UNL     1       2.971   3.766  -2.716  1.00  0.00     0.014 A 
ATOM     42  C   UNL     1       2.248   2.611  -4.720  1.00  0.00     0.014 A 
ATOM     43  C   UNL     1       2.723   4.991  -3.341  1.00  0.00     0.010 A 
ATOM     44  C   UNL     1       2.069   3.833  -5.363  1.00  0.00     0.010 A 
ATOM     45  C   UNL     1       2.317   5.036  -4.685  1.00  0.00    -0.014 A 
BRANCH  45  46
ATOM     46  C   UNL     1       2.181   6.332  -5.402  1.00  0.00     0.031 A 
ATOM     47  C   UNL     1       0.843   6.780  -5.920  1.00  0.00     0.074 A 
ATOM     48  C   UNL     1       3.282   7.073  -5.643  1.00  0.00     0.049 A 
ATOM     49  N   UNL     1       0.537   7.856  -6.599  1.00  0.00    -0.248 NA
ATOM     50  C   UNL     1      -0.295   5.884  -5.670  1.00  0.00     0.031 C 
ATOM     51  C   UNL     1       4.646   6.712  -5.247  1.00  0.00     0.029 A 
ATOM     52  N   UNL     1       3.433   8.278  -6.282  1.00  0.00    -0.354 N 
ATOM     53  C   UNL     1      -0.826   7.765  -6.863  1.00  0.00     0.074 A 
ATOM     54  C   UNL     1      -1.269   6.494  -6.328  1.00  0.00     0.031 C 
ATOM     55  C   UNL     1       5.487   7.688  -5.626  1.00  0.00     0.029 A 
ATOM     56  C   UNL     1       4.734   8.725  -6.323  1.00  0.00     0.049 A 
ATOM     57  H   UNL     1       2.680   8.776  -6.675  1.00  0.00     0.167 HD
ATOM     58  C   UNL     1      -1.636   8.667  -7.471  1.00  0.00     0.034 A 
ATOM     59  C   UNL     1       5.261   9.841  -6.863  1.00  0.00     0.034 A 
ATOM     60  C   UNL     1      -1.180   9.934  -7.991  1.00  0.00     0.049 A 
ATOM     61  C   UNL     1       4.342  10.827  -7.537  1.00  0.00     0.074 A 
ATOM     62  C   UNL     1      -1.925  10.949  -8.566  1.00  0.00     0.029 A 
ATOM     63  N   UNL     1       0.143  10.357  -8.008  1.00  0.00    -0.354 N 
ATOM     64  N   UNL     1       3.043  10.757  -7.716  1.00  0.00    -0.248 NA
ATOM     65  C   UNL     1       4.960  12.048  -8.069  1.00  0.00     0.031 C 
ATOM     66  C   UNL     1      -1.047  11.955  -8.988  1.00  0.00     0.029 A 
ATOM     67  C   UNL     1       0.239  11.602  -8.612  1.00  0.00     0.049 A 
ATOM     68  H   UNL     1       0.903   9.847  -7.645  1.00  0.00     0.167 HD
ATOM     69  C   UNL     1       2.686  11.938  -8.360  1.00  0.00     0.074 A 
ATOM     70  C   UNL     1       3.903  12.709  -8.517  1.00  0.00     0.031 C 
ATOM     71  C   UNL     1       1.463  12.351  -8.781  1.00  0.00     0.034 A 
BRANCH  58  72
ATOM     72  C   UNL     1      -3.094   8.298  -7.619  1.00  0.00     0.023 A 
ATOM     73  C   UNL     1      -3.917   8.084  -6.500  1.00  0.00     0.031 A 
ATOM     74  C   UNL     1      -3.663   8.129  -8.894  1.00  0.00     0.131 A 
ATOM     75  C   UNL     1      -5.235   7.635  -6.673  1.00  0.00     0.055 A 
ATOM     76  C   UNL     1      -5.000   7.763  -9.061  1.00  0.00     0.041 A 
ATOM     77  F   UNL     1      -2.923   8.301 -10.001  1.00  0.00    -0.206 F 
ATOM     78  C   UNL     1      -5.790   7.497  -7.946  1.00  0.00     0.022 A 
BRANCH  75  79
ATOM     79  S   UNL     1      -6.162   7.092  -5.211  1.00  0.00     0.124 S 
ATOM     80  O   UNL     1      -5.307   6.023  -4.701  1.00  0.00    -0.237 OA
ATOM     81  O   UNL     1      -6.219   8.305  -4.405  1.00  0.00    -0.237 OA
ATOM     82  O   UNL     1      -7.440   6.647  -5.762  1.00  0.00    -0.744 OA
ENDBRANCH  75  79
ENDBRANCH  58  72
BRANCH  59  83
ATOM     83  C   UNL     1       6.729  10.094  -6.793  1.00  0.00     0.023 A 
ATOM     84  C   UNL     1       7.242  11.171  -6.053  1.00  0.00     0.031 A 
ATOM     85  C   UNL     1       7.637   9.284  -7.497  1.00  0.00     0.131 A 
ATOM     86  C   UNL     1       8.619  11.438  -6.070  1.00  0.00     0.055 A 
ATOM     87  C   UNL     1       9.012   9.524  -7.471  1.00  0.00     0.041 A 
ATOM     88  F   UNL     1       7.199   8.236  -8.213  1.00  0.00    -0.206 F 
ATOM     89  C   UNL     1       9.509  10.615  -6.764  1.00  0.00     0.022 A 
BRANCH  86  90
ATOM     90  S   UNL     1       9.225  12.927  -5.229  1.00  0.00     0.124 S 
ATOM     91  O   UNL     1       8.477  13.978  -5.910  1.00  0.00    -0.237 OA
ATOM     92  O   UNL     1       8.850  12.665  -3.844  1.00  0.00    -0.237 OA
ATOM     93  O   UNL     1      10.662  12.908  -5.498  1.00  0.00    -0.744 OA
ENDBRANCH  86  90
ENDBRANCH  59  83
BRANCH  71  94
ATOM     94  C   UNL     1       1.389  13.714  -9.425  1.00  0.00     0.023 A 
ATOM     95  C   UNL     1       2.005  13.981 -10.660  1.00  0.00     0.031 A 
ATOM     96  C   UNL     1       0.717  14.767  -8.779  1.00  0.00     0.131 A 
ATOM     97  C   UNL     1       1.990  15.284 -11.181  1.00  0.00     0.055 A 
ATOM     98  C   UNL     1       0.652  16.047  -9.333  1.00  0.00     0.041 A 
ATOM     99  F   UNL     1       0.113  14.569  -7.596  1.00  0.00    -0.206 F 
ATOM    100  C   UNL     1       1.304  16.314 -10.534  1.00  0.00     0.022 A 
BRANCH  97 101
ATOM    101  S   UNL     1       2.967  15.637 -12.669  1.00  0.00     0.124 S 
ATOM    102  O   UNL     1       4.309  15.248 -12.249  1.00  0.00    -0.237 OA
ATOM    103  O   UNL     1       2.337  14.778 -13.666  1.00  0.00    -0.237 OA
ATOM    104  O   UNL     1       2.772  17.071 -12.875  1.00  0.00    -0.744 OA
ENDBRANCH  97 101
ENDBRANCH  71  94
ENDBRANCH  45  46
ENDBRANCH  37  40
ENDBRANCH  35  36
ENDBRANCH  34  35
ENDBRANCH  33  34
ENDBRANCH   1  33
TORSDOF 19
