REMARK SMILES O=C1OC(c2ccc(Cl)cc2)=N/C1=C/Nc1ccc(O)c(C(=O)NCCCCNC(=O)c2ccc(-c3c4nc(c(-c5cc(S(=O)(=O)[O-])ccc5F)c5ccc([nH]5)c(-c5cc(S(=O)(=O)[O-])ccc5F)c5nc(c(-c6cc(S(=O)(=O)[O-])ccc6F)c6ccc3[nH]6)C=C5)C=C4)cc2)c1
REMARK SMILES IDX 26 1 25 2 24 3 22 4 23 5 21 7 16 8 17 9 95 10 18 11 19 12
REMARK SMILES IDX 15 13 14 15 1 16 2 17 3 18 13 19 4 20 12 21 5 22 6 23 11 24
REMARK SMILES IDX 7 25 10 26 8 27 9 28 20 29 27 31 28 32 29 33 30 34 31 36
REMARK SMILES IDX 32 37 33 38 94 39 34 40 93 41 35 42 36 43 37 44 87 45 38 46
REMARK SMILES IDX 92 47 86 48 88 49 39 50 91 51 85 52 84 53 40 55 72 56 52 57
REMARK SMILES IDX 71 58 53 59 56 60 70 61 89 62 54 63 55 64 69 66 90 67 57 68
REMARK SMILES IDX 41 69 42 70 50 71 43 72 49 73 51 74 48 75 44 76 45 77 46 78
REMARK SMILES IDX 47 79 73 80 74 81 82 82 75 83 81 84 83 85 80 86 76 87 77 88
REMARK SMILES IDX 78 89 79 90 58 91 59 92 67 93 60 94 66 95 68 96 65 97 61 98
REMARK SMILES IDX 62 99 63 100 64 101
REMARK H PARENT 24 6 15 14 20 30 29 35 88 54 56 65
REMARK Flexibility Score: inf
ROOT
ATOM      1  C   UNL     1      -2.804 -10.133  -0.040  1.00  0.00     0.023 C 
ENDROOT
BRANCH   1   2
ATOM      2  C   UNL     1      -2.086  -9.437  -1.200  1.00  0.00     0.116 C 
BRANCH   2   3
ATOM      3  N   UNL     1      -2.863  -8.303  -1.641  1.00  0.00    -0.352 N 
ATOM      4  C   UNL     1      -2.883  -6.993  -1.246  1.00  0.00     0.255 C 
ATOM      5  O   UNL     1      -3.773  -6.297  -1.746  1.00  0.00    -0.269 OA
ATOM      6  H   UNL     1      -3.500  -8.512  -2.363  1.00  0.00     0.163 HD
BRANCH   4   7
ATOM      7  C   UNL     1      -1.875  -6.328  -0.357  1.00  0.00     0.083 A 
ATOM      8  C   UNL     1      -0.839  -4.140   0.107  1.00  0.00     0.039 A 
ATOM      9  C   UNL     1       0.017  -4.750   1.022  1.00  0.00     0.030 A 
ATOM     10  C   UNL     1      -1.751  -4.941  -0.588  1.00  0.00     0.043 A 
ATOM     11  C   UNL     1      -0.115  -6.103   1.313  1.00  0.00     0.049 A 
ATOM     12  C   UNL     1      -1.077  -6.878   0.654  1.00  0.00     0.128 A 
BRANCH   8  13
ATOM     13  N   UNL     1      -0.772  -2.773  -0.181  1.00  0.00    -0.360 N 
ATOM     14  H   UNL     1      -1.614  -2.331  -0.437  1.00  0.00     0.166 HD
BRANCH  13  15
ATOM     15  C   UNL     1       0.348  -1.989  -0.140  1.00  0.00     0.119 C 
ATOM     16  O   UNL     1      -1.891   0.039   0.002  1.00  0.00    -0.244 OA
ATOM     17  C   UNL     1      -0.701   0.275  -0.009  1.00  0.00     0.365 C 
ATOM     18  O   UNL     1      -0.092   1.493   0.084  1.00  0.00    -0.402 OA
ATOM     19  C   UNL     1       0.452  -0.659  -0.113  1.00  0.00     0.168 C 
ATOM     20  C   UNL     1       1.234   1.251  -0.012  1.00  0.00     0.231 C 
ATOM     21  N   UNL     1       1.633   0.029  -0.134  1.00  0.00    -0.204 NA
BRANCH  20  22
ATOM     22  C   UNL     1       2.082   2.435  -0.028  1.00  0.00     0.037 A 
ATOM     23  C   UNL     1       1.986   3.391   0.986  1.00  0.00     0.015 A 
ATOM     24  C   UNL     1       3.021   2.567  -1.055  1.00  0.00     0.015 A 
ATOM     25  C   UNL     1       2.847   4.490   0.969  1.00  0.00     0.021 A 
ATOM     26  C   UNL     1       3.865   3.676  -1.078  1.00  0.00     0.021 A 
ATOM     27  C   UNL     1       3.778   4.630  -0.063  1.00  0.00     0.041 A 
ATOM     28  Cl  UNL     1       4.834   5.988  -0.081  1.00  0.00    -0.084 Cl
ENDBRANCH  20  22
ENDBRANCH  13  15
ENDBRANCH   8  13
BRANCH  12  29
ATOM     29  O   UNL     1      -1.225  -8.153   1.107  1.00  0.00    -0.507 OA
ATOM     30  H   UNL     1      -0.666  -8.477   1.786  1.00  0.00     0.293 HD
ENDBRANCH  12  29
ENDBRANCH   4   7
ENDBRANCH   2   3
ENDBRANCH   1   2
BRANCH   1  31
ATOM     31  C   UNL     1      -3.853 -11.154  -0.477  1.00  0.00     0.023 C 
BRANCH  31  32
ATOM     32  C   UNL     1      -3.288 -12.342  -1.243  1.00  0.00     0.116 C 
BRANCH  32  33
ATOM     33  N   UNL     1      -2.246 -13.047  -0.512  1.00  0.00    -0.352 N 
ATOM     34  C   UNL     1      -1.957 -14.389  -0.515  1.00  0.00     0.251 C 
ATOM     35  H   UNL     1      -1.672 -12.488   0.060  1.00  0.00     0.163 HD
ATOM     36  O   UNL     1      -1.124 -14.838   0.265  1.00  0.00    -0.269 OA
BRANCH  34  37
ATOM     37  C   UNL     1      -2.695 -15.281  -1.433  1.00  0.00     0.039 A 
ATOM     38  C   UNL     1      -3.237 -16.461  -0.924  1.00  0.00     0.014 A 
ATOM     39  C   UNL     1      -2.893 -14.928  -2.771  1.00  0.00     0.014 A 
ATOM     40  C   UNL     1      -4.031 -17.257  -1.748  1.00  0.00     0.010 A 
ATOM     41  C   UNL     1      -3.759 -15.676  -3.562  1.00  0.00     0.010 A 
ATOM     42  C   UNL     1      -4.335 -16.851  -3.059  1.00  0.00    -0.014 A 
BRANCH  42  43
ATOM     43  C   UNL     1      -5.268 -17.650  -3.895  1.00  0.00     0.031 A 
ATOM     44  C   UNL     1      -4.793 -18.296  -5.167  1.00  0.00     0.074 A 
ATOM     45  C   UNL     1      -6.552 -17.775  -3.505  1.00  0.00     0.049 A 
ATOM     46  N   UNL     1      -5.452 -19.063  -5.997  1.00  0.00    -0.248 NA
ATOM     47  C   UNL     1      -3.407 -18.024  -5.574  1.00  0.00     0.031 C 
ATOM     48  C   UNL     1      -7.139 -17.140  -2.322  1.00  0.00     0.029 A 
ATOM     49  N   UNL     1      -7.592 -18.485  -4.048  1.00  0.00    -0.354 N 
ATOM     50  C   UNL     1      -4.561 -19.368  -7.021  1.00  0.00     0.074 A 
ATOM     51  C   UNL     1      -3.342 -18.639  -6.745  1.00  0.00     0.031 C 
ATOM     52  C   UNL     1      -8.416 -17.534  -2.199  1.00  0.00     0.029 A 
ATOM     53  C   UNL     1      -8.756 -18.406  -3.318  1.00  0.00     0.049 A 
ATOM     54  H   UNL     1      -7.514 -19.002  -4.882  1.00  0.00     0.167 HD
ATOM     55  C   UNL     1      -4.735 -20.201  -8.077  1.00  0.00     0.034 A 
ATOM     56  C   UNL     1      -9.960 -18.974  -3.525  1.00  0.00     0.034 A 
ATOM     57  C   UNL     1      -5.963 -20.916  -8.336  1.00  0.00     0.049 A 
ATOM     58  C   UNL     1     -10.135 -19.876  -4.720  1.00  0.00     0.074 A 
ATOM     59  C   UNL     1      -6.234 -21.824  -9.345  1.00  0.00     0.029 A 
ATOM     60  N   UNL     1      -7.130 -20.794  -7.591  1.00  0.00    -0.354 N 
ATOM     61  N   UNL     1      -9.258 -20.214  -5.638  1.00  0.00    -0.248 NA
ATOM     62  C   UNL     1     -11.458 -20.486  -4.894  1.00  0.00     0.031 C 
ATOM     63  C   UNL     1      -7.584 -22.183  -9.261  1.00  0.00     0.029 A 
ATOM     64  C   UNL     1      -8.134 -21.577  -8.143  1.00  0.00     0.049 A 
ATOM     65  H   UNL     1      -7.230 -20.233  -6.788  1.00  0.00     0.167 HD
ATOM     66  C   UNL     1      -9.921 -21.097  -6.487  1.00  0.00     0.074 A 
ATOM     67  C   UNL     1     -11.255 -21.264  -5.946  1.00  0.00     0.031 C 
ATOM     68  C   UNL     1      -9.471 -21.713  -7.611  1.00  0.00     0.034 A 
BRANCH  55  69
ATOM     69  C   UNL     1      -3.579 -20.359  -9.038  1.00  0.00     0.023 A 
ATOM     70  C   UNL     1      -2.337 -20.874  -8.625  1.00  0.00     0.031 A 
ATOM     71  C   UNL     1      -3.711 -19.968 -10.383  1.00  0.00     0.131 A 
ATOM     72  C   UNL     1      -1.258 -20.913  -9.522  1.00  0.00     0.055 A 
ATOM     73  C   UNL     1      -2.659 -20.093 -11.293  1.00  0.00     0.041 A 
ATOM     74  F   UNL     1      -4.862 -19.446 -10.834  1.00  0.00    -0.206 F 
ATOM     75  C   UNL     1      -1.419 -20.553 -10.861  1.00  0.00     0.022 A 
BRANCH  72  76
ATOM     76  S   UNL     1       0.393 -21.294  -8.875  1.00  0.00     0.124 S 
ATOM     77  O   UNL     1       0.563 -20.251  -7.867  1.00  0.00    -0.237 OA
ATOM     78  O   UNL     1       0.229 -22.652  -8.370  1.00  0.00    -0.237 OA
ATOM     79  O   UNL     1       1.258 -21.164 -10.046  1.00  0.00    -0.744 OA
ENDBRANCH  72  76
ENDBRANCH  55  69
BRANCH  56  80
ATOM     80  C   UNL     1     -11.095 -18.709  -2.592  1.00  0.00     0.023 A 
ATOM     81  C   UNL     1     -11.690 -19.746  -1.857  1.00  0.00     0.031 A 
ATOM     82  C   UNL     1     -11.633 -17.416  -2.459  1.00  0.00     0.131 A 
ATOM     83  C   UNL     1     -12.820 -19.485  -1.065  1.00  0.00     0.055 A 
ATOM     84  C   UNL     1     -12.717 -17.149  -1.621  1.00  0.00     0.041 A 
ATOM     85  F   UNL     1     -11.103 -16.386  -3.138  1.00  0.00    -0.206 F 
ATOM     86  C   UNL     1     -13.327 -18.191  -0.929  1.00  0.00     0.022 A 
BRANCH  83  87
ATOM     87  S   UNL     1     -13.681 -20.881  -0.291  1.00  0.00     0.124 S 
ATOM     88  O   UNL     1     -14.012 -21.704  -1.449  1.00  0.00    -0.237 OA
ATOM     89  O   UNL     1     -12.657 -21.412   0.602  1.00  0.00    -0.237 OA
ATOM     90  O   UNL     1     -14.820 -20.252   0.374  1.00  0.00    -0.744 OA
ENDBRANCH  83  87
ENDBRANCH  56  80
BRANCH  68  91
ATOM     91  C   UNL     1     -10.437 -22.644  -8.309  1.00  0.00     0.023 A 
ATOM     92  C   UNL     1     -11.648 -22.178  -8.852  1.00  0.00     0.031 A 
ATOM     93  C   UNL     1     -10.168 -24.022  -8.386  1.00  0.00     0.131 A 
ATOM     94  C   UNL     1     -12.582 -23.091  -9.363  1.00  0.00     0.055 A 
ATOM     95  C   UNL     1     -11.066 -24.915  -8.973  1.00  0.00     0.041 A 
ATOM     96  F   UNL     1      -9.031 -24.528  -7.882  1.00  0.00    -0.206 F 
ATOM     97  C   UNL     1     -12.291 -24.454  -9.446  1.00  0.00     0.022 A 
BRANCH  94  98
ATOM     98  S   UNL     1     -14.243 -22.489  -9.776  1.00  0.00     0.124 S 
ATOM     99  O   UNL     1     -14.665 -21.880  -8.518  1.00  0.00    -0.237 OA
ATOM    100  O   UNL     1     -13.976 -21.564 -10.873  1.00  0.00    -0.237 OA
ATOM    101  O   UNL     1     -14.964 -23.704 -10.150  1.00  0.00    -0.744 OA
ENDBRANCH  94  98
ENDBRANCH  68  91
ENDBRANCH  42  43
ENDBRANCH  34  37
ENDBRANCH  32  33
ENDBRANCH  31  32
ENDBRANCH   1  31
TORSDOF 18
