REMARK SMILES Cc1cc(C)c2c(c1)C=C(C(=O)NCCCCNC(=O)c1ccc(-c3c4nc(c(-c5cc(S(=O)(=O)[O-])ccc5F)c5ccc([nH]5)c(-c5cc(S(=O)(=O)[O-])ccc5F)c5nc(c(-c6cc(S(=O)(=O)[O-])ccc6F)c6ccc3[nH]6)C=C5)C=C4)cc1)[C@@H](C(F)(F)F)O2
REMARK SMILES IDX 16 1 15 2 14 3 13 4 11 5 12 6 10 8 1 9 2 10 3 11 8 12 4 13
REMARK SMILES IDX 7 14 5 15 6 16 9 17 89 18 84 19 85 20 86 21 87 22 88 23
REMARK SMILES IDX 17 24 18 25 19 26 20 28 21 29 22 30 83 31 23 32 82 33 24 34
REMARK SMILES IDX 25 35 26 36 76 37 27 38 81 39 75 40 77 41 28 42 80 43 74 44
REMARK SMILES IDX 73 45 29 47 61 48 41 49 60 50 42 51 45 52 59 53 78 54 43 55
REMARK SMILES IDX 44 56 58 58 79 59 46 60 30 61 31 62 39 63 32 64 38 65 40 66
REMARK SMILES IDX 37 67 33 68 34 69 35 70 36 71 62 72 63 73 71 74 64 75 70 76
REMARK SMILES IDX 72 77 69 78 65 79 66 80 67 81 68 82 47 83 48 84 56 85 49 86
REMARK SMILES IDX 55 87 57 88 54 89 50 90 51 91 52 92 53 93
REMARK H PARENT 13 7 18 27 77 46 45 57
REMARK Flexibility Score: inf
ROOT
ATOM      1  C   UNL     1       1.825  10.751   2.733  1.00  0.00     0.023 C 
ENDROOT
BRANCH   1   2
ATOM      2  C   UNL     1       1.180   9.367   2.838  1.00  0.00     0.023 C 
BRANCH   2   3
ATOM      3  C   UNL     1       0.413   8.944   1.589  1.00  0.00     0.116 C 
BRANCH   3   4
ATOM      4  N   UNL     1       1.279   8.317   0.608  1.00  0.00    -0.352 N 
ATOM      5  C   UNL     1       1.534   7.060   0.176  1.00  0.00     0.251 C 
ATOM      6  O   UNL     1       2.389   6.970  -0.711  1.00  0.00    -0.270 OA
ATOM      7  H   UNL     1       1.827   8.981   0.130  1.00  0.00     0.163 HD
BRANCH   5   8
ATOM      8  C   UNL     1       0.871   5.822   0.685  1.00  0.00     0.067 C 
ATOM      9  C   UNL     1       1.022  -0.310  -0.095  1.00  0.00     0.044 C 
ATOM     10  C   UNL     1       0.612   0.986   0.541  1.00  0.00    -0.050 A 
ATOM     11  C   UNL     1      -0.343   1.010   1.566  1.00  0.00     0.010 A 
ATOM     12  C   UNL     1       1.167   2.192   0.091  1.00  0.00     0.015 A 
ATOM     13  C   UNL     1      -0.732   2.220   2.156  1.00  0.00    -0.008 A 
ATOM     14  C   UNL     1       0.785   3.407   0.668  1.00  0.00     0.018 A 
ATOM     15  C   UNL     1      -1.748   2.236   3.262  1.00  0.00     0.048 C 
ATOM     16  C   UNL     1      -0.162   3.413   1.693  1.00  0.00     0.130 A 
ATOM     17  C   UNL     1       1.391   4.662   0.241  1.00  0.00     0.025 C 
ATOM     18  O   UNL     1      -0.537   4.568   2.322  1.00  0.00    -0.475 OA
ATOM     19  C   UNL     1      -0.324   5.808   1.595  1.00  0.00     0.314 C 
BRANCH  19  20
ATOM     20  C   UNL     1      -1.627   6.196   0.872  1.00  0.00     0.429 C 
ATOM     21  F   UNL     1      -2.602   6.476   1.774  1.00  0.00    -0.167 F 
ATOM     22  F   UNL     1      -1.488   7.301   0.104  1.00  0.00    -0.167 F 
ATOM     23  F   UNL     1      -2.092   5.213   0.068  1.00  0.00    -0.167 F 
ENDBRANCH  19  20
ENDBRANCH   5   8
ENDBRANCH   3   4
ENDBRANCH   2   3
ENDBRANCH   1   2
BRANCH   1  24
ATOM     24  C   UNL     1       0.875  11.891   2.368  1.00  0.00     0.116 C 
BRANCH  24  25
ATOM     25  N   UNL     1      -0.324  11.933   3.192  1.00  0.00    -0.352 N 
ATOM     26  C   UNL     1      -1.008  13.034   3.645  1.00  0.00     0.251 C 
ATOM     27  H   UNL     1      -0.692  11.059   3.459  1.00  0.00     0.163 HD
ATOM     28  O   UNL     1      -1.950  12.901   4.420  1.00  0.00    -0.269 OA
BRANCH  26  29
ATOM     29  C   UNL     1      -0.566  14.374   3.214  1.00  0.00     0.039 A 
ATOM     30  C   UNL     1      -0.298  15.340   4.186  1.00  0.00     0.014 A 
ATOM     31  C   UNL     1      -0.373  14.652   1.858  1.00  0.00     0.014 A 
ATOM     32  C   UNL     1       0.227  16.573   3.799  1.00  0.00     0.010 A 
ATOM     33  C   UNL     1       0.205  15.858   1.480  1.00  0.00     0.010 A 
ATOM     34  C   UNL     1       0.509  16.829   2.448  1.00  0.00    -0.014 A 
BRANCH  34  35
ATOM     35  C   UNL     1       1.087  18.124   2.018  1.00  0.00     0.031 A 
ATOM     36  C   UNL     1       0.262  19.058   1.180  1.00  0.00     0.074 A 
ATOM     37  C   UNL     1       2.356  18.435   2.344  1.00  0.00     0.049 A 
ATOM     38  N   UNL     1       0.606  20.186   0.616  1.00  0.00    -0.248 NA
ATOM     39  C   UNL     1      -1.129  18.653   0.920  1.00  0.00     0.031 C 
ATOM     40  C   UNL     1       3.256  17.599   3.141  1.00  0.00     0.029 A 
ATOM     41  N   UNL     1       3.109  19.542   2.045  1.00  0.00    -0.354 N 
ATOM     42  C   UNL     1      -0.520  20.621  -0.073  1.00  0.00     0.074 A 
ATOM     43  C   UNL     1      -1.539  19.608   0.099  1.00  0.00     0.031 C 
ATOM     44  C   UNL     1       4.428  18.238   3.294  1.00  0.00     0.029 A 
ATOM     45  C   UNL     1       4.377  19.506   2.573  1.00  0.00     0.049 A 
ATOM     46  H   UNL     1       2.772  20.291   1.502  1.00  0.00     0.167 HD
ATOM     47  C   UNL     1      -0.695  21.772  -0.765  1.00  0.00     0.034 A 
ATOM     48  C   UNL     1       5.386  20.394   2.479  1.00  0.00     0.034 A 
ATOM     49  C   UNL     1       0.320  22.784  -0.910  1.00  0.00     0.049 A 
ATOM     50  C   UNL     1       5.178  21.651   1.678  1.00  0.00     0.074 A 
ATOM     51  C   UNL     1       0.238  24.000  -1.564  1.00  0.00     0.029 A 
ATOM     52  N   UNL     1       1.603  22.697  -0.388  1.00  0.00    -0.354 N 
ATOM     53  N   UNL     1       4.111  22.042   1.020  1.00  0.00    -0.248 NA
ATOM     54  C   UNL     1       6.311  22.581   1.601  1.00  0.00     0.031 C 
ATOM     55  C   UNL     1       1.485  24.629  -1.476  1.00  0.00     0.029 A 
ATOM     56  C   UNL     1       2.329  23.829  -0.721  1.00  0.00     0.049 A 
ATOM     57  H   UNL     1       1.947  21.942   0.142  1.00  0.00     0.167 HD
ATOM     58  C   UNL     1       4.444  23.270   0.457  1.00  0.00     0.074 A 
ATOM     59  C   UNL     1       5.803  23.561   0.866  1.00  0.00     0.031 C 
ATOM     60  C   UNL     1       3.693  24.084  -0.328  1.00  0.00     0.034 A 
BRANCH  47  61
ATOM     61  C   UNL     1      -2.033  21.980  -1.426  1.00  0.00     0.023 A 
ATOM     62  C   UNL     1      -3.202  22.162  -0.667  1.00  0.00     0.031 A 
ATOM     63  C   UNL     1      -2.145  21.968  -2.826  1.00  0.00     0.131 A 
ATOM     64  C   UNL     1      -4.443  22.264  -1.312  1.00  0.00     0.055 A 
ATOM     65  C   UNL     1      -3.375  22.139  -3.464  1.00  0.00     0.041 A 
ATOM     66  F   UNL     1      -1.063  21.776  -3.597  1.00  0.00    -0.206 F 
ATOM     67  C   UNL     1      -4.535  22.277  -2.706  1.00  0.00     0.022 A 
BRANCH  64  68
ATOM     68  S   UNL     1      -5.948  22.277  -0.302  1.00  0.00     0.124 S 
ATOM     69  O   UNL     1      -5.926  20.934   0.273  1.00  0.00    -0.237 OA
ATOM     70  O   UNL     1      -5.698  23.373   0.627  1.00  0.00    -0.237 OA
ATOM     71  O   UNL     1      -7.011  22.516  -1.275  1.00  0.00    -0.744 OA
ENDBRANCH  64  68
ENDBRANCH  47  61
BRANCH  48  72
ATOM     72  C   UNL     1       6.685  20.125   3.151  1.00  0.00     0.023 A 
ATOM     73  C   UNL     1       7.082  20.873   4.270  1.00  0.00     0.031 A 
ATOM     74  C   UNL     1       7.552  19.125   2.678  1.00  0.00     0.131 A 
ATOM     75  C   UNL     1       8.328  20.626   4.867  1.00  0.00     0.055 A 
ATOM     76  C   UNL     1       8.775  18.860   3.296  1.00  0.00     0.041 A 
ATOM     77  F   UNL     1       7.209  18.378   1.617  1.00  0.00    -0.206 F 
ATOM     78  C   UNL     1       9.172  19.618   4.394  1.00  0.00     0.022 A 
BRANCH  75  79
ATOM     79  S   UNL     1       8.844  21.658   6.267  1.00  0.00     0.124 S 
ATOM     80  O   UNL     1       8.978  22.966   5.637  1.00  0.00    -0.237 OA
ATOM     81  O   UNL     1       7.725  21.501   7.191  1.00  0.00    -0.237 OA
ATOM     82  O   UNL     1      10.095  21.041   6.701  1.00  0.00    -0.744 OA
ENDBRANCH  75  79
ENDBRANCH  48  72
BRANCH  60  83
ATOM     83  C   UNL     1       4.332  25.367  -0.786  1.00  0.00     0.023 A 
ATOM     84  C   UNL     1       5.354  25.368  -1.749  1.00  0.00     0.031 A 
ATOM     85  C   UNL     1       3.905  26.600  -0.263  1.00  0.00     0.131 A 
ATOM     86  C   UNL     1       5.944  26.580  -2.136  1.00  0.00     0.055 A 
ATOM     87  C   UNL     1       4.464  27.806  -0.686  1.00  0.00     0.041 A 
ATOM     88  F   UNL     1       2.931  26.649   0.659  1.00  0.00    -0.206 F 
ATOM     89  C   UNL     1       5.495  27.800  -1.622  1.00  0.00     0.022 A 
BRANCH  86  90
ATOM     90  S   UNL     1       7.345  26.538  -3.286  1.00  0.00     0.124 S 
ATOM     91  O   UNL     1       8.348  25.810  -2.515  1.00  0.00    -0.237 OA
ATOM     92  O   UNL     1       6.789  25.832  -4.436  1.00  0.00    -0.237 OA
ATOM     93  O   UNL     1       7.644  27.951  -3.514  1.00  0.00    -0.744 OA
ENDBRANCH  86  90
ENDBRANCH  60  83
ENDBRANCH  34  35
ENDBRANCH  26  29
ENDBRANCH  24  25
ENDBRANCH   1  24
TORSDOF 15
