REMARK SMILES Cc1nsc(N[C@H](C)c2cccs2)c1C(=O)NCCCCNC(=O)c1ccc(-c2c3nc(c(-c4cc(S(=O)(=O)[O-])ccc4F)c4ccc([nH]4)c(-c4cc(S(=O)(=O)[O-])ccc4F)c4nc(c(-c5cc(S(=O)(=O)[O-])ccc5F)c5ccc2[nH]5)C=C4)C=C3)cc1
REMARK SMILES IDX 19 1 18 2 17 3 15 4 16 5 14 7 1 8 2 9 3 10 4 11 5 12 6 13
REMARK SMILES IDX 7 15 8 16 9 17 10 18 13 19 11 20 12 21 20 22 21 23 22 24
REMARK SMILES IDX 23 25 24 27 25 28 26 29 87 30 27 31 86 32 28 33 29 34 30 35
REMARK SMILES IDX 80 36 31 37 85 38 79 39 81 40 32 41 84 42 78 43 77 44 33 46
REMARK SMILES IDX 65 47 45 48 64 49 46 50 49 51 63 52 82 53 47 54 48 55 62 57
REMARK SMILES IDX 83 58 50 59 34 60 35 61 43 62 36 63 42 64 44 65 41 66 37 67
REMARK SMILES IDX 38 68 39 69 40 70 66 71 67 72 75 73 68 74 74 75 76 76 73 77
REMARK SMILES IDX 69 78 70 79 71 80 72 81 51 82 52 83 60 84 53 85 59 86 61 87
REMARK SMILES IDX 58 88 54 89 55 90 56 91 57 92
REMARK H PARENT 17 6 6 14 22 26 81 45 49 56
REMARK Flexibility Score: inf
ROOT
ATOM      1  C   UNL     1       4.457   1.481  10.777  1.00  0.00     0.023 C 
ENDROOT
BRANCH   1   2
ATOM      2  C   UNL     1       3.016   1.131  11.166  1.00  0.00     0.116 C 
BRANCH   2   3
ATOM      3  N   UNL     1       2.082   1.547  10.149  1.00  0.00    -0.352 N 
ATOM      4  C   UNL     1       1.471   0.989   9.061  1.00  0.00     0.256 C 
ATOM      5  O   UNL     1       0.735   1.809   8.489  1.00  0.00    -0.269 OA
ATOM      6  H   UNL     1       1.812   2.486  10.271  1.00  0.00     0.163 HD
BRANCH   4   7
ATOM      7  C   UNL     1       1.593  -0.396   8.546  1.00  0.00     0.097 A 
ATOM      8  C   UNL     1       3.588  -1.692   9.801  1.00  0.00     0.069 C 
ATOM      9  C   UNL     1       2.470  -1.532   8.836  1.00  0.00     0.066 A 
ATOM     10  N   UNL     1       2.273  -2.636   8.112  1.00  0.00    -0.195 NA
ATOM     11  S   UNL     1       1.051  -2.407   7.064  1.00  0.00    -0.018 S 
ATOM     12  C   UNL     1       0.711  -0.792   7.510  1.00  0.00     0.123 A 
BRANCH  12  13
ATOM     13  N   UNL     1      -0.264  -0.031   6.939  1.00  0.00    -0.368 N 
ATOM     14  H   UNL     1      -0.360   0.886   7.283  1.00  0.00     0.162 HD
BRANCH  13  15
ATOM     15  C   UNL     1      -1.178  -0.419   5.879  1.00  0.00     0.117 C 
ATOM     16  C   UNL     1      -0.777   0.307   4.589  1.00  0.00     0.037 C 
BRANCH  15  17
ATOM     17  C   UNL     1      -2.627  -0.179   6.244  1.00  0.00     0.027 A 
ATOM     18  C   UNL     1      -3.600  -1.137   6.471  1.00  0.00     0.017 A 
ATOM     19  S   UNL     1      -3.249   1.403   6.477  1.00  0.00    -0.147 S 
ATOM     20  C   UNL     1      -4.857  -0.568   6.821  1.00  0.00     0.012 A 
ATOM     21  C   UNL     1      -4.805   0.807   6.859  1.00  0.00     0.065 A 
ENDBRANCH  15  17
ENDBRANCH  13  15
ENDBRANCH  12  13
ENDBRANCH   4   7
ENDBRANCH   2   3
ENDBRANCH   1   2
BRANCH   1  22
ATOM     22  C   UNL     1       4.895   2.914  11.113  1.00  0.00     0.023 C 
BRANCH  22  23
ATOM     23  C   UNL     1       5.046   3.200  12.605  1.00  0.00     0.116 C 
BRANCH  23  24
ATOM     24  N   UNL     1       6.066   2.370  13.242  1.00  0.00    -0.352 N 
ATOM     25  C   UNL     1       6.268   2.169  14.597  1.00  0.00     0.251 C 
ATOM     26  H   UNL     1       6.682   1.899  12.636  1.00  0.00     0.163 HD
ATOM     27  O   UNL     1       7.355   1.819  15.021  1.00  0.00    -0.269 OA
BRANCH  25  28
ATOM     28  C   UNL     1       5.125   2.370  15.507  1.00  0.00     0.039 A 
ATOM     29  C   UNL     1       5.254   3.103  16.690  1.00  0.00     0.014 A 
ATOM     30  C   UNL     1       3.895   1.844  15.118  1.00  0.00     0.014 A 
ATOM     31  C   UNL     1       4.109   3.383  17.436  1.00  0.00     0.010 A 
ATOM     32  C   UNL     1       2.756   2.212  15.793  1.00  0.00     0.010 A 
ATOM     33  C   UNL     1       2.856   2.954  16.970  1.00  0.00    -0.014 A 
BRANCH  33  34
ATOM     34  C   UNL     1       1.612   3.439  17.580  1.00  0.00     0.031 A 
ATOM     35  C   UNL     1       1.479   4.926  17.564  1.00  0.00     0.074 A 
ATOM     36  C   UNL     1       0.569   2.615  17.841  1.00  0.00     0.049 A 
ATOM     37  N   UNL     1       1.415   5.740  18.566  1.00  0.00    -0.248 NA
ATOM     38  C   UNL     1       1.610   5.616  16.265  1.00  0.00     0.031 C 
ATOM     39  C   UNL     1       0.508   1.168  17.590  1.00  0.00     0.029 A 
ATOM     40  N   UNL     1      -0.704   2.894  18.246  1.00  0.00    -0.354 N 
ATOM     41  C   UNL     1       1.211   7.006  18.016  1.00  0.00     0.074 A 
ATOM     42  C   UNL     1       1.599   6.895  16.639  1.00  0.00     0.031 C 
ATOM     43  C   UNL     1      -0.777   0.754  17.603  1.00  0.00     0.029 A 
ATOM     44  C   UNL     1      -1.619   1.858  18.028  1.00  0.00     0.049 A 
ATOM     45  H   UNL     1      -0.957   3.752  18.657  1.00  0.00     0.167 HD
ATOM     46  C   UNL     1       0.448   7.935  18.661  1.00  0.00     0.034 A 
ATOM     47  C   UNL     1      -2.975   1.894  18.159  1.00  0.00     0.034 A 
ATOM     48  C   UNL     1       0.280   7.564  20.051  1.00  0.00     0.049 A 
ATOM     49  C   UNL     1      -3.281   3.049  19.032  1.00  0.00     0.074 A 
ATOM     50  C   UNL     1       1.125   7.354  21.122  1.00  0.00     0.029 A 
ATOM     51  N   UNL     1      -0.916   6.975  20.392  1.00  0.00    -0.354 N 
ATOM     52  N   UNL     1      -2.908   3.121  20.280  1.00  0.00    -0.248 NA
ATOM     53  C   UNL     1      -3.600   4.322  18.408  1.00  0.00     0.031 C 
ATOM     54  C   UNL     1       0.541   6.273  21.849  1.00  0.00     0.029 A 
ATOM     55  C   UNL     1      -0.672   5.933  21.247  1.00  0.00     0.049 A 
ATOM     56  H   UNL     1      -1.804   7.257  20.074  1.00  0.00     0.167 HD
ATOM     57  C   UNL     1      -2.510   4.436  20.455  1.00  0.00     0.074 A 
ATOM     58  C   UNL     1      -3.089   5.154  19.321  1.00  0.00     0.031 C 
ATOM     59  C   UNL     1      -1.512   4.750  21.335  1.00  0.00     0.034 A 
BRANCH  46  60
ATOM     60  C   UNL     1      -0.529   8.888  17.973  1.00  0.00     0.023 A 
ATOM     61  C   UNL     1      -1.379   9.633  18.817  1.00  0.00     0.031 A 
ATOM     62  C   UNL     1      -0.894   8.884  16.608  1.00  0.00     0.131 A 
ATOM     63  C   UNL     1      -2.591  10.169  18.345  1.00  0.00     0.055 A 
ATOM     64  C   UNL     1      -2.072   9.471  16.131  1.00  0.00     0.041 A 
ATOM     65  F   UNL     1      -0.187   8.263  15.660  1.00  0.00    -0.206 F 
ATOM     66  C   UNL     1      -2.951  10.081  17.006  1.00  0.00     0.022 A 
BRANCH  63  67
ATOM     67  S   UNL     1      -3.777  10.802  19.558  1.00  0.00     0.124 S 
ATOM     68  O   UNL     1      -3.902   9.661  20.458  1.00  0.00    -0.237 OA
ATOM     69  O   UNL     1      -3.073  11.967  20.082  1.00  0.00    -0.237 OA
ATOM     70  O   UNL     1      -4.959  11.096  18.751  1.00  0.00    -0.744 OA
ENDBRANCH  63  67
ENDBRANCH  46  60
BRANCH  47  71
ATOM     71  C   UNL     1      -4.006   1.194  17.337  1.00  0.00     0.023 A 
ATOM     72  C   UNL     1      -5.332   0.962  17.774  1.00  0.00     0.031 A 
ATOM     73  C   UNL     1      -3.748   0.963  15.967  1.00  0.00     0.131 A 
ATOM     74  C   UNL     1      -6.324   0.526  16.859  1.00  0.00     0.055 A 
ATOM     75  C   UNL     1      -4.730   0.536  15.068  1.00  0.00     0.041 A 
ATOM     76  F   UNL     1      -2.544   1.229  15.435  1.00  0.00    -0.206 F 
ATOM     77  C   UNL     1      -6.026   0.325  15.509  1.00  0.00     0.022 A 
BRANCH  74  78
ATOM     78  S   UNL     1      -8.055   0.283  17.391  1.00  0.00     0.124 S 
ATOM     79  O   UNL     1      -7.943  -0.836  18.320  1.00  0.00    -0.237 OA
ATOM     80  O   UNL     1      -8.391   1.578  17.970  1.00  0.00    -0.237 OA
ATOM     81  O   UNL     1      -8.757  -0.027  16.144  1.00  0.00    -0.744 OA
ENDBRANCH  74  78
ENDBRANCH  47  71
BRANCH  59  82
ATOM     82  C   UNL     1      -1.141   3.719  22.383  1.00  0.00     0.023 A 
ATOM     83  C   UNL     1      -0.655   2.416  22.123  1.00  0.00     0.031 A 
ATOM     84  C   UNL     1      -1.207   4.134  23.725  1.00  0.00     0.131 A 
ATOM     85  C   UNL     1      -0.269   1.583  23.195  1.00  0.00     0.055 A 
ATOM     86  C   UNL     1      -0.803   3.318  24.778  1.00  0.00     0.041 A 
ATOM     87  F   UNL     1      -1.640   5.368  24.034  1.00  0.00    -0.206 F 
ATOM     88  C   UNL     1      -0.338   2.035  24.517  1.00  0.00     0.022 A 
BRANCH  85  89
ATOM     89  S   UNL     1       0.309  -0.121  22.897  1.00  0.00     0.124 S 
ATOM     90  O   UNL     1      -0.685  -0.666  21.981  1.00  0.00    -0.237 OA
ATOM     91  O   UNL     1       1.643   0.089  22.342  1.00  0.00    -0.237 OA
ATOM     92  O   UNL     1       0.298  -0.722  24.233  1.00  0.00    -0.744 OA
ENDBRANCH  85  89
ENDBRANCH  59  82
ENDBRANCH  33  34
ENDBRANCH  25  28
ENDBRANCH  23  24
ENDBRANCH  22  23
ENDBRANCH   1  22
TORSDOF 17
