REMARK SMILES C[C@@H](C(=O)NCCCCNC(=O)c1ccc(-c2c3nc(c(-c4cc(S(=O)(=O)[O-])ccc4F)c4ccc([nH]4)c(-c4cc(S(=O)(=O)[O-])ccc4F)c4nc(c(-c5cc(S(=O)(=O)[O-])ccc5F)c5ccc2[nH]5)C=C4)C=C3)cc1)[C@@H](C)C(=O)c1cccc(Cl)c1
REMARK SMILES IDX 7 1 6 2 5 3 3 4 4 5 2 7 1 8 76 9 77 10 78 11 79 12 80 13
REMARK SMILES IDX 81 14 86 15 82 16 84 17 83 18 85 19 8 20 9 21 10 22 11 23
REMARK SMILES IDX 12 25 13 26 14 27 75 28 15 29 74 30 16 31 17 32 18 33 68 34
REMARK SMILES IDX 19 35 73 36 67 37 69 38 20 39 72 40 66 41 65 42 21 44 53 45
REMARK SMILES IDX 33 46 52 47 34 48 37 49 51 50 70 51 35 52 36 53 50 55 71 56
REMARK SMILES IDX 38 57 22 58 23 59 31 60 24 61 30 62 32 63 29 64 25 65 26 66
REMARK SMILES IDX 27 67 28 68 54 69 55 70 63 71 56 72 62 73 64 74 61 75 57 76
REMARK SMILES IDX 58 77 59 78 60 79 39 80 40 81 48 82 41 83 47 84 49 85 46 86
REMARK SMILES IDX 42 87 43 88 44 89 45 90
REMARK H PARENT 5 6 10 24 69 43 37 54
REMARK Flexibility Score: inf
ROOT
ATOM      1  C   UNL     1       4.190  -0.883   0.910  1.00  0.00     0.023 C 
ENDROOT
BRANCH   1   2
ATOM      2  C   UNL     1       3.354  -1.700  -0.075  1.00  0.00     0.116 C 
BRANCH   2   3
ATOM      3  N   UNL     1       2.283  -2.405   0.603  1.00  0.00    -0.356 N 
ATOM      4  C   UNL     1       0.948  -2.142   0.650  1.00  0.00     0.223 C 
ATOM      5  O   UNL     1       0.260  -2.811   1.418  1.00  0.00    -0.275 OA
ATOM      6  H   UNL     1       2.566  -3.200   1.110  1.00  0.00     0.163 HD
BRANCH   4   7
ATOM      7  C   UNL     1       0.351  -1.056  -0.245  1.00  0.00     0.086 C 
ATOM      8  C   UNL     1       0.632   0.319   0.374  1.00  0.00     0.019 C 
BRANCH   7   9
ATOM      9  C   UNL     1      -1.166  -1.277  -0.451  1.00  0.00     0.070 C 
ATOM     10  C   UNL     1      -1.782  -0.280  -1.439  1.00  0.00     0.017 C 
BRANCH   9  11
ATOM     11  C   UNL     1      -1.622  -2.691  -0.853  1.00  0.00     0.166 C 
ATOM     12  O   UNL     1      -2.489  -3.282  -0.206  1.00  0.00    -0.294 OA
BRANCH  11  13
ATOM     13  C   UNL     1      -1.232  -3.285  -2.162  1.00  0.00     0.019 A 
ATOM     14  C   UNL     1      -2.265  -3.800  -2.961  1.00  0.00     0.012 A 
ATOM     15  C   UNL     1       0.086  -3.366  -2.608  1.00  0.00     0.032 A 
ATOM     16  C   UNL     1      -1.987  -4.350  -4.213  1.00  0.00     0.002 A 
ATOM     17  C   UNL     1       0.355  -3.906  -3.867  1.00  0.00     0.041 A 
ATOM     18  C   UNL     1      -0.673  -4.392  -4.673  1.00  0.00     0.020 A 
ATOM     19  Cl  UNL     1       1.981  -3.968  -4.431  1.00  0.00    -0.084 Cl
ENDBRANCH  11  13
ENDBRANCH   9  11
ENDBRANCH   7   9
ENDBRANCH   4   7
ENDBRANCH   2   3
ENDBRANCH   1   2
BRANCH   1  20
ATOM     20  C   UNL     1       4.974  -1.710   1.932  1.00  0.00     0.023 C 
BRANCH  20  21
ATOM     21  C   UNL     1       5.940  -2.732   1.342  1.00  0.00     0.116 C 
BRANCH  21  22
ATOM     22  N   UNL     1       6.904  -2.132   0.437  1.00  0.00    -0.352 N 
ATOM     23  C   UNL     1       8.258  -2.328   0.343  1.00  0.00     0.251 C 
ATOM     24  H   UNL     1       6.530  -1.487  -0.205  1.00  0.00     0.163 HD
ATOM     25  O   UNL     1       8.915  -1.590  -0.393  1.00  0.00    -0.269 OA
BRANCH  23  26
ATOM     26  C   UNL     1       8.930  -3.383   1.134  1.00  0.00     0.039 A 
ATOM     27  C   UNL     1      10.174  -3.096   1.703  1.00  0.00     0.014 A 
ATOM     28  C   UNL     1       8.362  -4.649   1.309  1.00  0.00     0.014 A 
ATOM     29  C   UNL     1      10.816  -4.054   2.488  1.00  0.00     0.010 A 
ATOM     30  C   UNL     1       8.966  -5.575   2.159  1.00  0.00     0.010 A 
ATOM     31  C   UNL     1      10.202  -5.290   2.756  1.00  0.00    -0.014 A 
BRANCH  31  32
ATOM     32  C   UNL     1      10.850  -6.266   3.673  1.00  0.00     0.031 A 
ATOM     33  C   UNL     1      11.304  -7.611   3.172  1.00  0.00     0.074 A 
ATOM     34  C   UNL     1      11.021  -5.934   4.969  1.00  0.00     0.049 A 
ATOM     35  N   UNL     1      11.916  -8.569   3.821  1.00  0.00    -0.248 NA
ATOM     36  C   UNL     1      11.012  -7.931   1.767  1.00  0.00     0.031 C 
ATOM     37  C   UNL     1      10.568  -4.684   5.585  1.00  0.00     0.029 A 
ATOM     38  N   UNL     1      11.626  -6.607   6.000  1.00  0.00    -0.354 N 
ATOM     39  C   UNL     1      12.093  -9.599   2.903  1.00  0.00     0.074 A 
ATOM     40  C   UNL     1      11.453  -9.177   1.675  1.00  0.00     0.031 C 
ATOM     41  C   UNL     1      10.945  -4.664   6.872  1.00  0.00     0.029 A 
ATOM     42  C   UNL     1      11.628  -5.913   7.189  1.00  0.00     0.049 A 
ATOM     43  H   UNL     1      12.022  -7.503   5.899  1.00  0.00     0.167 HD
ATOM     44  C   UNL     1      12.755 -10.773   3.059  1.00  0.00     0.034 A 
ATOM     45  C   UNL     1      12.121  -6.245   8.399  1.00  0.00     0.034 A 
ATOM     46  C   UNL     1      13.382 -11.184   4.293  1.00  0.00     0.049 A 
ATOM     47  C   UNL     1      12.838  -7.563   8.550  1.00  0.00     0.074 A 
ATOM     48  C   UNL     1      14.100 -12.339   4.554  1.00  0.00     0.029 A 
ATOM     49  N   UNL     1      13.360 -10.459   5.479  1.00  0.00    -0.354 N 
ATOM     50  N   UNL     1      13.048  -8.499   7.651  1.00  0.00    -0.248 NA
ATOM     51  C   UNL     1      13.403  -7.859   9.871  1.00  0.00     0.031 C 
ATOM     52  C   UNL     1      14.453 -12.344   5.908  1.00  0.00     0.029 A 
ATOM     53  C   UNL     1      14.029 -11.154   6.477  1.00  0.00     0.049 A 
ATOM     54  H   UNL     1      12.933  -9.580   5.594  1.00  0.00     0.167 HD
ATOM     55  C   UNL     1      13.789  -9.484   8.298  1.00  0.00     0.074 A 
ATOM     56  C   UNL     1      14.022  -9.007   9.646  1.00  0.00     0.031 C 
ATOM     57  C   UNL     1      14.233 -10.678   7.826  1.00  0.00     0.034 A 
BRANCH  44  58
ATOM     58  C   UNL     1      12.824 -11.697   1.865  1.00  0.00     0.023 A 
ATOM     59  C   UNL     1      13.475 -11.316   0.677  1.00  0.00     0.031 A 
ATOM     60  C   UNL     1      12.228 -12.970   1.905  1.00  0.00     0.131 A 
ATOM     61  C   UNL     1      13.457 -12.166  -0.439  1.00  0.00     0.055 A 
ATOM     62  C   UNL     1      12.285 -13.846   0.818  1.00  0.00     0.041 A 
ATOM     63  F   UNL     1      11.574 -13.384   3.002  1.00  0.00    -0.206 F 
ATOM     64  C   UNL     1      12.891 -13.440  -0.368  1.00  0.00     0.022 A 
BRANCH  61  65
ATOM     65  S   UNL     1      14.068 -11.530  -2.023  1.00  0.00     0.124 S 
ATOM     66  O   UNL     1      13.187 -10.384  -2.240  1.00  0.00    -0.237 OA
ATOM     67  O   UNL     1      15.460 -11.218  -1.723  1.00  0.00    -0.237 OA
ATOM     68  O   UNL     1      13.863 -12.647  -2.943  1.00  0.00    -0.744 OA
ENDBRANCH  61  65
ENDBRANCH  44  58
BRANCH  45  69
ATOM     69  C   UNL     1      11.948  -5.331   9.566  1.00  0.00     0.023 A 
ATOM     70  C   UNL     1      13.053  -4.776  10.231  1.00  0.00     0.031 A 
ATOM     71  C   UNL     1      10.666  -5.046  10.072  1.00  0.00     0.131 A 
ATOM     72  C   UNL     1      12.861  -4.017  11.396  1.00  0.00     0.055 A 
ATOM     73  C   UNL     1      10.477  -4.237  11.193  1.00  0.00     0.041 A 
ATOM     74  F   UNL     1       9.573  -5.547   9.474  1.00  0.00    -0.206 F 
ATOM     75  C   UNL     1      11.580  -3.731  11.873  1.00  0.00     0.022 A 
BRANCH  72  76
ATOM     76  S   UNL     1      14.317  -3.499  12.346  1.00  0.00     0.124 S 
ATOM     77  O   UNL     1      14.976  -4.775  12.600  1.00  0.00    -0.237 OA
ATOM     78  O   UNL     1      14.988  -2.606  11.408  1.00  0.00    -0.237 OA
ATOM     79  O   UNL     1      13.742  -2.847  13.521  1.00  0.00    -0.744 OA
ENDBRANCH  72  76
ENDBRANCH  45  69
BRANCH  57  80
ATOM     80  C   UNL     1      15.037 -11.529   8.782  1.00  0.00     0.023 A 
ATOM     81  C   UNL     1      14.476 -12.031   9.971  1.00  0.00     0.031 A 
ATOM     82  C   UNL     1      16.394 -11.796   8.531  1.00  0.00     0.131 A 
ATOM     83  C   UNL     1      15.289 -12.692  10.903  1.00  0.00     0.055 A 
ATOM     84  C   UNL     1      17.179 -12.525   9.427  1.00  0.00     0.041 A 
ATOM     85  F   UNL     1      16.986 -11.342   7.415  1.00  0.00    -0.206 F 
ATOM     86  C   UNL     1      16.632 -12.959  10.631  1.00  0.00     0.022 A 
BRANCH  83  87
ATOM     87  S   UNL     1      14.600 -13.069  12.539  1.00  0.00     0.124 S 
ATOM     88  O   UNL     1      14.158 -11.754  12.991  1.00  0.00    -0.237 OA
ATOM     89  O   UNL     1      13.542 -14.022  12.219  1.00  0.00    -0.237 OA
ATOM     90  O   UNL     1      15.736 -13.627  13.269  1.00  0.00    -0.744 OA
ENDBRANCH  83  87
ENDBRANCH  57  80
ENDBRANCH  31  32
ENDBRANCH  23  26
ENDBRANCH  21  22
ENDBRANCH  20  21
ENDBRANCH   1  20
TORSDOF 17
