REMARK SMILES COc1ccc(C(=O)N[C@H](C(=O)NCCCCNC(=O)c2ccc(-c3c4nc(c(-c5cc(S(=O)(=O)[O-])ccc5F)c5ccc([nH]5)c(-c5cc(S(=O)(=O)[O-])ccc5F)c5nc(c(-c6cc(S(=O)(=O)[O-])ccc6F)c6ccc3[nH]6)C=C5)C=C4)cc2)C2=C(C)N=N[C@H]2C)c(F)c1F
REMARK SMILES IDX 15 1 14 2 13 3 11 4 12 5 10 7 9 8 7 9 8 10 6 12 3 13 4 14
REMARK SMILES IDX 93 15 5 16 91 17 94 18 92 19 2 20 1 21 84 22 85 23 89 24
REMARK SMILES IDX 86 25 87 26 88 27 90 28 16 29 17 30 18 31 19 32 20 34 21 35
REMARK SMILES IDX 22 36 83 37 23 38 82 39 24 40 25 41 26 42 76 43 27 44 81 45
REMARK SMILES IDX 75 46 77 47 28 48 80 49 74 50 73 51 29 53 61 54 41 55 60 56
REMARK SMILES IDX 42 57 45 58 59 59 78 60 43 61 44 62 58 64 79 65 46 66 30 67
REMARK SMILES IDX 31 68 39 69 32 70 38 71 40 72 37 73 33 74 34 75 35 76 36 77
REMARK SMILES IDX 62 78 63 79 71 80 64 81 70 82 72 83 69 84 65 85 66 86 67 87
REMARK SMILES IDX 68 88 47 89 48 90 56 91 49 92 55 93 57 94 54 95 50 96 51 97
REMARK SMILES IDX 52 98 53 99
REMARK H PARENT 13 6 9 11 18 33 77 52 45 63
REMARK Flexibility Score: inf
ROOT
ATOM      1  C   UNL     1       2.554   4.708   7.036  1.00  0.00     0.023 C 
ENDROOT
BRANCH   1   2
ATOM      2  C   UNL     1       2.003   3.392   6.493  1.00  0.00     0.116 C 
BRANCH   2   3
ATOM      3  N   UNL     1       1.782   2.445   7.574  1.00  0.00    -0.354 N 
ATOM      4  C   UNL     1       0.604   1.915   8.033  1.00  0.00     0.247 C 
ATOM      5  O   UNL     1       0.621   1.230   9.059  1.00  0.00    -0.272 OA
ATOM      6  H   UNL     1       2.593   2.140   8.042  1.00  0.00     0.163 HD
BRANCH   4   7
ATOM      7  C   UNL     1      -0.700   2.143   7.228  1.00  0.00     0.202 C 
BRANCH   7   8
ATOM      8  N   UNL     1      -1.447   0.889   7.235  1.00  0.00    -0.336 N 
ATOM      9  C   UNL     1      -2.380   0.313   6.422  1.00  0.00     0.255 C 
ATOM     10  O   UNL     1      -3.031  -0.611   6.923  1.00  0.00    -0.269 OA
ATOM     11  H   UNL     1      -1.226   0.324   8.010  1.00  0.00     0.165 HD
BRANCH   9  12
ATOM     12  C   UNL     1      -2.602   0.608   4.976  1.00  0.00     0.078 A 
ATOM     13  C   UNL     1      -2.939   0.743   2.172  1.00  0.00     0.157 A 
ATOM     14  C   UNL     1      -3.403  -0.367   2.861  1.00  0.00     0.050 A 
ATOM     15  C   UNL     1      -2.350   1.790   2.872  1.00  0.00     0.201 A 
ATOM     16  C   UNL     1      -3.234  -0.429   4.248  1.00  0.00     0.021 A 
ATOM     17  C   UNL     1      -2.220   1.741   4.261  1.00  0.00     0.175 A 
ATOM     18  F   UNL     1      -1.908   2.870   2.209  1.00  0.00    -0.200 F 
ATOM     19  F   UNL     1      -1.766   2.849   4.853  1.00  0.00    -0.203 F 
BRANCH  13  20
ATOM     20  O   UNL     1      -2.990   0.765   0.807  1.00  0.00    -0.494 OA
ATOM     21  C   UNL     1      -4.236   1.296   0.360  1.00  0.00     0.278 C 
ENDBRANCH  13  20
ENDBRANCH   9  12
ENDBRANCH   7   8
BRANCH   7  22
ATOM     22  C   UNL     1      -1.579   3.220   7.798  1.00  0.00     0.011 C 
ATOM     23  C   UNL     1      -2.613   3.214   8.655  1.00  0.00     0.064 C 
ATOM     24  C   UNL     1      -1.502   4.648   7.348  1.00  0.00     0.156 C 
ATOM     25  C   UNL     1      -3.139   2.148   9.553  1.00  0.00     0.069 C 
ATOM     26  N   UNL     1      -3.312   4.399   8.637  1.00  0.00    -0.160 NA
ATOM     27  N   UNL     1      -2.808   5.190   7.799  1.00  0.00    -0.181 NA
ATOM     28  C   UNL     1      -0.443   5.464   8.088  1.00  0.00     0.040 C 
ENDBRANCH   7  22
ENDBRANCH   4   7
ENDBRANCH   2   3
ENDBRANCH   1   2
BRANCH   1  29
ATOM     29  C   UNL     1       4.061   4.747   7.193  1.00  0.00     0.023 C 
BRANCH  29  30
ATOM     30  C   UNL     1       4.808   4.733   5.874  1.00  0.00     0.116 C 
BRANCH  30  31
ATOM     31  N   UNL     1       4.503   5.883   5.030  1.00  0.00    -0.352 N 
ATOM     32  C   UNL     1       5.352   6.851   4.536  1.00  0.00     0.251 C 
ATOM     33  H   UNL     1       3.556   5.983   4.778  1.00  0.00     0.163 HD
ATOM     34  O   UNL     1       4.905   7.836   3.970  1.00  0.00    -0.269 OA
BRANCH  32  35
ATOM     35  C   UNL     1       6.806   6.684   4.744  1.00  0.00     0.039 A 
ATOM     36  C   UNL     1       7.564   7.754   5.221  1.00  0.00     0.014 A 
ATOM     37  C   UNL     1       7.389   5.432   4.552  1.00  0.00     0.014 A 
ATOM     38  C   UNL     1       8.894   7.537   5.588  1.00  0.00     0.010 A 
ATOM     39  C   UNL     1       8.656   5.188   5.054  1.00  0.00     0.010 A 
ATOM     40  C   UNL     1       9.436   6.242   5.552  1.00  0.00    -0.014 A 
BRANCH  40  41
ATOM     41  C   UNL     1      10.836   5.954   5.958  1.00  0.00     0.031 A 
ATOM     42  C   UNL     1      11.764   5.308   4.959  1.00  0.00     0.074 A 
ATOM     43  C   UNL     1      11.242   6.178   7.223  1.00  0.00     0.049 A 
ATOM     44  N   UNL     1      12.961   4.813   5.134  1.00  0.00    -0.248 NA
ATOM     45  C   UNL     1      11.240   5.137   3.594  1.00  0.00     0.031 C 
ATOM     46  C   UNL     1      10.416   6.740   8.296  1.00  0.00     0.029 A 
ATOM     47  N   UNL     1      12.453   5.951   7.827  1.00  0.00    -0.354 N 
ATOM     48  C   UNL     1      13.307   4.234   3.917  1.00  0.00     0.074 A 
ATOM     49  C   UNL     1      12.159   4.358   3.049  1.00  0.00     0.031 C 
ATOM     50  C   UNL     1      11.157   6.850   9.411  1.00  0.00     0.029 A 
ATOM     51  C   UNL     1      12.493   6.324   9.150  1.00  0.00     0.049 A 
ATOM     52  H   UNL     1      13.223   5.557   7.355  1.00  0.00     0.167 HD
ATOM     53  C   UNL     1      14.489   3.686   3.542  1.00  0.00     0.034 A 
ATOM     54  C   UNL     1      13.495   6.246  10.048  1.00  0.00     0.034 A 
ATOM     55  C   UNL     1      15.641   3.633   4.407  1.00  0.00     0.049 A 
ATOM     56  C   UNL     1      14.819   5.676   9.600  1.00  0.00     0.074 A 
ATOM     57  C   UNL     1      16.913   3.169   4.125  1.00  0.00     0.029 A 
ATOM     58  N   UNL     1      15.660   4.076   5.724  1.00  0.00    -0.354 N 
ATOM     59  N   UNL     1      15.148   5.170   8.432  1.00  0.00    -0.248 NA
ATOM     60  C   UNL     1      15.909   5.681  10.583  1.00  0.00     0.031 C 
ATOM     61  C   UNL     1      17.686   3.284   5.285  1.00  0.00     0.029 A 
ATOM     62  C   UNL     1      16.918   3.885   6.271  1.00  0.00     0.049 A 
ATOM     63  H   UNL     1      14.892   4.467   6.199  1.00  0.00     0.167 HD
ATOM     64  C   UNL     1      16.495   4.832   8.531  1.00  0.00     0.074 A 
ATOM     65  C   UNL     1      16.916   5.203   9.867  1.00  0.00     0.031 C 
ATOM     66  C   UNL     1      17.313   4.270   7.605  1.00  0.00     0.034 A 
BRANCH  53  67
ATOM     67  C   UNL     1      14.576   3.107   2.149  1.00  0.00     0.023 A 
ATOM     68  C   UNL     1      14.363   3.898   1.006  1.00  0.00     0.031 A 
ATOM     69  C   UNL     1      14.813   1.734   1.959  1.00  0.00     0.131 A 
ATOM     70  C   UNL     1      14.285   3.298  -0.260  1.00  0.00     0.055 A 
ATOM     71  C   UNL     1      14.833   1.159   0.686  1.00  0.00     0.041 A 
ATOM     72  F   UNL     1      15.004   0.921   3.010  1.00  0.00    -0.206 F 
ATOM     73  C   UNL     1      14.547   1.938  -0.432  1.00  0.00     0.022 A 
BRANCH  70  74
ATOM     74  S   UNL     1      13.664   4.289  -1.647  1.00  0.00     0.124 S 
ATOM     75  O   UNL     1      12.327   4.645  -1.177  1.00  0.00    -0.237 OA
ATOM     76  O   UNL     1      14.629   5.380  -1.713  1.00  0.00    -0.237 OA
ATOM     77  O   UNL     1      13.694   3.358  -2.773  1.00  0.00    -0.744 OA
ENDBRANCH  70  74
ENDBRANCH  53  67
BRANCH  54  78
ATOM     78  C   UNL     1      13.306   6.731  11.445  1.00  0.00     0.023 A 
ATOM     79  C   UNL     1      14.029   7.833  11.930  1.00  0.00     0.031 A 
ATOM     80  C   UNL     1      12.429   6.080  12.331  1.00  0.00     0.131 A 
ATOM     81  C   UNL     1      13.903   8.221  13.273  1.00  0.00     0.055 A 
ATOM     82  C   UNL     1      12.268   6.501  13.653  1.00  0.00     0.041 A 
ATOM     83  F   UNL     1      11.704   5.028  11.918  1.00  0.00    -0.206 F 
ATOM     84  C   UNL     1      13.018   7.569  14.135  1.00  0.00     0.022 A 
BRANCH  81  85
ATOM     85  S   UNL     1      14.978   9.540  13.901  1.00  0.00     0.124 S 
ATOM     86  O   UNL     1      16.304   9.004  13.616  1.00  0.00    -0.237 OA
ATOM     87  O   UNL     1      14.560  10.681  13.094  1.00  0.00    -0.237 OA
ATOM     88  O   UNL     1      14.628   9.619  15.318  1.00  0.00    -0.744 OA
ENDBRANCH  81  85
ENDBRANCH  54  78
BRANCH  66  89
ATOM     89  C   UNL     1      18.758   4.085   7.991  1.00  0.00     0.023 A 
ATOM     90  C   UNL     1      19.148   3.168   8.982  1.00  0.00     0.031 A 
ATOM     91  C   UNL     1      19.757   4.842   7.355  1.00  0.00     0.131 A 
ATOM     92  C   UNL     1      20.498   3.071   9.348  1.00  0.00     0.055 A 
ATOM     93  C   UNL     1      21.106   4.698   7.681  1.00  0.00     0.041 A 
ATOM     94  F   UNL     1      19.438   5.731   6.401  1.00  0.00    -0.206 F 
ATOM     95  C   UNL     1      21.481   3.818   8.692  1.00  0.00     0.022 A 
BRANCH  92  96
ATOM     96  S   UNL     1      20.943   2.021  10.757  1.00  0.00     0.124 S 
ATOM     97  O   UNL     1      20.144   2.601  11.832  1.00  0.00    -0.237 OA
ATOM     98  O   UNL     1      20.532   0.697  10.301  1.00  0.00    -0.237 OA
ATOM     99  O   UNL     1      22.387   2.212  10.884  1.00  0.00    -0.744 OA
ENDBRANCH  92  96
ENDBRANCH  66  89
ENDBRANCH  40  41
ENDBRANCH  32  35
ENDBRANCH  30  31
ENDBRANCH  29  30
ENDBRANCH   1  29
TORSDOF 18
