REMARK SMILES C[C@@H]1[C@@H](C(=O)NCCCCNC(=O)c2ccc(-c3c4nc(c(-c5cc(S(=O)(=O)[O-])ccc5F)c5ccc([nH]5)c(-c5cc(S(=O)(=O)[O-])ccc5F)c5nc(c(-c6cc(S(=O)(=O)[O-])ccc6F)c6ccc3[nH]6)C=C5)C=C4)cc2)CCN1C(=O)[C@@H]1CCCN(C(N)=O)C1
REMARK SMILES IDX 8 1 7 2 6 3 4 4 5 5 3 7 1 8 2 9 79 10 77 11 78 12 80 13
REMARK SMILES IDX 81 14 82 15 83 16 90 17 84 18 86 19 85 20 87 21 88 22 89 23
REMARK SMILES IDX 9 26 10 27 11 28 12 29 13 31 14 32 15 33 76 34 16 35 75 36
REMARK SMILES IDX 17 37 18 38 19 39 69 40 20 41 74 42 68 43 70 44 21 45 73 46
REMARK SMILES IDX 67 47 66 48 22 50 54 51 34 52 53 53 35 54 38 55 52 56 71 57
REMARK SMILES IDX 36 58 37 59 51 61 72 62 39 63 23 64 24 65 32 66 25 67 31 68
REMARK SMILES IDX 33 69 30 70 26 71 27 72 28 73 29 74 55 75 56 76 64 77 57 78
REMARK SMILES IDX 63 79 65 80 62 81 58 82 59 83 60 84 61 85 40 86 41 87 49 88
REMARK SMILES IDX 42 89 48 90 50 91 47 92 43 93 44 94 45 95 46 96
REMARK H PARENT 6 6 88 24 88 25 11 30 70 49 38 60
REMARK Flexibility Score: inf
ROOT
ATOM      1  C   UNL     1      -3.009   4.548  -1.011  1.00  0.00     0.023 C 
ENDROOT
BRANCH   1   2
ATOM      2  C   UNL     1      -2.789   3.108  -0.564  1.00  0.00     0.116 C 
BRANCH   2   3
ATOM      3  N   UNL     1      -2.140   2.288  -1.571  1.00  0.00    -0.356 N 
ATOM      4  C   UNL     1      -1.253   1.264  -1.394  1.00  0.00     0.225 C 
ATOM      5  O   UNL     1      -0.976   0.556  -2.359  1.00  0.00    -0.275 OA
ATOM      6  H   UNL     1      -2.370   2.498  -2.506  1.00  0.00     0.163 HD
BRANCH   4   7
ATOM      7  C   UNL     1      -0.682   1.038  -0.004  1.00  0.00     0.102 C 
ATOM      8  C   UNL     1       1.336   0.312   1.278  1.00  0.00     0.032 C 
ATOM      9  C   UNL     1       0.478   0.020   0.036  1.00  0.00     0.094 C 
ATOM     10  N   UNL     1      -0.189  -1.283   0.148  1.00  0.00    -0.339 N 
ATOM     11  C   UNL     1      -1.728   0.374   0.896  1.00  0.00     0.037 C 
ATOM     12  C   UNL     1      -1.574  -1.102   0.568  1.00  0.00     0.120 C 
BRANCH  10  13
ATOM     13  C   UNL     1       0.200  -2.547  -0.228  1.00  0.00     0.227 C 
ATOM     14  O   UNL     1      -0.597  -3.486  -0.064  1.00  0.00    -0.275 OA
BRANCH  13  15
ATOM     15  C   UNL     1       1.543  -2.898  -0.885  1.00  0.00     0.098 C 
ATOM     16  C   UNL     1       2.833  -2.656  -0.106  1.00  0.00     0.017 C 
ATOM     17  C   UNL     1       1.625  -2.535  -2.363  1.00  0.00     0.134 C 
ATOM     18  C   UNL     1       3.649  -1.439  -0.532  1.00  0.00     0.022 C 
ATOM     19  N   UNL     1       2.316  -1.277  -2.618  1.00  0.00    -0.324 N 
ATOM     20  C   UNL     1       3.639  -1.149  -2.026  1.00  0.00     0.121 C 
BRANCH  19  21
ATOM     21  C   UNL     1       1.950  -0.370  -3.591  1.00  0.00     0.314 C 
ATOM     22  N   UNL     1       0.750  -0.567  -4.178  1.00  0.00    -0.351 N 
ATOM     23  O   UNL     1       2.648   0.574  -3.948  1.00  0.00    -0.249 OA
ATOM     24  H   UNL     1       0.183  -1.321  -3.899  1.00  0.00     0.161 HD
ATOM     25  H   UNL     1       0.443   0.044  -4.887  1.00  0.00     0.161 HD
ENDBRANCH  19  21
ENDBRANCH  13  15
ENDBRANCH  10  13
ENDBRANCH   4   7
ENDBRANCH   2   3
ENDBRANCH   1   2
BRANCH   1  26
ATOM     26  C   UNL     1      -3.804   4.721  -2.305  1.00  0.00     0.023 C 
BRANCH  26  27
ATOM     27  C   UNL     1      -5.079   3.893  -2.412  1.00  0.00     0.116 C 
BRANCH  27  28
ATOM     28  N   UNL     1      -6.002   4.124  -1.312  1.00  0.00    -0.352 N 
ATOM     29  C   UNL     1      -7.323   4.496  -1.351  1.00  0.00     0.251 C 
ATOM     30  H   UNL     1      -5.625   3.996  -0.412  1.00  0.00     0.163 HD
ATOM     31  O   UNL     1      -7.908   4.772  -0.306  1.00  0.00    -0.269 OA
BRANCH  29  32
ATOM     32  C   UNL     1      -8.015   4.600  -2.651  1.00  0.00     0.039 A 
ATOM     33  C   UNL     1      -8.752   5.752  -2.933  1.00  0.00     0.014 A 
ATOM     34  C   UNL     1      -7.904   3.580  -3.601  1.00  0.00     0.014 A 
ATOM     35  C   UNL     1      -9.322   5.911  -4.197  1.00  0.00     0.010 A 
ATOM     36  C   UNL     1      -8.401   3.779  -4.885  1.00  0.00     0.010 A 
ATOM     37  C   UNL     1      -9.121   4.944  -5.195  1.00  0.00    -0.014 A 
BRANCH  37  38
ATOM     38  C   UNL     1      -9.679   5.118  -6.561  1.00  0.00     0.031 A 
ATOM     39  C   UNL     1     -10.705   4.145  -7.077  1.00  0.00     0.074 A 
ATOM     40  C   UNL     1      -9.224   6.109  -7.353  1.00  0.00     0.049 A 
ATOM     41  N   UNL     1     -11.256   4.069  -8.260  1.00  0.00    -0.248 NA
ATOM     42  C   UNL     1     -11.139   3.095  -6.143  1.00  0.00     0.031 C 
ATOM     43  C   UNL     1      -8.202   7.089  -6.978  1.00  0.00     0.029 A 
ATOM     44  N   UNL     1      -9.556   6.454  -8.639  1.00  0.00    -0.354 N 
ATOM     45  C   UNL     1     -12.089   2.956  -8.219  1.00  0.00     0.074 A 
ATOM     46  C   UNL     1     -11.911   2.349  -6.917  1.00  0.00     0.031 C 
ATOM     47  C   UNL     1      -8.013   7.940  -7.999  1.00  0.00     0.029 A 
ATOM     48  C   UNL     1      -8.863   7.542  -9.117  1.00  0.00     0.049 A 
ATOM     49  H   UNL     1     -10.227   5.967  -9.170  1.00  0.00     0.167 HD
ATOM     50  C   UNL     1     -12.944   2.498  -9.167  1.00  0.00     0.034 A 
ATOM     51  C   UNL     1      -8.903   8.144 -10.322  1.00  0.00     0.034 A 
ATOM     52  C   UNL     1     -13.117   3.127 -10.455  1.00  0.00     0.049 A 
ATOM     53  C   UNL     1      -9.848   7.610 -11.369  1.00  0.00     0.074 A 
ATOM     54  C   UNL     1     -13.983   2.778 -11.476  1.00  0.00     0.029 A 
ATOM     55  N   UNL     1     -12.404   4.234 -10.900  1.00  0.00    -0.354 N 
ATOM     56  N   UNL     1     -10.662   6.581 -11.301  1.00  0.00    -0.248 NA
ATOM     57  C   UNL     1      -9.890   8.326 -12.650  1.00  0.00     0.031 C 
ATOM     58  C   UNL     1     -13.749   3.632 -12.560  1.00  0.00     0.029 A 
ATOM     59  C   UNL     1     -12.794   4.565 -12.189  1.00  0.00     0.049 A 
ATOM     60  H   UNL     1     -11.722   4.713 -10.377  1.00  0.00     0.167 HD
ATOM     61  C   UNL     1     -11.339   6.552 -12.517  1.00  0.00     0.074 A 
ATOM     62  C   UNL     1     -10.845   7.671 -13.292  1.00  0.00     0.031 C 
ATOM     63  C   UNL     1     -12.289   5.684 -12.951  1.00  0.00     0.034 A 
BRANCH  50  64
ATOM     64  C   UNL     1     -13.729   1.248  -8.845  1.00  0.00     0.023 A 
ATOM     65  C   UNL     1     -14.628   1.200  -7.764  1.00  0.00     0.031 A 
ATOM     66  C   UNL     1     -13.545   0.074  -9.595  1.00  0.00     0.131 A 
ATOM     67  C   UNL     1     -15.234  -0.014  -7.407  1.00  0.00     0.055 A 
ATOM     68  C   UNL     1     -14.222  -1.109  -9.291  1.00  0.00     0.041 A 
ATOM     69  F   UNL     1     -12.685   0.049 -10.626  1.00  0.00    -0.206 F 
ATOM     70  C   UNL     1     -15.058  -1.163  -8.180  1.00  0.00     0.022 A 
BRANCH  67  71
ATOM     71  S   UNL     1     -16.118  -0.107  -5.826  1.00  0.00     0.124 S 
ATOM     72  O   UNL     1     -15.067   0.263  -4.880  1.00  0.00    -0.237 OA
ATOM     73  O   UNL     1     -17.188   0.867  -6.005  1.00  0.00    -0.237 OA
ATOM     74  O   UNL     1     -16.547  -1.502  -5.755  1.00  0.00    -0.744 OA
ENDBRANCH  67  71
ENDBRANCH  50  64
BRANCH  51  75
ATOM     75  C   UNL     1      -8.030   9.319 -10.611  1.00  0.00     0.023 A 
ATOM     76  C   UNL     1      -8.582  10.584 -10.864  1.00  0.00     0.031 A 
ATOM     77  C   UNL     1      -6.632   9.185 -10.676  1.00  0.00     0.131 A 
ATOM     78  C   UNL     1      -7.747  11.655 -11.217  1.00  0.00     0.055 A 
ATOM     79  C   UNL     1      -5.801  10.266 -10.976  1.00  0.00     0.041 A 
ATOM     80  F   UNL     1      -6.051   7.998 -10.436  1.00  0.00    -0.206 F 
ATOM     81  C   UNL     1      -6.359  11.508 -11.262  1.00  0.00     0.022 A 
BRANCH  78  82
ATOM     82  S   UNL     1      -8.509  13.230 -11.697  1.00  0.00     0.124 S 
ATOM     83  O   UNL     1      -9.343  12.825 -12.822  1.00  0.00    -0.237 OA
ATOM     84  O   UNL     1      -9.215  13.608 -10.477  1.00  0.00    -0.237 OA
ATOM     85  O   UNL     1      -7.364  14.072 -12.038  1.00  0.00    -0.744 OA
ENDBRANCH  78  82
ENDBRANCH  51  75
BRANCH  63  86
ATOM     86  C   UNL     1     -12.896   5.953 -14.307  1.00  0.00     0.023 A 
ATOM     87  C   UNL     1     -12.147   5.849 -15.492  1.00  0.00     0.031 A 
ATOM     88  C   UNL     1     -14.247   6.330 -14.409  1.00  0.00     0.131 A 
ATOM     89  C   UNL     1     -12.738   6.178 -16.722  1.00  0.00     0.055 A 
ATOM     90  C   UNL     1     -14.846   6.594 -15.641  1.00  0.00     0.041 A 
ATOM     91  F   UNL     1     -15.009   6.447 -13.309  1.00  0.00    -0.206 F 
ATOM     92  C   UNL     1     -14.087   6.532 -16.805  1.00  0.00     0.022 A 
BRANCH  89  93
ATOM     93  S   UNL     1     -11.693   6.230 -18.204  1.00  0.00     0.124 S 
ATOM     94  O   UNL     1     -10.674   7.204 -17.822  1.00  0.00    -0.237 OA
ATOM     95  O   UNL     1     -11.242   4.847 -18.317  1.00  0.00    -0.237 OA
ATOM     96  O   UNL     1     -12.609   6.671 -19.254  1.00  0.00    -0.744 OA
ENDBRANCH  89  93
ENDBRANCH  63  86
ENDBRANCH  37  38
ENDBRANCH  29  32
ENDBRANCH  27  28
ENDBRANCH  26  27
ENDBRANCH   1  26
TORSDOF 17
