REMARK SMILES CN(CCCC(=O)NCCCCNC(=O)c1ccc(-c2c3nc(c(-c4cc(S(=O)(=O)[O-])ccc4F)c4ccc([nH]4)c(-c4cc(S(=O)(=O)[O-])ccc4F)c4nc(c(-c5cc(S(=O)(=O)[O-])ccc5F)c5ccc2[nH]5)C=C4)C=C3)cc1)C(=O)c1ccc(Br)o1
REMARK SMILES IDX 9 1 8 2 6 3 7 4 5 6 4 7 3 8 2 9 1 10 79 11 80 12 81 13 82 14
REMARK SMILES IDX 86 15 83 16 84 17 85 18 10 19 11 20 12 21 13 22 14 23 15 25
REMARK SMILES IDX 16 26 17 27 78 28 18 29 77 30 19 31 20 32 21 33 71 34 22 35
REMARK SMILES IDX 76 36 70 37 72 38 23 39 75 40 69 41 68 42 24 44 56 45 36 46
REMARK SMILES IDX 55 47 37 48 40 49 54 50 73 51 38 52 39 53 53 55 74 56 41 57
REMARK SMILES IDX 25 58 26 59 34 60 27 61 33 62 35 63 32 64 28 65 29 66 30 67
REMARK SMILES IDX 31 68 57 69 58 70 66 71 59 72 65 73 67 74 64 75 60 76 61 77
REMARK SMILES IDX 62 78 63 79 42 80 43 81 51 82 44 83 50 84 52 85 49 86 45 87
REMARK SMILES IDX 46 88 47 89 48 90
REMARK H PARENT 8 5 13 24 72 43 40 54
REMARK Flexibility Score: inf
ROOT
ATOM      1  C   UNL     1       0.975   1.178   4.075  1.00  0.00     0.116 C 
ENDROOT
BRANCH   1   2
ATOM      2  N   UNL     1      -0.221   1.522   4.805  1.00  0.00    -0.356 N 
ATOM      3  C   UNL     1      -1.520   1.197   4.598  1.00  0.00     0.220 C 
ATOM      4  O   UNL     1      -2.357   1.721   5.340  1.00  0.00    -0.275 OA
ATOM      5  H   UNL     1      -0.066   2.094   5.592  1.00  0.00     0.163 HD
BRANCH   3   6
ATOM      6  C   UNL     1      -1.958   0.133   3.604  1.00  0.00     0.102 C 
BRANCH   6   7
ATOM      7  C   UNL     1      -1.900   0.344   2.097  1.00  0.00     0.031 C 
BRANCH   7   8
ATOM      8  C   UNL     1      -0.596   0.264   1.302  1.00  0.00     0.120 C 
BRANCH   8   9
ATOM      9  N   UNL     1       0.056  -0.996   0.893  1.00  0.00    -0.339 N 
ATOM     10  C   UNL     1       0.850  -0.880  -0.333  1.00  0.00     0.147 C 
BRANCH   9  11
ATOM     11  C   UNL     1       0.280  -2.222   1.557  1.00  0.00     0.289 C 
ATOM     12  O   UNL     1       0.700  -3.190   0.916  1.00  0.00    -0.265 OA
BRANCH  11  13
ATOM     13  C   UNL     1       0.079  -2.377   2.977  1.00  0.00     0.193 A 
ATOM     14  C   UNL     1      -0.805  -3.171   3.688  1.00  0.00     0.057 A 
ATOM     15  O   UNL     1       1.027  -1.887   3.839  1.00  0.00    -0.444 OA
ATOM     16  C   UNL     1      -0.432  -3.085   5.055  1.00  0.00     0.059 A 
ATOM     17  C   UNL     1       0.704  -2.311   5.091  1.00  0.00     0.170 A 
ATOM     18  Br  UNL     1       1.671  -1.899   6.633  1.00  0.00    -0.008 Br
ENDBRANCH  11  13
ENDBRANCH   9  11
ENDBRANCH   8   9
ENDBRANCH   7   8
ENDBRANCH   6   7
ENDBRANCH   3   6
ENDBRANCH   1   2
BRANCH   1  19
ATOM     19  C   UNL     1       1.460   2.366   3.243  1.00  0.00     0.023 C 
BRANCH  19  20
ATOM     20  C   UNL     1       2.483   3.225   3.974  1.00  0.00     0.023 C 
BRANCH  20  21
ATOM     21  C   UNL     1       3.841   2.549   4.121  1.00  0.00     0.116 C 
BRANCH  21  22
ATOM     22  N   UNL     1       4.509   2.322   2.845  1.00  0.00    -0.352 N 
ATOM     23  C   UNL     1       5.832   2.528   2.526  1.00  0.00     0.251 C 
ATOM     24  H   UNL     1       3.941   1.977   2.119  1.00  0.00     0.163 HD
ATOM     25  O   UNL     1       6.218   2.406   1.374  1.00  0.00    -0.269 OA
BRANCH  23  26
ATOM     26  C   UNL     1       6.758   2.946   3.601  1.00  0.00     0.039 A 
ATOM     27  C   UNL     1       7.555   4.074   3.409  1.00  0.00     0.014 A 
ATOM     28  C   UNL     1       6.767   2.267   4.823  1.00  0.00     0.014 A 
ATOM     29  C   UNL     1       8.311   4.567   4.474  1.00  0.00     0.010 A 
ATOM     30  C   UNL     1       7.449   2.811   5.904  1.00  0.00     0.010 A 
ATOM     31  C   UNL     1       8.233   3.963   5.740  1.00  0.00    -0.014 A 
BRANCH  31  32
ATOM     32  C   UNL     1       8.988   4.503   6.900  1.00  0.00     0.031 A 
ATOM     33  C   UNL     1      10.043   3.657   7.559  1.00  0.00     0.074 A 
ATOM     34  C   UNL     1       8.678   5.718   7.397  1.00  0.00     0.049 A 
ATOM     35  N   UNL     1      10.761   3.907   8.623  1.00  0.00    -0.248 NA
ATOM     36  C   UNL     1      10.290   2.334   6.965  1.00  0.00     0.031 C 
ATOM     37  C   UNL     1       7.630   6.603   6.882  1.00  0.00     0.029 A 
ATOM     38  N   UNL     1       9.211   6.416   8.451  1.00  0.00    -0.354 N 
ATOM     39  C   UNL     1      11.527   2.766   8.839  1.00  0.00     0.074 A 
ATOM     40  C   UNL     1      11.129   1.800   7.838  1.00  0.00     0.031 C 
ATOM     41  C   UNL     1       7.618   7.737   7.603  1.00  0.00     0.029 A 
ATOM     42  C   UNL     1       8.630   7.647   8.651  1.00  0.00     0.049 A 
ATOM     43  H   UNL     1       9.941   6.068   9.013  1.00  0.00     0.167 HD
ATOM     44  C   UNL     1      12.494   2.553   9.765  1.00  0.00     0.034 A 
ATOM     45  C   UNL     1       8.886   8.595   9.575  1.00  0.00     0.034 A 
ATOM     46  C   UNL     1      12.898   3.541  10.736  1.00  0.00     0.049 A 
ATOM     47  C   UNL     1       9.987   8.351  10.576  1.00  0.00     0.074 A 
ATOM     48  C   UNL     1      13.902   3.460  11.684  1.00  0.00     0.029 A 
ATOM     49  N   UNL     1      12.316   4.794  10.880  1.00  0.00    -0.354 N 
ATOM     50  N   UNL     1      10.742   7.288  10.731  1.00  0.00    -0.248 NA
ATOM     51  C   UNL     1      10.283   9.443  11.511  1.00  0.00     0.031 C 
ATOM     52  C   UNL     1      13.893   4.641  12.434  1.00  0.00     0.029 A 
ATOM     53  C   UNL     1      12.929   5.489  11.912  1.00  0.00     0.049 A 
ATOM     54  H   UNL     1      11.576   5.139  10.330  1.00  0.00     0.167 HD
ATOM     55  C   UNL     1      11.625   7.598  11.762  1.00  0.00     0.074 A 
ATOM     56  C   UNL     1      11.316   8.951  12.178  1.00  0.00     0.031 C 
ATOM     57  C   UNL     1      12.604   6.837  12.314  1.00  0.00     0.034 A 
BRANCH  44  58
ATOM     58  C   UNL     1      13.157   1.196   9.772  1.00  0.00     0.023 A 
ATOM     59  C   UNL     1      13.886   0.726   8.665  1.00  0.00     0.031 A 
ATOM     60  C   UNL     1      13.021   0.340  10.879  1.00  0.00     0.131 A 
ATOM     61  C   UNL     1      14.368  -0.591   8.650  1.00  0.00     0.055 A 
ATOM     62  C   UNL     1      13.581  -0.940  10.893  1.00  0.00     0.041 A 
ATOM     63  F   UNL     1      12.321   0.723  11.958  1.00  0.00    -0.206 F 
ATOM     64  C   UNL     1      14.243  -1.419   9.767  1.00  0.00     0.022 A 
BRANCH  61  65
ATOM     65  S   UNL     1      15.019  -1.255   7.092  1.00  0.00     0.124 S 
ATOM     66  O   UNL     1      13.859  -1.131   6.213  1.00  0.00    -0.237 OA
ATOM     67  O   UNL     1      16.135  -0.360   6.809  1.00  0.00    -0.237 OA
ATOM     68  O   UNL     1      15.390  -2.627   7.433  1.00  0.00    -0.744 OA
ENDBRANCH  61  65
ENDBRANCH  44  58
BRANCH  45  69
ATOM     69  C   UNL     1       8.103   9.863   9.596  1.00  0.00     0.023 A 
ATOM     70  C   UNL     1       8.715  11.095   9.311  1.00  0.00     0.031 A 
ATOM     71  C   UNL     1       6.740   9.868   9.939  1.00  0.00     0.131 A 
ATOM     72  C   UNL     1       7.979  12.285   9.422  1.00  0.00     0.055 A 
ATOM     73  C   UNL     1       6.000  11.050  10.002  1.00  0.00     0.041 A 
ATOM     74  F   UNL     1       6.104   8.717  10.210  1.00  0.00    -0.206 F 
ATOM     75  C   UNL     1       6.623  12.270   9.755  1.00  0.00     0.022 A 
BRANCH  72  76
ATOM     76  S   UNL     1       8.843  13.865   9.201  1.00  0.00     0.124 S 
ATOM     77  O   UNL     1       9.880  13.783  10.223  1.00  0.00    -0.237 OA
ATOM     78  O   UNL     1       9.297  13.769   7.817  1.00  0.00    -0.237 OA
ATOM     79  O   UNL     1       7.801  14.859   9.444  1.00  0.00    -0.744 OA
ENDBRANCH  72  76
ENDBRANCH  45  69
BRANCH  57  80
ATOM     80  C   UNL     1      13.442   7.479  13.392  1.00  0.00     0.023 A 
ATOM     81  C   UNL     1      12.902   7.823  14.643  1.00  0.00     0.031 A 
ATOM     82  C   UNL     1      14.797   7.766  13.152  1.00  0.00     0.131 A 
ATOM     83  C   UNL     1      13.697   8.490  15.586  1.00  0.00     0.055 A 
ATOM     84  C   UNL     1      15.600   8.375  14.117  1.00  0.00     0.041 A 
ATOM     85  F   UNL     1      15.363   7.458  11.974  1.00  0.00    -0.206 F 
ATOM     86  C   UNL     1      15.047   8.754  15.337  1.00  0.00     0.022 A 
BRANCH  83  87
ATOM     87  S   UNL     1      12.919   9.096  17.108  1.00  0.00     0.124 S 
ATOM     88  O   UNL     1      11.859   9.953  16.586  1.00  0.00    -0.237 OA
ATOM     89  O   UNL     1      12.482   7.860  17.748  1.00  0.00    -0.237 OA
ATOM     90  O   UNL     1      14.003   9.798  17.792  1.00  0.00    -0.744 OA
ENDBRANCH  83  87
ENDBRANCH  57  80
ENDBRANCH  31  32
ENDBRANCH  23  26
ENDBRANCH  21  22
ENDBRANCH  20  21
ENDBRANCH  19  20
ENDBRANCH   1  19
TORSDOF 19
