REMARK SMILES C=CCC(=O)N[C@@](C)(CC)C(=O)NCCCCNC(=O)c1ccc(-c2c3nc(c(-c4cc(S(=O)(=O)[O-])ccc4F)c4ccc([nH]4)c(-c4cc(S(=O)(=O)[O-])ccc4F)c4nc(c(-c5cc(S(=O)(=O)[O-])ccc5F)c5ccc2[nH]5)C=C4)C=C3)cc1
REMARK SMILES IDX 15 1 14 2 13 3 11 4 12 5 7 7 8 8 6 9 4 10 5 11 3 13 2 14
REMARK SMILES IDX 1 15 9 16 10 17 16 18 17 19 18 20 19 21 20 23 21 24 22 25
REMARK SMILES IDX 83 26 23 27 82 28 24 29 25 30 26 31 76 32 27 33 81 34 75 35
REMARK SMILES IDX 77 36 28 37 80 38 74 39 73 40 29 42 61 43 41 44 60 45 42 46
REMARK SMILES IDX 45 47 59 48 78 49 43 50 44 51 58 53 79 54 46 55 30 56 31 57
REMARK SMILES IDX 39 58 32 59 38 60 40 61 37 62 33 63 34 64 35 65 36 66 62 67
REMARK SMILES IDX 63 68 71 69 64 70 70 71 72 72 69 73 65 74 66 75 67 76 68 77
REMARK SMILES IDX 47 78 48 79 56 80 49 81 55 82 57 83 54 84 50 85 51 86 52 87
REMARK SMILES IDX 53 88
REMARK H PARENT 13 6 6 12 18 22 77 41 45 52
REMARK Flexibility Score: inf
ROOT
ATOM      1  C   UNL     1       0.708  -3.152  -3.551  1.00  0.00     0.023 C 
ENDROOT
BRANCH   1   2
ATOM      2  C   UNL     1       1.301  -2.998  -2.149  1.00  0.00     0.116 C 
BRANCH   2   3
ATOM      3  N   UNL     1       0.780  -1.804  -1.510  1.00  0.00    -0.354 N 
ATOM      4  C   UNL     1      -0.341  -1.658  -0.748  1.00  0.00     0.245 C 
ATOM      5  O   UNL     1      -1.041  -0.676  -1.008  1.00  0.00    -0.272 OA
ATOM      6  H   UNL     1       1.310  -0.985  -1.647  1.00  0.00     0.163 HD
BRANCH   4   7
ATOM      7  C   UNL     1      -0.747  -2.703   0.335  1.00  0.00     0.116 C 
ATOM      8  C   UNL     1       0.471  -3.287   1.080  1.00  0.00     0.045 C 
BRANCH   7   9
ATOM      9  N   UNL     1      -1.649  -2.143   1.385  1.00  0.00    -0.342 N 
ATOM     10  C   UNL     1      -1.499  -1.093   2.240  1.00  0.00     0.224 C 
ATOM     11  O   UNL     1      -1.992  -1.223   3.367  1.00  0.00    -0.275 OA
ATOM     12  H   UNL     1      -2.506  -2.618   1.476  1.00  0.00     0.164 HD
BRANCH  10  13
ATOM     13  C   UNL     1      -0.859   0.229   1.827  1.00  0.00     0.126 C 
BRANCH  13  14
ATOM     14  C   UNL     1       0.640   0.237   1.835  1.00  0.00    -0.025 C 
ATOM     15  C   UNL     1       1.381   0.760   0.848  1.00  0.00     0.004 C 
ENDBRANCH  13  14
ENDBRANCH  10  13
ENDBRANCH   7   9
BRANCH   7  16
ATOM     16  C   UNL     1      -1.526  -3.857  -0.361  1.00  0.00     0.035 C 
ATOM     17  C   UNL     1      -2.828  -3.422  -1.034  1.00  0.00     0.007 C 
ENDBRANCH   7  16
ENDBRANCH   4   7
ENDBRANCH   2   3
ENDBRANCH   1   2
BRANCH   1  18
ATOM     18  C   UNL     1       1.018  -1.990  -4.501  1.00  0.00     0.023 C 
BRANCH  18  19
ATOM     19  C   UNL     1       2.498  -1.654  -4.647  1.00  0.00     0.116 C 
BRANCH  19  20
ATOM     20  N   UNL     1       3.276  -2.776  -5.146  1.00  0.00    -0.352 N 
ATOM     21  C   UNL     1       4.250  -2.771  -6.115  1.00  0.00     0.251 C 
ATOM     22  H   UNL     1       3.081  -3.651  -4.737  1.00  0.00     0.163 HD
ATOM     23  O   UNL     1       4.710  -3.829  -6.533  1.00  0.00    -0.269 OA
BRANCH  21  24
ATOM     24  C   UNL     1       4.705  -1.478  -6.665  1.00  0.00     0.039 A 
ATOM     25  C   UNL     1       4.706  -1.289  -8.048  1.00  0.00     0.014 A 
ATOM     26  C   UNL     1       5.080  -0.442  -5.805  1.00  0.00     0.014 A 
ATOM     27  C   UNL     1       5.022  -0.032  -8.571  1.00  0.00     0.010 A 
ATOM     28  C   UNL     1       5.332   0.823  -6.324  1.00  0.00     0.010 A 
ATOM     29  C   UNL     1       5.304   1.041  -7.712  1.00  0.00    -0.014 A 
BRANCH  29  30
ATOM     30  C   UNL     1       5.594   2.404  -8.228  1.00  0.00     0.031 A 
ATOM     31  C   UNL     1       6.949   3.011  -7.987  1.00  0.00     0.074 A 
ATOM     32  C   UNL     1       4.622   3.124  -8.821  1.00  0.00     0.049 A 
ATOM     33  N   UNL     1       7.358   4.236  -8.188  1.00  0.00    -0.248 NA
ATOM     34  C   UNL     1       7.965   2.123  -7.404  1.00  0.00     0.031 C 
ATOM     35  C   UNL     1       3.262   2.650  -9.091  1.00  0.00     0.029 A 
ATOM     36  N   UNL     1       4.620   4.416  -9.284  1.00  0.00    -0.354 N 
ATOM     37  C   UNL     1       8.671   4.275  -7.732  1.00  0.00     0.074 A 
ATOM     38  C   UNL     1       8.967   2.963  -7.196  1.00  0.00     0.031 C 
ATOM     39  C   UNL     1       2.562   3.636  -9.677  1.00  0.00     0.029 A 
ATOM     40  C   UNL     1       3.403   4.825  -9.778  1.00  0.00     0.049 A 
ATOM     41  H   UNL     1       5.415   4.996  -9.263  1.00  0.00     0.167 HD
ATOM     42  C   UNL     1       9.552   5.306  -7.772  1.00  0.00     0.034 A 
ATOM     43  C   UNL     1       3.004   6.028 -10.237  1.00  0.00     0.034 A 
ATOM     44  C   UNL     1       9.243   6.600  -8.329  1.00  0.00     0.049 A 
ATOM     45  C   UNL     1       3.994   7.166 -10.257  1.00  0.00     0.074 A 
ATOM     46  C   UNL     1      10.069   7.702  -8.461  1.00  0.00     0.029 A 
ATOM     47  N   UNL     1       8.007   6.968  -8.846  1.00  0.00    -0.354 N 
ATOM     48  N   UNL     1       5.240   7.183  -9.842  1.00  0.00    -0.248 NA
ATOM     49  C   UNL     1       3.528   8.443 -10.813  1.00  0.00     0.031 C 
ATOM     50  C   UNL     1       9.319   8.752  -9.002  1.00  0.00     0.029 A 
ATOM     51  C   UNL     1       8.044   8.284  -9.278  1.00  0.00     0.049 A 
ATOM     52  H   UNL     1       7.219   6.379  -8.897  1.00  0.00     0.167 HD
ATOM     53  C   UNL     1       5.716   8.460 -10.126  1.00  0.00     0.074 A 
ATOM     54  C   UNL     1       4.625   9.182 -10.748  1.00  0.00     0.031 C 
ATOM     55  C   UNL     1       6.947   8.986  -9.902  1.00  0.00     0.034 A 
BRANCH  42  56
ATOM     56  C   UNL     1      10.917   5.073  -7.169  1.00  0.00     0.023 A 
ATOM     57  C   UNL     1      11.795   4.102  -7.682  1.00  0.00     0.031 A 
ATOM     58  C   UNL     1      11.331   5.803  -6.040  1.00  0.00     0.131 A 
ATOM     59  C   UNL     1      13.000   3.826  -7.018  1.00  0.00     0.055 A 
ATOM     60  C   UNL     1      12.571   5.585  -5.437  1.00  0.00     0.041 A 
ATOM     61  F   UNL     1      10.528   6.728  -5.492  1.00  0.00    -0.206 F 
ATOM     62  C   UNL     1      13.407   4.579  -5.915  1.00  0.00     0.022 A 
BRANCH  59  63
ATOM     63  S   UNL     1      13.950   2.367  -7.524  1.00  0.00     0.124 S 
ATOM     64  O   UNL     1      12.980   1.296  -7.308  1.00  0.00    -0.237 OA
ATOM     65  O   UNL     1      14.272   2.666  -8.915  1.00  0.00    -0.237 OA
ATOM     66  O   UNL     1      15.087   2.363  -6.606  1.00  0.00    -0.744 OA
ENDBRANCH  59  63
ENDBRANCH  42  56
BRANCH  43  67
ATOM     67  C   UNL     1       1.602   6.233 -10.702  1.00  0.00     0.023 A 
ATOM     68  C   UNL     1       1.324   6.527 -12.046  1.00  0.00     0.031 A 
ATOM     69  C   UNL     1       0.523   6.178  -9.802  1.00  0.00     0.131 A 
ATOM     70  C   UNL     1       0.006   6.802 -12.445  1.00  0.00     0.055 A 
ATOM     71  C   UNL     1      -0.792   6.402 -10.213  1.00  0.00     0.041 A 
ATOM     72  F   UNL     1       0.733   5.894  -8.507  1.00  0.00    -0.206 F 
ATOM     73  C   UNL     1      -1.055   6.729 -11.540  1.00  0.00     0.022 A 
BRANCH  70  74
ATOM     74  S   UNL     1      -0.289   7.338 -14.152  1.00  0.00     0.124 S 
ATOM     75  O   UNL     1       0.546   8.530 -14.238  1.00  0.00    -0.237 OA
ATOM     76  O   UNL     1       0.164   6.180 -14.915  1.00  0.00    -0.237 OA
ATOM     77  O   UNL     1      -1.730   7.580 -14.187  1.00  0.00    -0.744 OA
ENDBRANCH  70  74
ENDBRANCH  43  67
BRANCH  55  78
ATOM     78  C   UNL     1       7.198  10.388 -10.399  1.00  0.00     0.023 A 
ATOM     79  C   UNL     1       6.581  11.508  -9.818  1.00  0.00     0.031 A 
ATOM     80  C   UNL     1       8.081  10.599 -11.474  1.00  0.00     0.131 A 
ATOM     81  C   UNL     1       6.822  12.787 -10.343  1.00  0.00     0.055 A 
ATOM     82  C   UNL     1       8.358  11.878 -11.957  1.00  0.00     0.041 A 
ATOM     83  F   UNL     1       8.697   9.563 -12.066  1.00  0.00    -0.206 F 
ATOM     84  C   UNL     1       7.718  12.980 -11.398  1.00  0.00     0.022 A 
BRANCH  81  85
ATOM     85  S   UNL     1       5.893  14.194  -9.675  1.00  0.00     0.124 S 
ATOM     86  O   UNL     1       4.513  13.803  -9.943  1.00  0.00    -0.237 OA
ATOM     87  O   UNL     1       6.293  14.196  -8.271  1.00  0.00    -0.237 OA
ATOM     88  O   UNL     1       6.378  15.329 -10.457  1.00  0.00    -0.744 OA
ENDBRANCH  81  85
ENDBRANCH  55  78
ENDBRANCH  29  30
ENDBRANCH  21  24
ENDBRANCH  19  20
ENDBRANCH  18  19
ENDBRANCH   1  18
TORSDOF 18
