REMARK SMILES Cc1nnc(SCC[C@H]2CCC[C@]2([NH3+])C(=O)NCCCCNC(=O)c2ccc(-c3c4nc(c(-c5cc(S(=O)(=O)[O-])ccc5F)c5ccc([nH]5)c(-c5cc(S(=O)(=O)[O-])ccc5F)c5nc(c(-c6cc(S(=O)(=O)[O-])ccc6F)c6ccc3[nH]6)C=C5)C=C4)cc2)o1
REMARK SMILES IDX 19 1 18 2 17 3 15 4 16 5 13 7 9 8 10 9 11 10 12 11 8 12 7 13
REMARK SMILES IDX 6 14 5 15 1 16 2 17 3 18 88 19 4 20 14 21 20 25 21 26 22 27
REMARK SMILES IDX 23 28 24 30 25 31 26 32 87 33 27 34 86 35 28 36 29 37 30 38
REMARK SMILES IDX 80 39 31 40 85 41 79 42 81 43 32 44 84 45 78 46 77 47 33 49
REMARK SMILES IDX 65 50 45 51 64 52 46 53 49 54 63 55 82 56 47 57 48 58 62 60
REMARK SMILES IDX 83 61 50 62 34 63 35 64 43 65 36 66 42 67 44 68 41 69 37 70
REMARK SMILES IDX 38 71 39 72 40 73 66 74 67 75 75 76 68 77 74 78 76 79 73 80
REMARK SMILES IDX 69 81 70 82 71 83 72 84 51 85 52 86 60 87 53 88 59 89 61 90
REMARK SMILES IDX 58 91 54 92 55 93 56 94 57 95
REMARK H PARENT 17 6 14 22 14 23 14 24 22 29 81 48 49 59
REMARK Flexibility Score: inf
ROOT
ATOM      1  C   UNL     1       6.613   0.175   1.571  1.00  0.00     0.023 C 
ENDROOT
BRANCH   1   2
ATOM      2  C   UNL     1       5.957  -1.203   1.621  1.00  0.00     0.116 C 
BRANCH   2   3
ATOM      3  N   UNL     1       5.307  -1.523   2.877  1.00  0.00    -0.351 N 
ATOM      4  C   UNL     1       4.080  -2.049   3.168  1.00  0.00     0.281 C 
ATOM      5  O   UNL     1       3.951  -2.495   4.318  1.00  0.00    -0.268 OA
ATOM      6  H   UNL     1       5.854  -1.323   3.671  1.00  0.00     0.163 HD
BRANCH   4   7
ATOM      7  C   UNL     1       2.903  -2.211   2.128  1.00  0.00     0.176 C 
ATOM      8  C   UNL     1       2.777  -1.066   1.101  1.00  0.00     0.061 C 
ATOM      9  C   UNL     1       1.590  -0.205   1.625  1.00  0.00     0.011 C 
ATOM     10  C   UNL     1       1.141  -0.799   2.954  1.00  0.00     0.008 C 
ATOM     11  C   UNL     1       1.535  -2.247   2.843  1.00  0.00     0.079 C 
BRANCH   8  12
ATOM     12  C   UNL     1       2.616  -1.478  -0.399  1.00  0.00     0.022 C 
BRANCH  12  13
ATOM     13  C   UNL     1       3.825  -2.075  -1.197  1.00  0.00     0.080 C 
BRANCH  13  14
ATOM     14  S   UNL     1       4.084  -3.891  -1.349  1.00  0.00    -0.065 SA
BRANCH  14  15
ATOM     15  C   UNL     1       5.210  -4.325  -0.080  1.00  0.00     0.276 A 
ATOM     16  C   UNL     1       5.718  -5.572   3.174  1.00  0.00     0.113 C 
ATOM     17  C   UNL     1       5.921  -5.066   1.798  1.00  0.00     0.214 A 
ATOM     18  N   UNL     1       6.904  -4.356   1.288  1.00  0.00    -0.112 NA
ATOM     19  O   UNL     1       4.881  -5.213   0.923  1.00  0.00    -0.416 OA
ATOM     20  N   UNL     1       6.443  -3.879   0.060  1.00  0.00    -0.101 NA
ENDBRANCH  14  15
ENDBRANCH  13  14
ENDBRANCH  12  13
ENDBRANCH   8  12
BRANCH   7  21
ATOM     21  N   UNL     1       2.995  -3.543   1.553  1.00  0.00    -0.345 N 
ATOM     22  H   UNL     1       2.244  -3.674   0.876  1.00  0.00     0.345 HD
ATOM     23  H   UNL     1       2.911  -4.240   2.293  1.00  0.00     0.345 HD
ATOM     24  H   UNL     1       3.896  -3.650   1.086  1.00  0.00     0.345 HD
ENDBRANCH   7  21
ENDBRANCH   4   7
ENDBRANCH   2   3
ENDBRANCH   1   2
BRANCH   1  25
ATOM     25  C   UNL     1       7.987   0.217   2.243  1.00  0.00     0.023 C 
BRANCH  25  26
ATOM     26  C   UNL     1       9.043  -0.722   1.654  1.00  0.00     0.116 C 
BRANCH  26  27
ATOM     27  N   UNL     1       9.437  -0.376   0.296  1.00  0.00    -0.352 N 
ATOM     28  C   UNL     1      10.696  -0.138  -0.206  1.00  0.00     0.251 C 
ATOM     29  H   UNL     1       8.701  -0.302  -0.354  1.00  0.00     0.163 HD
ATOM     30  O   UNL     1      10.830   0.268  -1.361  1.00  0.00    -0.269 OA
BRANCH  28  31
ATOM     31  C   UNL     1      11.883  -0.325   0.659  1.00  0.00     0.039 A 
ATOM     32  C   UNL     1      12.848   0.683   0.716  1.00  0.00     0.014 A 
ATOM     33  C   UNL     1      12.028  -1.475   1.442  1.00  0.00     0.014 A 
ATOM     34  C   UNL     1      13.906   0.580   1.624  1.00  0.00     0.010 A 
ATOM     35  C   UNL     1      13.037  -1.538   2.402  1.00  0.00     0.010 A 
ATOM     36  C   UNL     1      13.983  -0.507   2.512  1.00  0.00    -0.014 A 
BRANCH  36  37
ATOM     37  C   UNL     1      15.038  -0.576   3.561  1.00  0.00     0.031 A 
ATOM     38  C   UNL     1      16.043  -1.698   3.552  1.00  0.00     0.074 A 
ATOM     39  C   UNL     1      15.065   0.341   4.550  1.00  0.00     0.049 A 
ATOM     40  N   UNL     1      16.984  -1.975   4.419  1.00  0.00    -0.248 NA
ATOM     41  C   UNL     1      15.963  -2.645   2.429  1.00  0.00     0.031 C 
ATOM     42  C   UNL     1      14.134   1.464   4.689  1.00  0.00     0.029 A 
ATOM     43  N   UNL     1      15.903   0.477   5.631  1.00  0.00    -0.354 N 
ATOM     44  C   UNL     1      17.611  -3.122   3.945  1.00  0.00     0.074 A 
ATOM     45  C   UNL     1      16.893  -3.530   2.756  1.00  0.00     0.031 C 
ATOM     46  C   UNL     1      14.471   2.186   5.769  1.00  0.00     0.029 A 
ATOM     47  C   UNL     1      15.604   1.554   6.436  1.00  0.00     0.049 A 
ATOM     48  H   UNL     1      16.649  -0.140   5.813  1.00  0.00     0.167 HD
ATOM     49  C   UNL     1      18.704  -3.759   4.435  1.00  0.00     0.034 A 
ATOM     50  C   UNL     1      16.168   1.975   7.587  1.00  0.00     0.034 A 
ATOM     51  C   UNL     1      19.412  -3.348   5.623  1.00  0.00     0.049 A 
ATOM     52  C   UNL     1      17.337   1.202   8.152  1.00  0.00     0.074 A 
ATOM     53  C   UNL     1      20.535  -3.918   6.198  1.00  0.00     0.029 A 
ATOM     54  N   UNL     1      19.067  -2.265   6.421  1.00  0.00    -0.354 N 
ATOM     55  N   UNL     1      17.934   0.135   7.672  1.00  0.00    -0.248 NA
ATOM     56  C   UNL     1      17.914   1.696   9.409  1.00  0.00     0.031 C 
ATOM     57  C   UNL     1      20.829  -3.223   7.375  1.00  0.00     0.029 A 
ATOM     58  C   UNL     1      19.941  -2.167   7.494  1.00  0.00     0.049 A 
ATOM     59  H   UNL     1      18.312  -1.657   6.250  1.00  0.00     0.167 HD
ATOM     60  C   UNL     1      18.984  -0.137   8.546  1.00  0.00     0.074 A 
ATOM     61  C   UNL     1      18.948   0.885   9.570  1.00  0.00     0.031 C 
ATOM     62  C   UNL     1      19.899  -1.139   8.506  1.00  0.00     0.034 A 
BRANCH  49  63
ATOM     63  C   UNL     1      19.192  -4.976   3.685  1.00  0.00     0.023 A 
ATOM     64  C   UNL     1      19.665  -4.878   2.364  1.00  0.00     0.031 A 
ATOM     65  C   UNL     1      19.181  -6.246   4.287  1.00  0.00     0.131 A 
ATOM     66  C   UNL     1      20.042  -6.035   1.667  1.00  0.00     0.055 A 
ATOM     67  C   UNL     1      19.635  -7.383   3.615  1.00  0.00     0.041 A 
ATOM     68  F   UNL     1      18.722  -6.405   5.538  1.00  0.00    -0.206 F 
ATOM     69  C   UNL     1      20.057  -7.284   2.292  1.00  0.00     0.022 A 
BRANCH  66  70
ATOM     70  S   UNL     1      20.388  -5.902  -0.108  1.00  0.00     0.124 S 
ATOM     71  O   UNL     1      19.114  -5.399  -0.619  1.00  0.00    -0.237 OA
ATOM     72  O   UNL     1      21.505  -4.965  -0.144  1.00  0.00    -0.237 OA
ATOM     73  O   UNL     1      20.709  -7.273  -0.499  1.00  0.00    -0.744 OA
ENDBRANCH  66  70
ENDBRANCH  49  63
BRANCH  50  74
ATOM     74  C   UNL     1      15.642   3.172   8.309  1.00  0.00     0.023 A 
ATOM     75  C   UNL     1      16.463   4.287   8.547  1.00  0.00     0.031 A 
ATOM     76  C   UNL     1      14.346   3.185   8.855  1.00  0.00     0.131 A 
ATOM     77  C   UNL     1      16.010   5.329   9.372  1.00  0.00     0.055 A 
ATOM     78  C   UNL     1      13.874   4.258   9.614  1.00  0.00     0.041 A 
ATOM     79  F   UNL     1      13.517   2.147   8.662  1.00  0.00    -0.206 F 
ATOM     80  C   UNL     1      14.716   5.329   9.894  1.00  0.00     0.022 A 
BRANCH  77  81
ATOM     81  S   UNL     1      17.190   6.615   9.867  1.00  0.00     0.124 S 
ATOM     82  O   UNL     1      18.259   5.821  10.463  1.00  0.00    -0.237 OA
ATOM     83  O   UNL     1      17.497   7.252   8.591  1.00  0.00    -0.237 OA
ATOM     84  O   UNL     1      16.425   7.435  10.804  1.00  0.00    -0.744 OA
ENDBRANCH  77  81
ENDBRANCH  50  74
BRANCH  62  85
ATOM     85  C   UNL     1      20.974  -1.135   9.567  1.00  0.00     0.023 A 
ATOM     86  C   UNL     1      20.679  -1.334  10.928  1.00  0.00     0.031 A 
ATOM     87  C   UNL     1      22.316  -0.913   9.209  1.00  0.00     0.131 A 
ATOM     88  C   UNL     1      21.701  -1.246  11.885  1.00  0.00     0.055 A 
ATOM     89  C   UNL     1      23.338  -0.892  10.159  1.00  0.00     0.041 A 
ATOM     90  F   UNL     1      22.657  -0.714   7.926  1.00  0.00    -0.206 F 
ATOM     91  C   UNL     1      23.031  -1.045  11.508  1.00  0.00     0.022 A 
BRANCH  88  92
ATOM     92  S   UNL     1      21.255  -1.299  13.643  1.00  0.00     0.124 S 
ATOM     93  O   UNL     1      20.333  -0.174  13.757  1.00  0.00    -0.237 OA
ATOM     94  O   UNL     1      20.661  -2.626  13.774  1.00  0.00    -0.237 OA
ATOM     95  O   UNL     1      22.535  -1.124  14.327  1.00  0.00    -0.744 OA
ENDBRANCH  88  92
ENDBRANCH  62  85
ENDBRANCH  36  37
ENDBRANCH  28  31
ENDBRANCH  26  27
ENDBRANCH  25  26
ENDBRANCH   1  25
TORSDOF 19
