REMARK SMILES COc1ccc([C@@H](CC(=O)NCCCCNC(=O)c2ccc(-c3c4nc(c(-c5cc(S(=O)(=O)[O-])ccc5F)c5ccc([nH]5)c(-c5cc(S(=O)(=O)[O-])ccc5F)c5nc(c(-c6cc(S(=O)(=O)[O-])ccc6F)c6ccc3[nH]6)C=C5)C=C4)cc2)NC(=O)c2ccc(Cl)c([N+](=O)[O-])c2)cc1
REMARK SMILES IDX 13 1 12 2 11 3 9 4 10 5 8 7 7 8 6 9 3 10 4 11 96 12 5 13
REMARK SMILES IDX 95 14 2 15 1 16 82 17 83 18 84 20 85 21 86 22 94 23 87 24
REMARK SMILES IDX 90 25 88 26 89 27 91 28 92 29 93 30 14 31 15 32 16 33 17 34
REMARK SMILES IDX 18 36 19 37 20 38 81 39 21 40 80 41 22 42 23 43 24 44 74 45
REMARK SMILES IDX 25 46 79 47 73 48 75 49 26 50 78 51 72 52 71 53 27 55 59 56
REMARK SMILES IDX 39 57 58 58 40 59 43 60 57 61 76 62 41 63 42 64 56 66 77 67
REMARK SMILES IDX 44 68 28 69 29 70 37 71 30 72 36 73 38 74 35 75 31 76 32 77
REMARK SMILES IDX 33 78 34 79 60 80 61 81 69 82 62 83 68 84 70 85 67 86 63 87
REMARK SMILES IDX 64 88 65 89 66 90 45 91 46 92 54 93 47 94 53 95 55 96 52 97
REMARK SMILES IDX 48 98 49 99 50 100 51 101
REMARK H PARENT 11 6 82 19 16 35 75 54 43 65
REMARK Flexibility Score: inf
ROOT
ATOM      1  C   UNL     1      -0.393   2.518  -3.856  1.00  0.00     0.023 C 
ENDROOT
BRANCH   1   2
ATOM      2  C   UNL     1       0.226   2.737  -5.227  1.00  0.00     0.116 C 
BRANCH   2   3
ATOM      3  N   UNL     1       0.024   4.116  -5.620  1.00  0.00    -0.356 N 
ATOM      4  C   UNL     1       0.738   5.207  -5.219  1.00  0.00     0.222 C 
ATOM      5  O   UNL     1       0.222   6.320  -5.331  1.00  0.00    -0.275 OA
ATOM      6  H   UNL     1      -0.714   4.286  -6.250  1.00  0.00     0.163 HD
BRANCH   4   7
ATOM      7  C   UNL     1       2.159   5.056  -4.715  1.00  0.00     0.129 C 
BRANCH   7   8
ATOM      8  C   UNL     1       2.394   5.328  -3.215  1.00  0.00     0.122 C 
BRANCH   8   9
ATOM      9  C   UNL     1       2.112   4.156  -2.283  1.00  0.00    -0.025 A 
ATOM     10  C   UNL     1       1.427   1.790  -0.936  1.00  0.00     0.118 A 
ATOM     11  C   UNL     1       0.681   2.947  -0.725  1.00  0.00     0.047 A 
ATOM     12  C   UNL     1       2.583   1.827  -1.709  1.00  0.00     0.047 A 
ATOM     13  C   UNL     1       1.035   4.135  -1.380  1.00  0.00     0.010 A 
ATOM     14  C   UNL     1       2.926   3.007  -2.373  1.00  0.00     0.010 A 
BRANCH  10  15
ATOM     15  O   UNL     1       0.847   0.581  -0.666  1.00  0.00    -0.497 OA
ATOM     16  C   UNL     1       1.298   0.015   0.555  1.00  0.00     0.278 C 
ENDBRANCH  10  15
ENDBRANCH   8   9
BRANCH   8  17
ATOM     17  N   UNL     1       1.793   6.585  -2.770  1.00  0.00    -0.345 N 
ATOM     18  C   UNL     1       2.346   7.590  -2.019  1.00  0.00     0.252 C 
ATOM     19  H   UNL     1       0.860   6.730  -3.050  1.00  0.00     0.164 HD
ATOM     20  O   UNL     1       1.664   8.458  -1.493  1.00  0.00    -0.269 OA
BRANCH  18  21
ATOM     21  C   UNL     1       3.811   7.619  -1.841  1.00  0.00     0.046 A 
ATOM     22  C   UNL     1       4.343   7.668  -0.552  1.00  0.00     0.016 A 
ATOM     23  C   UNL     1       4.653   7.571  -2.954  1.00  0.00     0.101 A 
ATOM     24  C   UNL     1       5.728   7.590  -0.374  1.00  0.00     0.028 A 
ATOM     25  C   UNL     1       6.036   7.446  -2.762  1.00  0.00     0.288 A 
ATOM     26  C   UNL     1       6.585   7.449  -1.476  1.00  0.00     0.118 A 
ATOM     27  Cl  UNL     1       8.261   7.224  -1.133  1.00  0.00    -0.077 Cl
BRANCH  25  28
ATOM     28  N   UNL     1       6.846   7.221  -3.949  1.00  0.00     0.064 N 
ATOM     29  O   UNL     1       7.913   7.835  -4.058  1.00  0.00    -0.258 OA
ATOM     30  O   UNL     1       6.379   6.448  -4.800  1.00  0.00    -0.258 OA
ENDBRANCH  25  28
ENDBRANCH  18  21
ENDBRANCH   8  17
ENDBRANCH   7   8
ENDBRANCH   4   7
ENDBRANCH   2   3
ENDBRANCH   1   2
BRANCH   1  31
ATOM     31  C   UNL     1      -1.812   1.994  -3.827  1.00  0.00     0.023 C 
BRANCH  31  32
ATOM     32  C   UNL     1      -1.929   0.548  -4.263  1.00  0.00     0.116 C 
BRANCH  32  33
ATOM     33  N   UNL     1      -1.185  -0.395  -3.432  1.00  0.00    -0.352 N 
ATOM     34  C   UNL     1      -1.569  -1.643  -2.990  1.00  0.00     0.251 C 
ATOM     35  H   UNL     1      -0.289  -0.100  -3.150  1.00  0.00     0.163 HD
ATOM     36  O   UNL     1      -0.832  -2.305  -2.268  1.00  0.00    -0.269 OA
BRANCH  34  37
ATOM     37  C   UNL     1      -2.921  -2.130  -3.337  1.00  0.00     0.039 A 
ATOM     38  C   UNL     1      -3.744  -2.612  -2.318  1.00  0.00     0.014 A 
ATOM     39  C   UNL     1      -3.418  -1.968  -4.630  1.00  0.00     0.014 A 
ATOM     40  C   UNL     1      -5.099  -2.824  -2.577  1.00  0.00     0.010 A 
ATOM     41  C   UNL     1      -4.787  -2.038  -4.842  1.00  0.00     0.010 A 
ATOM     42  C   UNL     1      -5.647  -2.473  -3.822  1.00  0.00    -0.014 A 
BRANCH  42  43
ATOM     43  C   UNL     1      -7.105  -2.579  -4.099  1.00  0.00     0.031 A 
ATOM     44  C   UNL     1      -7.574  -3.419  -5.260  1.00  0.00     0.074 A 
ATOM     45  C   UNL     1      -7.993  -1.878  -3.363  1.00  0.00     0.049 A 
ATOM     46  N   UNL     1      -8.775  -3.542  -5.762  1.00  0.00    -0.248 NA
ATOM     47  C   UNL     1      -6.544  -4.185  -5.983  1.00  0.00     0.031 C 
ATOM     48  C   UNL     1      -7.660  -0.988  -2.247  1.00  0.00     0.029 A 
ATOM     49  N   UNL     1      -9.361  -1.796  -3.446  1.00  0.00    -0.354 N 
ATOM     50  C   UNL     1      -8.638  -4.382  -6.862  1.00  0.00     0.074 A 
ATOM     51  C   UNL     1      -7.228  -4.658  -7.011  1.00  0.00     0.031 C 
ATOM     52  C   UNL     1      -8.792  -0.485  -1.728  1.00  0.00     0.029 A 
ATOM     53  C   UNL     1      -9.929  -0.965  -2.505  1.00  0.00     0.049 A 
ATOM     54  H   UNL     1      -9.889  -2.286  -4.117  1.00  0.00     0.167 HD
ATOM     55  C   UNL     1      -9.603  -4.914  -7.651  1.00  0.00     0.034 A 
ATOM     56  C   UNL     1     -11.218  -0.621  -2.302  1.00  0.00     0.034 A 
ATOM     57  C   UNL     1     -11.008  -4.662  -7.468  1.00  0.00     0.049 A 
ATOM     58  C   UNL     1     -12.273  -1.215  -3.208  1.00  0.00     0.074 A 
ATOM     59  C   UNL     1     -12.075  -5.171  -8.186  1.00  0.00     0.029 A 
ATOM     60  N   UNL     1     -11.544  -3.837  -6.488  1.00  0.00    -0.354 N 
ATOM     61  N   UNL     1     -12.124  -2.038  -4.221  1.00  0.00    -0.248 NA
ATOM     62  C   UNL     1     -13.668  -0.846  -2.935  1.00  0.00     0.031 C 
ATOM     63  C   UNL     1     -13.251  -4.613  -7.676  1.00  0.00     0.029 A 
ATOM     64  C   UNL     1     -12.925  -3.814  -6.592  1.00  0.00     0.049 A 
ATOM     65  H   UNL     1     -11.020  -3.341  -5.819  1.00  0.00     0.167 HD
ATOM     66  C   UNL     1     -13.412  -2.314  -4.676  1.00  0.00     0.074 A 
ATOM     67  C   UNL     1     -14.321  -1.588  -3.815  1.00  0.00     0.031 C 
ATOM     68  C   UNL     1     -13.812  -3.094  -5.712  1.00  0.00     0.034 A 
BRANCH  55  69
ATOM     69  C   UNL     1      -9.163  -5.827  -8.768  1.00  0.00     0.023 A 
ATOM     70  C   UNL     1      -8.503  -7.041  -8.503  1.00  0.00     0.031 A 
ATOM     71  C   UNL     1      -9.389  -5.481 -10.110  1.00  0.00     0.131 A 
ATOM     72  C   UNL     1      -8.033  -7.829  -9.562  1.00  0.00     0.055 A 
ATOM     73  C   UNL     1      -8.993  -6.311 -11.160  1.00  0.00     0.041 A 
ATOM     74  F   UNL     1      -9.992  -4.323 -10.425  1.00  0.00    -0.206 F 
ATOM     75  C   UNL     1      -8.299  -7.488 -10.890  1.00  0.00     0.022 A 
BRANCH  72  76
ATOM     76  S   UNL     1      -6.959  -9.239  -9.180  1.00  0.00     0.124 S 
ATOM     77  O   UNL     1      -5.818  -8.576  -8.552  1.00  0.00    -0.237 OA
ATOM     78  O   UNL     1      -7.794 -10.044  -8.297  1.00  0.00    -0.237 OA
ATOM     79  O   UNL     1      -6.686  -9.826 -10.490  1.00  0.00    -0.744 OA
ENDBRANCH  72  76
ENDBRANCH  55  69
BRANCH  56  80
ATOM     80  C   UNL     1     -11.604   0.335  -1.219  1.00  0.00     0.023 A 
ATOM     81  C   UNL     1     -12.482  -0.052  -0.193  1.00  0.00     0.031 A 
ATOM     82  C   UNL     1     -11.178   1.675  -1.244  1.00  0.00     0.131 A 
ATOM     83  C   UNL     1     -12.969   0.904   0.713  1.00  0.00     0.055 A 
ATOM     84  C   UNL     1     -11.609   2.606  -0.297  1.00  0.00     0.041 A 
ATOM     85  F   UNL     1     -10.337   2.104  -2.199  1.00  0.00    -0.206 F 
ATOM     86  C   UNL     1     -12.528   2.228   0.676  1.00  0.00     0.022 A 
BRANCH  83  87
ATOM     87  S   UNL     1     -14.302   0.422   1.847  1.00  0.00     0.124 S 
ATOM     88  O   UNL     1     -15.301  -0.102   0.922  1.00  0.00    -0.237 OA
ATOM     89  O   UNL     1     -13.635  -0.558   2.696  1.00  0.00    -0.237 OA
ATOM     90  O   UNL     1     -14.658   1.678   2.505  1.00  0.00    -0.744 OA
ENDBRANCH  83  87
ENDBRANCH  56  80
BRANCH  68  91
ATOM     91  C   UNL     1     -15.297  -3.252  -5.922  1.00  0.00     0.023 A 
ATOM     92  C   UNL     1     -16.108  -2.175  -6.316  1.00  0.00     0.031 A 
ATOM     93  C   UNL     1     -15.906  -4.504  -5.722  1.00  0.00     0.131 A 
ATOM     94  C   UNL     1     -17.493  -2.355  -6.440  1.00  0.00     0.055 A 
ATOM     95  C   UNL     1     -17.275  -4.693  -5.911  1.00  0.00     0.041 A 
ATOM     96  F   UNL     1     -15.177  -5.567  -5.346  1.00  0.00    -0.206 F 
ATOM     97  C   UNL     1     -18.079  -3.611  -6.258  1.00  0.00     0.022 A 
BRANCH  94  98
ATOM     98  S   UNL     1     -18.534  -0.903  -6.750  1.00  0.00     0.124 S 
ATOM     99  O   UNL     1     -18.219  -0.054  -5.607  1.00  0.00    -0.237 OA
ATOM    100  O   UNL     1     -18.042  -0.438  -8.044  1.00  0.00    -0.237 OA
ATOM    101  O   UNL     1     -19.890  -1.449  -6.764  1.00  0.00    -0.744 OA
ENDBRANCH  94  98
ENDBRANCH  68  91
ENDBRANCH  42  43
ENDBRANCH  34  37
ENDBRANCH  32  33
ENDBRANCH  31  32
ENDBRANCH   1  31
TORSDOF 20
