REMARK SMILES COc1cccc([C@H]2CC(c3ccc(S(C)(=O)=O)cc3)=NN2c2ccc(C(=O)NCCCCNC(=O)c3ccc(-c4c5nc(c(-c6cc(S(=O)(=O)[O-])ccc6F)c6ccc([nH]6)c(-c6cc(S(=O)(=O)[O-])ccc6F)c6nc(c(-c7cc(S(=O)(=O)[O-])ccc7F)c7ccc4[nH]7)C=C6)C=C5)cc3)cc2)c1
REMARK SMILES IDX 31 1 30 2 29 3 27 4 28 5 26 7 23 8 24 9 101 10 25 11 100 12
REMARK SMILES IDX 22 13 8 14 9 15 10 16 21 17 7 18 3 19 4 20 102 21 5 22 6 23
REMARK SMILES IDX 2 24 1 25 11 26 12 27 20 28 13 29 19 30 14 31 15 32 16 33
REMARK SMILES IDX 17 34 18 35 32 36 33 37 34 38 35 39 36 41 37 42 38 43 99 44
REMARK SMILES IDX 39 45 98 46 40 47 41 48 42 49 92 50 43 51 97 52 91 53 93 54
REMARK SMILES IDX 44 55 96 56 90 57 89 58 45 60 77 61 57 62 76 63 58 64 61 65
REMARK SMILES IDX 75 66 94 67 59 68 60 69 74 71 95 72 62 73 46 74 47 75 55 76
REMARK SMILES IDX 48 77 54 78 56 79 53 80 49 81 50 82 51 83 52 84 78 85 79 86
REMARK SMILES IDX 87 87 80 88 86 89 88 90 85 91 81 92 82 93 83 94 84 95 63 96
REMARK SMILES IDX 64 97 72 98 65 99 71 100 73 101 70 102 66 103 67 104 68 105
REMARK SMILES IDX 69 106
REMARK H PARENT 29 6 34 40 93 59 61 70
REMARK Flexibility Score: inf
ROOT
ATOM      1  C   UNL     1       4.999 -10.583  -2.325  1.00  0.00     0.023 C 
ENDROOT
BRANCH   1   2
ATOM      2  C   UNL     1       3.773 -10.034  -1.592  1.00  0.00     0.116 C 
BRANCH   2   3
ATOM      3  N   UNL     1       4.113  -9.702  -0.224  1.00  0.00    -0.352 N 
ATOM      4  C   UNL     1       4.502  -8.530   0.369  1.00  0.00     0.251 C 
ATOM      5  O   UNL     1       4.737  -8.562   1.579  1.00  0.00    -0.269 OA
ATOM      6  H   UNL     1       4.053 -10.463   0.397  1.00  0.00     0.163 HD
BRANCH   4   7
ATOM      7  C   UNL     1       4.607  -7.227  -0.352  1.00  0.00     0.039 A 
ATOM      8  C   UNL     1       4.726  -4.652  -1.536  1.00  0.00     0.060 A 
ATOM      9  C   UNL     1       4.587  -4.802  -0.153  1.00  0.00     0.029 A 
ATOM     10  C   UNL     1       4.853  -5.805  -2.312  1.00  0.00     0.029 A 
ATOM     11  C   UNL     1       4.506  -6.069   0.430  1.00  0.00     0.016 A 
ATOM     12  C   UNL     1       4.834  -7.075  -1.722  1.00  0.00     0.016 A 
BRANCH   8  13
ATOM     13  N   UNL     1       4.773  -3.386  -2.091  1.00  0.00    -0.257 N 
ATOM     14  C   UNL     1       3.945  -2.933  -3.207  1.00  0.00     0.144 C 
ATOM     15  C   UNL     1       4.579  -1.580  -3.567  1.00  0.00     0.091 C 
ATOM     16  C   UNL     1       5.748  -1.584  -2.625  1.00  0.00     0.071 C 
ATOM     17  N   UNL     1       5.833  -2.589  -1.815  1.00  0.00    -0.176 NA
BRANCH  14  18
ATOM     18  C   UNL     1       2.487  -2.820  -2.790  1.00  0.00    -0.019 A 
ATOM     19  C   UNL     1       0.767  -1.951  -1.294  1.00  0.00     0.119 A 
ATOM     20  C   UNL     1      -0.190  -2.723  -1.950  1.00  0.00     0.046 A 
ATOM     21  C   UNL     1       2.101  -2.016  -1.699  1.00  0.00     0.052 A 
ATOM     22  C   UNL     1       0.173  -3.523  -3.032  1.00  0.00     0.004 A 
ATOM     23  C   UNL     1       1.503  -3.568  -3.454  1.00  0.00     0.006 A 
BRANCH  19  24
ATOM     24  O   UNL     1       0.311  -1.216  -0.233  1.00  0.00    -0.497 OA
ATOM     25  C   UNL     1       0.963   0.036  -0.052  1.00  0.00     0.278 C 
ENDBRANCH  19  24
ENDBRANCH  14  18
BRANCH  16  26
ATOM     26  C   UNL     1       6.758  -0.526  -2.653  1.00  0.00    -0.002 A 
ATOM     27  C   UNL     1       8.086  -0.882  -2.910  1.00  0.00     0.011 A 
ATOM     28  C   UNL     1       6.405   0.792  -2.363  1.00  0.00     0.011 A 
ATOM     29  C   UNL     1       9.077   0.098  -2.893  1.00  0.00     0.021 A 
ATOM     30  C   UNL     1       7.400   1.770  -2.319  1.00  0.00     0.021 A 
ATOM     31  C   UNL     1       8.730   1.416  -2.579  1.00  0.00     0.067 A 
BRANCH  31  32
ATOM     32  S   UNL     1      10.006   2.652  -2.521  1.00  0.00     0.175 S 
ATOM     33  C   UNL     1      11.093   2.096  -1.233  1.00  0.00     0.163 C 
ATOM     34  O   UNL     1      10.713   2.583  -3.784  1.00  0.00    -0.224 OA
ATOM     35  O   UNL     1       9.396   3.891  -2.073  1.00  0.00    -0.224 OA
ENDBRANCH  31  32
ENDBRANCH  16  26
ENDBRANCH   8  13
ENDBRANCH   4   7
ENDBRANCH   2   3
ENDBRANCH   1   2
BRANCH   1  36
ATOM     36  C   UNL     1       5.319 -12.044  -1.997  1.00  0.00     0.023 C 
BRANCH  36  37
ATOM     37  C   UNL     1       4.232 -13.040  -2.386  1.00  0.00     0.116 C 
BRANCH  37  38
ATOM     38  N   UNL     1       3.881 -12.973  -3.795  1.00  0.00    -0.352 N 
ATOM     39  C   UNL     1       3.476 -13.988  -4.627  1.00  0.00     0.251 C 
ATOM     40  H   UNL     1       3.943 -12.082  -4.208  1.00  0.00     0.163 HD
ATOM     41  O   UNL     1       3.347 -13.773  -5.828  1.00  0.00    -0.269 OA
BRANCH  39  42
ATOM     42  C   UNL     1       3.242 -15.337  -4.072  1.00  0.00     0.039 A 
ATOM     43  C   UNL     1       3.783 -16.438  -4.739  1.00  0.00     0.014 A 
ATOM     44  C   UNL     1       2.510 -15.515  -2.895  1.00  0.00     0.014 A 
ATOM     45  C   UNL     1       3.632 -17.714  -4.195  1.00  0.00     0.010 A 
ATOM     46  C   UNL     1       2.424 -16.778  -2.317  1.00  0.00     0.010 A 
ATOM     47  C   UNL     1       2.977 -17.892  -2.965  1.00  0.00    -0.014 A 
BRANCH  47  48
ATOM     48  C   UNL     1       2.852 -19.242  -2.360  1.00  0.00     0.031 A 
ATOM     49  C   UNL     1       1.496 -19.871  -2.191  1.00  0.00     0.074 A 
ATOM     50  C   UNL     1       3.958 -19.882  -1.931  1.00  0.00     0.049 A 
ATOM     51  N   UNL     1       1.180 -21.031  -1.676  1.00  0.00    -0.248 NA
ATOM     52  C   UNL     1       0.341 -19.076  -2.633  1.00  0.00     0.031 C 
ATOM     53  C   UNL     1       5.321 -19.348  -1.994  1.00  0.00     0.029 A 
ATOM     54  N   UNL     1       4.114 -21.119  -1.360  1.00  0.00    -0.354 N 
ATOM     55  C   UNL     1      -0.208 -21.103  -1.726  1.00  0.00     0.074 A 
ATOM     56  C   UNL     1      -0.673 -19.839  -2.255  1.00  0.00     0.031 C 
ATOM     57  C   UNL     1       6.175 -20.265  -1.512  1.00  0.00     0.029 A 
ATOM     58  C   UNL     1       5.422 -21.435  -1.073  1.00  0.00     0.049 A 
ATOM     59  H   UNL     1       3.360 -21.724  -1.172  1.00  0.00     0.167 HD
ATOM     60  C   UNL     1      -1.018 -22.138  -1.389  1.00  0.00     0.034 A 
ATOM     61  C   UNL     1       5.952 -22.542  -0.517  1.00  0.00     0.034 A 
ATOM     62  C   UNL     1      -0.534 -23.395  -0.871  1.00  0.00     0.049 A 
ATOM     63  C   UNL     1       5.032 -23.677  -0.143  1.00  0.00     0.074 A 
ATOM     64  C   UNL     1      -1.256 -24.530  -0.546  1.00  0.00     0.029 A 
ATOM     65  N   UNL     1       0.798 -23.682  -0.594  1.00  0.00    -0.354 N 
ATOM     66  N   UNL     1       3.726 -23.754  -0.257  1.00  0.00    -0.248 NA
ATOM     67  C   UNL     1       5.662 -24.878   0.418  1.00  0.00     0.031 C 
ATOM     68  C   UNL     1      -0.373 -25.475  -0.011  1.00  0.00     0.029 A 
ATOM     69  C   UNL     1       0.913 -24.963  -0.074  1.00  0.00     0.049 A 
ATOM     70  H   UNL     1       1.550 -23.065  -0.745  1.00  0.00     0.167 HD
ATOM     71  C   UNL     1       3.382 -25.026   0.194  1.00  0.00     0.074 A 
ATOM     72  C   UNL     1       4.621 -25.685   0.556  1.00  0.00     0.031 C 
ATOM     73  C   UNL     1       2.155 -25.599   0.300  1.00  0.00     0.034 A 
BRANCH  60  74
ATOM     74  C   UNL     1      -2.506 -21.935  -1.553  1.00  0.00     0.023 A 
ATOM     75  C   UNL     1      -3.083 -21.685  -2.812  1.00  0.00     0.031 A 
ATOM     76  C   UNL     1      -3.358 -21.956  -0.435  1.00  0.00     0.131 A 
ATOM     77  C   UNL     1      -4.449 -21.384  -2.911  1.00  0.00     0.055 A 
ATOM     78  C   UNL     1      -4.733 -21.742  -0.552  1.00  0.00     0.041 A 
ATOM     79  F   UNL     1      -2.866 -22.169   0.796  1.00  0.00    -0.206 F 
ATOM     80  C   UNL     1      -5.284 -21.436  -1.793  1.00  0.00     0.022 A 
BRANCH  77  81
ATOM     81  S   UNL     1      -5.089 -20.774  -4.495  1.00  0.00     0.124 S 
ATOM     82  O   UNL     1      -4.274 -19.579  -4.701  1.00  0.00    -0.237 OA
ATOM     83  O   UNL     1      -4.824 -21.891  -5.394  1.00  0.00    -0.237 OA
ATOM     84  O   UNL     1      -6.501 -20.516  -4.219  1.00  0.00    -0.744 OA
ENDBRANCH  77  81
ENDBRANCH  60  74
BRANCH  61  85
ATOM     85  C   UNL     1       7.421 -22.643  -0.282  1.00  0.00     0.023 A 
ATOM     86  C   UNL     1       8.198 -23.602  -0.951  1.00  0.00     0.031 A 
ATOM     87  C   UNL     1       8.063 -21.810   0.652  1.00  0.00     0.131 A 
ATOM     88  C   UNL     1       9.560 -23.740  -0.641  1.00  0.00     0.055 A 
ATOM     89  C   UNL     1       9.430 -21.915   0.917  1.00  0.00     0.041 A 
ATOM     90  F   UNL     1       7.369 -20.871   1.314  1.00  0.00    -0.206 F 
ATOM     91  C   UNL     1      10.184 -22.894   0.279  1.00  0.00     0.022 A 
BRANCH  88  92
ATOM     92  S   UNL     1      10.489 -25.102  -1.398  1.00  0.00     0.124 S 
ATOM     93  O   UNL     1       9.722 -26.263  -0.963  1.00  0.00    -0.237 OA
ATOM     94  O   UNL     1      10.407 -24.772  -2.817  1.00  0.00    -0.237 OA
ATOM     95  O   UNL     1      11.820 -24.975  -0.807  1.00  0.00    -0.744 OA
ENDBRANCH  88  92
ENDBRANCH  61  85
BRANCH  73  96
ATOM     96  C   UNL     1       2.111 -27.025   0.797  1.00  0.00     0.023 A 
ATOM     97  C   UNL     1       2.507 -27.365   2.102  1.00  0.00     0.031 A 
ATOM     98  C   UNL     1       1.698 -28.061  -0.059  1.00  0.00     0.131 A 
ATOM     99  C   UNL     1       2.550 -28.712   2.492  1.00  0.00     0.055 A 
ATOM    100  C   UNL     1       1.678 -29.394   0.356  1.00  0.00     0.041 A 
ATOM    101  F   UNL     1       1.311 -27.797  -1.317  1.00  0.00    -0.206 F 
ATOM    102  C   UNL     1       2.122 -29.727   1.633  1.00  0.00     0.022 A 
BRANCH  99 103
ATOM    103  S   UNL     1       3.285 -29.130   4.097  1.00  0.00     0.124 S 
ATOM    104  O   UNL     1       4.617 -28.544   3.982  1.00  0.00    -0.237 OA
ATOM    105  O   UNL     1       2.380 -28.474   5.034  1.00  0.00    -0.237 OA
ATOM    106  O   UNL     1       3.250 -30.591   4.120  1.00  0.00    -0.744 OA
ENDBRANCH  99 103
ENDBRANCH  73  96
ENDBRANCH  47  48
ENDBRANCH  39  42
ENDBRANCH  37  38
ENDBRANCH  36  37
ENDBRANCH   1  36
TORSDOF 19
