REMARK SMILES COc1cc(/C=C/C(=O)NCCCCNC(=O)c2ccc(-c3c4nc(c(-c5cc(S(=O)(=O)[O-])ccc5F)c5ccc([nH]5)c(-c5cc(S(=O)(=O)[O-])ccc5F)c5nc(c(-c6cc(S(=O)(=O)[O-])ccc6F)c6ccc3[nH]6)C=C5)C=C4)cc2)cc(OC)c1O
REMARK SMILES IDX 13 1 12 2 11 3 10 4 8 5 9 6 7 8 6 9 5 10 3 11 4 12 85 13
REMARK SMILES IDX 82 14 81 15 2 16 1 17 86 18 83 20 84 21 14 22 15 23 16 24
REMARK SMILES IDX 17 26 18 27 19 28 80 29 20 30 79 31 21 32 22 33 23 34 73 35
REMARK SMILES IDX 24 36 78 37 72 38 74 39 25 40 77 41 71 42 70 43 26 45 58 46
REMARK SMILES IDX 38 47 57 48 39 49 42 50 56 51 75 52 40 53 41 54 55 56 76 57
REMARK SMILES IDX 43 58 27 59 28 60 36 61 29 62 35 63 37 64 34 65 30 66 31 67
REMARK SMILES IDX 32 68 33 69 59 70 60 71 68 72 61 73 67 74 69 75 66 76 62 77
REMARK SMILES IDX 63 78 64 79 65 80 44 81 45 82 53 83 46 84 52 85 54 86 51 87
REMARK SMILES IDX 47 88 48 89 49 90 50 91
REMARK H PARENT 10 7 86 19 15 25 74 44 42 55
REMARK Flexibility Score: inf
ROOT
ATOM      1  C   UNL     1      -3.824   3.283  -9.139  1.00  0.00     0.023 C 
ENDROOT
BRANCH   1   2
ATOM      2  C   UNL     1      -3.074   2.485  -8.066  1.00  0.00     0.023 C 
BRANCH   2   3
ATOM      3  C   UNL     1      -1.583   2.807  -7.958  1.00  0.00     0.116 C 
BRANCH   3   4
ATOM      4  N   UNL     1      -1.359   4.057  -7.254  1.00  0.00    -0.353 N 
ATOM      5  C   UNL     1      -0.815   4.306  -6.033  1.00  0.00     0.243 C 
ATOM      6  O   UNL     1      -0.601   5.466  -5.685  1.00  0.00    -0.270 OA
ATOM      7  H   UNL     1      -1.651   4.860  -7.743  1.00  0.00     0.163 HD
BRANCH   5   8
ATOM      8  C   UNL     1      -0.401   3.207  -5.128  1.00  0.00     0.072 C 
ATOM      9  C   UNL     1      -1.163   2.140  -4.850  1.00  0.00     0.014 C 
BRANCH   9  10
ATOM     10  C   UNL     1      -0.798   1.081  -3.900  1.00  0.00    -0.018 A 
ATOM     11  C   UNL     1      -0.205   0.309  -1.692  1.00  0.00     0.165 A 
ATOM     12  C   UNL     1      -0.389   1.359  -2.592  1.00  0.00     0.058 A 
ATOM     13  C   UNL     1      -0.463  -1.018  -2.068  1.00  0.00     0.200 A 
ATOM     14  C   UNL     1      -0.817  -1.316  -3.384  1.00  0.00     0.165 A 
ATOM     15  C   UNL     1      -0.984  -0.255  -4.287  1.00  0.00     0.058 A 
BRANCH  11  16
ATOM     16  O   UNL     1       0.094   0.610  -0.384  1.00  0.00    -0.493 OA
ATOM     17  C   UNL     1       1.465   0.323  -0.092  1.00  0.00     0.278 C 
ENDBRANCH  11  16
BRANCH  13  18
ATOM     18  O   UNL     1      -0.421  -1.980  -1.093  1.00  0.00    -0.502 OA
ATOM     19  H   UNL     1      -0.180  -1.750  -0.218  1.00  0.00     0.293 HD
ENDBRANCH  13  18
BRANCH  14  20
ATOM     20  O   UNL     1      -1.082  -2.538  -3.941  1.00  0.00    -0.493 OA
ATOM     21  C   UNL     1      -0.961  -3.689  -3.119  1.00  0.00     0.278 C 
ENDBRANCH  14  20
ENDBRANCH   9  10
ENDBRANCH   5   8
ENDBRANCH   3   4
ENDBRANCH   2   3
ENDBRANCH   1   2
BRANCH   1  22
ATOM     22  C   UNL     1      -3.355   3.060 -10.576  1.00  0.00     0.116 C 
BRANCH  22  23
ATOM     23  N   UNL     1      -3.409   1.666 -10.994  1.00  0.00    -0.352 N 
ATOM     24  C   UNL     1      -3.736   1.152 -12.228  1.00  0.00     0.251 C 
ATOM     25  H   UNL     1      -3.183   1.004 -10.302  1.00  0.00     0.163 HD
ATOM     26  O   UNL     1      -3.826  -0.062 -12.385  1.00  0.00    -0.269 OA
BRANCH  24  27
ATOM     27  C   UNL     1      -4.022   2.077 -13.343  1.00  0.00     0.039 A 
ATOM     28  C   UNL     1      -5.229   1.946 -14.036  1.00  0.00     0.014 A 
ATOM     29  C   UNL     1      -3.131   3.106 -13.659  1.00  0.00     0.014 A 
ATOM     30  C   UNL     1      -5.588   2.908 -14.982  1.00  0.00     0.010 A 
ATOM     31  C   UNL     1      -3.515   4.092 -14.565  1.00  0.00     0.010 A 
ATOM     32  C   UNL     1      -4.757   4.016 -15.214  1.00  0.00    -0.014 A 
BRANCH  32  33
ATOM     33  C   UNL     1      -5.189   5.141 -16.083  1.00  0.00     0.031 A 
ATOM     34  C   UNL     1      -4.447   5.442 -17.354  1.00  0.00     0.074 A 
ATOM     35  C   UNL     1      -6.186   5.949 -15.669  1.00  0.00     0.049 A 
ATOM     36  N   UNL     1      -4.578   6.458 -18.167  1.00  0.00    -0.248 NA
ATOM     37  C   UNL     1      -3.403   4.484 -17.745  1.00  0.00     0.031 C 
ATOM     38  C   UNL     1      -6.959   5.774 -14.437  1.00  0.00     0.029 A 
ATOM     39  N   UNL     1      -6.705   7.092 -16.224  1.00  0.00    -0.354 N 
ATOM     40  C   UNL     1      -3.627   6.270 -19.163  1.00  0.00     0.074 A 
ATOM     41  C   UNL     1      -2.896   5.067 -18.822  1.00  0.00     0.031 C 
ATOM     42  C   UNL     1      -7.856   6.768 -14.335  1.00  0.00     0.029 A 
ATOM     43  C   UNL     1      -7.689   7.679 -15.461  1.00  0.00     0.049 A 
ATOM     44  H   UNL     1      -6.403   7.457 -17.087  1.00  0.00     0.167 HD
ATOM     45  C   UNL     1      -3.398   7.024 -20.267  1.00  0.00     0.034 A 
ATOM     46  C   UNL     1      -8.358   8.836 -15.633  1.00  0.00     0.034 A 
ATOM     47  C   UNL     1      -4.141   8.217 -20.593  1.00  0.00     0.049 A 
ATOM     48  C   UNL     1      -8.044   9.687 -16.837  1.00  0.00     0.074 A 
ATOM     49  C   UNL     1      -4.040   9.015 -21.720  1.00  0.00     0.029 A 
ATOM     50  N   UNL     1      -5.115   8.793 -19.787  1.00  0.00    -0.354 N 
ATOM     51  N   UNL     1      -7.174   9.470 -17.796  1.00  0.00    -0.248 NA
ATOM     52  C   UNL     1      -8.799  10.939 -16.979  1.00  0.00     0.031 C 
ATOM     53  C   UNL     1      -4.902  10.107 -21.564  1.00  0.00     0.029 A 
ATOM     54  C   UNL     1      -5.591   9.957 -20.372  1.00  0.00     0.049 A 
ATOM     55  H   UNL     1      -5.423   8.428 -18.926  1.00  0.00     0.167 HD
ATOM     56  C   UNL     1      -7.291  10.552 -18.664  1.00  0.00     0.074 A 
ATOM     57  C   UNL     1      -8.327  11.409 -18.124  1.00  0.00     0.031 C 
ATOM     58  C   UNL     1      -6.606  10.813 -19.806  1.00  0.00     0.034 A 
BRANCH  45  59
ATOM     59  C   UNL     1      -2.281   6.591 -21.183  1.00  0.00     0.023 A 
ATOM     60  C   UNL     1      -2.331   5.372 -21.882  1.00  0.00     0.031 A 
ATOM     61  C   UNL     1      -1.141   7.397 -21.346  1.00  0.00     0.131 A 
ATOM     62  C   UNL     1      -1.235   4.963 -22.655  1.00  0.00     0.055 A 
ATOM     63  C   UNL     1      -0.084   7.018 -22.177  1.00  0.00     0.041 A 
ATOM     64  F   UNL     1      -1.028   8.563 -20.690  1.00  0.00    -0.206 F 
ATOM     65  C   UNL     1      -0.121   5.788 -22.826  1.00  0.00     0.022 A 
BRANCH  62  66
ATOM     66  S   UNL     1      -1.232   3.279 -23.328  1.00  0.00     0.124 S 
ATOM     67  O   UNL     1      -1.326   2.475 -22.112  1.00  0.00    -0.237 OA
ATOM     68  O   UNL     1      -2.411   3.280 -24.186  1.00  0.00    -0.237 OA
ATOM     69  O   UNL     1       0.048   3.191 -24.027  1.00  0.00    -0.744 OA
ENDBRANCH  62  66
ENDBRANCH  45  59
BRANCH  46  70
ATOM     70  C   UNL     1      -9.362   9.287 -14.628  1.00  0.00     0.023 A 
ATOM     71  C   UNL     1     -10.720   9.400 -14.965  1.00  0.00     0.031 A 
ATOM     72  C   UNL     1      -8.972   9.657 -13.328  1.00  0.00     0.131 A 
ATOM     73  C   UNL     1     -11.632   9.912 -14.030  1.00  0.00     0.055 A 
ATOM     74  C   UNL     1      -9.891  10.119 -12.385  1.00  0.00     0.041 A 
ATOM     75  F   UNL     1      -7.686   9.565 -12.954  1.00  0.00    -0.206 F 
ATOM     76  C   UNL     1     -11.229  10.260 -12.739  1.00  0.00     0.022 A 
BRANCH  73  77
ATOM     77  S   UNL     1     -13.346  10.193 -14.554  1.00  0.00     0.124 S 
ATOM     78  O   UNL     1     -13.167  11.102 -15.680  1.00  0.00    -0.237 OA
ATOM     79  O   UNL     1     -13.787   8.841 -14.883  1.00  0.00    -0.237 OA
ATOM     80  O   UNL     1     -13.972  10.779 -13.371  1.00  0.00    -0.744 OA
ENDBRANCH  73  77
ENDBRANCH  46  70
BRANCH  58  81
ATOM     81  C   UNL     1      -6.980  12.069 -20.551  1.00  0.00     0.023 A 
ATOM     82  C   UNL     1      -6.686  13.343 -20.035  1.00  0.00     0.031 A 
ATOM     83  C   UNL     1      -7.646  11.990 -21.786  1.00  0.00     0.131 A 
ATOM     84  C   UNL     1      -7.097  14.489 -20.730  1.00  0.00     0.055 A 
ATOM     85  C   UNL     1      -8.005  13.134 -22.500  1.00  0.00     0.041 A 
ATOM     86  F   UNL     1      -7.952  10.798 -22.322  1.00  0.00    -0.206 F 
ATOM     87  C   UNL     1      -7.740  14.393 -21.967  1.00  0.00     0.022 A 
BRANCH  84  88
ATOM     88  S   UNL     1      -6.838  16.113 -19.966  1.00  0.00     0.124 S 
ATOM     89  O   UNL     1      -7.646  16.009 -18.754  1.00  0.00    -0.237 OA
ATOM     90  O   UNL     1      -5.393  16.141 -19.768  1.00  0.00    -0.237 OA
ATOM     91  O   UNL     1      -7.343  17.049 -20.969  1.00  0.00    -0.744 OA
ENDBRANCH  84  88
ENDBRANCH  58  81
ENDBRANCH  32  33
ENDBRANCH  24  27
ENDBRANCH  22  23
ENDBRANCH   1  22
TORSDOF 18
