REMARK SMILES CC[NH+](CC)C[C@H](C)NC(=O)N[C@H]1C=C[C@@H](C(=O)NCCCCNC(=O)c2ccc(-c3c4nc(c(-c5cc(S(=O)(=O)[O-])ccc5F)c5ccc([nH]5)c(-c5cc(S(=O)(=O)[O-])ccc5F)c5nc(c(-c6cc(S(=O)(=O)[O-])ccc6F)c6ccc3[nH]6)C=C5)C=C4)cc2)C1
REMARK SMILES IDX 20 1 19 2 17 3 18 4 16 6 13 7 14 8 90 9 15 10 12 11 9 12
REMARK SMILES IDX 10 13 11 15 7 17 8 18 6 19 3 20 2 22 1 23 4 24 5 25 21 26
REMARK SMILES IDX 22 27 23 28 24 29 25 30 26 32 27 33 28 34 89 35 29 36 88 37
REMARK SMILES IDX 30 38 31 39 32 40 82 41 33 42 87 43 81 44 83 45 34 46 86 47
REMARK SMILES IDX 80 48 79 49 35 51 67 52 47 53 66 54 48 55 51 56 65 57 84 58
REMARK SMILES IDX 49 59 50 60 64 62 85 63 52 64 36 65 37 66 45 67 38 68 44 69
REMARK SMILES IDX 46 70 43 71 39 72 40 73 41 74 42 75 68 76 69 77 77 78 70 79
REMARK SMILES IDX 76 80 78 81 75 82 71 83 72 84 73 85 74 86 53 87 54 88 62 89
REMARK SMILES IDX 55 90 61 91 63 92 60 93 56 94 57 95 58 96 59 97
REMARK H PARENT 19 5 9 14 12 16 3 21 24 31 83 50 51 61
REMARK Flexibility Score: inf
ROOT
ATOM      1  C   UNL     1       3.596   0.072   8.936  1.00  0.00     0.116 C 
ENDROOT
BRANCH   1   2
ATOM      2  N   UNL     1       2.368   0.804   9.176  1.00  0.00    -0.356 N 
ATOM      3  C   UNL     1       1.162   0.751   8.543  1.00  0.00     0.227 C 
ATOM      4  O   UNL     1       0.252   1.459   8.986  1.00  0.00    -0.274 OA
ATOM      5  H   UNL     1       2.412   1.446   9.921  1.00  0.00     0.163 HD
BRANCH   3   6
ATOM      6  C   UNL     1       0.910  -0.127   7.311  1.00  0.00     0.103 C 
ATOM      7  C   UNL     1       2.376  -0.976   5.533  1.00  0.00     0.107 C 
ATOM      8  C   UNL     1       2.107  -2.010   6.577  1.00  0.00    -0.006 C 
ATOM      9  C   UNL     1       1.717   0.297   6.079  1.00  0.00     0.047 C 
ATOM     10  C   UNL     1       1.267  -1.567   7.519  1.00  0.00    -0.016 C 
BRANCH   7  11
ATOM     11  N   UNL     1       3.791  -0.787   5.346  1.00  0.00    -0.332 N 
ATOM     12  N   UNL     1       4.040  -0.052   3.110  1.00  0.00    -0.330 N 
ATOM     13  C   UNL     1       4.523  -0.325   4.326  1.00  0.00     0.315 C 
ATOM     14  H   UNL     1       4.713   0.365   2.525  1.00  0.00     0.165 HD
ATOM     15  O   UNL     1       5.728  -0.148   4.517  1.00  0.00    -0.249 OA
ATOM     16  H   UNL     1       4.329  -1.052   6.127  1.00  0.00     0.165 HD
BRANCH  12  17
ATOM     17  C   UNL     1       2.757  -0.225   2.442  1.00  0.00     0.135 C 
ATOM     18  C   UNL     1       2.443   1.036   1.627  1.00  0.00     0.037 C 
BRANCH  17  19
ATOM     19  C   UNL     1       2.631  -1.504   1.551  1.00  0.00     0.287 C 
BRANCH  19  20
ATOM     20  N   UNL     1       3.522  -2.654   1.678  1.00  0.00    -0.334 N 
ATOM     21  H   UNL     1       3.206  -3.098   0.816  1.00  0.00     0.348 HD
BRANCH  20  22
ATOM     22  C   UNL     1       4.926  -2.518   1.321  1.00  0.00     0.258 C 
ATOM     23  C   UNL     1       5.157  -1.812  -0.011  1.00  0.00     0.071 C 
ENDBRANCH  20  22
BRANCH  20  24
ATOM     24  C   UNL     1       3.183  -3.690   2.646  1.00  0.00     0.258 C 
ATOM     25  C   UNL     1       4.133  -3.890   3.822  1.00  0.00     0.071 C 
ENDBRANCH  20  24
ENDBRANCH  19  20
ENDBRANCH  17  19
ENDBRANCH  12  17
ENDBRANCH   7  11
ENDBRANCH   3   6
ENDBRANCH   1   2
BRANCH   1  26
ATOM     26  C   UNL     1       4.760   0.984   8.570  1.00  0.00     0.023 C 
BRANCH  26  27
ATOM     27  C   UNL     1       5.312   1.792   9.740  1.00  0.00     0.023 C 
BRANCH  27  28
ATOM     28  C   UNL     1       5.730   0.966  10.951  1.00  0.00     0.116 C 
BRANCH  28  29
ATOM     29  N   UNL     1       6.726  -0.050  10.645  1.00  0.00    -0.352 N 
ATOM     30  C   UNL     1       7.805  -0.441  11.409  1.00  0.00     0.251 C 
ATOM     31  H   UNL     1       6.616  -0.516   9.785  1.00  0.00     0.163 HD
ATOM     32  O   UNL     1       8.620  -1.235  10.973  1.00  0.00    -0.269 OA
BRANCH  30  33
ATOM     33  C   UNL     1       7.971   0.163  12.750  1.00  0.00     0.039 A 
ATOM     34  C   UNL     1       9.190   0.762  13.072  1.00  0.00     0.014 A 
ATOM     35  C   UNL     1       6.898   0.205  13.643  1.00  0.00     0.014 A 
ATOM     36  C   UNL     1       9.307   1.472  14.268  1.00  0.00     0.010 A 
ATOM     37  C   UNL     1       6.992   0.983  14.791  1.00  0.00     0.010 A 
ATOM     38  C   UNL     1       8.197   1.624  15.116  1.00  0.00    -0.014 A 
BRANCH  38  39
ATOM     39  C   UNL     1       8.282   2.446  16.350  1.00  0.00     0.031 A 
ATOM     40  C   UNL     1       8.078   1.806  17.695  1.00  0.00     0.074 A 
ATOM     41  C   UNL     1       8.473   3.777  16.254  1.00  0.00     0.049 A 
ATOM     42  N   UNL     1       8.053   2.358  18.881  1.00  0.00    -0.248 NA
ATOM     43  C   UNL     1       7.828   0.358  17.698  1.00  0.00     0.031 C 
ATOM     44  C   UNL     1       8.614   4.522  15.001  1.00  0.00     0.029 A 
ATOM     45  N   UNL     1       8.569   4.741  17.225  1.00  0.00    -0.354 N 
ATOM     46  C   UNL     1       7.778   1.325  19.771  1.00  0.00     0.074 A 
ATOM     47  C   UNL     1       7.558   0.136  18.974  1.00  0.00     0.031 C 
ATOM     48  C   UNL     1       8.797   5.822  15.281  1.00  0.00     0.029 A 
ATOM     49  C   UNL     1       8.748   6.010  16.727  1.00  0.00     0.049 A 
ATOM     50  H   UNL     1       8.514   4.543  18.188  1.00  0.00     0.167 HD
ATOM     51  C   UNL     1       7.745   1.357  21.127  1.00  0.00     0.034 A 
ATOM     52  C   UNL     1       8.851   7.194  17.363  1.00  0.00     0.034 A 
ATOM     53  C   UNL     1       7.964   2.555  21.902  1.00  0.00     0.049 A 
ATOM     54  C   UNL     1       8.806   7.215  18.868  1.00  0.00     0.074 A 
ATOM     55  C   UNL     1       8.006   2.700  23.277  1.00  0.00     0.029 A 
ATOM     56  N   UNL     1       8.164   3.823  21.365  1.00  0.00    -0.354 N 
ATOM     57  N   UNL     1       8.616   6.219  19.703  1.00  0.00    -0.248 NA
ATOM     58  C   UNL     1       9.007   8.516  19.515  1.00  0.00     0.031 C 
ATOM     59  C   UNL     1       8.162   4.061  23.571  1.00  0.00     0.029 A 
ATOM     60  C   UNL     1       8.298   4.758  22.381  1.00  0.00     0.049 A 
ATOM     61  H   UNL     1       8.205   4.027  20.403  1.00  0.00     0.167 HD
ATOM     62  C   UNL     1       8.691   6.772  20.978  1.00  0.00     0.074 A 
ATOM     63  C   UNL     1       8.970   8.184  20.798  1.00  0.00     0.031 C 
ATOM     64  C   UNL     1       8.545   6.170  22.187  1.00  0.00     0.034 A 
BRANCH  51  65
ATOM     65  C   UNL     1       7.437   0.056  21.836  1.00  0.00     0.023 A 
ATOM     66  C   UNL     1       8.251  -1.081  21.671  1.00  0.00     0.031 A 
ATOM     67  C   UNL     1       6.282  -0.077  22.626  1.00  0.00     0.131 A 
ATOM     68  C   UNL     1       7.843  -2.319  22.190  1.00  0.00     0.055 A 
ATOM     69  C   UNL     1       5.934  -1.291  23.224  1.00  0.00     0.041 A 
ATOM     70  F   UNL     1       5.453   0.963  22.807  1.00  0.00    -0.206 F 
ATOM     71  C   UNL     1       6.703  -2.427  22.988  1.00  0.00     0.022 A 
BRANCH  68  72
ATOM     72  S   UNL     1       8.715  -3.813  21.641  1.00  0.00     0.124 S 
ATOM     73  O   UNL     1       8.563  -3.727  20.191  1.00  0.00    -0.237 OA
ATOM     74  O   UNL     1      10.062  -3.599  22.157  1.00  0.00    -0.237 OA
ATOM     75  O   UNL     1       7.968  -4.898  22.274  1.00  0.00    -0.744 OA
ENDBRANCH  68  72
ENDBRANCH  51  65
BRANCH  52  76
ATOM     76  C   UNL     1       8.993   8.453  16.577  1.00  0.00     0.023 A 
ATOM     77  C   UNL     1      10.175   9.208  16.614  1.00  0.00     0.031 A 
ATOM     78  C   UNL     1       7.934   8.921  15.778  1.00  0.00     0.131 A 
ATOM     79  C   UNL     1      10.260  10.409  15.891  1.00  0.00     0.055 A 
ATOM     80  C   UNL     1       8.040  10.091  15.025  1.00  0.00     0.041 A 
ATOM     81  F   UNL     1       6.786   8.230  15.700  1.00  0.00    -0.206 F 
ATOM     82  C   UNL     1       9.205  10.848  15.087  1.00  0.00     0.022 A 
BRANCH  79  83
ATOM     83  S   UNL     1      11.755  11.423  16.058  1.00  0.00     0.124 S 
ATOM     84  O   UNL     1      11.758  11.716  17.487  1.00  0.00    -0.237 OA
ATOM     85  O   UNL     1      12.793  10.513  15.587  1.00  0.00    -0.237 OA
ATOM     86  O   UNL     1      11.490  12.566  15.187  1.00  0.00    -0.744 OA
ENDBRANCH  79  83
ENDBRANCH  52  76
BRANCH  64  87
ATOM     87  C   UNL     1       8.707   7.046  23.407  1.00  0.00     0.023 A 
ATOM     88  C   UNL     1       7.807   8.089  23.692  1.00  0.00     0.031 A 
ATOM     89  C   UNL     1       9.791   6.853  24.281  1.00  0.00     0.131 A 
ATOM     90  C   UNL     1       8.044   8.940  24.782  1.00  0.00     0.055 A 
ATOM     91  C   UNL     1       9.985   7.661  25.402  1.00  0.00     0.041 A 
ATOM     92  F   UNL     1      10.684   5.876  24.057  1.00  0.00    -0.206 F 
ATOM     93  C   UNL     1       9.118   8.722  25.649  1.00  0.00     0.022 A 
BRANCH  90  94
ATOM     94  S   UNL     1       6.996  10.406  24.986  1.00  0.00     0.124 S 
ATOM     95  O   UNL     1       7.178  11.088  23.709  1.00  0.00    -0.237 OA
ATOM     96  O   UNL     1       5.680   9.819  25.214  1.00  0.00    -0.237 OA
ATOM     97  O   UNL     1       7.580  11.087  26.140  1.00  0.00    -0.744 OA
ENDBRANCH  90  94
ENDBRANCH  64  87
ENDBRANCH  38  39
ENDBRANCH  30  33
ENDBRANCH  28  29
ENDBRANCH  27  28
ENDBRANCH  26  27
ENDBRANCH   1  26
TORSDOF 20
