REMARK SMILES O=C(NCCCCNC(=O)[C@H]1[C@H]2CC[C@H](C2)[C@@H]1C(=O)Nc1sc2c(c1C(=O)NC1CCCCC1)CCCC2)c1ccc(-c2c3nc(c(-c4cc(S(=O)(=O)[O-])ccc4F)c4ccc([nH]4)c(-c4cc(S(=O)(=O)[O-])ccc4F)c4nc(c(-c5cc(S(=O)(=O)[O-])ccc5F)c5ccc2[nH]5)C=C4)C=C3)cc1
REMARK SMILES IDX 6 1 5 2 4 3 3 4 1 5 2 6 39 8 40 9 101 10 41 11 100 12 42 13
REMARK SMILES IDX 43 14 44 15 94 16 45 17 99 18 93 19 95 20 46 21 98 22 92 23
REMARK SMILES IDX 91 24 47 26 79 27 59 28 78 29 60 30 63 31 77 32 96 33 61 34
REMARK SMILES IDX 62 35 76 37 97 38 64 39 48 40 49 41 57 42 50 43 56 44 58 45
REMARK SMILES IDX 55 46 51 47 52 48 53 49 54 50 80 51 81 52 89 53 82 54 88 55
REMARK SMILES IDX 90 56 87 57 83 58 84 59 85 60 86 61 65 62 66 63 74 64 67 65
REMARK SMILES IDX 73 66 75 67 72 68 68 69 69 70 70 71 71 72 7 73 8 74 9 75
REMARK SMILES IDX 10 77 11 78 12 79 17 80 13 81 16 82 15 83 14 84 18 85 19 86
REMARK SMILES IDX 20 87 21 89 22 90 25 91 23 92 24 93 38 94 35 95 37 96 36 97
REMARK SMILES IDX 26 98 27 99 28 100 29 102 30 103 34 104 31 105 33 106 32 107
REMARK H PARENT 3 7 95 25 63 36 8 76 20 88 28 101
REMARK Flexibility Score: inf
ROOT
ATOM      1  C   UNL     1       5.862  -7.964  -0.193  1.00  0.00     0.023 C 
ENDROOT
BRANCH   1   2
ATOM      2  C   UNL     1       4.630  -8.474   0.534  1.00  0.00     0.023 C 
BRANCH   2   3
ATOM      3  C   UNL     1       3.952  -9.705  -0.054  1.00  0.00     0.116 C 
BRANCH   3   4
ATOM      4  N   UNL     1       4.834 -10.844  -0.305  1.00  0.00    -0.352 N 
ATOM      5  O   UNL     1       5.451 -13.029  -0.287  1.00  0.00    -0.269 OA
ATOM      6  C   UNL     1       4.609 -12.176  -0.024  1.00  0.00     0.251 C 
ATOM      7  H   UNL     1       5.698 -10.634  -0.729  1.00  0.00     0.163 HD
BRANCH   6   8
ATOM      8  C   UNL     1       3.349 -12.543   0.653  1.00  0.00     0.039 A 
ATOM      9  C   UNL     1       2.137 -12.097   0.128  1.00  0.00     0.014 A 
ATOM     10  C   UNL     1       3.400 -13.176   1.897  1.00  0.00     0.014 A 
ATOM     11  C   UNL     1       1.019 -12.072   0.950  1.00  0.00     0.010 A 
ATOM     12  C   UNL     1       2.241 -13.252   2.675  1.00  0.00     0.010 A 
ATOM     13  C   UNL     1       1.057 -12.636   2.238  1.00  0.00    -0.014 A 
BRANCH  13  14
ATOM     14  C   UNL     1      -0.152 -12.548   3.101  1.00  0.00     0.031 A 
ATOM     15  C   UNL     1      -0.126 -11.803   4.412  1.00  0.00     0.074 A 
ATOM     16  C   UNL     1      -1.302 -13.093   2.657  1.00  0.00     0.049 A 
ATOM     17  N   UNL     1      -1.095 -11.610   5.273  1.00  0.00    -0.248 NA
ATOM     18  C   UNL     1       1.156 -11.208   4.818  1.00  0.00     0.031 C 
ATOM     19  C   UNL     1      -1.448 -13.831   1.400  1.00  0.00     0.029 A 
ATOM     20  N   UNL     1      -2.566 -13.086   3.186  1.00  0.00    -0.354 N 
ATOM     21  C   UNL     1      -0.535 -10.905   6.335  1.00  0.00     0.074 A 
ATOM     22  C   UNL     1       0.867 -10.728   6.020  1.00  0.00     0.031 C 
ATOM     23  C   UNL     1      -2.739 -14.142   1.220  1.00  0.00     0.029 A 
ATOM     24  C   UNL     1      -3.497 -13.705   2.386  1.00  0.00     0.049 A 
ATOM     25  H   UNL     1      -2.786 -12.677   4.053  1.00  0.00     0.167 HD
ATOM     26  C   UNL     1      -1.137 -10.448   7.464  1.00  0.00     0.034 A 
ATOM     27  C   UNL     1      -4.813 -13.919   2.574  1.00  0.00     0.034 A 
ATOM     28  C   UNL     1      -2.545 -10.616   7.747  1.00  0.00     0.049 A 
ATOM     29  C   UNL     1      -5.451 -13.415   3.838  1.00  0.00     0.074 A 
ATOM     30  C   UNL     1      -3.265 -10.166   8.842  1.00  0.00     0.029 A 
ATOM     31  N   UNL     1      -3.449 -11.288   6.933  1.00  0.00    -0.354 N 
ATOM     32  N   UNL     1      -4.905 -12.754   4.832  1.00  0.00    -0.248 NA
ATOM     33  C   UNL     1      -6.883 -13.685   4.002  1.00  0.00     0.031 C 
ATOM     34  C   UNL     1      -4.583 -10.623   8.722  1.00  0.00     0.029 A 
ATOM     35  C   UNL     1      -4.710 -11.289   7.514  1.00  0.00     0.049 A 
ATOM     36  H   UNL     1      -3.227 -11.704   6.069  1.00  0.00     0.167 HD
ATOM     37  C   UNL     1      -5.937 -12.508   5.731  1.00  0.00     0.074 A 
ATOM     38  C   UNL     1      -7.138 -13.072   5.148  1.00  0.00     0.031 C 
ATOM     39  C   UNL     1      -5.896 -11.870   6.929  1.00  0.00     0.034 A 
BRANCH  26  40
ATOM     40  C   UNL     1      -0.265  -9.775   8.502  1.00  0.00     0.023 A 
ATOM     41  C   UNL     1       0.417  -8.572   8.243  1.00  0.00     0.031 A 
ATOM     42  C   UNL     1      -0.097 -10.361   9.770  1.00  0.00     0.131 A 
ATOM     43  C   UNL     1       1.288  -8.037   9.206  1.00  0.00     0.055 A 
ATOM     44  C   UNL     1       0.707  -9.780  10.754  1.00  0.00     0.041 A 
ATOM     45  F   UNL     1      -0.704 -11.519  10.073  1.00  0.00    -0.206 F 
ATOM     46  C   UNL     1       1.418  -8.619  10.469  1.00  0.00     0.022 A 
BRANCH  43  47
ATOM     47  S   UNL     1       2.363  -6.653   8.733  1.00  0.00     0.124 S 
ATOM     48  O   UNL     1       3.069  -7.207   7.579  1.00  0.00    -0.237 OA
ATOM     49  O   UNL     1       1.405  -5.593   8.446  1.00  0.00    -0.237 OA
ATOM     50  O   UNL     1       3.193  -6.442   9.917  1.00  0.00    -0.744 OA
ENDBRANCH  43  47
ENDBRANCH  26  40
BRANCH  27  51
ATOM     51  C   UNL     1      -5.602 -14.662   1.552  1.00  0.00     0.023 A 
ATOM     52  C   UNL     1      -6.648 -14.041   0.854  1.00  0.00     0.031 A 
ATOM     53  C   UNL     1      -5.329 -16.013   1.271  1.00  0.00     0.131 A 
ATOM     54  C   UNL     1      -7.409 -14.781  -0.064  1.00  0.00     0.055 A 
ATOM     55  C   UNL     1      -6.051 -16.728   0.316  1.00  0.00     0.041 A 
ATOM     56  F   UNL     1      -4.334 -16.652   1.907  1.00  0.00    -0.206 F 
ATOM     57  C   UNL     1      -7.107 -16.115  -0.349  1.00  0.00     0.022 A 
BRANCH  54  58
ATOM     58  S   UNL     1      -8.853 -13.993  -0.826  1.00  0.00     0.124 S 
ATOM     59  O   UNL     1      -9.639 -13.619   0.343  1.00  0.00    -0.237 OA
ATOM     60  O   UNL     1      -8.241 -12.895  -1.567  1.00  0.00    -0.237 OA
ATOM     61  O   UNL     1      -9.424 -15.056  -1.650  1.00  0.00    -0.744 OA
ENDBRANCH  54  58
ENDBRANCH  27  51
BRANCH  39  62
ATOM     62  C   UNL     1      -7.210 -11.714   7.655  1.00  0.00     0.023 A 
ATOM     63  C   UNL     1      -7.916 -12.822   8.156  1.00  0.00     0.031 A 
ATOM     64  C   UNL     1      -7.785 -10.440   7.806  1.00  0.00     0.131 A 
ATOM     65  C   UNL     1      -9.188 -12.643   8.719  1.00  0.00     0.055 A 
ATOM     66  C   UNL     1      -9.023 -10.261   8.425  1.00  0.00     0.041 A 
ATOM     67  F   UNL     1      -7.157  -9.347   7.343  1.00  0.00    -0.206 F 
ATOM     68  C   UNL     1      -9.740 -11.368   8.870  1.00  0.00     0.022 A 
BRANCH  65  69
ATOM     69  S   UNL     1     -10.166 -14.111   9.144  1.00  0.00     0.124 S 
ATOM     70  O   UNL     1     -10.214 -14.823   7.872  1.00  0.00    -0.237 OA
ATOM     71  O   UNL     1      -9.359 -14.729  10.191  1.00  0.00    -0.237 OA
ATOM     72  O   UNL     1     -11.442 -13.555   9.592  1.00  0.00    -0.744 OA
ENDBRANCH  65  69
ENDBRANCH  39  62
ENDBRANCH  13  14
ENDBRANCH   6   8
ENDBRANCH   3   4
ENDBRANCH   2   3
ENDBRANCH   1   2
BRANCH   1  73
ATOM     73  C   UNL     1       5.749  -7.776  -1.696  1.00  0.00     0.116 C 
BRANCH  73  74
ATOM     74  N   UNL     1       5.075  -6.576  -2.134  1.00  0.00    -0.356 N 
ATOM     75  C   UNL     1       5.344  -5.801  -3.230  1.00  0.00     0.224 C 
ATOM     76  H   UNL     1       4.325  -6.277  -1.571  1.00  0.00     0.163 HD
ATOM     77  O   UNL     1       4.577  -4.864  -3.461  1.00  0.00    -0.275 OA
BRANCH  75  78
ATOM     78  C   UNL     1       6.615  -6.021  -4.068  1.00  0.00     0.094 C 
ATOM     79  C   UNL     1       6.894  -7.494  -4.505  1.00  0.00     0.002 C 
ATOM     80  C   UNL     1       6.552  -5.301  -5.455  1.00  0.00     0.094 C 
ATOM     81  C   UNL     1       5.747  -8.098  -5.317  1.00  0.00     0.005 C 
ATOM     82  C   UNL     1       7.935  -7.283  -5.578  1.00  0.00     0.009 C 
ATOM     83  C   UNL     1       7.040  -6.393  -6.432  1.00  0.00     0.002 C 
ATOM     84  C   UNL     1       5.870  -7.378  -6.669  1.00  0.00     0.005 C 
BRANCH  80  85
ATOM     85  C   UNL     1       7.133  -3.874  -5.591  1.00  0.00     0.229 C 
ATOM     86  O   UNL     1       6.374  -2.981  -6.002  1.00  0.00    -0.274 OA
ATOM     87  N   UNL     1       8.371  -3.453  -5.220  1.00  0.00    -0.317 N 
ATOM     88  H   UNL     1       8.418  -2.493  -5.006  1.00  0.00     0.170 HD
BRANCH  87  89
ATOM     89  C   UNL     1       9.568  -4.111  -5.086  1.00  0.00     0.108 A 
ATOM     90  S   UNL     1      10.094  -5.086  -6.376  1.00  0.00    -0.122 S 
ATOM     91  C   UNL     1      10.616  -3.851  -4.193  1.00  0.00     0.078 A 
ATOM     92  C   UNL     1      11.223  -5.805  -5.337  1.00  0.00     0.011 A 
ATOM     93  C   UNL     1      11.599  -4.929  -4.327  1.00  0.00    -0.019 A 
ATOM     94  C   UNL     1      11.755  -7.185  -5.566  1.00  0.00     0.047 C 
ATOM     95  C   UNL     1      12.824  -5.251  -3.521  1.00  0.00     0.037 C 
ATOM     96  C   UNL     1      12.555  -7.627  -4.335  1.00  0.00     0.006 C 
ATOM     97  C   UNL     1      13.556  -6.530  -3.966  1.00  0.00     0.005 C 
BRANCH  91  98
ATOM     98  C   UNL     1      10.493  -2.656  -3.337  1.00  0.00     0.254 C 
ATOM     99  O   UNL     1       9.934  -1.645  -3.781  1.00  0.00    -0.269 OA
ATOM    100  N   UNL     1      10.884  -2.561  -2.030  1.00  0.00    -0.349 N 
ATOM    101  H   UNL     1      10.633  -1.705  -1.614  1.00  0.00     0.164 HD
BRANCH 100 102
ATOM    102  C   UNL     1      11.586  -3.444  -1.124  1.00  0.00     0.082 C 
ATOM    103  C   UNL     1      12.053  -2.702   0.135  1.00  0.00     0.025 C 
ATOM    104  C   UNL     1      10.756  -4.665  -0.713  1.00  0.00     0.025 C 
ATOM    105  C   UNL     1      12.926  -3.622   0.988  1.00  0.00     0.002 C 
ATOM    106  C   UNL     1      11.578  -5.614   0.162  1.00  0.00     0.002 C 
ATOM    107  C   UNL     1      12.195  -4.908   1.367  1.00  0.00     0.000 C 
ENDBRANCH 100 102
ENDBRANCH  91  98
ENDBRANCH  87  89
ENDBRANCH  80  85
ENDBRANCH  75  78
ENDBRANCH  73  74
ENDBRANCH   1  73
TORSDOF 18
