REMARK SMILES O=C(Cc1cccn1-c1ccc2c(c1)OCCO2)NCCCCNC(=O)c1ccc(-c2c3nc(c(-c4cc(S(=O)(=O)[O-])ccc4F)c4ccc([nH]4)c(-c4cc(S(=O)(=O)[O-])ccc4F)c4nc(c(-c5cc(S(=O)(=O)[O-])ccc5F)c5ccc2[nH]5)C=C4)C=C3)cc1
REMARK SMILES IDX 22 1 21 2 20 3 19 4 1 5 2 6 3 8 4 9 5 10 8 11 6 12 7 13 9 14
REMARK SMILES IDX 10 15 14 16 11 17 13 18 12 19 15 20 18 21 16 22 17 23 23 24
REMARK SMILES IDX 24 25 25 26 26 28 27 29 28 30 89 31 29 32 88 33 30 34 31 35
REMARK SMILES IDX 32 36 82 37 33 38 87 39 81 40 83 41 34 42 86 43 80 44 79 45
REMARK SMILES IDX 35 47 67 48 47 49 66 50 48 51 51 52 65 53 84 54 49 55 50 56
REMARK SMILES IDX 64 58 85 59 52 60 36 61 37 62 45 63 38 64 44 65 46 66 43 67
REMARK SMILES IDX 39 68 40 69 41 70 42 71 68 72 69 73 77 74 70 75 76 76 78 77
REMARK SMILES IDX 75 78 71 79 72 80 73 81 74 82 53 83 54 84 62 85 55 86 61 87
REMARK SMILES IDX 63 88 60 89 56 90 57 91 58 92 59 93
REMARK H PARENT 19 7 24 27 83 46 51 57
REMARK Flexibility Score: inf
ROOT
ATOM      1  C   UNL     1       3.739  -3.558   2.154  1.00  0.00     0.023 C 
ENDROOT
BRANCH   1   2
ATOM      2  C   UNL     1       2.268  -3.162   1.951  1.00  0.00     0.023 C 
BRANCH   2   3
ATOM      3  C   UNL     1       1.988  -1.658   1.933  1.00  0.00     0.116 C 
BRANCH   3   4
ATOM      4  N   UNL     1       2.714  -0.976   0.880  1.00  0.00    -0.356 N 
ATOM      5  O   UNL     1       0.937   0.225   0.058  1.00  0.00    -0.275 OA
ATOM      6  C   UNL     1       2.134  -0.051   0.036  1.00  0.00     0.225 C 
ATOM      7  H   UNL     1       3.669  -1.184   0.760  1.00  0.00     0.163 HD
BRANCH   6   8
ATOM      8  C   UNL     1       3.094   0.572  -0.975  1.00  0.00     0.154 C 
BRANCH   8   9
ATOM      9  C   UNL     1       3.847   1.726  -0.376  1.00  0.00     0.032 A 
ATOM     10  C   UNL     1       3.486   3.065  -0.436  1.00  0.00     0.024 A 
ATOM     11  N   UNL     1       4.974   1.637   0.440  1.00  0.00    -0.320 N 
ATOM     12  C   UNL     1       4.345   3.793   0.408  1.00  0.00     0.020 A 
ATOM     13  C   UNL     1       5.216   2.890   0.967  1.00  0.00     0.091 A 
BRANCH  11  14
ATOM     14  C   UNL     1       5.741   0.486   0.759  1.00  0.00     0.049 A 
ATOM     15  C   UNL     1       6.143   0.279   2.086  1.00  0.00     0.031 A 
ATOM     16  C   UNL     1       6.077  -0.447  -0.229  1.00  0.00     0.077 A 
ATOM     17  C   UNL     1       6.821  -0.891   2.428  1.00  0.00     0.052 A 
ATOM     18  C   UNL     1       6.747  -1.618   0.124  1.00  0.00     0.163 A 
ATOM     19  C   UNL     1       7.120  -1.838   1.452  1.00  0.00     0.161 A 
ATOM     20  O   UNL     1       6.995  -2.514  -0.883  1.00  0.00    -0.486 OA
ATOM     21  O   UNL     1       7.746  -2.979   1.879  1.00  0.00    -0.486 OA
ATOM     22  C   UNL     1       7.341  -3.805  -0.368  1.00  0.00     0.271 C 
ATOM     23  C   UNL     1       8.326  -3.695   0.784  1.00  0.00     0.271 C 
ENDBRANCH  11  14
ENDBRANCH   8   9
ENDBRANCH   6   8
ENDBRANCH   3   4
ENDBRANCH   2   3
ENDBRANCH   1   2
BRANCH   1  24
ATOM     24  C   UNL     1       4.341  -3.139   3.497  1.00  0.00     0.116 C 
BRANCH  24  25
ATOM     25  N   UNL     1       3.789  -3.903   4.599  1.00  0.00    -0.352 N 
ATOM     26  C   UNL     1       4.177  -3.915   5.917  1.00  0.00     0.251 C 
ATOM     27  H   UNL     1       3.035  -4.493   4.372  1.00  0.00     0.163 HD
ATOM     28  O   UNL     1       3.874  -4.887   6.607  1.00  0.00    -0.269 OA
BRANCH  26  29
ATOM     29  C   UNL     1       4.967  -2.811   6.517  1.00  0.00     0.039 A 
ATOM     30  C   UNL     1       5.974  -3.151   7.429  1.00  0.00     0.014 A 
ATOM     31  C   UNL     1       4.670  -1.462   6.288  1.00  0.00     0.014 A 
ATOM     32  C   UNL     1       6.713  -2.153   8.067  1.00  0.00     0.010 A 
ATOM     33  C   UNL     1       5.415  -0.458   6.922  1.00  0.00     0.010 A 
ATOM     34  C   UNL     1       6.452  -0.801   7.803  1.00  0.00    -0.014 A 
BRANCH  34  35
ATOM     35  C   UNL     1       7.413   0.216   8.324  1.00  0.00     0.031 A 
ATOM     36  C   UNL     1       8.726   0.239   7.512  1.00  0.00     0.074 A 
ATOM     37  C   UNL     1       7.072   0.939   9.434  1.00  0.00     0.049 A 
ATOM     38  N   UNL     1       9.952   0.467   7.878  1.00  0.00    -0.248 NA
ATOM     39  C   UNL     1       8.667  -0.169   6.084  1.00  0.00     0.031 C 
ATOM     40  C   UNL     1       5.769   0.860  10.131  1.00  0.00     0.029 A 
ATOM     41  N   UNL     1       7.735   1.878  10.204  1.00  0.00    -0.354 N 
ATOM     42  C   UNL     1      10.759   0.445   6.712  1.00  0.00     0.074 A 
ATOM     43  C   UNL     1       9.934  -0.097   5.675  1.00  0.00     0.031 C 
ATOM     44  C   UNL     1       5.757   1.650  11.230  1.00  0.00     0.029 A 
ATOM     45  C   UNL     1       7.037   2.322  11.362  1.00  0.00     0.049 A 
ATOM     46  H   UNL     1       8.629   2.216   9.966  1.00  0.00     0.167 HD
ATOM     47  C   UNL     1      12.007   1.001   6.635  1.00  0.00     0.034 A 
ATOM     48  C   UNL     1       7.467   3.135  12.380  1.00  0.00     0.034 A 
ATOM     49  C   UNL     1      12.380   1.539   7.899  1.00  0.00     0.049 A 
ATOM     50  C   UNL     1       8.825   3.552  11.998  1.00  0.00     0.074 A 
ATOM     51  C   UNL     1      12.733   0.997   9.106  1.00  0.00     0.029 A 
ATOM     52  N   UNL     1      12.204   2.892   8.063  1.00  0.00    -0.354 N 
ATOM     53  N   UNL     1       9.112   4.462  11.120  1.00  0.00    -0.248 NA
ATOM     54  C   UNL     1       9.963   2.877  12.639  1.00  0.00     0.031 C 
ATOM     55  C   UNL     1      12.331   1.970  10.047  1.00  0.00     0.029 A 
ATOM     56  C   UNL     1      11.833   3.088   9.367  1.00  0.00     0.049 A 
ATOM     57  H   UNL     1      12.321   3.587   7.376  1.00  0.00     0.167 HD
ATOM     58  C   UNL     1      10.454   4.263  10.909  1.00  0.00     0.074 A 
ATOM     59  C   UNL     1      10.954   3.546  12.058  1.00  0.00     0.031 C 
ATOM     60  C   UNL     1      10.931   4.186   9.644  1.00  0.00     0.034 A 
BRANCH  47  61
ATOM     61  C   UNL     1      12.909   1.364   5.467  1.00  0.00     0.023 A 
ATOM     62  C   UNL     1      14.214   1.829   5.795  1.00  0.00     0.031 A 
ATOM     63  C   UNL     1      12.510   1.566   4.140  1.00  0.00     0.131 A 
ATOM     64  C   UNL     1      14.989   2.571   4.893  1.00  0.00     0.055 A 
ATOM     65  C   UNL     1      13.320   2.246   3.214  1.00  0.00     0.041 A 
ATOM     66  F   UNL     1      11.302   1.195   3.699  1.00  0.00    -0.206 F 
ATOM     67  C   UNL     1      14.546   2.786   3.596  1.00  0.00     0.022 A 
BRANCH  64  68
ATOM     68  S   UNL     1      16.486   3.395   5.512  1.00  0.00     0.124 S 
ATOM     69  O   UNL     1      15.982   4.123   6.671  1.00  0.00    -0.237 OA
ATOM     70  O   UNL     1      17.359   2.261   5.801  1.00  0.00    -0.237 OA
ATOM     71  O   UNL     1      16.904   4.228   4.386  1.00  0.00    -0.744 OA
ENDBRANCH  64  68
ENDBRANCH  47  61
BRANCH  48  72
ATOM     72  C   UNL     1       6.998   3.640  13.743  1.00  0.00     0.023 A 
ATOM     73  C   UNL     1       5.708   3.512  14.283  1.00  0.00     0.031 A 
ATOM     74  C   UNL     1       7.932   4.304  14.607  1.00  0.00     0.131 A 
ATOM     75  C   UNL     1       5.432   3.964  15.607  1.00  0.00     0.055 A 
ATOM     76  C   UNL     1       7.677   4.678  15.926  1.00  0.00     0.041 A 
ATOM     77  F   UNL     1       9.168   4.636  14.212  1.00  0.00    -0.206 F 
ATOM     78  C   UNL     1       6.418   4.498  16.441  1.00  0.00     0.022 A 
BRANCH  75  79
ATOM     79  S   UNL     1       3.764   3.872  16.323  1.00  0.00     0.124 S 
ATOM     80  O   UNL     1       3.251   5.213  16.063  1.00  0.00    -0.237 OA
ATOM     81  O   UNL     1       3.139   2.789  15.571  1.00  0.00    -0.237 OA
ATOM     82  O   UNL     1       4.029   3.570  17.730  1.00  0.00    -0.744 OA
ENDBRANCH  75  79
ENDBRANCH  48  72
BRANCH  60  83
ATOM     83  C   UNL     1      10.094   4.932   8.618  1.00  0.00     0.023 A 
ATOM     84  C   UNL     1      10.012   6.334   8.655  1.00  0.00     0.031 A 
ATOM     85  C   UNL     1       9.277   4.280   7.676  1.00  0.00     0.131 A 
ATOM     86  C   UNL     1       9.145   7.023   7.783  1.00  0.00     0.055 A 
ATOM     87  C   UNL     1       8.437   4.963   6.791  1.00  0.00     0.041 A 
ATOM     88  F   UNL     1       9.247   2.949   7.606  1.00  0.00    -0.206 F 
ATOM     89  C   UNL     1       8.366   6.346   6.843  1.00  0.00     0.022 A 
BRANCH  86  90
ATOM     90  S   UNL     1       9.053   8.833   7.873  1.00  0.00     0.124 S 
ATOM     91  O   UNL     1       8.284   9.048   9.100  1.00  0.00    -0.237 OA
ATOM     92  O   UNL     1      10.447   9.227   7.917  1.00  0.00    -0.237 OA
ATOM     93  O   UNL     1       8.347   9.197   6.639  1.00  0.00    -0.744 OA
ENDBRANCH  86  90
ENDBRANCH  60  83
ENDBRANCH  34  35
ENDBRANCH  26  29
ENDBRANCH  24  25
ENDBRANCH   1  24
TORSDOF 16
