REMARK SMILES C[C@@H](C(=O)NCCCCNC(=O)c1ccc(-c2c3nc(c(-c4cc(S(=O)(=O)[O-])ccc4F)c4ccc([nH]4)c(-c4cc(S(=O)(=O)[O-])ccc4F)c4nc(c(-c5cc(S(=O)(=O)[O-])ccc5F)c5ccc2[nH]5)C=C4)C=C3)cc1)c1cc(C(=O)c2ccccc2)ccc1O
REMARK SMILES IDX 7 1 6 2 5 3 3 4 4 5 2 7 1 8 76 9 77 10 89 11 78 12 88 13
REMARK SMILES IDX 87 14 90 15 79 17 80 18 81 19 82 20 86 21 83 22 85 23 84 24
REMARK SMILES IDX 8 25 9 26 10 27 11 28 12 30 13 31 14 32 75 33 15 34 74 35
REMARK SMILES IDX 16 36 17 37 18 38 68 39 19 40 73 41 67 42 69 43 20 44 72 45
REMARK SMILES IDX 66 46 65 47 21 49 53 50 33 51 52 52 34 53 37 54 51 55 70 56
REMARK SMILES IDX 35 57 36 58 50 60 71 61 38 62 22 63 23 64 31 65 24 66 30 67
REMARK SMILES IDX 32 68 29 69 25 70 26 71 27 72 28 73 54 74 55 75 63 76 56 77
REMARK SMILES IDX 62 78 64 79 61 80 57 81 58 82 59 83 60 84 39 85 40 86 48 87
REMARK SMILES IDX 41 88 47 89 49 90 46 91 42 92 43 93 44 94 45 95
REMARK H PARENT 5 6 90 16 10 29 69 48 37 59
REMARK Flexibility Score: inf
ROOT
ATOM      1  C   UNL     1       4.169   0.690   1.114  1.00  0.00     0.023 C 
ENDROOT
BRANCH   1   2
ATOM      2  C   UNL     1       3.406  -0.478   1.737  1.00  0.00     0.116 C 
BRANCH   2   3
ATOM      3  N   UNL     1       2.361  -0.005   2.620  1.00  0.00    -0.356 N 
ATOM      4  C   UNL     1       1.013   0.063   2.431  1.00  0.00     0.227 C 
ATOM      5  O   UNL     1       0.355   0.576   3.338  1.00  0.00    -0.274 OA
ATOM      6  H   UNL     1       2.673   0.319   3.495  1.00  0.00     0.163 HD
BRANCH   4   7
ATOM      7  C   UNL     1       0.380  -0.536   1.160  1.00  0.00     0.109 C 
ATOM      8  C   UNL     1       0.699   0.272  -0.103  1.00  0.00     0.023 C 
BRANCH   7   9
ATOM      9  C   UNL     1      -1.133  -0.694   1.293  1.00  0.00     0.007 A 
ATOM     10  C   UNL     1      -1.920   0.469   1.453  1.00  0.00     0.020 A 
ATOM     11  C   UNL     1      -1.800  -1.923   1.233  1.00  0.00     0.119 A 
ATOM     12  C   UNL     1      -3.314   0.411   1.556  1.00  0.00     0.023 A 
ATOM     13  C   UNL     1      -3.193  -1.988   1.311  1.00  0.00     0.047 A 
ATOM     14  C   UNL     1      -3.951  -0.827   1.464  1.00  0.00     0.016 A 
BRANCH  11  15
ATOM     15  O   UNL     1      -1.178  -3.127   1.072  1.00  0.00    -0.508 OA
ATOM     16  H   UNL     1      -0.244  -3.167   1.011  1.00  0.00     0.293 HD
ENDBRANCH  11  15
BRANCH  12  17
ATOM     17  C   UNL     1      -4.059   1.693   1.694  1.00  0.00     0.193 C 
ATOM     18  O   UNL     1      -3.549   2.743   1.311  1.00  0.00    -0.289 OA
BRANCH  17  19
ATOM     19  C   UNL     1      -5.438   1.732   2.231  1.00  0.00     0.022 A 
ATOM     20  C   UNL     1      -6.373   2.544   1.581  1.00  0.00     0.012 A 
ATOM     21  C   UNL     1      -5.811   0.993   3.359  1.00  0.00     0.012 A 
ATOM     22  C   UNL     1      -7.696   2.571   2.022  1.00  0.00     0.001 A 
ATOM     23  C   UNL     1      -7.137   1.020   3.794  1.00  0.00     0.001 A 
ATOM     24  C   UNL     1      -8.078   1.800   3.120  1.00  0.00     0.000 A 
ENDBRANCH  17  19
ENDBRANCH  12  17
ENDBRANCH   7   9
ENDBRANCH   4   7
ENDBRANCH   2   3
ENDBRANCH   1   2
BRANCH   1  25
ATOM     25  C   UNL     1       4.952   1.544   2.115  1.00  0.00     0.023 C 
BRANCH  25  26
ATOM     26  C   UNL     1       5.941   0.778   2.982  1.00  0.00     0.116 C 
BRANCH  26  27
ATOM     27  N   UNL     1       6.919   0.045   2.196  1.00  0.00    -0.352 N 
ATOM     28  C   UNL     1       8.273  -0.069   2.390  1.00  0.00     0.251 C 
ATOM     29  H   UNL     1       6.561  -0.437   1.417  1.00  0.00     0.163 HD
ATOM     30  O   UNL     1       8.963  -0.595   1.517  1.00  0.00    -0.269 OA
BRANCH  28  31
ATOM     31  C   UNL     1       8.895   0.462   3.622  1.00  0.00     0.039 A 
ATOM     32  C   UNL     1      10.111   1.142   3.522  1.00  0.00     0.014 A 
ATOM     33  C   UNL     1       8.293   0.285   4.871  1.00  0.00     0.014 A 
ATOM     34  C   UNL     1      10.701   1.675   4.669  1.00  0.00     0.010 A 
ATOM     35  C   UNL     1       8.838   0.893   5.999  1.00  0.00     0.010 A 
ATOM     36  C   UNL     1      10.059   1.576   5.915  1.00  0.00    -0.014 A 
BRANCH  36  37
ATOM     37  C   UNL     1      10.678   2.147   7.140  1.00  0.00     0.031 A 
ATOM     38  C   UNL     1      11.085   1.239   8.272  1.00  0.00     0.074 A 
ATOM     39  C   UNL     1      10.848   3.479   7.246  1.00  0.00     0.049 A 
ATOM     40  N   UNL     1      11.632   1.542   9.421  1.00  0.00    -0.248 NA
ATOM     41  C   UNL     1      10.812  -0.196   8.099  1.00  0.00     0.031 C 
ATOM     42  C   UNL     1      10.457   4.463   6.234  1.00  0.00     0.029 A 
ATOM     43  N   UNL     1      11.399   4.238   8.248  1.00  0.00    -0.354 N 
ATOM     44  C   UNL     1      11.754   0.340  10.113  1.00  0.00     0.074 A 
ATOM     45  C   UNL     1      11.158  -0.682   9.280  1.00  0.00     0.031 C 
ATOM     46  C   UNL     1      10.823   5.687   6.646  1.00  0.00     0.029 A 
ATOM     47  C   UNL     1      11.431   5.585   7.969  1.00  0.00     0.049 A 
ATOM     48  H   UNL     1      11.741   3.854   9.088  1.00  0.00     0.167 HD
ATOM     49  C   UNL     1      12.333   0.107  11.317  1.00  0.00     0.034 A 
ATOM     50  C   UNL     1      11.896   6.619   8.697  1.00  0.00     0.034 A 
ATOM     51  C   UNL     1      12.934   1.139  12.127  1.00  0.00     0.049 A 
ATOM     52  C   UNL     1      12.514   6.338  10.045  1.00  0.00     0.074 A 
ATOM     53  C   UNL     1      13.602   1.009  13.332  1.00  0.00     0.029 A 
ATOM     54  N   UNL     1      12.932   2.495  11.820  1.00  0.00    -0.354 N 
ATOM     55  N   UNL     1      12.680   5.187  10.657  1.00  0.00    -0.248 NA
ATOM     56  C   UNL     1      13.022   7.495  10.791  1.00  0.00     0.031 C 
ATOM     57  C   UNL     1      13.927   2.289  13.793  1.00  0.00     0.029 A 
ATOM     58  C   UNL     1      13.551   3.214  12.832  1.00  0.00     0.049 A 
ATOM     59  H   UNL     1      12.546   2.888  11.004  1.00  0.00     0.167 HD
ATOM     60  C   UNL     1      13.351   5.482  11.842  1.00  0.00     0.074 A 
ATOM     61  C   UNL     1      13.570   6.914  11.847  1.00  0.00     0.031 C 
ATOM     62  C   UNL     1      13.756   4.644  12.832  1.00  0.00     0.034 A 
BRANCH  49  63
ATOM     63  C   UNL     1      12.308  -1.313  11.840  1.00  0.00     0.023 A 
ATOM     64  C   UNL     1      12.924  -2.372  11.148  1.00  0.00     0.031 A 
ATOM     65  C   UNL     1      11.627  -1.619  13.031  1.00  0.00     0.131 A 
ATOM     66  C   UNL     1      12.774  -3.690  11.604  1.00  0.00     0.055 A 
ATOM     67  C   UNL     1      11.560  -2.922  13.530  1.00  0.00     0.041 A 
ATOM     68  F   UNL     1      10.997  -0.658  13.726  1.00  0.00    -0.206 F 
ATOM     69  C   UNL     1      12.120  -3.970  12.806  1.00  0.00     0.022 A 
BRANCH  66  70
ATOM     70  S   UNL     1      13.296  -5.047  10.518  1.00  0.00     0.124 S 
ATOM     71  O   UNL     1      12.507  -4.784   9.317  1.00  0.00    -0.237 OA
ATOM     72  O   UNL     1      14.732  -4.822  10.402  1.00  0.00    -0.237 OA
ATOM     73  O   UNL     1      12.909  -6.247  11.258  1.00  0.00    -0.744 OA
ENDBRANCH  66  70
ENDBRANCH  49  63
BRANCH  50  74
ATOM     74  C   UNL     1      11.814   8.015   8.176  1.00  0.00     0.023 A 
ATOM     75  C   UNL     1      12.977   8.761   7.924  1.00  0.00     0.031 A 
ATOM     76  C   UNL     1      10.573   8.643   7.969  1.00  0.00     0.131 A 
ATOM     77  C   UNL     1      12.876  10.106   7.535  1.00  0.00     0.055 A 
ATOM     78  C   UNL     1      10.478   9.962   7.524  1.00  0.00     0.041 A 
ATOM     79  F   UNL     1       9.429   7.975   8.191  1.00  0.00    -0.206 F 
ATOM     80  C   UNL     1      11.635  10.707   7.319  1.00  0.00     0.022 A 
BRANCH  77  81
ATOM     81  S   UNL     1      14.396  11.089   7.410  1.00  0.00     0.124 S 
ATOM     82  O   UNL     1      14.940  10.964   8.757  1.00  0.00    -0.237 OA
ATOM     83  O   UNL     1      15.123  10.390   6.356  1.00  0.00    -0.237 OA
ATOM     84  O   UNL     1      13.911  12.420   7.053  1.00  0.00    -0.744 OA
ENDBRANCH  77  81
ENDBRANCH  50  74
BRANCH  62  85
ATOM     85  C   UNL     1      14.532   5.258  13.975  1.00  0.00     0.023 A 
ATOM     86  C   UNL     1      13.960   6.206  14.841  1.00  0.00     0.031 A 
ATOM     87  C   UNL     1      15.878   4.906  14.182  1.00  0.00     0.131 A 
ATOM     88  C   UNL     1      14.749   6.824  15.822  1.00  0.00     0.055 A 
ATOM     89  C   UNL     1      16.638   5.468  15.209  1.00  0.00     0.041 A 
ATOM     90  F   UNL     1      16.482   4.009  13.385  1.00  0.00    -0.206 F 
ATOM     91  C   UNL     1      16.079   6.446  16.025  1.00  0.00     0.022 A 
BRANCH  88  92
ATOM     92  S   UNL     1      14.053   8.221  16.747  1.00  0.00     0.124 S 
ATOM     93  O   UNL     1      13.667   9.132  15.674  1.00  0.00    -0.237 OA
ATOM     94  O   UNL     1      12.955   7.595  17.477  1.00  0.00    -0.237 OA
ATOM     95  O   UNL     1      15.169   8.675  17.575  1.00  0.00    -0.744 OA
ENDBRANCH  88  92
ENDBRANCH  62  85
ENDBRANCH  36  37
ENDBRANCH  28  31
ENDBRANCH  26  27
ENDBRANCH  25  26
ENDBRANCH   1  25
TORSDOF 18
