REMARK SMILES CCOC(=O)c1cnc(S[C@H](CC)C(=O)NCCCCNC(=O)c2ccc(-c3c4nc(c(-c5cc(S(=O)(=O)[O-])ccc5F)c5ccc([nH]5)c(-c5cc(S(=O)(=O)[O-])ccc5F)c5nc(c(-c6cc(S(=O)(=O)[O-])ccc6F)c6ccc3[nH]6)C=C5)C=C4)cc2)nc1N
REMARK SMILES IDX 17 1 16 2 14 3 15 4 11 6 10 7 9 8 6 9 7 10 88 11 8 12 87 13
REMARK SMILES IDX 4 14 5 15 3 16 2 17 1 18 89 19 12 22 13 23 18 24 19 25 20 26
REMARK SMILES IDX 21 27 22 28 23 30 24 31 25 32 86 33 26 34 85 35 27 36 28 37
REMARK SMILES IDX 29 38 79 39 30 40 84 41 78 42 80 43 31 44 83 45 77 46 76 47
REMARK SMILES IDX 32 49 64 50 44 51 63 52 45 53 48 54 62 55 81 56 46 57 47 58
REMARK SMILES IDX 61 60 82 61 49 62 33 63 34 64 42 65 35 66 41 67 43 68 40 69
REMARK SMILES IDX 36 70 37 71 38 72 39 73 65 74 66 75 74 76 67 77 73 78 75 79
REMARK SMILES IDX 72 80 68 81 69 82 70 83 71 84 50 85 51 86 59 87 52 88 58 89
REMARK SMILES IDX 60 90 57 91 53 92 54 93 55 94 56 95
REMARK H PARENT 16 5 89 20 89 21 21 29 80 48 48 59
REMARK Flexibility Score: inf
ROOT
ATOM      1  C   UNL     1       4.666  -5.213   1.355  1.00  0.00     0.116 C 
ENDROOT
BRANCH   1   2
ATOM      2  N   UNL     1       5.081  -6.115   2.416  1.00  0.00    -0.355 N 
ATOM      3  C   UNL     1       5.807  -7.270   2.362  1.00  0.00     0.233 C 
ATOM      4  O   UNL     1       6.083  -7.815   3.437  1.00  0.00    -0.274 OA
ATOM      5  H   UNL     1       4.791  -5.850   3.319  1.00  0.00     0.163 HD
BRANCH   3   6
ATOM      6  C   UNL     1       6.255  -7.895   1.037  1.00  0.00     0.143 C 
BRANCH   6   7
ATOM      7  S   UNL     1       7.509  -6.802   0.245  1.00  0.00    -0.073 SA
BRANCH   7   8
ATOM      8  C   UNL     1       9.037  -7.541   0.752  1.00  0.00     0.190 A 
ATOM      9  C   UNL     1      11.439  -8.723   1.105  1.00  0.00     0.120 A 
ATOM     10  C   UNL     1      10.252  -9.374   1.355  1.00  0.00     0.133 A 
ATOM     11  C   UNL     1      11.339  -7.410   0.689  1.00  0.00     0.142 A 
ATOM     12  N   UNL     1       9.042  -8.807   1.186  1.00  0.00    -0.230 NA
ATOM     13  N   UNL     1      10.145  -6.819   0.502  1.00  0.00    -0.205 NA
BRANCH   9  14
ATOM     14  C   UNL     1      12.680  -9.490   1.179  1.00  0.00     0.343 C 
ATOM     15  O   UNL     1      12.750 -10.657   0.810  1.00  0.00    -0.246 OA
BRANCH  14  16
ATOM     16  O   UNL     1      13.672  -8.766   1.749  1.00  0.00    -0.462 OA
BRANCH  16  17
ATOM     17  C   UNL     1      14.946  -9.428   1.823  1.00  0.00     0.230 C 
ATOM     18  C   UNL     1      14.981 -10.459   2.938  1.00  0.00     0.049 C 
ENDBRANCH  16  17
ENDBRANCH  14  16
ENDBRANCH   9  14
BRANCH  11  19
ATOM     19  N   UNL     1      12.427  -6.639   0.319  1.00  0.00    -0.383 N 
ATOM     20  H   UNL     1      13.339  -6.994   0.422  1.00  0.00     0.158 HD
ATOM     21  H   UNL     1      12.289  -5.736  -0.048  1.00  0.00     0.158 HD
ENDBRANCH  11  19
ENDBRANCH   7   8
ENDBRANCH   6   7
BRANCH   6  22
ATOM     22  C   UNL     1       5.083  -8.197   0.085  1.00  0.00     0.021 C 
ATOM     23  C   UNL     1       4.897  -9.697  -0.124  1.00  0.00     0.005 C 
ENDBRANCH   6  22
ENDBRANCH   3   6
ENDBRANCH   1   2
BRANCH   1  24
ATOM     24  C   UNL     1       3.148  -5.131   1.218  1.00  0.00     0.023 C 
BRANCH  24  25
ATOM     25  C   UNL     1       2.418  -4.503   2.405  1.00  0.00     0.023 C 
BRANCH  25  26
ATOM     26  C   UNL     1       2.902  -3.118   2.820  1.00  0.00     0.116 C 
BRANCH  26  27
ATOM     27  N   UNL     1       2.889  -2.156   1.730  1.00  0.00    -0.352 N 
ATOM     28  C   UNL     1       2.461  -0.851   1.718  1.00  0.00     0.251 C 
ATOM     29  H   UNL     1       3.240  -2.490   0.873  1.00  0.00     0.163 HD
ATOM     30  O   UNL     1       2.426  -0.240   0.653  1.00  0.00    -0.269 OA
BRANCH  28  31
ATOM     31  C   UNL     1       2.009  -0.199   2.968  1.00  0.00     0.039 A 
ATOM     32  C   UNL     1       0.854   0.588   2.930  1.00  0.00     0.014 A 
ATOM     33  C   UNL     1       2.709  -0.353   4.168  1.00  0.00     0.014 A 
ATOM     34  C   UNL     1       0.366   1.161   4.106  1.00  0.00     0.010 A 
ATOM     35  C   UNL     1       2.181   0.159   5.353  1.00  0.00     0.010 A 
ATOM     36  C   UNL     1       1.005   0.922   5.334  1.00  0.00    -0.014 A 
BRANCH  36  37
ATOM     37  C   UNL     1       0.445   1.464   6.600  1.00  0.00     0.031 A 
ATOM     38  C   UNL     1       1.211   2.486   7.397  1.00  0.00     0.074 A 
ATOM     39  C   UNL     1      -0.736   1.000   7.054  1.00  0.00     0.049 A 
ATOM     40  N   UNL     1       0.894   3.061   8.528  1.00  0.00    -0.248 NA
ATOM     41  C   UNL     1       2.521   2.888   6.865  1.00  0.00     0.031 C 
ATOM     42  C   UNL     1      -1.543  -0.036   6.403  1.00  0.00     0.029 A 
ATOM     43  N   UNL     1      -1.464   1.334   8.168  1.00  0.00    -0.354 N 
ATOM     44  C   UNL     1       1.966   3.887   8.850  1.00  0.00     0.074 A 
ATOM     45  C   UNL     1       2.969   3.683   7.825  1.00  0.00     0.031 C 
ATOM     46  C   UNL     1      -2.667  -0.228   7.112  1.00  0.00     0.029 A 
ATOM     47  C   UNL     1      -2.648   0.643   8.282  1.00  0.00     0.049 A 
ATOM     48  H   UNL     1      -1.167   2.005   8.824  1.00  0.00     0.167 HD
ATOM     49  C   UNL     1       2.094   4.752   9.887  1.00  0.00     0.034 A 
ATOM     50  C   UNL     1      -3.611   0.707   9.222  1.00  0.00     0.034 A 
ATOM     51  C   UNL     1       1.079   4.950  10.896  1.00  0.00     0.049 A 
ATOM     52  C   UNL     1      -3.457   1.687  10.355  1.00  0.00     0.074 A 
ATOM     53  C   UNL     1       1.080   5.836  11.960  1.00  0.00     0.029 A 
ATOM     54  N   UNL     1      -0.118   4.248  10.969  1.00  0.00    -0.354 N 
ATOM     55  N   UNL     1      -2.463   2.506  10.611  1.00  0.00    -0.248 NA
ATOM     56  C   UNL     1      -4.566   1.765  11.313  1.00  0.00     0.031 C 
ATOM     57  C   UNL     1      -0.086   5.630  12.706  1.00  0.00     0.029 A 
ATOM     58  C   UNL     1      -0.851   4.664  12.071  1.00  0.00     0.049 A 
ATOM     59  H   UNL     1      -0.405   3.556  10.330  1.00  0.00     0.167 HD
ATOM     60  C   UNL     1      -2.841   3.215  11.748  1.00  0.00     0.074 A 
ATOM     61  C   UNL     1      -4.163   2.744  12.109  1.00  0.00     0.031 C 
ATOM     62  C   UNL     1      -2.159   4.170  12.432  1.00  0.00     0.034 A 
BRANCH  49  63
ATOM     63  C   UNL     1       3.388   5.526   9.987  1.00  0.00     0.023 A 
ATOM     64  C   UNL     1       3.784   6.431   8.986  1.00  0.00     0.031 A 
ATOM     65  C   UNL     1       4.255   5.333  11.076  1.00  0.00     0.131 A 
ATOM     66  C   UNL     1       5.045   7.043   9.051  1.00  0.00     0.055 A 
ATOM     67  C   UNL     1       5.473   6.009  11.178  1.00  0.00     0.041 A 
ATOM     68  F   UNL     1       3.942   4.468  12.054  1.00  0.00    -0.206 F 
ATOM     69  C   UNL     1       5.882   6.858  10.153  1.00  0.00     0.022 A 
BRANCH  66  70
ATOM     70  S   UNL     1       5.636   7.966   7.606  1.00  0.00     0.124 S 
ATOM     71  O   UNL     1       5.617   6.936   6.570  1.00  0.00    -0.237 OA
ATOM     72  O   UNL     1       4.638   9.022   7.476  1.00  0.00    -0.237 OA
ATOM     73  O   UNL     1       6.969   8.412   8.005  1.00  0.00    -0.744 OA
ENDBRANCH  66  70
ENDBRANCH  49  63
BRANCH  50  74
ATOM     74  C   UNL     1      -4.813  -0.171   9.133  1.00  0.00     0.023 A 
ATOM     75  C   UNL     1      -6.089   0.371   8.914  1.00  0.00     0.031 A 
ATOM     76  C   UNL     1      -4.706  -1.562   9.305  1.00  0.00     0.131 A 
ATOM     77  C   UNL     1      -7.215  -0.466   8.921  1.00  0.00     0.055 A 
ATOM     78  C   UNL     1      -5.824  -2.397   9.263  1.00  0.00     0.041 A 
ATOM     79  F   UNL     1      -3.507  -2.131   9.507  1.00  0.00    -0.206 F 
ATOM     80  C   UNL     1      -7.090  -1.848   9.083  1.00  0.00     0.022 A 
BRANCH  77  81
ATOM     81  S   UNL     1      -8.859   0.289   8.791  1.00  0.00     0.124 S 
ATOM     82  O   UNL     1      -8.864   1.191   9.937  1.00  0.00    -0.237 OA
ATOM     83  O   UNL     1      -8.798   0.920   7.477  1.00  0.00    -0.237 OA
ATOM     84  O   UNL     1      -9.766  -0.853   8.890  1.00  0.00    -0.744 OA
ENDBRANCH  77  81
ENDBRANCH  50  74
BRANCH  62  85
ATOM     85  C   UNL     1      -2.861   4.782  13.620  1.00  0.00     0.023 A 
ATOM     86  C   UNL     1      -3.168   4.026  14.765  1.00  0.00     0.031 A 
ATOM     87  C   UNL     1      -3.268   6.128  13.587  1.00  0.00     0.131 A 
ATOM     88  C   UNL     1      -3.925   4.598  15.798  1.00  0.00     0.055 A 
ATOM     89  C   UNL     1      -3.966   6.710  14.647  1.00  0.00     0.041 A 
ATOM     90  F   UNL     1      -3.003   6.896  12.519  1.00  0.00    -0.206 F 
ATOM     91  C   UNL     1      -4.314   5.939  15.753  1.00  0.00     0.022 A 
BRANCH  88  92
ATOM     92  S   UNL     1      -4.501   3.530  17.148  1.00  0.00     0.124 S 
ATOM     93  O   UNL     1      -5.213   2.482  16.424  1.00  0.00    -0.237 OA
ATOM     94  O   UNL     1      -3.249   3.130  17.782  1.00  0.00    -0.237 OA
ATOM     95  O   UNL     1      -5.346   4.415  17.948  1.00  0.00    -0.744 OA
ENDBRANCH  88  92
ENDBRANCH  62  85
ENDBRANCH  36  37
ENDBRANCH  28  31
ENDBRANCH  26  27
ENDBRANCH  25  26
ENDBRANCH  24  25
ENDBRANCH   1  24
TORSDOF 21
