REMARK SMILES O=C(NCCCCNC(=O)c1cc(N2C(=O)[C@H]3[C@@H]4C=C[C@@H]([C@@H]5C[C@H]45)[C@@H]3C2=O)ccc1Cl)c1ccc(-c2c3nc(c(-c4cc(S(=O)(=O)[O-])ccc4F)c4ccc([nH]4)c(-c4cc(S(=O)(=O)[O-])ccc4F)c4nc(c(-c5cc(S(=O)(=O)[O-])ccc5F)c5ccc2[nH]5)C=C4)C=C3)cc1
REMARK SMILES IDX 4 1 3 2 1 3 2 4 32 6 33 7 94 8 34 9 93 10 35 11 36 12 37 13
REMARK SMILES IDX 87 14 38 15 92 16 86 17 88 18 39 19 91 20 85 21 84 22 40 24
REMARK SMILES IDX 72 25 52 26 71 27 53 28 56 29 70 30 89 31 54 32 55 33 69 35
REMARK SMILES IDX 90 36 57 37 41 38 42 39 50 40 43 41 49 42 51 43 48 44 44 45
REMARK SMILES IDX 45 46 46 47 47 48 73 49 74 50 82 51 75 52 81 53 83 54 80 55
REMARK SMILES IDX 76 56 77 57 78 58 79 59 58 60 59 61 67 62 60 63 66 64 68 65
REMARK SMILES IDX 65 66 61 67 62 68 63 69 64 70 5 71 6 72 7 73 8 74 9 75 10 77
REMARK SMILES IDX 11 78 12 79 30 80 13 81 29 82 31 83 28 84 14 85 15 86 26 87
REMARK SMILES IDX 16 88 17 89 25 90 27 91 18 92 21 93 19 94 24 95 20 96 22 97
REMARK SMILES IDX 23 98
REMARK H PARENT 3 5 88 23 56 34 8 76
REMARK Flexibility Score: inf
ROOT
ATOM      1  C   UNL     1       4.565   0.894  -0.860  1.00  0.00     0.116 C 
ENDROOT
BRANCH   1   2
ATOM      2  N   UNL     1       3.129   0.848  -0.614  1.00  0.00    -0.352 N 
ATOM      3  O   UNL     1       1.171  -0.073   0.046  1.00  0.00    -0.269 OA
ATOM      4  C   UNL     1       2.396  -0.127   0.029  1.00  0.00     0.251 C 
ATOM      5  H   UNL     1       2.614   1.615  -0.952  1.00  0.00     0.163 HD
BRANCH   4   6
ATOM      6  C   UNL     1       3.109  -1.253   0.671  1.00  0.00     0.039 A 
ATOM      7  C   UNL     1       4.236  -1.001   1.452  1.00  0.00     0.014 A 
ATOM      8  C   UNL     1       2.689  -2.566   0.444  1.00  0.00     0.014 A 
ATOM      9  C   UNL     1       5.049  -2.055   1.838  1.00  0.00     0.010 A 
ATOM     10  C   UNL     1       3.444  -3.631   0.949  1.00  0.00     0.010 A 
ATOM     11  C   UNL     1       4.650  -3.385   1.623  1.00  0.00    -0.014 A 
BRANCH  11  12
ATOM     12  C   UNL     1       5.483  -4.473   2.203  1.00  0.00     0.031 A 
ATOM     13  C   UNL     1       6.155  -5.506   1.341  1.00  0.00     0.074 A 
ATOM     14  C   UNL     1       5.681  -4.467   3.538  1.00  0.00     0.049 A 
ATOM     15  N   UNL     1       6.947  -6.484   1.701  1.00  0.00    -0.248 NA
ATOM     16  C   UNL     1       5.903  -5.444  -0.106  1.00  0.00     0.031 C 
ATOM     17  C   UNL     1       5.071  -3.511   4.471  1.00  0.00     0.029 A 
ATOM     18  N   UNL     1       6.466  -5.250   4.341  1.00  0.00    -0.354 N 
ATOM     19  C   UNL     1       7.287  -7.157   0.532  1.00  0.00     0.074 A 
ATOM     20  C   UNL     1       6.581  -6.497  -0.546  1.00  0.00     0.031 C 
ATOM     21  C   UNL     1       5.561  -3.719   5.699  1.00  0.00     0.029 A 
ATOM     22  C   UNL     1       6.436  -4.881   5.667  1.00  0.00     0.049 A 
ATOM     23  H   UNL     1       7.001  -6.005   4.003  1.00  0.00     0.167 HD
ATOM     24  C   UNL     1       8.119  -8.219   0.378  1.00  0.00     0.034 A 
ATOM     25  C   UNL     1       7.020  -5.433   6.747  1.00  0.00     0.034 A 
ATOM     26  C   UNL     1       8.811  -8.866   1.471  1.00  0.00     0.049 A 
ATOM     27  C   UNL     1       7.891  -6.643   6.547  1.00  0.00     0.074 A 
ATOM     28  C   UNL     1       9.681  -9.942   1.423  1.00  0.00     0.029 A 
ATOM     29  N   UNL     1       8.710  -8.503   2.809  1.00  0.00    -0.354 N 
ATOM     30  N   UNL     1       8.207  -7.257   5.430  1.00  0.00    -0.248 NA
ATOM     31  C   UNL     1       8.489  -7.229   7.751  1.00  0.00     0.031 C 
ATOM     32  C   UNL     1      10.046 -10.275   2.732  1.00  0.00     0.029 A 
ATOM     33  C   UNL     1       9.476  -9.354   3.595  1.00  0.00     0.049 A 
ATOM     34  H   UNL     1       8.173  -7.752   3.150  1.00  0.00     0.167 HD
ATOM     35  C   UNL     1       9.056  -8.294   5.800  1.00  0.00     0.074 A 
ATOM     36  C   UNL     1       9.235  -8.191   7.234  1.00  0.00     0.031 C 
ATOM     37  C   UNL     1       9.629  -9.252   5.027  1.00  0.00     0.034 A 
BRANCH  24  38
ATOM     38  C   UNL     1       8.304  -8.775  -1.015  1.00  0.00     0.023 A 
ATOM     39  C   UNL     1       8.924  -8.032  -2.034  1.00  0.00     0.031 A 
ATOM     40  C   UNL     1       7.877 -10.081  -1.322  1.00  0.00     0.131 A 
ATOM     41  C   UNL     1       9.059  -8.580  -3.320  1.00  0.00     0.055 A 
ATOM     42  C   UNL     1       8.079 -10.646  -2.583  1.00  0.00     0.041 A 
ATOM     43  F   UNL     1       7.260 -10.833  -0.397  1.00  0.00    -0.206 F 
ATOM     44  C   UNL     1       8.665  -9.892  -3.594  1.00  0.00     0.022 A 
BRANCH  41  45
ATOM     45  S   UNL     1       9.658  -7.515  -4.661  1.00  0.00     0.124 S 
ATOM     46  O   UNL     1       8.657  -6.451  -4.663  1.00  0.00    -0.237 OA
ATOM     47  O   UNL     1      10.988  -7.141  -4.198  1.00  0.00    -0.237 OA
ATOM     48  O   UNL     1       9.628  -8.389  -5.832  1.00  0.00    -0.744 OA
ENDBRANCH  41  45
ENDBRANCH  24  38
BRANCH  25  49
ATOM     49  C   UNL     1       6.755  -4.891   8.111  1.00  0.00     0.023 A 
ATOM     50  C   UNL     1       7.798  -4.428   8.926  1.00  0.00     0.031 A 
ATOM     51  C   UNL     1       5.452  -4.888   8.646  1.00  0.00     0.131 A 
ATOM     52  C   UNL     1       7.533  -4.047  10.250  1.00  0.00     0.055 A 
ATOM     53  C   UNL     1       5.183  -4.434   9.937  1.00  0.00     0.041 A 
ATOM     54  F   UNL     1       4.414  -5.321   7.913  1.00  0.00    -0.206 F 
ATOM     55  C   UNL     1       6.231  -4.029  10.755  1.00  0.00     0.022 A 
BRANCH  52  56
ATOM     56  S   UNL     1       8.936  -3.706  11.348  1.00  0.00     0.124 S 
ATOM     57  O   UNL     1       9.718  -4.930  11.217  1.00  0.00    -0.237 OA
ATOM     58  O   UNL     1       9.510  -2.510  10.742  1.00  0.00    -0.237 OA
ATOM     59  O   UNL     1       8.305  -3.504  12.650  1.00  0.00    -0.744 OA
ENDBRANCH  52  56
ENDBRANCH  25  49
BRANCH  37  60
ATOM     60  C   UNL     1      10.528 -10.239   5.735  1.00  0.00     0.023 A 
ATOM     61  C   UNL     1      10.028 -11.119   6.711  1.00  0.00     0.031 A 
ATOM     62  C   UNL     1      11.908 -10.260   5.471  1.00  0.00     0.131 A 
ATOM     63  C   UNL     1      10.913 -11.920   7.448  1.00  0.00     0.055 A 
ATOM     64  C   UNL     1      12.773 -11.116   6.154  1.00  0.00     0.041 A 
ATOM     65  F   UNL     1      12.443  -9.439   4.553  1.00  0.00    -0.206 F 
ATOM     66  C   UNL     1      12.280 -11.938   7.163  1.00  0.00     0.022 A 
BRANCH  63  67
ATOM     67  S   UNL     1      10.269 -12.835   8.876  1.00  0.00     0.124 S 
ATOM     68  O   UNL     1       9.691 -11.767   9.684  1.00  0.00    -0.237 OA
ATOM     69  O   UNL     1       9.317 -13.751   8.255  1.00  0.00    -0.237 OA
ATOM     70  O   UNL     1      11.459 -13.468   9.442  1.00  0.00    -0.744 OA
ENDBRANCH  63  67
ENDBRANCH  37  60
ENDBRANCH  11  12
ENDBRANCH   4   6
ENDBRANCH   1   2
BRANCH   1  71
ATOM     71  C   UNL     1       4.921   1.054  -2.329  1.00  0.00     0.023 C 
BRANCH  71  72
ATOM     72  C   UNL     1       4.460   2.358  -2.968  1.00  0.00     0.023 C 
BRANCH  72  73
ATOM     73  C   UNL     1       4.837   3.620  -2.201  1.00  0.00     0.116 C 
BRANCH  73  74
ATOM     74  N   UNL     1       6.270   3.752  -1.999  1.00  0.00    -0.352 N 
ATOM     75  C   UNL     1       7.083   4.812  -2.298  1.00  0.00     0.252 C 
ATOM     76  H   UNL     1       6.716   2.975  -1.592  1.00  0.00     0.163 HD
ATOM     77  O   UNL     1       8.293   4.764  -2.100  1.00  0.00    -0.269 OA
BRANCH  75  78
ATOM     78  C   UNL     1       6.518   6.010  -2.932  1.00  0.00     0.060 A 
ATOM     79  C   UNL     1       6.952   6.292  -4.236  1.00  0.00     0.042 A 
ATOM     80  C   UNL     1       5.623   6.862  -2.274  1.00  0.00     0.053 A 
ATOM     81  C   UNL     1       6.503   7.445  -4.876  1.00  0.00     0.053 A 
ATOM     82  C   UNL     1       5.121   7.976  -2.946  1.00  0.00     0.023 A 
ATOM     83  Cl  UNL     1       5.107   6.620  -0.645  1.00  0.00    -0.083 Cl
ATOM     84  C   UNL     1       5.576   8.277  -4.230  1.00  0.00     0.028 A 
BRANCH  81  85
ATOM     85  N   UNL     1       6.878   7.736  -6.200  1.00  0.00    -0.250 N 
ATOM     86  C   UNL     1       6.628   6.839  -7.254  1.00  0.00     0.238 C 
ATOM     87  C   UNL     1       7.092   9.052  -6.660  1.00  0.00     0.238 C 
ATOM     88  O   UNL     1       6.186   5.703  -7.228  1.00  0.00    -0.274 OA
ATOM     89  C   UNL     1       6.980   7.621  -8.477  1.00  0.00     0.100 C 
ATOM     90  C   UNL     1       6.492   8.996  -8.016  1.00  0.00     0.100 C 
ATOM     91  O   UNL     1       7.449  10.048  -6.059  1.00  0.00    -0.274 OA
ATOM     92  C   UNL     1       6.547   7.396  -9.935  1.00  0.00     0.028 C 
ATOM     93  C   UNL     1       6.352   9.917  -9.217  1.00  0.00     0.028 C 
ATOM     94  C   UNL     1       7.535   8.348 -10.656  1.00  0.00    -0.026 C 
ATOM     95  C   UNL     1       5.155   7.944 -10.307  1.00  0.00     0.001 C 
ATOM     96  C   UNL     1       7.467   9.633 -10.236  1.00  0.00    -0.026 C 
ATOM     97  C   UNL     1       5.025   9.422  -9.906  1.00  0.00     0.001 C 
ATOM     98  C   UNL     1       4.049   8.363  -9.383  1.00  0.00     0.009 C 
ENDBRANCH  81  85
ENDBRANCH  75  78
ENDBRANCH  73  74
ENDBRANCH  72  73
ENDBRANCH  71  72
ENDBRANCH   1  71
TORSDOF 15
