REMARK SMILES O=C(NCCCCNC(=O)c1ccc(-c2c3nc(c(-c4cc(S(=O)(=O)[O-])ccc4F)c4ccc([nH]4)c(-c4cc(S(=O)(=O)[O-])ccc4F)c4nc(c(-c5cc(S(=O)(=O)[O-])ccc5F)c5ccc2[nH]5)C=C4)C=C3)cc1)c1ccc(N/C=C\C(=O)c2ccco2)cc1
REMARK SMILES IDX 5 1 4 2 3 3 1 4 2 5 74 7 75 8 89 9 76 10 88 11 77 12 78 13
REMARK SMILES IDX 79 15 80 16 81 17 82 18 83 19 84 20 87 21 85 22 86 23 6 24
REMARK SMILES IDX 7 25 8 26 9 27 10 29 11 30 12 31 73 32 13 33 72 34 14 35
REMARK SMILES IDX 15 36 16 37 66 38 17 39 71 40 65 41 67 42 18 43 70 44 64 45
REMARK SMILES IDX 63 46 19 48 51 49 31 50 50 51 32 52 35 53 49 54 68 55 33 56
REMARK SMILES IDX 34 57 48 59 69 60 36 61 20 62 21 63 29 64 22 65 28 66 30 67
REMARK SMILES IDX 27 68 23 69 24 70 25 71 26 72 52 73 53 74 61 75 54 76 60 77
REMARK SMILES IDX 62 78 59 79 55 80 56 81 57 82 58 83 37 84 38 85 46 86 39 87
REMARK SMILES IDX 45 88 47 89 44 90 40 91 41 92 42 93 43 94
REMARK H PARENT 3 6 78 14 8 28 67 47 35 58
REMARK Flexibility Score: inf
ROOT
ATOM      1  C   UNL     1       4.992  -1.256   2.145  1.00  0.00     0.023 C 
ENDROOT
BRANCH   1   2
ATOM      2  C   UNL     1       4.637  -1.015   0.680  1.00  0.00     0.116 C 
BRANCH   2   3
ATOM      3  N   UNL     1       3.202  -1.020   0.445  1.00  0.00    -0.352 N 
ATOM      4  O   UNL     1       1.185  -0.143  -0.075  1.00  0.00    -0.269 OA
ATOM      5  C   UNL     1       2.408  -0.034  -0.081  1.00  0.00     0.251 C 
ATOM      6  H   UNL     1       2.735  -1.848   0.699  1.00  0.00     0.163 HD
BRANCH   5   7
ATOM      7  C   UNL     1       3.024   1.190  -0.627  1.00  0.00     0.039 A 
ATOM      8  C   UNL     1       4.020   1.128  -1.605  1.00  0.00     0.016 A 
ATOM      9  C   UNL     1       2.585   2.423  -0.149  1.00  0.00     0.016 A 
ATOM     10  C   UNL     1       4.639   2.302  -2.043  1.00  0.00     0.027 A 
ATOM     11  C   UNL     1       3.189   3.591  -0.613  1.00  0.00     0.027 A 
ATOM     12  C   UNL     1       4.231   3.548  -1.557  1.00  0.00     0.038 A 
BRANCH  12  13
ATOM     13  N   UNL     1       4.866   4.756  -1.885  1.00  0.00    -0.362 N 
ATOM     14  H   UNL     1       4.308   5.563  -1.801  1.00  0.00     0.166 HD
BRANCH  13  15
ATOM     15  C   UNL     1       6.151   4.972  -2.304  1.00  0.00     0.087 C 
ATOM     16  C   UNL     1       6.821   6.125  -2.454  1.00  0.00     0.074 C 
BRANCH  16  17
ATOM     17  C   UNL     1       6.330   7.508  -2.172  1.00  0.00     0.222 C 
ATOM     18  O   UNL     1       6.851   8.430  -2.800  1.00  0.00    -0.286 OA
BRANCH  17  19
ATOM     19  C   UNL     1       5.293   7.703  -1.183  1.00  0.00     0.173 A 
ATOM     20  C   UNL     1       5.128   7.226   0.107  1.00  0.00     0.054 A 
ATOM     21  O   UNL     1       4.192   8.436  -1.536  1.00  0.00    -0.461 OA
ATOM     22  C   UNL     1       3.853   7.660   0.543  1.00  0.00     0.043 A 
ATOM     23  C   UNL     1       3.324   8.391  -0.493  1.00  0.00     0.196 A 
ENDBRANCH  17  19
ENDBRANCH  16  17
ENDBRANCH  13  15
ENDBRANCH  12  13
ENDBRANCH   5   7
ENDBRANCH   2   3
ENDBRANCH   1   2
BRANCH   1  24
ATOM     24  C   UNL     1       4.528  -2.593   2.722  1.00  0.00     0.023 C 
BRANCH  24  25
ATOM     25  C   UNL     1       4.905  -3.828   1.911  1.00  0.00     0.116 C 
BRANCH  25  26
ATOM     26  N   UNL     1       6.339  -3.970   1.721  1.00  0.00    -0.352 N 
ATOM     27  C   UNL     1       7.128  -5.087   1.873  1.00  0.00     0.251 C 
ATOM     28  H   UNL     1       6.813  -3.152   1.445  1.00  0.00     0.163 HD
ATOM     29  O   UNL     1       8.348  -4.983   1.784  1.00  0.00    -0.269 OA
BRANCH  27  30
ATOM     30  C   UNL     1       6.508  -6.395   2.182  1.00  0.00     0.039 A 
ATOM     31  C   UNL     1       7.061  -7.180   3.197  1.00  0.00     0.014 A 
ATOM     32  C   UNL     1       5.382  -6.843   1.486  1.00  0.00     0.014 A 
ATOM     33  C   UNL     1       6.445  -8.381   3.561  1.00  0.00     0.010 A 
ATOM     34  C   UNL     1       4.731  -8.005   1.895  1.00  0.00     0.010 A 
ATOM     35  C   UNL     1       5.255  -8.787   2.936  1.00  0.00    -0.014 A 
BRANCH  35  36
ATOM     36  C   UNL     1       4.553 -10.035   3.339  1.00  0.00     0.031 A 
ATOM     37  C   UNL     1       4.423 -11.168   2.356  1.00  0.00     0.074 A 
ATOM     38  C   UNL     1       3.981 -10.126   4.556  1.00  0.00     0.049 A 
ATOM     39  N   UNL     1       3.752 -12.287   2.464  1.00  0.00    -0.248 NA
ATOM     40  C   UNL     1       5.116 -11.004   1.069  1.00  0.00     0.031 C 
ATOM     41  C   UNL     1       4.010  -9.084   5.585  1.00  0.00     0.029 A 
ATOM     42  N   UNL     1       3.250 -11.136   5.131  1.00  0.00    -0.354 N 
ATOM     43  C   UNL     1       3.929 -12.953   1.255  1.00  0.00     0.074 A 
ATOM     44  C   UNL     1       4.722 -12.085   0.411  1.00  0.00     0.031 C 
ATOM     45  C   UNL     1       3.340  -9.514   6.667  1.00  0.00     0.029 A 
ATOM     46  C   UNL     1       2.797 -10.841   6.397  1.00  0.00     0.049 A 
ATOM     47  H   UNL     1       3.066 -11.991   4.679  1.00  0.00     0.167 HD
ATOM     48  C   UNL     1       3.490 -14.183   0.891  1.00  0.00     0.034 A 
ATOM     49  C   UNL     1       2.020 -11.554   7.238  1.00  0.00     0.034 A 
ATOM     50  C   UNL     1       2.716 -15.047   1.748  1.00  0.00     0.049 A 
ATOM     51  C   UNL     1       1.540 -12.919   6.807  1.00  0.00     0.074 A 
ATOM     52  C   UNL     1       2.240 -16.321   1.488  1.00  0.00     0.029 A 
ATOM     53  N   UNL     1       2.308 -14.728   3.036  1.00  0.00    -0.354 N 
ATOM     54  N   UNL     1       1.738 -13.543   5.668  1.00  0.00    -0.248 NA
ATOM     55  C   UNL     1       0.747 -13.682   7.780  1.00  0.00     0.031 C 
ATOM     56  C   UNL     1       1.508 -16.753   2.599  1.00  0.00     0.029 A 
ATOM     57  C   UNL     1       1.580 -15.776   3.578  1.00  0.00     0.049 A 
ATOM     58  H   UNL     1       2.507 -13.881   3.498  1.00  0.00     0.167 HD
ATOM     59  C   UNL     1       1.125 -14.786   5.807  1.00  0.00     0.074 A 
ATOM     60  C   UNL     1       0.564 -14.827   7.140  1.00  0.00     0.031 C 
ATOM     61  C   UNL     1       1.036 -15.803   4.914  1.00  0.00     0.034 A 
BRANCH  48  62
ATOM     62  C   UNL     1       3.827 -14.653  -0.502  1.00  0.00     0.023 A 
ATOM     63  C   UNL     1       5.157 -14.880  -0.899  1.00  0.00     0.031 A 
ATOM     64  C   UNL     1       2.812 -14.859  -1.453  1.00  0.00     0.131 A 
ATOM     65  C   UNL     1       5.441 -15.231  -2.226  1.00  0.00     0.055 A 
ATOM     66  C   UNL     1       3.096 -15.284  -2.752  1.00  0.00     0.041 A 
ATOM     67  F   UNL     1       1.526 -14.639  -1.138  1.00  0.00    -0.206 F 
ATOM     68  C   UNL     1       4.419 -15.460  -3.150  1.00  0.00     0.022 A 
BRANCH  65  69
ATOM     69  S   UNL     1       7.174 -15.262  -2.761  1.00  0.00     0.124 S 
ATOM     70  O   UNL     1       7.567 -13.869  -2.562  1.00  0.00    -0.237 OA
ATOM     71  O   UNL     1       7.770 -16.230  -1.848  1.00  0.00    -0.237 OA
ATOM     72  O   UNL     1       7.094 -15.688  -4.157  1.00  0.00    -0.744 OA
ENDBRANCH  65  69
ENDBRANCH  48  62
BRANCH  49  73
ATOM     73  C   UNL     1       1.627 -11.002   8.567  1.00  0.00     0.023 A 
ATOM     74  C   UNL     1       2.041 -11.621   9.757  1.00  0.00     0.031 A 
ATOM     75  C   UNL     1       0.775  -9.888   8.666  1.00  0.00     0.131 A 
ATOM     76  C   UNL     1       1.554 -11.164  10.991  1.00  0.00     0.055 A 
ATOM     77  C   UNL     1       0.338  -9.402   9.899  1.00  0.00     0.041 A 
ATOM     78  F   UNL     1       0.354  -9.254   7.560  1.00  0.00    -0.206 F 
ATOM     79  C   UNL     1       0.713 -10.052  11.071  1.00  0.00     0.022 A 
BRANCH  76  80
ATOM     80  S   UNL     1       1.947 -12.115  12.485  1.00  0.00     0.124 S 
ATOM     81  O   UNL     1       1.475 -13.447  12.122  1.00  0.00    -0.237 OA
ATOM     82  O   UNL     1       3.394 -11.950  12.575  1.00  0.00    -0.237 OA
ATOM     83  O   UNL     1       1.177 -11.442  13.528  1.00  0.00    -0.744 OA
ENDBRANCH  76  80
ENDBRANCH  49  73
BRANCH  61  84
ATOM     84  C   UNL     1       0.364 -17.069   5.383  1.00  0.00     0.023 A 
ATOM     85  C   UNL     1      -1.014 -17.122   5.653  1.00  0.00     0.031 A 
ATOM     86  C   UNL     1       1.123 -18.237   5.573  1.00  0.00     0.131 A 
ATOM     87  C   UNL     1      -1.582 -18.304   6.151  1.00  0.00     0.055 A 
ATOM     88  C   UNL     1       0.543 -19.426   6.017  1.00  0.00     0.041 A 
ATOM     89  F   UNL     1       2.444 -18.241   5.329  1.00  0.00    -0.206 F 
ATOM     90  C   UNL     1      -0.815 -19.460   6.321  1.00  0.00     0.022 A 
BRANCH  87  91
ATOM     91  S   UNL     1      -3.325 -18.289   6.652  1.00  0.00     0.124 S 
ATOM     92  O   UNL     1      -3.341 -17.240   7.667  1.00  0.00    -0.237 OA
ATOM     93  O   UNL     1      -4.007 -17.975   5.401  1.00  0.00    -0.237 OA
ATOM     94  O   UNL     1      -3.549 -19.642   7.156  1.00  0.00    -0.744 OA
ENDBRANCH  87  91
ENDBRANCH  61  84
ENDBRANCH  35  36
ENDBRANCH  27  30
ENDBRANCH  25  26
ENDBRANCH  24  25
ENDBRANCH   1  24
TORSDOF 18
