REMARK SMILES Nc1cc(C(=O)NCCCCNC(=O)c2ccc(-c3c4nc(c(-c5cc(S(=O)(=O)[O-])ccc5F)c5ccc([nH]5)c(-c5cc(S(=O)(=O)[O-])ccc5F)c5nc(c(-c6cc(S(=O)(=O)[O-])ccc6F)c6ccc3[nH]6)C=C5)C=C4)cc2)ccc1N1CC2(CCOCC2)C1
REMARK SMILES IDX 10 1 9 2 8 3 7 4 5 5 6 6 4 8 2 9 3 10 80 11 79 12 78 13 1 14
REMARK SMILES IDX 81 17 82 18 89 19 83 20 84 21 88 22 85 23 87 24 86 25 11 26
REMARK SMILES IDX 12 27 13 28 14 30 15 31 16 32 77 33 17 34 76 35 18 36 19 37
REMARK SMILES IDX 20 38 70 39 21 40 75 41 69 42 71 43 22 44 74 45 68 46 67 47
REMARK SMILES IDX 23 49 55 50 35 51 54 52 36 53 39 54 53 55 72 56 37 57 38 58
REMARK SMILES IDX 52 60 73 61 40 62 24 63 25 64 33 65 26 66 32 67 34 68 31 69
REMARK SMILES IDX 27 70 28 71 29 72 30 73 56 74 57 75 65 76 58 77 64 78 66 79
REMARK SMILES IDX 63 80 59 81 60 82 61 83 62 84 41 85 42 86 50 87 43 88 49 89
REMARK SMILES IDX 51 90 48 91 44 92 45 93 46 94 47 95
REMARK H PARENT 7 7 1 15 1 16 12 29 71 48 39 59
REMARK Flexibility Score: inf
ROOT
ATOM      1  C   UNL     1      -5.908  -2.108  -1.504  1.00  0.00     0.023 C 
ENDROOT
BRANCH   1   2
ATOM      2  C   UNL     1      -4.902  -1.076  -0.977  1.00  0.00     0.023 C 
BRANCH   2   3
ATOM      3  C   UNL     1      -4.232  -1.475   0.339  1.00  0.00     0.116 C 
BRANCH   3   4
ATOM      4  N   UNL     1      -3.178  -2.436   0.095  1.00  0.00    -0.352 N 
ATOM      5  C   UNL     1      -1.844  -2.310  -0.182  1.00  0.00     0.251 C 
ATOM      6  O   UNL     1      -1.228  -3.360  -0.387  1.00  0.00    -0.269 OA
ATOM      7  H   UNL     1      -3.483  -3.371   0.138  1.00  0.00     0.163 HD
BRANCH   5   8
ATOM      8  C   UNL     1      -1.089  -1.018  -0.209  1.00  0.00     0.041 A 
ATOM      9  C   UNL     1       1.148  -0.015  -0.126  1.00  0.00     0.056 A 
ATOM     10  C   UNL     1       0.309  -1.134  -0.140  1.00  0.00     0.041 A 
ATOM     11  C   UNL     1       0.580   1.277  -0.115  1.00  0.00     0.060 A 
ATOM     12  C   UNL     1      -0.808   1.400  -0.206  1.00  0.00     0.029 A 
ATOM     13  C   UNL     1      -1.631   0.266  -0.292  1.00  0.00     0.016 A 
BRANCH   9  14
ATOM     14  N   UNL     1       2.516  -0.210   0.064  1.00  0.00    -0.397 N 
ATOM     15  H   UNL     1       2.890  -1.121   0.052  1.00  0.00     0.156 HD
ATOM     16  H   UNL     1       3.109   0.563   0.209  1.00  0.00     0.156 HD
ENDBRANCH   9  14
BRANCH  11  17
ATOM     17  N   UNL     1       1.397   2.406   0.024  1.00  0.00    -0.369 N 
ATOM     18  C   UNL     1       2.343   2.982  -0.874  1.00  0.00     0.125 C 
ATOM     19  C   UNL     1       1.269   3.588   0.810  1.00  0.00     0.125 C 
ATOM     20  C   UNL     1       2.683   3.960   0.284  1.00  0.00     0.010 C 
ATOM     21  C   UNL     1       2.906   5.421  -0.090  1.00  0.00     0.039 C 
ATOM     22  C   UNL     1       3.826   3.474   1.196  1.00  0.00     0.039 C 
ATOM     23  C   UNL     1       4.289   5.560  -0.721  1.00  0.00     0.161 C 
ATOM     24  C   UNL     1       5.153   3.712   0.487  1.00  0.00     0.161 C 
ATOM     25  O   UNL     1       5.304   5.099   0.177  1.00  0.00    -0.381 OA
ENDBRANCH  11  17
ENDBRANCH   5   8
ENDBRANCH   3   4
ENDBRANCH   2   3
ENDBRANCH   1   2
BRANCH   1  26
ATOM     26  C   UNL     1      -7.103  -2.370  -0.590  1.00  0.00     0.116 C 
BRANCH  26  27
ATOM     27  N   UNL     1      -7.833  -1.163  -0.242  1.00  0.00    -0.352 N 
ATOM     28  C   UNL     1      -9.166  -1.026   0.073  1.00  0.00     0.251 C 
ATOM     29  H   UNL     1      -7.304  -0.332  -0.230  1.00  0.00     0.163 HD
ATOM     30  O   UNL     1      -9.646   0.083   0.237  1.00  0.00    -0.269 OA
BRANCH  28  31
ATOM     31  C   UNL     1     -10.010  -2.239   0.158  1.00  0.00     0.039 A 
ATOM     32  C   UNL     1     -11.207  -2.272  -0.560  1.00  0.00     0.014 A 
ATOM     33  C   UNL     1      -9.602  -3.344   0.909  1.00  0.00     0.014 A 
ATOM     34  C   UNL     1     -11.964  -3.444  -0.581  1.00  0.00     0.010 A 
ATOM     35  C   UNL     1     -10.326  -4.530   0.837  1.00  0.00     0.010 A 
ATOM     36  C   UNL     1     -11.511  -4.593   0.087  1.00  0.00    -0.014 A 
BRANCH  36  37
ATOM     37  C   UNL     1     -12.259  -5.872   0.008  1.00  0.00     0.031 A 
ATOM     38  C   UNL     1     -12.884  -6.455   1.245  1.00  0.00     0.074 A 
ATOM     39  C   UNL     1     -12.311  -6.540  -1.161  1.00  0.00     0.049 A 
ATOM     40  N   UNL     1     -13.505  -7.596   1.400  1.00  0.00    -0.248 NA
ATOM     41  C   UNL     1     -12.764  -5.661   2.476  1.00  0.00     0.031 C 
ATOM     42  C   UNL     1     -11.701  -6.095  -2.416  1.00  0.00     0.029 A 
ATOM     43  N   UNL     1     -12.893  -7.740  -1.483  1.00  0.00    -0.354 N 
ATOM     44  C   UNL     1     -13.838  -7.664   2.749  1.00  0.00     0.074 A 
ATOM     45  C   UNL     1     -13.295  -6.476   3.374  1.00  0.00     0.031 C 
ATOM     46  C   UNL     1     -11.956  -7.001  -3.374  1.00  0.00     0.029 A 
ATOM     47  C   UNL     1     -12.712  -8.107  -2.796  1.00  0.00     0.049 A 
ATOM     48  H   UNL     1     -13.392  -8.287  -0.835  1.00  0.00     0.167 HD
ATOM     49  C   UNL     1     -14.550  -8.618   3.399  1.00  0.00     0.034 A 
ATOM     50  C   UNL     1     -13.103  -9.215  -3.456  1.00  0.00     0.034 A 
ATOM     51  C   UNL     1     -15.095  -9.789   2.755  1.00  0.00     0.049 A 
ATOM     52  C   UNL     1     -13.884 -10.267  -2.712  1.00  0.00     0.074 A 
ATOM     53  C   UNL     1     -15.880 -10.789   3.301  1.00  0.00     0.029 A 
ATOM     54  N   UNL     1     -14.903 -10.123   1.419  1.00  0.00    -0.354 N 
ATOM     55  N   UNL     1     -14.239 -10.292  -1.448  1.00  0.00    -0.248 NA
ATOM     56  C   UNL     1     -14.328 -11.432  -3.487  1.00  0.00     0.031 C 
ATOM     57  C   UNL     1     -16.113 -11.755   2.315  1.00  0.00     0.029 A 
ATOM     58  C   UNL     1     -15.531 -11.325   1.132  1.00  0.00     0.049 A 
ATOM     59  H   UNL     1     -14.394  -9.584   0.771  1.00  0.00     0.167 HD
ATOM     60  C   UNL     1     -14.970 -11.464  -1.284  1.00  0.00     0.074 A 
ATOM     61  C   UNL     1     -15.018 -12.109  -2.580  1.00  0.00     0.031 C 
ATOM     62  C   UNL     1     -15.555 -11.961  -0.164  1.00  0.00     0.034 A 
BRANCH  49  63
ATOM     63  C   UNL     1     -14.753  -8.436   4.885  1.00  0.00     0.023 A 
ATOM     64  C   UNL     1     -15.461  -7.337   5.403  1.00  0.00     0.031 A 
ATOM     65  C   UNL     1     -14.196  -9.348   5.798  1.00  0.00     0.131 A 
ATOM     66  C   UNL     1     -15.520  -7.131   6.789  1.00  0.00     0.055 A 
ATOM     67  C   UNL     1     -14.331  -9.183   7.178  1.00  0.00     0.041 A 
ATOM     68  F   UNL     1     -13.493 -10.407   5.365  1.00  0.00    -0.206 F 
ATOM     69  C   UNL     1     -14.981  -8.060   7.682  1.00  0.00     0.022 A 
BRANCH  66  70
ATOM     70  S   UNL     1     -16.175  -5.554   7.401  1.00  0.00     0.124 S 
ATOM     71  O   UNL     1     -15.273  -4.595   6.768  1.00  0.00    -0.237 OA
ATOM     72  O   UNL     1     -17.545  -5.568   6.904  1.00  0.00    -0.237 OA
ATOM     73  O   UNL     1     -16.035  -5.665   8.852  1.00  0.00    -0.744 OA
ENDBRANCH  66  70
ENDBRANCH  49  63
BRANCH  50  74
ATOM     74  C   UNL     1     -12.760  -9.395  -4.895  1.00  0.00     0.023 A 
ATOM     75  C   UNL     1     -13.762  -9.410  -5.879  1.00  0.00     0.031 A 
ATOM     76  C   UNL     1     -11.429  -9.590  -5.304  1.00  0.00     0.131 A 
ATOM     77  C   UNL     1     -13.422  -9.658  -7.218  1.00  0.00     0.055 A 
ATOM     78  C   UNL     1     -11.091  -9.789  -6.643  1.00  0.00     0.041 A 
ATOM     79  F   UNL     1     -10.434  -9.575  -4.403  1.00  0.00    -0.206 F 
ATOM     80  C   UNL     1     -12.093  -9.836  -7.608  1.00  0.00     0.022 A 
BRANCH  77  81
ATOM     81  S   UNL     1     -14.757  -9.814  -8.436  1.00  0.00     0.124 S 
ATOM     82  O   UNL     1     -15.536 -10.917  -7.884  1.00  0.00    -0.237 OA
ATOM     83  O   UNL     1     -15.378  -8.496  -8.375  1.00  0.00    -0.237 OA
ATOM     84  O   UNL     1     -14.049 -10.110  -9.680  1.00  0.00    -0.744 OA
ENDBRANCH  77  81
ENDBRANCH  50  74
BRANCH  62  85
ATOM     85  C   UNL     1     -16.329 -13.247  -0.314  1.00  0.00     0.023 A 
ATOM     86  C   UNL     1     -15.689 -14.467  -0.593  1.00  0.00     0.031 A 
ATOM     87  C   UNL     1     -17.730 -13.246  -0.190  1.00  0.00     0.131 A 
ATOM     88  C   UNL     1     -16.453 -15.627  -0.792  1.00  0.00     0.055 A 
ATOM     89  C   UNL     1     -18.480 -14.414  -0.333  1.00  0.00     0.041 A 
ATOM     90  F   UNL     1     -18.392 -12.108   0.075  1.00  0.00    -0.206 F 
ATOM     91  C   UNL     1     -17.843 -15.611  -0.649  1.00  0.00     0.022 A 
BRANCH  88  92
ATOM     92  S   UNL     1     -15.613 -17.143  -1.327  1.00  0.00     0.124 S 
ATOM     93  O   UNL     1     -14.994 -16.722  -2.580  1.00  0.00    -0.237 OA
ATOM     94  O   UNL     1     -14.698 -17.400  -0.219  1.00  0.00    -0.237 OA
ATOM     95  O   UNL     1     -16.702 -18.108  -1.466  1.00  0.00    -0.744 OA
ENDBRANCH  88  92
ENDBRANCH  62  85
ENDBRANCH  36  37
ENDBRANCH  28  31
ENDBRANCH  26  27
ENDBRANCH   1  26
TORSDOF 16
