REMARK SMILES O=C(NCCCCNC(=O)[C@@H](Cc1cccc(F)c1)[C@H]1CCOC2(CCC2)C1)c1ccc(-c2c3nc(c(-c4cc(S(=O)(=O)[O-])ccc4F)c4ccc([nH]4)c(-c4cc(S(=O)(=O)[O-])ccc4F)c4nc(c(-c5cc(S(=O)(=O)[O-])ccc5F)c5ccc2[nH]5)C=C4)C=C3)cc1
REMARK SMILES IDX 5 1 4 2 3 3 1 4 2 5 29 7 30 8 91 9 31 10 90 11 32 12 33 13
REMARK SMILES IDX 34 14 84 15 35 16 89 17 83 18 85 19 36 20 88 21 82 22 81 23
REMARK SMILES IDX 37 25 69 26 49 27 68 28 50 29 53 30 67 31 86 32 51 33 52 34
REMARK SMILES IDX 66 36 87 37 54 38 38 39 39 40 47 41 40 42 46 43 48 44 45 45
REMARK SMILES IDX 41 46 42 47 43 48 44 49 70 50 71 51 79 52 72 53 78 54 80 55
REMARK SMILES IDX 77 56 73 57 74 58 75 59 76 60 55 61 56 62 64 63 57 64 63 65
REMARK SMILES IDX 65 66 62 67 58 68 59 69 60 70 61 71 6 72 7 73 8 74 9 75
REMARK SMILES IDX 10 77 11 78 12 79 13 80 14 81 19 82 15 83 17 84 16 85 18 86
REMARK SMILES IDX 20 87 21 88 28 89 22 90 24 91 23 92 25 93 27 94 26 95
REMARK H PARENT 3 6 85 24 53 35 8 76
REMARK Flexibility Score: inf
ROOT
ATOM      1  C   UNL     1       5.663   2.198   0.863  1.00  0.00     0.023 C 
ENDROOT
BRANCH   1   2
ATOM      2  C   UNL     1       5.399   3.692   0.735  1.00  0.00     0.116 C 
BRANCH   2   3
ATOM      3  N   UNL     1       6.514   4.547   1.126  1.00  0.00    -0.352 N 
ATOM      4  O   UNL     1       7.816   6.401   1.001  1.00  0.00    -0.269 OA
ATOM      5  C   UNL     1       6.832   5.789   0.614  1.00  0.00     0.251 C 
ATOM      6  H   UNL     1       7.105   4.200   1.833  1.00  0.00     0.163 HD
BRANCH   5   7
ATOM      7  C   UNL     1       5.967   6.331  -0.455  1.00  0.00     0.039 A 
ATOM      8  C   UNL     1       4.586   6.392  -0.260  1.00  0.00     0.014 A 
ATOM      9  C   UNL     1       6.529   6.641  -1.696  1.00  0.00     0.014 A 
ATOM     10  C   UNL     1       3.755   6.600  -1.351  1.00  0.00     0.010 A 
ATOM     11  C   UNL     1       5.690   6.941  -2.772  1.00  0.00     0.010 A 
ATOM     12  C   UNL     1       4.296   6.884  -2.617  1.00  0.00    -0.014 A 
BRANCH  12  13
ATOM     13  C   UNL     1       3.378   7.167  -3.747  1.00  0.00     0.031 A 
ATOM     14  C   UNL     1       3.292   6.249  -4.935  1.00  0.00     0.074 A 
ATOM     15  C   UNL     1       2.567   8.237  -3.655  1.00  0.00     0.049 A 
ATOM     16  N   UNL     1       2.565   6.371  -6.016  1.00  0.00    -0.248 NA
ATOM     17  C   UNL     1       4.129   5.040  -4.908  1.00  0.00     0.031 C 
ATOM     18  C   UNL     1       2.537   9.171  -2.525  1.00  0.00     0.029 A 
ATOM     19  N   UNL     1       1.589   8.699  -4.493  1.00  0.00    -0.354 N 
ATOM     20  C   UNL     1       2.866   5.269  -6.809  1.00  0.00     0.074 A 
ATOM     21  C   UNL     1       3.857   4.496  -6.087  1.00  0.00     0.031 C 
ATOM     22  C   UNL     1       1.538  10.045  -2.705  1.00  0.00     0.029 A 
ATOM     23  C   UNL     1       0.917   9.791  -3.999  1.00  0.00     0.049 A 
ATOM     24  H   UNL     1       1.387   8.290  -5.366  1.00  0.00     0.167 HD
ATOM     25  C   UNL     1       2.362   4.939  -8.025  1.00  0.00     0.034 A 
ATOM     26  C   UNL     1      -0.076  10.524  -4.533  1.00  0.00     0.034 A 
ATOM     27  C   UNL     1       1.376   5.727  -8.728  1.00  0.00     0.049 A 
ATOM     28  C   UNL     1      -0.576  10.173  -5.901  1.00  0.00     0.074 A 
ATOM     29  C   UNL     1       0.830   5.511  -9.983  1.00  0.00     0.029 A 
ATOM     30  N   UNL     1       0.780   6.880  -8.233  1.00  0.00    -0.354 N 
ATOM     31  N   UNL     1      -0.202   9.190  -6.685  1.00  0.00    -0.248 NA
ATOM     32  C   UNL     1      -1.613  11.043  -6.466  1.00  0.00     0.031 C 
ATOM     33  C   UNL     1      -0.059   6.556 -10.264  1.00  0.00     0.029 A 
ATOM     34  C   UNL     1      -0.117   7.392  -9.160  1.00  0.00     0.049 A 
ATOM     35  H   UNL     1       0.967   7.278  -7.352  1.00  0.00     0.167 HD
ATOM     36  C   UNL     1      -0.959   9.322  -7.841  1.00  0.00     0.074 A 
ATOM     37  C   UNL     1      -1.822  10.471  -7.644  1.00  0.00     0.031 C 
ATOM     38  C   UNL     1      -0.943   8.558  -8.962  1.00  0.00     0.034 A 
BRANCH  25  39
ATOM     39  C   UNL     1       2.910   3.703  -8.694  1.00  0.00     0.023 A 
ATOM     40  C   UNL     1       2.650   2.414  -8.198  1.00  0.00     0.031 A 
ATOM     41  C   UNL     1       3.708   3.818  -9.847  1.00  0.00     0.131 A 
ATOM     42  C   UNL     1       3.220   1.295  -8.826  1.00  0.00     0.055 A 
ATOM     43  C   UNL     1       4.221   2.697 -10.503  1.00  0.00     0.041 A 
ATOM     44  F   UNL     1       4.006   5.025 -10.353  1.00  0.00    -0.206 F 
ATOM     45  C   UNL     1       3.985   1.426  -9.988  1.00  0.00     0.022 A 
BRANCH  42  46
ATOM     46  S   UNL     1       3.028  -0.333  -8.049  1.00  0.00     0.124 S 
ATOM     47  O   UNL     1       3.721  -0.136  -6.778  1.00  0.00    -0.237 OA
ATOM     48  O   UNL     1       1.580  -0.479  -7.971  1.00  0.00    -0.237 OA
ATOM     49  O   UNL     1       3.696  -1.239  -8.981  1.00  0.00    -0.744 OA
ENDBRANCH  42  46
ENDBRANCH  25  39
BRANCH  26  50
ATOM     50  C   UNL     1      -0.623  11.674  -3.770  1.00  0.00     0.023 A 
ATOM     51  C   UNL     1      -1.895  11.608  -3.186  1.00  0.00     0.031 A 
ATOM     52  C   UNL     1       0.151  12.829  -3.560  1.00  0.00     0.131 A 
ATOM     53  C   UNL     1      -2.360  12.684  -2.415  1.00  0.00     0.055 A 
ATOM     54  C   UNL     1      -0.302  13.881  -2.766  1.00  0.00     0.041 A 
ATOM     55  F   UNL     1       1.383  12.923  -4.085  1.00  0.00    -0.206 F 
ATOM     56  C   UNL     1      -1.566  13.812  -2.188  1.00  0.00     0.022 A 
BRANCH  53  57
ATOM     57  S   UNL     1      -4.019  12.584  -1.690  1.00  0.00     0.124 S 
ATOM     58  O   UNL     1      -4.865  12.635  -2.877  1.00  0.00    -0.237 OA
ATOM     59  O   UNL     1      -3.973  11.304  -0.990  1.00  0.00    -0.237 OA
ATOM     60  O   UNL     1      -4.083  13.760  -0.825  1.00  0.00    -0.744 OA
ENDBRANCH  53  57
ENDBRANCH  26  50
BRANCH  38  61
ATOM     61  C   UNL     1      -1.908   8.943 -10.050  1.00  0.00     0.023 A 
ATOM     62  C   UNL     1      -1.710  10.094 -10.831  1.00  0.00     0.031 A 
ATOM     63  C   UNL     1      -3.046   8.156 -10.293  1.00  0.00     0.131 A 
ATOM     64  C   UNL     1      -2.666  10.452 -11.793  1.00  0.00     0.055 A 
ATOM     65  C   UNL     1      -3.970   8.493 -11.282  1.00  0.00     0.041 A 
ATOM     66  F   UNL     1      -3.278   7.049  -9.570  1.00  0.00    -0.206 F 
ATOM     67  C   UNL     1      -3.788   9.652 -12.032  1.00  0.00     0.022 A 
BRANCH  64  68
ATOM     68  S   UNL     1      -2.457  12.015 -12.690  1.00  0.00     0.124 S 
ATOM     69  O   UNL     1      -2.557  12.995 -11.613  1.00  0.00    -0.237 OA
ATOM     70  O   UNL     1      -1.137  11.859 -13.290  1.00  0.00    -0.237 OA
ATOM     71  O   UNL     1      -3.571  12.018 -13.636  1.00  0.00    -0.744 OA
ENDBRANCH  64  68
ENDBRANCH  38  61
ENDBRANCH  12  13
ENDBRANCH   5   7
ENDBRANCH   2   3
ENDBRANCH   1   2
BRANCH   1  72
ATOM     72  C   UNL     1       6.096   1.746   2.251  1.00  0.00     0.023 C 
BRANCH  72  73
ATOM     73  C   UNL     1       5.104   2.049   3.371  1.00  0.00     0.116 C 
BRANCH  73  74
ATOM     74  N   UNL     1       4.482   0.848   3.875  1.00  0.00    -0.356 N 
ATOM     75  C   UNL     1       4.777   0.062   4.934  1.00  0.00     0.223 C 
ATOM     76  H   UNL     1       3.703   0.547   3.354  1.00  0.00     0.163 HD
ATOM     77  O   UNL     1       4.003  -0.879   5.150  1.00  0.00    -0.275 OA
BRANCH  75  78
ATOM     78  C   UNL     1       5.968   0.280   5.876  1.00  0.00     0.086 C 
BRANCH  78  79
ATOM     79  C   UNL     1       7.387   0.218   5.246  1.00  0.00     0.049 C 
BRANCH  79  80
ATOM     80  C   UNL     1       8.199   1.376   4.686  1.00  0.00    -0.044 A 
ATOM     81  C   UNL     1       8.050   2.737   4.998  1.00  0.00     0.004 A 
ATOM     82  C   UNL     1       9.235   1.041   3.789  1.00  0.00     0.043 A 
ATOM     83  C   UNL     1       8.853   3.722   4.403  1.00  0.00     0.003 A 
ATOM     84  C   UNL     1      10.029   2.024   3.200  1.00  0.00     0.123 A 
ATOM     85  C   UNL     1       9.841   3.365   3.493  1.00  0.00     0.039 A 
ATOM     86  F   UNL     1      10.981   1.666   2.329  1.00  0.00    -0.207 F 
ENDBRANCH  79  80
ENDBRANCH  78  79
BRANCH  78  87
ATOM     87  C   UNL     1       5.797   1.274   7.043  1.00  0.00     0.007 C 
ATOM     88  C   UNL     1       4.522   2.126   7.065  1.00  0.00     0.033 C 
ATOM     89  C   UNL     1       5.918   0.573   8.414  1.00  0.00     0.040 C 
ATOM     90  C   UNL     1       4.609   3.152   8.199  1.00  0.00     0.161 C 
ATOM     91  C   UNL     1       6.072   1.657   9.481  1.00  0.00     0.069 C 
ATOM     92  O   UNL     1       4.914   2.532   9.449  1.00  0.00    -0.375 OA
ATOM     93  C   UNL     1       6.428   1.114  10.892  1.00  0.00     0.035 C 
ATOM     94  C   UNL     1       7.469   2.349   9.485  1.00  0.00     0.035 C 
ATOM     95  C   UNL     1       7.477   2.233  11.013  1.00  0.00     0.006 C 
ENDBRANCH  78  87
ENDBRANCH  75  78
ENDBRANCH  73  74
ENDBRANCH  72  73
ENDBRANCH   1  72
TORSDOF 17
