REMARK SMILES C[C@H]1[C@H](C(=O)NCCCCNC(=O)c2ccc(-c3c4nc(c(-c5cc(S(=O)(=O)[O-])ccc5F)c5ccc([nH]5)c(-c5cc(S(=O)(=O)[O-])ccc5F)c5nc(c(-c6cc(S(=O)(=O)[O-])ccc6F)c6ccc3[nH]6)C=C5)C=C4)cc2)CCN1c1ccc(C(N)=O)c(Cl)c1
REMARK SMILES IDX 9 1 8 2 7 3 6 4 4 5 5 6 3 8 1 9 2 10 79 11 77 12 78 13 80 14
REMARK SMILES IDX 81 15 89 16 82 17 87 18 83 19 88 20 84 21 85 22 86 23 10 26
REMARK SMILES IDX 11 27 12 28 13 30 14 31 15 32 76 33 16 34 75 35 17 36 18 37
REMARK SMILES IDX 19 38 69 39 20 40 74 41 68 42 70 43 21 44 73 45 67 46 66 47
REMARK SMILES IDX 22 49 54 50 34 51 53 52 35 53 38 54 52 55 71 56 36 57 37 58
REMARK SMILES IDX 51 60 72 61 39 62 23 63 24 64 32 65 25 66 31 67 33 68 30 69
REMARK SMILES IDX 26 70 27 71 28 72 29 73 55 74 56 75 64 76 57 77 63 78 65 79
REMARK SMILES IDX 62 80 58 81 59 82 60 83 61 84 40 85 41 86 49 87 42 88 48 89
REMARK SMILES IDX 50 90 47 91 43 92 44 93 45 94 46 95
REMARK H PARENT 6 7 85 24 85 25 11 29 70 48 38 59
REMARK Flexibility Score: inf
ROOT
ATOM      1  C   UNL     1       0.025   0.792   5.308  1.00  0.00     0.023 C 
ENDROOT
BRANCH   1   2
ATOM      2  C   UNL     1       0.014   0.036   3.986  1.00  0.00     0.023 C 
BRANCH   2   3
ATOM      3  C   UNL     1      -0.953   0.587   2.940  1.00  0.00     0.116 C 
BRANCH   3   4
ATOM      4  N   UNL     1      -0.491   1.851   2.392  1.00  0.00    -0.356 N 
ATOM      5  C   UNL     1      -0.048   2.170   1.145  1.00  0.00     0.225 C 
ATOM      6  O   UNL     1       0.322   3.331   0.949  1.00  0.00    -0.275 OA
ATOM      7  H   UNL     1      -0.500   2.602   3.029  1.00  0.00     0.163 HD
BRANCH   5   8
ATOM      8  C   UNL     1      -0.015   1.164   0.006  1.00  0.00     0.102 C 
ATOM      9  C   UNL     1       2.122  -0.060  -0.572  1.00  0.00     0.032 C 
ATOM     10  C   UNL     1       0.875  -0.051   0.313  1.00  0.00     0.091 C 
ATOM     11  N   UNL     1       0.034  -1.212   0.003  1.00  0.00    -0.368 N 
ATOM     12  C   UNL     1      -1.395   0.628  -0.370  1.00  0.00     0.037 C 
ATOM     13  C   UNL     1      -1.183  -0.843  -0.706  1.00  0.00     0.118 C 
BRANCH  11  14
ATOM     14  C   UNL     1       0.259  -2.497   0.430  1.00  0.00     0.038 A 
ATOM     15  C   UNL     1      -0.047  -3.593  -0.377  1.00  0.00     0.027 A 
ATOM     16  C   UNL     1       0.763  -2.783   1.701  1.00  0.00     0.047 A 
ATOM     17  C   UNL     1       0.130  -4.912   0.067  1.00  0.00     0.017 A 
ATOM     18  C   UNL     1       0.908  -4.097   2.184  1.00  0.00     0.055 A 
ATOM     19  C   UNL     1       0.601  -5.189   1.361  1.00  0.00     0.058 A 
ATOM     20  Cl  UNL     1       1.459  -4.222   3.820  1.00  0.00    -0.083 Cl
BRANCH  19  21
ATOM     21  C   UNL     1       0.744  -6.607   1.827  1.00  0.00     0.250 C 
ATOM     22  N   UNL     1       0.631  -7.616   0.907  1.00  0.00    -0.366 N 
ATOM     23  O   UNL     1       0.958  -6.928   2.990  1.00  0.00    -0.269 OA
ATOM     24  H   UNL     1       0.460  -7.403  -0.039  1.00  0.00     0.159 HD
ATOM     25  H   UNL     1       0.722  -8.554   1.191  1.00  0.00     0.159 HD
ENDBRANCH  19  21
ENDBRANCH  11  14
ENDBRANCH   5   8
ENDBRANCH   3   4
ENDBRANCH   2   3
ENDBRANCH   1   2
BRANCH   1  26
ATOM     26  C   UNL     1      -1.331   0.891   5.992  1.00  0.00     0.116 C 
BRANCH  26  27
ATOM     27  N   UNL     1      -1.945  -0.406   6.237  1.00  0.00    -0.352 N 
ATOM     28  C   UNL     1      -2.535  -0.874   7.388  1.00  0.00     0.251 C 
ATOM     29  H   UNL     1      -1.938  -1.031   5.476  1.00  0.00     0.163 HD
ATOM     30  O   UNL     1      -2.893  -2.044   7.467  1.00  0.00    -0.269 OA
BRANCH  28  31
ATOM     31  C   UNL     1      -2.692   0.043   8.534  1.00  0.00     0.039 A 
ATOM     32  C   UNL     1      -2.270  -0.372   9.798  1.00  0.00     0.014 A 
ATOM     33  C   UNL     1      -3.195   1.333   8.342  1.00  0.00     0.014 A 
ATOM     34  C   UNL     1      -2.282   0.537  10.857  1.00  0.00     0.010 A 
ATOM     35  C   UNL     1      -3.116   2.261   9.373  1.00  0.00     0.010 A 
ATOM     36  C   UNL     1      -2.661   1.873  10.643  1.00  0.00    -0.014 A 
BRANCH  36  37
ATOM     37  C   UNL     1      -2.595   2.878  11.735  1.00  0.00     0.031 A 
ATOM     38  C   UNL     1      -3.851   3.566  12.197  1.00  0.00     0.074 A 
ATOM     39  C   UNL     1      -1.402   3.214  12.265  1.00  0.00     0.049 A 
ATOM     40  N   UNL     1      -3.996   4.518  13.082  1.00  0.00    -0.248 NA
ATOM     41  C   UNL     1      -5.107   3.148  11.554  1.00  0.00     0.031 C 
ATOM     42  C   UNL     1      -0.111   2.646  11.867  1.00  0.00     0.029 A 
ATOM     43  N   UNL     1      -1.076   4.115  13.247  1.00  0.00    -0.354 N 
ATOM     44  C   UNL     1      -5.353   4.820  13.094  1.00  0.00     0.074 A 
ATOM     45  C   UNL     1      -5.974   4.001  12.076  1.00  0.00     0.031 C 
ATOM     46  C   UNL     1       0.859   3.187  12.622  1.00  0.00     0.029 A 
ATOM     47  C   UNL     1       0.272   4.178  13.518  1.00  0.00     0.049 A 
ATOM     48  H   UNL     1      -1.745   4.666  13.715  1.00  0.00     0.167 HD
ATOM     49  C   UNL     1      -6.024   5.681  13.899  1.00  0.00     0.034 A 
ATOM     50  C   UNL     1       0.958   4.955  14.380  1.00  0.00     0.034 A 
ATOM     51  C   UNL     1      -5.387   6.483  14.915  1.00  0.00     0.049 A 
ATOM     52  C   UNL     1       0.195   5.933  15.239  1.00  0.00     0.074 A 
ATOM     53  C   UNL     1      -5.974   7.348  15.822  1.00  0.00     0.029 A 
ATOM     54  N   UNL     1      -4.019   6.528  15.154  1.00  0.00    -0.354 N 
ATOM     55  N   UNL     1      -1.097   6.168  15.276  1.00  0.00    -0.248 NA
ATOM     56  C   UNL     1       0.981   6.742  16.178  1.00  0.00     0.031 C 
ATOM     57  C   UNL     1      -4.958   7.974  16.551  1.00  0.00     0.029 A 
ATOM     58  C   UNL     1      -3.741   7.434  16.167  1.00  0.00     0.049 A 
ATOM     59  H   UNL     1      -3.345   5.995  14.674  1.00  0.00     0.167 HD
ATOM     60  C   UNL     1      -1.279   7.128  16.268  1.00  0.00     0.074 A 
ATOM     61  C   UNL     1       0.032   7.414  16.813  1.00  0.00     0.031 C 
ATOM     62  C   UNL     1      -2.426   7.718  16.694  1.00  0.00     0.034 A 
BRANCH  49  63
ATOM     63  C   UNL     1      -7.514   5.814  13.689  1.00  0.00     0.023 A 
ATOM     64  C   UNL     1      -8.385   4.723  13.860  1.00  0.00     0.031 A 
ATOM     65  C   UNL     1      -8.071   7.041  13.289  1.00  0.00     0.131 A 
ATOM     66  C   UNL     1      -9.748   4.858  13.555  1.00  0.00     0.055 A 
ATOM     67  C   UNL     1      -9.443   7.192  13.073  1.00  0.00     0.041 A 
ATOM     68  F   UNL     1      -7.290   8.113  13.085  1.00  0.00    -0.206 F 
ATOM     69  C   UNL     1     -10.288   6.093  13.191  1.00  0.00     0.022 A 
BRANCH  66  70
ATOM     70  S   UNL     1     -10.774   3.364  13.492  1.00  0.00     0.124 S 
ATOM     71  O   UNL     1     -10.075   2.570  12.484  1.00  0.00    -0.237 OA
ATOM     72  O   UNL     1     -10.696   2.869  14.862  1.00  0.00    -0.237 OA
ATOM     73  O   UNL     1     -12.084   3.864  13.081  1.00  0.00    -0.744 OA
ENDBRANCH  66  70
ENDBRANCH  49  63
BRANCH  50  74
ATOM     74  C   UNL     1       2.445   4.858  14.472  1.00  0.00     0.023 A 
ATOM     75  C   UNL     1       3.072   4.454  15.661  1.00  0.00     0.031 A 
ATOM     76  C   UNL     1       3.264   5.216  13.386  1.00  0.00     0.131 A 
ATOM     77  C   UNL     1       4.473   4.468  15.754  1.00  0.00     0.055 A 
ATOM     78  C   UNL     1       4.657   5.169  13.463  1.00  0.00     0.041 A 
ATOM     79  F   UNL     1       2.718   5.609  12.224  1.00  0.00    -0.206 F 
ATOM     80  C   UNL     1       5.269   4.807  14.659  1.00  0.00     0.022 A 
BRANCH  77  81
ATOM     81  S   UNL     1       5.239   4.134  17.364  1.00  0.00     0.124 S 
ATOM     82  O   UNL     1       4.632   5.163  18.201  1.00  0.00    -0.237 OA
ATOM     83  O   UNL     1       4.814   2.762  17.623  1.00  0.00    -0.237 OA
ATOM     84  O   UNL     1       6.667   4.303  17.102  1.00  0.00    -0.744 OA
ENDBRANCH  77  81
ENDBRANCH  50  74
BRANCH  62  85
ATOM     85  C   UNL     1      -2.314   8.696  17.839  1.00  0.00     0.023 A 
ATOM     86  C   UNL     1      -1.620   9.912  17.712  1.00  0.00     0.031 A 
ATOM     87  C   UNL     1      -2.906   8.400  19.080  1.00  0.00     0.131 A 
ATOM     88  C   UNL     1      -1.483  10.758  18.823  1.00  0.00     0.055 A 
ATOM     89  C   UNL     1      -2.826   9.278  20.162  1.00  0.00     0.041 A 
ATOM     90  F   UNL     1      -3.577   7.252  19.261  1.00  0.00    -0.206 F 
ATOM     91  C   UNL     1      -2.099  10.458  20.041  1.00  0.00     0.022 A 
BRANCH  88  92
ATOM     92  S   UNL     1      -0.402  12.208  18.686  1.00  0.00     0.124 S 
ATOM     93  O   UNL     1       0.874  11.600  18.324  1.00  0.00    -0.237 OA
ATOM     94  O   UNL     1      -1.056  12.988  17.642  1.00  0.00    -0.237 OA
ATOM     95  O   UNL     1      -0.450  12.799  20.023  1.00  0.00    -0.744 OA
ENDBRANCH  88  92
ENDBRANCH  62  85
ENDBRANCH  36  37
ENDBRANCH  28  31
ENDBRANCH  26  27
ENDBRANCH   1  26
TORSDOF 16
