REMARK SMILES CCOc1cccc(OCC)c1-c1ccc([C@@H](C)C(=O)NCCCCNC(=O)c2ccc(-c3c4nc(c(-c5cc(S(=O)(=O)[O-])ccc5F)c5ccc([nH]5)c(-c5cc(S(=O)(=O)[O-])ccc5F)c5nc(c(-c6cc(S(=O)(=O)[O-])ccc6F)c6ccc3[nH]6)C=C5)C=C4)cc2)cc1F
REMARK SMILES IDX 23 1 22 2 21 3 19 4 20 5 17 7 18 8 16 9 13 10 14 11 93 12
REMARK SMILES IDX 15 13 92 14 94 15 12 16 4 17 5 18 6 19 8 20 7 21 3 22 2 23
REMARK SMILES IDX 1 24 9 25 10 26 11 27 24 28 25 29 26 30 27 31 28 33 29 34
REMARK SMILES IDX 30 35 91 36 31 37 90 38 32 39 33 40 34 41 84 42 35 43 89 44
REMARK SMILES IDX 83 45 85 46 36 47 88 48 82 49 81 50 37 52 69 53 49 54 68 55
REMARK SMILES IDX 50 56 53 57 67 58 86 59 51 60 52 61 66 63 87 64 54 65 38 66
REMARK SMILES IDX 39 67 47 68 40 69 46 70 48 71 45 72 41 73 42 74 43 75 44 76
REMARK SMILES IDX 70 77 71 78 79 79 72 80 78 81 80 82 77 83 73 84 74 85 75 86
REMARK SMILES IDX 76 87 55 88 56 89 64 90 57 91 63 92 65 93 62 94 58 95 59 96
REMARK SMILES IDX 60 97 61 98
REMARK H PARENT 21 6 26 32 85 51 53 62
REMARK Flexibility Score: inf
ROOT
ATOM      1  C   UNL     1       3.501   4.034   1.048  1.00  0.00     0.023 C 
ENDROOT
BRANCH   1   2
ATOM      2  C   UNL     1       3.159   4.277   2.531  1.00  0.00     0.116 C 
BRANCH   2   3
ATOM      3  N   UNL     1       1.741   4.071   2.803  1.00  0.00    -0.356 N 
ATOM      4  C   UNL     1       0.995   3.058   3.329  1.00  0.00     0.227 C 
ATOM      5  O   UNL     1      -0.230   3.253   3.331  1.00  0.00    -0.274 OA
ATOM      6  H   UNL     1       1.192   4.848   2.547  1.00  0.00     0.163 HD
BRANCH   4   7
ATOM      7  C   UNL     1       1.534   1.727   3.912  1.00  0.00     0.105 C 
ATOM      8  C   UNL     1       2.613   1.896   4.977  1.00  0.00     0.023 C 
BRANCH   7   9
ATOM      9  C   UNL     1       1.894   0.676   2.874  1.00  0.00    -0.033 A 
ATOM     10  C   UNL     1       2.640  -1.160   0.826  1.00  0.00     0.025 A 
ATOM     11  C   UNL     1       3.082   0.157   0.821  1.00  0.00     0.012 A 
ATOM     12  C   UNL     1       1.766  -1.534   1.855  1.00  0.00     0.131 A 
ATOM     13  C   UNL     1       2.812   0.990   1.888  1.00  0.00     0.005 A 
ATOM     14  C   UNL     1       1.366  -0.620   2.851  1.00  0.00     0.044 A 
ATOM     15  F   UNL     1       1.279  -2.784   1.907  1.00  0.00    -0.206 F 
BRANCH  10  16
ATOM     16  C   UNL     1       3.081  -2.012  -0.284  1.00  0.00     0.069 A 
ATOM     17  C   UNL     1       2.144  -2.273  -1.318  1.00  0.00     0.130 A 
ATOM     18  C   UNL     1       2.499  -2.937  -2.494  1.00  0.00     0.047 A 
ATOM     19  C   UNL     1       3.813  -3.338  -2.682  1.00  0.00     0.008 A 
ATOM     20  C   UNL     1       4.413  -2.449  -0.480  1.00  0.00     0.130 A 
ATOM     21  C   UNL     1       4.750  -3.108  -1.677  1.00  0.00     0.047 A 
BRANCH  17  22
ATOM     22  O   UNL     1       0.828  -1.920  -1.130  1.00  0.00    -0.493 OA
BRANCH  22  23
ATOM     23  C   UNL     1       0.404  -0.845  -1.976  1.00  0.00     0.226 C 
ATOM     24  C   UNL     1      -0.145   0.270  -1.101  1.00  0.00     0.049 C 
ENDBRANCH  22  23
ENDBRANCH  17  22
BRANCH  20  25
ATOM     25  O   UNL     1       5.502  -2.404   0.354  1.00  0.00    -0.493 OA
BRANCH  25  26
ATOM     26  C   UNL     1       5.734  -1.372   1.302  1.00  0.00     0.226 C 
ATOM     27  C   UNL     1       6.293  -0.114   0.650  1.00  0.00     0.049 C 
ENDBRANCH  25  26
ENDBRANCH  20  25
ENDBRANCH  10  16
ENDBRANCH   7   9
ENDBRANCH   4   7
ENDBRANCH   2   3
ENDBRANCH   1   2
BRANCH   1  28
ATOM     28  C   UNL     1       3.576   5.255   0.149  1.00  0.00     0.023 C 
BRANCH  28  29
ATOM     29  C   UNL     1       4.705   6.222   0.467  1.00  0.00     0.116 C 
BRANCH  29  30
ATOM     30  N   UNL     1       6.035   5.638   0.407  1.00  0.00    -0.352 N 
ATOM     31  C   UNL     1       7.199   6.187  -0.114  1.00  0.00     0.251 C 
ATOM     32  H   UNL     1       6.122   4.733   0.786  1.00  0.00     0.163 HD
ATOM     33  O   UNL     1       8.231   5.542  -0.131  1.00  0.00    -0.269 OA
BRANCH  31  34
ATOM     34  C   UNL     1       7.134   7.545  -0.700  1.00  0.00     0.039 A 
ATOM     35  C   UNL     1       7.609   7.741  -1.998  1.00  0.00     0.014 A 
ATOM     36  C   UNL     1       6.494   8.578  -0.016  1.00  0.00     0.014 A 
ATOM     37  C   UNL     1       7.324   8.940  -2.659  1.00  0.00     0.010 A 
ATOM     38  C   UNL     1       6.127   9.726  -0.706  1.00  0.00     0.010 A 
ATOM     39  C   UNL     1       6.519   9.910  -2.041  1.00  0.00    -0.014 A 
BRANCH  39  40
ATOM     40  C   UNL     1       6.034  11.108  -2.773  1.00  0.00     0.031 A 
ATOM     41  C   UNL     1       6.380  12.483  -2.273  1.00  0.00     0.074 A 
ATOM     42  C   UNL     1       5.177  10.957  -3.804  1.00  0.00     0.049 A 
ATOM     43  N   UNL     1       5.936  13.646  -2.671  1.00  0.00    -0.248 NA
ATOM     44  C   UNL     1       7.314  12.548  -1.139  1.00  0.00     0.031 C 
ATOM     45  C   UNL     1       4.705   9.675  -4.333  1.00  0.00     0.029 A 
ATOM     46  N   UNL     1       4.527  11.890  -4.573  1.00  0.00    -0.354 N 
ATOM     47  C   UNL     1       6.512  14.581  -1.818  1.00  0.00     0.074 A 
ATOM     48  C   UNL     1       7.284  13.838  -0.844  1.00  0.00     0.031 C 
ATOM     49  C   UNL     1       3.850   9.902  -5.342  1.00  0.00     0.029 A 
ATOM     50  C   UNL     1       3.676  11.341  -5.505  1.00  0.00     0.049 A 
ATOM     51  H   UNL     1       4.656  12.860  -4.468  1.00  0.00     0.167 HD
ATOM     52  C   UNL     1       6.423  15.934  -1.858  1.00  0.00     0.034 A 
ATOM     53  C   UNL     1       2.831  11.928  -6.375  1.00  0.00     0.034 A 
ATOM     54  C   UNL     1       5.671  16.654  -2.856  1.00  0.00     0.049 A 
ATOM     55  C   UNL     1       2.749  13.430  -6.409  1.00  0.00     0.074 A 
ATOM     56  C   UNL     1       5.607  18.019  -3.070  1.00  0.00     0.029 A 
ATOM     57  N   UNL     1       4.836  16.066  -3.799  1.00  0.00    -0.354 N 
ATOM     58  N   UNL     1       3.370  14.306  -5.654  1.00  0.00    -0.248 NA
ATOM     59  C   UNL     1       1.856  14.021  -7.413  1.00  0.00     0.031 C 
ATOM     60  C   UNL     1       4.684  18.260  -4.095  1.00  0.00     0.029 A 
ATOM     61  C   UNL     1       4.219  17.042  -4.566  1.00  0.00     0.049 A 
ATOM     62  H   UNL     1       4.702  15.096  -3.906  1.00  0.00     0.167 HD
ATOM     63  C   UNL     1       2.946  15.555  -6.096  1.00  0.00     0.074 A 
ATOM     64  C   UNL     1       2.033  15.317  -7.198  1.00  0.00     0.031 C 
ATOM     65  C   UNL     1       3.281  16.787  -5.635  1.00  0.00     0.034 A 
BRANCH  52  66
ATOM     66  C   UNL     1       7.139  16.705  -0.775  1.00  0.00     0.023 A 
ATOM     67  C   UNL     1       8.533  16.628  -0.611  1.00  0.00     0.031 A 
ATOM     68  C   UNL     1       6.412  17.482   0.144  1.00  0.00     0.131 A 
ATOM     69  C   UNL     1       9.143  17.227   0.501  1.00  0.00     0.055 A 
ATOM     70  C   UNL     1       7.038  18.152   1.198  1.00  0.00     0.041 A 
ATOM     71  F   UNL     1       5.077  17.582   0.051  1.00  0.00    -0.206 F 
ATOM     72  C   UNL     1       8.409  18.009   1.394  1.00  0.00     0.022 A 
BRANCH  69  73
ATOM     73  S   UNL     1      10.875  16.821   0.857  1.00  0.00     0.124 S 
ATOM     74  O   UNL     1      10.822  15.364   0.955  1.00  0.00    -0.237 OA
ATOM     75  O   UNL     1      11.570  17.358  -0.306  1.00  0.00    -0.237 OA
ATOM     76  O   UNL     1      11.137  17.512   2.118  1.00  0.00    -0.744 OA
ENDBRANCH  69  73
ENDBRANCH  52  66
BRANCH  53  77
ATOM     77  C   UNL     1       1.973  11.092  -7.261  1.00  0.00     0.023 A 
ATOM     78  C   UNL     1       2.196  11.038  -8.645  1.00  0.00     0.031 A 
ATOM     79  C   UNL     1       0.914  10.335  -6.729  1.00  0.00     0.131 A 
ATOM     80  C   UNL     1       1.353  10.262  -9.457  1.00  0.00     0.055 A 
ATOM     81  C   UNL     1       0.103   9.536  -7.535  1.00  0.00     0.041 A 
ATOM     82  F   UNL     1       0.670  10.344  -5.409  1.00  0.00    -0.206 F 
ATOM     83  C   UNL     1       0.316   9.502  -8.910  1.00  0.00     0.022 A 
BRANCH  80  84
ATOM     84  S   UNL     1       1.611  10.286 -11.252  1.00  0.00     0.124 S 
ATOM     85  O   UNL     1       1.378  11.691 -11.568  1.00  0.00    -0.237 OA
ATOM     86  O   UNL     1       2.990   9.823 -11.367  1.00  0.00    -0.237 OA
ATOM     87  O   UNL     1       0.601   9.357 -11.754  1.00  0.00    -0.744 OA
ENDBRANCH  80  84
ENDBRANCH  53  77
BRANCH  65  88
ATOM     88  C   UNL     1       2.655  17.967  -6.333  1.00  0.00     0.023 A 
ATOM     89  C   UNL     1       1.282  18.243  -6.212  1.00  0.00     0.031 A 
ATOM     90  C   UNL     1       3.436  18.818  -7.133  1.00  0.00     0.131 A 
ATOM     91  C   UNL     1       0.722  19.319  -6.918  1.00  0.00     0.055 A 
ATOM     92  C   UNL     1       2.883  19.918  -7.790  1.00  0.00     0.041 A 
ATOM     93  F   UNL     1       4.751  18.596  -7.285  1.00  0.00    -0.206 F 
ATOM     94  C   UNL     1       1.517  20.167  -7.693  1.00  0.00     0.022 A 
BRANCH  91  95
ATOM     95  S   UNL     1      -1.076  19.552  -6.868  1.00  0.00     0.124 S 
ATOM     96  O   UNL     1      -1.559  18.307  -7.457  1.00  0.00    -0.237 OA
ATOM     97  O   UNL     1      -1.331  19.725  -5.442  1.00  0.00    -0.237 OA
ATOM     98  O   UNL     1      -1.289  20.747  -7.684  1.00  0.00    -0.744 OA
ENDBRANCH  91  95
ENDBRANCH  65  88
ENDBRANCH  39  40
ENDBRANCH  31  34
ENDBRANCH  29  30
ENDBRANCH  28  29
ENDBRANCH   1  28
TORSDOF 20
