REMARK SMILES CCc1ccc(OCC(=O)Nc2cc(C)c(O)c(C(=O)NCCCCNC(=O)c3ccc(-c4c5nc(c(-c6cc(S(=O)(=O)[O-])ccc6F)c6ccc([nH]6)c(-c6cc(S(=O)(=O)[O-])ccc6F)c6nc(c(-c7cc(S(=O)(=O)[O-])ccc7F)c7ccc4[nH]7)C=C6)C=C5)cc3)c2)cc1
REMARK SMILES IDX 22 1 21 2 19 3 20 4 18 6 12 7 13 8 92 9 14 10 15 11 16 12
REMARK SMILES IDX 11 13 9 14 10 15 8 17 7 18 6 19 3 20 4 21 94 22 5 23 93 24
REMARK SMILES IDX 2 25 1 26 17 27 23 29 24 30 25 31 26 32 27 33 28 35 29 36
REMARK SMILES IDX 30 37 91 38 31 39 90 40 32 41 33 42 34 43 84 44 35 45 89 46
REMARK SMILES IDX 83 47 85 48 36 49 88 50 82 51 81 52 37 54 69 55 49 56 68 57
REMARK SMILES IDX 50 58 53 59 67 60 86 61 51 62 52 63 66 65 87 66 54 67 38 68
REMARK SMILES IDX 39 69 47 70 40 71 46 72 48 73 45 74 41 75 42 76 43 77 44 78
REMARK SMILES IDX 70 79 71 80 79 81 72 82 78 83 80 84 77 85 73 86 74 87 75 88
REMARK SMILES IDX 76 89 55 90 56 91 64 92 57 93 63 94 65 95 62 96 58 97 59 98
REMARK SMILES IDX 60 99 61 100
REMARK H PARENT 21 5 11 16 17 28 26 34 85 53 53 64
REMARK Flexibility Score: inf
ROOT
ATOM      1  C   UNL     1       1.436  -6.357   1.947  1.00  0.00     0.116 C 
ENDROOT
BRANCH   1   2
ATOM      2  N   UNL     1       1.614  -7.736   2.299  1.00  0.00    -0.352 N 
ATOM      3  C   UNL     1       2.542  -8.281   3.158  1.00  0.00     0.255 C 
ATOM      4  O   UNL     1       2.528  -9.505   3.317  1.00  0.00    -0.269 OA
ATOM      5  H   UNL     1       0.995  -8.372   1.873  1.00  0.00     0.163 HD
BRANCH   3   6
ATOM      6  C   UNL     1       3.648  -7.502   3.818  1.00  0.00     0.083 A 
ATOM      7  C   UNL     1       4.645  -5.511   4.836  1.00  0.00     0.042 A 
ATOM      8  C   UNL     1       5.874  -6.193   4.878  1.00  0.00     0.033 A 
ATOM      9  C   UNL     1       3.519  -6.187   4.343  1.00  0.00     0.043 A 
ATOM     10  C   UNL     1       6.014  -7.518   4.452  1.00  0.00    -0.006 A 
ATOM     11  C   UNL     1       7.349  -8.188   4.613  1.00  0.00     0.048 C 
ATOM     12  C   UNL     1       4.897  -8.162   3.920  1.00  0.00     0.131 A 
BRANCH   7  13
ATOM     13  N   UNL     1       4.738  -4.168   5.251  1.00  0.00    -0.323 N 
ATOM     14  C   UNL     1       3.903  -3.150   5.589  1.00  0.00     0.262 C 
ATOM     15  O   UNL     1       4.433  -2.051   5.805  1.00  0.00    -0.271 OA
ATOM     16  H   UNL     1       5.679  -3.885   5.315  1.00  0.00     0.170 HD
BRANCH  14  17
ATOM     17  C   UNL     1       2.415  -3.326   5.825  1.00  0.00     0.329 C 
BRANCH  17  18
ATOM     18  O   UNL     1       1.568  -3.406   4.707  1.00  0.00    -0.484 OA
BRANCH  18  19
ATOM     19  C   UNL     1       1.706  -2.479   3.718  1.00  0.00     0.120 A 
ATOM     20  C   UNL     1       1.444  -0.913   1.382  1.00  0.00    -0.048 A 
ATOM     21  C   UNL     1       1.481  -2.297   1.306  1.00  0.00     0.007 A 
ATOM     22  C   UNL     1       1.626  -0.318   2.644  1.00  0.00     0.007 A 
ATOM     23  C   UNL     1       1.618  -3.042   2.462  1.00  0.00     0.047 A 
ATOM     24  C   UNL     1       1.759  -1.101   3.818  1.00  0.00     0.047 A 
BRANCH  20  25
ATOM     25  C   UNL     1       1.043  -0.208   0.111  1.00  0.00     0.032 C 
ATOM     26  C   UNL     1       1.420   1.251  -0.027  1.00  0.00     0.009 C 
ENDBRANCH  20  25
ENDBRANCH  18  19
ENDBRANCH  17  18
ENDBRANCH  14  17
ENDBRANCH   7  13
BRANCH  12  27
ATOM     27  O   UNL     1       5.082  -9.457   3.498  1.00  0.00    -0.507 OA
ATOM     28  H   UNL     1       5.923  -9.861   3.581  1.00  0.00     0.293 HD
ENDBRANCH  12  27
ENDBRANCH   3   6
ENDBRANCH   1   2
BRANCH   1  29
ATOM     29  C   UNL     1       1.026  -6.047   0.508  1.00  0.00     0.023 C 
BRANCH  29  30
ATOM     30  C   UNL     1      -0.444  -5.747   0.170  1.00  0.00     0.023 C 
BRANCH  30  31
ATOM     31  C   UNL     1      -1.445  -5.349   1.257  1.00  0.00     0.116 C 
BRANCH  31  32
ATOM     32  N   UNL     1      -1.421  -3.950   1.677  1.00  0.00    -0.352 N 
ATOM     33  C   UNL     1      -2.302  -2.905   1.463  1.00  0.00     0.251 C 
ATOM     34  H   UNL     1      -0.632  -3.705   2.212  1.00  0.00     0.163 HD
ATOM     35  O   UNL     1      -2.024  -1.774   1.833  1.00  0.00    -0.269 OA
BRANCH  33  36
ATOM     36  C   UNL     1      -3.585  -3.144   0.773  1.00  0.00     0.039 A 
ATOM     37  C   UNL     1      -4.024  -2.253  -0.211  1.00  0.00     0.014 A 
ATOM     38  C   UNL     1      -4.346  -4.263   1.095  1.00  0.00     0.014 A 
ATOM     39  C   UNL     1      -5.154  -2.569  -0.970  1.00  0.00     0.010 A 
ATOM     40  C   UNL     1      -5.390  -4.636   0.266  1.00  0.00     0.010 A 
ATOM     41  C   UNL     1      -5.796  -3.802  -0.786  1.00  0.00    -0.014 A 
BRANCH  41  42
ATOM     42  C   UNL     1      -6.885  -4.284  -1.673  1.00  0.00     0.031 A 
ATOM     43  C   UNL     1      -8.211  -4.654  -1.069  1.00  0.00     0.074 A 
ATOM     44  C   UNL     1      -6.621  -4.536  -2.970  1.00  0.00     0.049 A 
ATOM     45  N   UNL     1      -9.204  -5.324  -1.593  1.00  0.00    -0.248 NA
ATOM     46  C   UNL     1      -8.417  -4.271   0.337  1.00  0.00     0.031 C 
ATOM     47  C   UNL     1      -5.349  -4.264  -3.647  1.00  0.00     0.029 A 
ATOM     48  N   UNL     1      -7.395  -5.107  -3.948  1.00  0.00    -0.354 N 
ATOM     49  C   UNL     1     -10.133  -5.478  -0.569  1.00  0.00     0.074 A 
ATOM     50  C   UNL     1      -9.552  -4.890   0.619  1.00  0.00     0.031 C 
ATOM     51  C   UNL     1      -5.438  -4.651  -4.929  1.00  0.00     0.029 A 
ATOM     52  C   UNL     1      -6.746  -5.252  -5.154  1.00  0.00     0.049 A 
ATOM     53  H   UNL     1      -8.328  -5.387  -3.801  1.00  0.00     0.167 HD
ATOM     54  C   UNL     1     -11.366  -6.039  -0.625  1.00  0.00     0.034 A 
ATOM     55  C   UNL     1      -7.154  -5.828  -6.302  1.00  0.00     0.034 A 
ATOM     56  C   UNL     1     -11.928  -6.587  -1.835  1.00  0.00     0.049 A 
ATOM     57  C   UNL     1      -8.535  -6.432  -6.347  1.00  0.00     0.074 A 
ATOM     58  C   UNL     1     -13.186  -7.125  -2.038  1.00  0.00     0.029 A 
ATOM     59  N   UNL     1     -11.261  -6.664  -3.053  1.00  0.00    -0.354 N 
ATOM     60  N   UNL     1      -9.421  -6.537  -5.383  1.00  0.00    -0.248 NA
ATOM     61  C   UNL     1      -8.974  -6.987  -7.633  1.00  0.00     0.031 C 
ATOM     62  C   UNL     1     -13.260  -7.577  -3.360  1.00  0.00     0.029 A 
ATOM     63  C   UNL     1     -12.075  -7.256  -4.005  1.00  0.00     0.049 A 
ATOM     64  H   UNL     1     -10.344  -6.345  -3.215  1.00  0.00     0.167 HD
ATOM     65  C   UNL     1     -10.537  -7.136  -5.958  1.00  0.00     0.074 A 
ATOM     66  C   UNL     1     -10.213  -7.362  -7.353  1.00  0.00     0.031 C 
ATOM     67  C   UNL     1     -11.726  -7.465  -5.390  1.00  0.00     0.034 A 
BRANCH  54  68
ATOM     68  C   UNL     1     -12.164  -6.098   0.657  1.00  0.00     0.023 A 
ATOM     69  C   UNL     1     -12.528  -4.932   1.354  1.00  0.00     0.031 A 
ATOM     70  C   UNL     1     -12.526  -7.335   1.218  1.00  0.00     0.131 A 
ATOM     71  C   UNL     1     -13.143  -5.028   2.611  1.00  0.00     0.055 A 
ATOM     72  C   UNL     1     -13.223  -7.421   2.426  1.00  0.00     0.041 A 
ATOM     73  F   UNL     1     -12.191  -8.486   0.614  1.00  0.00    -0.206 F 
ATOM     74  C   UNL     1     -13.518  -6.263   3.140  1.00  0.00     0.022 A 
BRANCH  71  75
ATOM     75  S   UNL     1     -13.296  -3.523   3.613  1.00  0.00     0.124 S 
ATOM     76  O   UNL     1     -11.898  -3.125   3.759  1.00  0.00    -0.237 OA
ATOM     77  O   UNL     1     -14.120  -2.665   2.770  1.00  0.00    -0.237 OA
ATOM     78  O   UNL     1     -13.935  -3.993   4.841  1.00  0.00    -0.744 OA
ENDBRANCH  71  75
ENDBRANCH  54  68
BRANCH  55  79
ATOM     79  C   UNL     1      -6.260  -5.861  -7.494  1.00  0.00     0.023 A 
ATOM     80  C   UNL     1      -6.595  -5.158  -8.662  1.00  0.00     0.031 A 
ATOM     81  C   UNL     1      -5.070  -6.611  -7.497  1.00  0.00     0.131 A 
ATOM     82  C   UNL     1      -5.778  -5.255  -9.799  1.00  0.00     0.055 A 
ATOM     83  C   UNL     1      -4.232  -6.662  -8.614  1.00  0.00     0.041 A 
ATOM     84  F   UNL     1      -4.694  -7.294  -6.404  1.00  0.00    -0.206 F 
ATOM     85  C   UNL     1      -4.592  -5.992  -9.779  1.00  0.00     0.022 A 
BRANCH  82  86
ATOM     86  S   UNL     1      -6.333  -4.466 -11.335  1.00  0.00     0.124 S 
ATOM     87  O   UNL     1      -7.630  -5.100 -11.542  1.00  0.00    -0.237 OA
ATOM     88  O   UNL     1      -6.359  -3.057 -10.959  1.00  0.00    -0.237 OA
ATOM     89  O   UNL     1      -5.298  -4.834 -12.299  1.00  0.00    -0.744 OA
ENDBRANCH  82  86
ENDBRANCH  55  79
BRANCH  67  90
ATOM     90  C   UNL     1     -12.779  -8.046  -6.298  1.00  0.00     0.023 A 
ATOM     91  C   UNL     1     -12.646  -9.323  -6.867  1.00  0.00     0.031 A 
ATOM     92  C   UNL     1     -13.938  -7.305  -6.589  1.00  0.00     0.131 A 
ATOM     93  C   UNL     1     -13.635  -9.804  -7.736  1.00  0.00     0.055 A 
ATOM     94  C   UNL     1     -14.946  -7.812  -7.408  1.00  0.00     0.041 A 
ATOM     95  F   UNL     1     -14.113  -6.078  -6.072  1.00  0.00    -0.206 F 
ATOM     96  C   UNL     1     -14.793  -9.065  -7.996  1.00  0.00     0.022 A 
BRANCH  93  97
ATOM     97  S   UNL     1     -13.355 -11.380  -8.587  1.00  0.00     0.124 S 
ATOM     98  O   UNL     1     -12.132 -11.107  -9.335  1.00  0.00    -0.237 OA
ATOM     99  O   UNL     1     -13.226 -12.317  -7.476  1.00  0.00    -0.237 OA
ATOM    100  O   UNL     1     -14.556 -11.549  -9.402  1.00  0.00    -0.744 OA
ENDBRANCH  93  97
ENDBRANCH  67  90
ENDBRANCH  41  42
ENDBRANCH  33  36
ENDBRANCH  31  32
ENDBRANCH  30  31
ENDBRANCH  29  30
ENDBRANCH   1  29
TORSDOF 20
