REMARK SMILES COc1ccc(-c2ccc([C@H](C)[NH+]3CCOCC3)cc2)c(C(=O)NCCCCNC(=O)c2ccc(-c3c4nc(c(-c5cc(S(=O)(=O)[O-])ccc5F)c5ccc([nH]5)c(-c5cc(S(=O)(=O)[O-])ccc5F)c5nc(c(-c6cc(S(=O)(=O)[O-])ccc6F)c6ccc3[nH]6)C=C5)C=C4)cc2)c1
REMARK SMILES IDX 26 1 25 2 24 3 22 4 23 5 21 7 3 8 4 9 95 10 5 11 6 12 2 13
REMARK SMILES IDX 1 14 7 15 8 16 20 17 9 18 19 19 10 20 11 21 12 22 13 23
REMARK SMILES IDX 14 24 18 25 15 27 17 28 16 29 27 30 28 31 29 32 30 33 31 35
REMARK SMILES IDX 32 36 33 37 94 38 34 39 93 40 35 41 36 42 37 43 87 44 38 45
REMARK SMILES IDX 92 46 86 47 88 48 39 49 91 50 85 51 84 52 40 54 72 55 52 56
REMARK SMILES IDX 71 57 53 58 56 59 70 60 89 61 54 62 55 63 69 65 90 66 57 67
REMARK SMILES IDX 41 68 42 69 50 70 43 71 49 72 51 73 48 74 44 75 45 76 46 77
REMARK SMILES IDX 47 78 73 79 74 80 82 81 75 82 81 83 83 84 80 85 76 86 77 87
REMARK SMILES IDX 78 88 79 89 58 90 59 91 67 92 60 93 66 94 68 95 65 96 61 97
REMARK SMILES IDX 62 98 63 99 64 100
REMARK H PARENT 24 6 13 26 29 34 88 53 56 64
REMARK Flexibility Score: inf
ROOT
ATOM      1  C   UNL     1      -6.664   4.940  10.029  1.00  0.00     0.023 C 
ENDROOT
BRANCH   1   2
ATOM      2  C   UNL     1      -5.847   4.969  11.315  1.00  0.00     0.116 C 
BRANCH   2   3
ATOM      3  N   UNL     1      -4.649   4.145  11.320  1.00  0.00    -0.352 N 
ATOM      4  C   UNL     1      -3.406   4.360  11.891  1.00  0.00     0.252 C 
ATOM      5  O   UNL     1      -2.602   3.432  11.899  1.00  0.00    -0.269 OA
ATOM      6  H   UNL     1      -4.736   3.292  10.837  1.00  0.00     0.163 HD
BRANCH   4   7
ATOM      7  C   UNL     1      -3.039   5.690  12.463  1.00  0.00     0.051 A 
ATOM      8  C   UNL     1      -3.779   7.661  13.698  1.00  0.00     0.119 A 
ATOM      9  C   UNL     1      -2.584   8.296  13.384  1.00  0.00     0.047 A 
ATOM     10  C   UNL     1      -3.973   6.344  13.289  1.00  0.00     0.060 A 
ATOM     11  C   UNL     1      -1.592   7.614  12.678  1.00  0.00     0.013 A 
ATOM     12  C   UNL     1      -1.784   6.293  12.217  1.00  0.00    -0.005 A 
BRANCH   8  13
ATOM     13  O   UNL     1      -4.677   8.416  14.399  1.00  0.00    -0.497 OA
ATOM     14  C   UNL     1      -6.021   7.942  14.417  1.00  0.00     0.278 C 
ENDBRANCH   8  13
BRANCH  12  15
ATOM     15  C   UNL     1      -0.633   5.631  11.571  1.00  0.00    -0.018 A 
ATOM     16  C   UNL     1       0.533   5.381  12.316  1.00  0.00     0.009 A 
ATOM     17  C   UNL     1      -0.631   5.270  10.220  1.00  0.00     0.009 A 
ATOM     18  C   UNL     1       1.666   4.808  11.730  1.00  0.00     0.010 A 
ATOM     19  C   UNL     1       0.499   4.679   9.633  1.00  0.00     0.010 A 
ATOM     20  C   UNL     1       1.672   4.451  10.374  1.00  0.00     0.009 A 
BRANCH  20  21
ATOM     21  C   UNL     1       2.937   3.821   9.777  1.00  0.00     0.212 C 
ATOM     22  C   UNL     1       2.990   3.900   8.243  1.00  0.00     0.081 C 
BRANCH  21  23
ATOM     23  N   UNL     1       3.289   2.521  10.391  1.00  0.00    -0.325 N 
ATOM     24  C   UNL     1       4.477   1.851   9.832  1.00  0.00     0.291 C 
ATOM     25  C   UNL     1       2.206   1.534  10.563  1.00  0.00     0.291 C 
ATOM     26  H   UNL     1       3.518   2.860  11.325  1.00  0.00     0.348 HD
ATOM     27  C   UNL     1       4.196   0.895   8.654  1.00  0.00     0.221 C 
ATOM     28  C   UNL     1       1.960   0.636   9.346  1.00  0.00     0.221 C 
ATOM     29  O   UNL     1       3.163  -0.044   8.962  1.00  0.00    -0.370 OA
ENDBRANCH  21  23
ENDBRANCH  20  21
ENDBRANCH  12  15
ENDBRANCH   4   7
ENDBRANCH   2   3
ENDBRANCH   1   2
BRANCH   1  30
ATOM     30  C   UNL     1      -7.149   3.581   9.538  1.00  0.00     0.023 C 
BRANCH  30  31
ATOM     31  C   UNL     1      -7.819   2.677  10.566  1.00  0.00     0.116 C 
BRANCH  31  32
ATOM     32  N   UNL     1      -8.980   3.270  11.211  1.00  0.00    -0.352 N 
ATOM     33  C   UNL     1     -10.266   2.790  11.341  1.00  0.00     0.251 C 
ATOM     34  H   UNL     1      -8.823   4.152  11.619  1.00  0.00     0.163 HD
ATOM     35  O   UNL     1     -11.116   3.493  11.875  1.00  0.00    -0.269 OA
BRANCH  33  36
ATOM     36  C   UNL     1     -10.632   1.462  10.793  1.00  0.00     0.039 A 
ATOM     37  C   UNL     1     -11.809   1.346  10.046  1.00  0.00     0.014 A 
ATOM     38  C   UNL     1      -9.820   0.343  10.986  1.00  0.00     0.014 A 
ATOM     39  C   UNL     1     -12.116   0.137   9.412  1.00  0.00     0.010 A 
ATOM     40  C   UNL     1     -10.084  -0.835  10.289  1.00  0.00     0.010 A 
ATOM     41  C   UNL     1     -11.228  -0.948   9.485  1.00  0.00    -0.014 A 
BRANCH  41  42
ATOM     42  C   UNL     1     -11.469  -2.201   8.718  1.00  0.00     0.031 A 
ATOM     43  C   UNL     1     -11.663  -3.506   9.443  1.00  0.00     0.074 A 
ATOM     44  C   UNL     1     -11.428  -2.179   7.370  1.00  0.00     0.049 A 
ATOM     45  N   UNL     1     -11.779  -4.715   8.957  1.00  0.00    -0.248 NA
ATOM     46  C   UNL     1     -11.695  -3.441  10.911  1.00  0.00     0.031 C 
ATOM     47  C   UNL     1     -11.196  -0.987   6.551  1.00  0.00     0.029 A 
ATOM     48  N   UNL     1     -11.563  -3.189   6.450  1.00  0.00    -0.354 N 
ATOM     49  C   UNL     1     -11.879  -5.559  10.059  1.00  0.00     0.074 A 
ATOM     50  C   UNL     1     -11.747  -4.724  11.235  1.00  0.00     0.031 C 
ATOM     51  C   UNL     1     -11.222  -1.332   5.253  1.00  0.00     0.029 A 
ATOM     52  C   UNL     1     -11.427  -2.773   5.145  1.00  0.00     0.049 A 
ATOM     53  H   UNL     1     -11.741  -4.124   6.700  1.00  0.00     0.167 HD
ATOM     54  C   UNL     1     -12.086  -6.899  10.088  1.00  0.00     0.034 A 
ATOM     55  C   UNL     1     -11.449  -3.472   3.993  1.00  0.00     0.034 A 
ATOM     56  C   UNL     1     -12.231  -7.715   8.907  1.00  0.00     0.049 A 
ATOM     57  C   UNL     1     -11.674  -4.962   4.048  1.00  0.00     0.074 A 
ATOM     58  C   UNL     1     -12.502  -9.070   8.821  1.00  0.00     0.029 A 
ATOM     59  N   UNL     1     -12.110  -7.254   7.601  1.00  0.00    -0.354 N 
ATOM     60  N   UNL     1     -11.822  -5.736   5.098  1.00  0.00    -0.248 NA
ATOM     61  C   UNL     1     -11.748  -5.668   2.762  1.00  0.00     0.031 C 
ATOM     62  C   UNL     1     -12.483  -9.438   7.471  1.00  0.00     0.029 A 
ATOM     63  C   UNL     1     -12.273  -8.301   6.707  1.00  0.00     0.049 A 
ATOM     64  H   UNL     1     -11.933  -6.319   7.348  1.00  0.00     0.167 HD
ATOM     65  C   UNL     1     -12.033  -7.017   4.596  1.00  0.00     0.074 A 
ATOM     66  C   UNL     1     -12.009  -6.907   3.152  1.00  0.00     0.031 C 
ATOM     67  C   UNL     1     -12.235  -8.179   5.268  1.00  0.00     0.034 A 
BRANCH  54  68
ATOM     68  C   UNL     1     -12.144  -7.560  11.446  1.00  0.00     0.023 A 
ATOM     69  C   UNL     1     -13.133  -7.225  12.387  1.00  0.00     0.031 A 
ATOM     70  C   UNL     1     -11.175  -8.507  11.822  1.00  0.00     0.131 A 
ATOM     71  C   UNL     1     -13.080  -7.761  13.683  1.00  0.00     0.055 A 
ATOM     72  C   UNL     1     -11.179  -9.103  13.085  1.00  0.00     0.041 A 
ATOM     73  F   UNL     1     -10.194  -8.856  10.975  1.00  0.00    -0.206 F 
ATOM     74  C   UNL     1     -12.125  -8.717  14.031  1.00  0.00     0.022 A 
BRANCH  71  75
ATOM     75  S   UNL     1     -14.180  -7.069  14.949  1.00  0.00     0.124 S 
ATOM     76  O   UNL     1     -13.789  -5.662  14.941  1.00  0.00    -0.237 OA
ATOM     77  O   UNL     1     -15.503  -7.368  14.415  1.00  0.00    -0.237 OA
ATOM     78  O   UNL     1     -13.814  -7.803  16.159  1.00  0.00    -0.744 OA
ENDBRANCH  71  75
ENDBRANCH  54  68
BRANCH  55  79
ATOM     79  C   UNL     1     -11.242  -2.782   2.688  1.00  0.00     0.023 A 
ATOM     80  C   UNL     1     -12.270  -2.708   1.735  1.00  0.00     0.031 A 
ATOM     81  C   UNL     1      -9.997  -2.216   2.359  1.00  0.00     0.131 A 
ATOM     82  C   UNL     1     -12.025  -2.122   0.484  1.00  0.00     0.055 A 
ATOM     83  C   UNL     1      -9.772  -1.590   1.132  1.00  0.00     0.041 A 
ATOM     84  F   UNL     1      -8.982  -2.252   3.237  1.00  0.00    -0.206 F 
ATOM     85  C   UNL     1     -10.786  -1.552   0.180  1.00  0.00     0.022 A 
BRANCH  82  86
ATOM     86  S   UNL     1     -13.330  -2.181  -0.775  1.00  0.00     0.124 S 
ATOM     87  O   UNL     1     -13.553  -3.616  -0.905  1.00  0.00    -0.237 OA
ATOM     88  O   UNL     1     -14.399  -1.420  -0.137  1.00  0.00    -0.237 OA
ATOM     89  O   UNL     1     -12.715  -1.537  -1.933  1.00  0.00    -0.744 OA
ENDBRANCH  82  86
ENDBRANCH  55  79
BRANCH  67  90
ATOM     90  C   UNL     1     -12.489  -9.414   4.439  1.00  0.00     0.023 A 
ATOM     91  C   UNL     1     -11.491  -9.982   3.629  1.00  0.00     0.031 A 
ATOM     92  C   UNL     1     -13.757 -10.023   4.452  1.00  0.00     0.131 A 
ATOM     93  C   UNL     1     -11.791 -11.092   2.825  1.00  0.00     0.055 A 
ATOM     94  C   UNL     1     -14.034 -11.161   3.694  1.00  0.00     0.041 A 
ATOM     95  F   UNL     1     -14.748  -9.521   5.206  1.00  0.00    -0.206 F 
ATOM     96  C   UNL     1     -13.051 -11.694   2.864  1.00  0.00     0.022 A 
BRANCH  93  97
ATOM     97  S   UNL     1     -10.537 -11.688   1.658  1.00  0.00     0.124 S 
ATOM     98  O   UNL     1     -10.303 -10.507   0.834  1.00  0.00    -0.237 OA
ATOM     99  O   UNL     1      -9.444 -12.074   2.544  1.00  0.00    -0.237 OA
ATOM    100  O   UNL     1     -11.202 -12.797   0.976  1.00  0.00    -0.744 OA
ENDBRANCH  93  97
ENDBRANCH  67  90
ENDBRANCH  41  42
ENDBRANCH  33  36
ENDBRANCH  31  32
ENDBRANCH  30  31
ENDBRANCH   1  30
TORSDOF 18
