REMARK SMILES Cc1ncccc1C(=O)Nc1ccccc1C(=O)NCCCCNC(=O)c1ccc(-c2c3nc(c(-c4cc(S(=O)(=O)[O-])ccc4F)c4ccc([nH]4)c(-c4cc(S(=O)(=O)[O-])ccc4F)c4nc(c(-c5cc(S(=O)(=O)[O-])ccc5F)c5ccc2[nH]5)C=C4)C=C3)cc1
REMARK SMILES IDX 22 1 21 2 20 3 19 4 17 5 18 6 16 8 11 9 12 10 13 11 15 12
REMARK SMILES IDX 14 13 10 14 8 15 9 16 7 18 1 19 2 20 3 21 4 22 6 23 5 24
REMARK SMILES IDX 23 25 24 26 25 27 26 29 27 30 28 31 89 32 29 33 88 34 30 35
REMARK SMILES IDX 31 36 32 37 82 38 33 39 87 40 81 41 83 42 34 43 86 44 80 45
REMARK SMILES IDX 79 46 35 48 67 49 47 50 66 51 48 52 51 53 65 54 84 55 49 56
REMARK SMILES IDX 50 57 64 59 85 60 52 61 36 62 37 63 45 64 38 65 44 66 46 67
REMARK SMILES IDX 43 68 39 69 40 70 41 71 42 72 68 73 69 74 77 75 70 76 76 77
REMARK SMILES IDX 78 78 75 79 71 80 72 81 73 82 74 83 53 84 54 85 62 86 55 87
REMARK SMILES IDX 61 88 63 89 60 90 56 91 57 92 58 93 59 94
REMARK H PARENT 19 7 10 17 24 28 83 47 51 58
REMARK Flexibility Score: inf
ROOT
ATOM      1  C   UNL     1      -0.298  -4.712   2.880  1.00  0.00     0.023 C 
ENDROOT
BRANCH   1   2
ATOM      2  C   UNL     1       1.187  -4.529   2.558  1.00  0.00     0.023 C 
BRANCH   2   3
ATOM      3  C   UNL     1       1.542  -3.382   1.617  1.00  0.00     0.116 C 
BRANCH   3   4
ATOM      4  N   UNL     1       1.217  -2.066   2.129  1.00  0.00    -0.352 N 
ATOM      5  C   UNL     1       1.803  -0.847   1.882  1.00  0.00     0.253 C 
ATOM      6  O   UNL     1       1.351   0.144   2.456  1.00  0.00    -0.269 OA
ATOM      7  H   UNL     1       0.456  -2.040   2.752  1.00  0.00     0.163 HD
BRANCH   5   8
ATOM      8  C   UNL     1       3.025  -0.691   1.043  1.00  0.00     0.063 A 
ATOM      9  C   UNL     1       3.310  -1.322  -0.177  1.00  0.00     0.054 A 
ATOM     10  C   UNL     1       4.620  -1.244  -0.694  1.00  0.00     0.027 A 
ATOM     11  C   UNL     1       5.583  -0.421  -0.114  1.00  0.00     0.002 A 
ATOM     12  C   UNL     1       4.004   0.159   1.603  1.00  0.00     0.016 A 
ATOM     13  C   UNL     1       5.262   0.313   1.018  1.00  0.00     0.001 A 
BRANCH   9  14
ATOM     14  N   UNL     1       2.421  -2.003  -1.026  1.00  0.00    -0.321 N 
ATOM     15  C   UNL     1       1.089  -1.849  -1.316  1.00  0.00     0.257 C 
ATOM     16  O   UNL     1       0.551  -2.727  -1.994  1.00  0.00    -0.269 OA
ATOM     17  H   UNL     1       2.843  -2.746  -1.516  1.00  0.00     0.170 HD
BRANCH  15  18
ATOM     18  C   UNL     1       0.274  -0.688  -0.911  1.00  0.00     0.061 A 
ATOM     19  C   UNL     1       1.902   1.118  -1.716  1.00  0.00     0.067 C 
ATOM     20  C   UNL     1       0.623   0.653  -1.090  1.00  0.00     0.050 A 
ATOM     21  N   UNL     1      -0.214   1.669  -0.736  1.00  0.00    -0.261 NA
ATOM     22  C   UNL     1      -1.431   1.349  -0.241  1.00  0.00     0.111 A 
ATOM     23  C   UNL     1      -1.018  -0.976  -0.449  1.00  0.00     0.017 A 
ATOM     24  C   UNL     1      -1.883   0.052  -0.099  1.00  0.00     0.021 A 
ENDBRANCH  15  18
ENDBRANCH   9  14
ENDBRANCH   5   8
ENDBRANCH   3   4
ENDBRANCH   2   3
ENDBRANCH   1   2
BRANCH   1  25
ATOM     25  C   UNL     1      -1.268  -4.698   1.701  1.00  0.00     0.116 C 
BRANCH  25  26
ATOM     26  N   UNL     1      -0.986  -5.702   0.686  1.00  0.00    -0.352 N 
ATOM     27  C   UNL     1      -1.766  -6.743   0.229  1.00  0.00     0.251 C 
ATOM     28  H   UNL     1      -0.101  -5.626   0.260  1.00  0.00     0.163 HD
ATOM     29  O   UNL     1      -1.304  -7.550  -0.567  1.00  0.00    -0.269 OA
BRANCH  27  30
ATOM     30  C   UNL     1      -3.145  -6.909   0.742  1.00  0.00     0.039 A 
ATOM     31  C   UNL     1      -3.538  -8.157   1.229  1.00  0.00     0.014 A 
ATOM     32  C   UNL     1      -4.031  -5.830   0.781  1.00  0.00     0.014 A 
ATOM     33  C   UNL     1      -4.778  -8.294   1.860  1.00  0.00     0.010 A 
ATOM     34  C   UNL     1      -5.230  -5.948   1.480  1.00  0.00     0.010 A 
ATOM     35  C   UNL     1      -5.609  -7.176   2.046  1.00  0.00    -0.014 A 
BRANCH  35  36
ATOM     36  C   UNL     1      -6.857  -7.263   2.854  1.00  0.00     0.031 A 
ATOM     37  C   UNL     1      -8.192  -6.976   2.223  1.00  0.00     0.074 A 
ATOM     38  C   UNL     1      -6.779  -7.523   4.176  1.00  0.00     0.049 A 
ATOM     39  N   UNL     1      -9.374  -6.904   2.781  1.00  0.00    -0.248 NA
ATOM     40  C   UNL     1      -8.191  -6.700   0.779  1.00  0.00     0.031 C 
ATOM     41  C   UNL     1      -5.540  -7.772   4.918  1.00  0.00     0.029 A 
ATOM     42  N   UNL     1      -7.758  -7.611   5.136  1.00  0.00    -0.354 N 
ATOM     43  C   UNL     1     -10.255  -6.562   1.761  1.00  0.00     0.074 A 
ATOM     44  C   UNL     1      -9.459  -6.379   0.565  1.00  0.00     0.031 C 
ATOM     45  C   UNL     1      -5.836  -8.009   6.206  1.00  0.00     0.029 A 
ATOM     46  C   UNL     1      -7.277  -7.883   6.397  1.00  0.00     0.049 A 
ATOM     47  H   UNL     1      -8.715  -7.491   4.940  1.00  0.00     0.167 HD
ATOM     48  C   UNL     1     -11.605  -6.436   1.810  1.00  0.00     0.034 A 
ATOM     49  C   UNL     1      -7.921  -8.004   7.576  1.00  0.00     0.034 A 
ATOM     50  C   UNL     1     -12.389  -6.637   3.004  1.00  0.00     0.049 A 
ATOM     51  C   UNL     1      -9.420  -7.843   7.608  1.00  0.00     0.074 A 
ATOM     52  C   UNL     1     -13.765  -6.587   3.152  1.00  0.00     0.029 A 
ATOM     53  N   UNL     1     -11.868  -6.924   4.260  1.00  0.00    -0.354 N 
ATOM     54  N   UNL     1     -10.243  -7.568   6.622  1.00  0.00    -0.248 NA
ATOM     55  C   UNL     1     -10.078  -8.019   8.909  1.00  0.00     0.031 C 
ATOM     56  C   UNL     1     -14.070  -6.781   4.503  1.00  0.00     0.029 A 
ATOM     57  C   UNL     1     -12.892  -7.026   5.189  1.00  0.00     0.049 A 
ATOM     58  H   UNL     1     -10.911  -7.037   4.461  1.00  0.00     0.167 HD
ATOM     59  C   UNL     1     -11.518  -7.574   7.181  1.00  0.00     0.074 A 
ATOM     60  C   UNL     1     -11.356  -7.893   8.584  1.00  0.00     0.031 C 
ATOM     61  C   UNL     1     -12.716  -7.341   6.587  1.00  0.00     0.034 A 
BRANCH  48  62
ATOM     62  C   UNL     1     -12.312  -6.045   0.534  1.00  0.00     0.023 A 
ATOM     63  C   UNL     1     -12.289  -6.871  -0.604  1.00  0.00     0.031 A 
ATOM     64  C   UNL     1     -12.999  -4.821   0.444  1.00  0.00     0.131 A 
ATOM     65  C   UNL     1     -12.871  -6.431  -1.801  1.00  0.00     0.055 A 
ATOM     66  C   UNL     1     -13.649  -4.426  -0.728  1.00  0.00     0.041 A 
ATOM     67  F   UNL     1     -13.040  -3.981   1.490  1.00  0.00    -0.206 F 
ATOM     68  C   UNL     1     -13.574  -5.226  -1.865  1.00  0.00     0.022 A 
BRANCH  65  69
ATOM     69  S   UNL     1     -12.577  -7.394  -3.310  1.00  0.00     0.124 S 
ATOM     70  O   UNL     1     -11.120  -7.346  -3.409  1.00  0.00    -0.237 OA
ATOM     71  O   UNL     1     -13.152  -8.691  -2.975  1.00  0.00    -0.237 OA
ATOM     72  O   UNL     1     -13.290  -6.642  -4.341  1.00  0.00    -0.744 OA
ENDBRANCH  65  69
ENDBRANCH  48  62
BRANCH  49  73
ATOM     73  C   UNL     1      -7.164  -8.283   8.832  1.00  0.00     0.023 A 
ATOM     74  C   UNL     1      -7.365  -9.476   9.545  1.00  0.00     0.031 A 
ATOM     75  C   UNL     1      -6.272  -7.338   9.368  1.00  0.00     0.131 A 
ATOM     76  C   UNL     1      -6.729  -9.668  10.781  1.00  0.00     0.055 A 
ATOM     77  C   UNL     1      -5.598  -7.558  10.571  1.00  0.00     0.041 A 
ATOM     78  F   UNL     1      -6.038  -6.183   8.725  1.00  0.00    -0.206 F 
ATOM     79  C   UNL     1      -5.837  -8.723  11.293  1.00  0.00     0.022 A 
BRANCH  76  80
ATOM     80  S   UNL     1      -7.161 -11.133  11.761  1.00  0.00     0.124 S 
ATOM     81  O   UNL     1      -8.604 -10.980  11.903  1.00  0.00    -0.237 OA
ATOM     82  O   UNL     1      -6.712 -12.218  10.895  1.00  0.00    -0.237 OA
ATOM     83  O   UNL     1      -6.389 -10.960  12.990  1.00  0.00    -0.744 OA
ENDBRANCH  76  80
ENDBRANCH  49  73
BRANCH  61  84
ATOM     84  C   UNL     1     -13.947  -7.477   7.449  1.00  0.00     0.023 A 
ATOM     85  C   UNL     1     -14.219  -6.586   8.502  1.00  0.00     0.031 A 
ATOM     86  C   UNL     1     -14.856  -8.525   7.219  1.00  0.00     0.131 A 
ATOM     87  C   UNL     1     -15.341  -6.791   9.319  1.00  0.00     0.055 A 
ATOM     88  C   UNL     1     -16.002  -8.689   7.998  1.00  0.00     0.041 A 
ATOM     89  F   UNL     1     -14.646  -9.407   6.228  1.00  0.00    -0.206 F 
ATOM     90  C   UNL     1     -16.243  -7.827   9.063  1.00  0.00     0.022 A 
BRANCH  87  91
ATOM     91  S   UNL     1     -15.562  -5.735  10.778  1.00  0.00     0.124 S 
ATOM     92  O   UNL     1     -14.332  -5.986  11.523  1.00  0.00    -0.237 OA
ATOM     93  O   UNL     1     -15.689  -4.407  10.186  1.00  0.00    -0.237 OA
ATOM     94  O   UNL     1     -16.779  -6.256  11.398  1.00  0.00    -0.744 OA
ENDBRANCH  87  91
ENDBRANCH  61  84
ENDBRANCH  35  36
ENDBRANCH  27  30
ENDBRANCH  25  26
ENDBRANCH   1  25
TORSDOF 16
