REMARK SMILES O=C(C[C@@H]([NH2+]Cc1cccnc1)C(=O)NCCCCNC(=O)c1ccc(-c2c3nc(c(-c4cc(S(=O)(=O)[O-])ccc4F)c4ccc([nH]4)c(-c4cc(S(=O)(=O)[O-])ccc4F)c4nc(c(-c5cc(S(=O)(=O)[O-])ccc5F)c5ccc2[nH]5)C=C4)C=C3)cc1)Nc1ccc2ccccc2c1
REMARK SMILES IDX 17 1 16 2 15 3 13 4 14 5 4 7 3 8 2 9 1 10 86 11 87 13 88 14
REMARK SMILES IDX 96 15 89 16 95 17 90 18 94 19 91 20 93 21 92 22 5 23 6 26
REMARK SMILES IDX 7 27 8 28 12 29 9 30 11 31 10 32 18 33 19 34 20 35 21 36
REMARK SMILES IDX 22 38 23 39 24 40 85 41 25 42 84 43 26 44 27 45 28 46 78 47
REMARK SMILES IDX 29 48 83 49 77 50 79 51 30 52 82 53 76 54 75 55 31 57 63 58
REMARK SMILES IDX 43 59 62 60 44 61 47 62 61 63 80 64 45 65 46 66 60 68 81 69
REMARK SMILES IDX 48 70 32 71 33 72 41 73 34 74 40 75 42 76 39 77 35 78 36 79
REMARK SMILES IDX 37 80 38 81 64 82 65 83 73 84 66 85 72 86 74 87 71 88 67 89
REMARK SMILES IDX 68 90 69 91 70 92 49 93 50 94 58 95 51 96 57 97 59 98 56 99
REMARK SMILES IDX 52 100 53 101 54 102 55 103
REMARK H PARENT 15 6 86 12 5 24 5 25 20 37 79 56 47 67
REMARK Flexibility Score: inf
ROOT
ATOM      1  C   UNL     1       5.286   1.899  -2.806  1.00  0.00     0.023 C 
ENDROOT
BRANCH   1   2
ATOM      2  C   UNL     1       5.772   1.665  -1.376  1.00  0.00     0.116 C 
BRANCH   2   3
ATOM      3  N   UNL     1       5.352   2.748  -0.508  1.00  0.00    -0.351 N 
ATOM      4  C   UNL     1       4.393   2.773   0.460  1.00  0.00     0.278 C 
ATOM      5  O   UNL     1       4.207   3.836   1.058  1.00  0.00    -0.268 OA
ATOM      6  H   UNL     1       5.834   3.596  -0.638  1.00  0.00     0.163 HD
BRANCH   4   7
ATOM      7  C   UNL     1       3.609   1.504   0.854  1.00  0.00     0.282 C 
BRANCH   7   8
ATOM      8  C   UNL     1       2.717   1.048  -0.321  1.00  0.00     0.175 C 
BRANCH   8   9
ATOM      9  C   UNL     1       1.904  -0.203  -0.056  1.00  0.00     0.230 C 
ATOM     10  O   UNL     1       0.678  -0.192  -0.063  1.00  0.00    -0.274 OA
ATOM     11  N   UNL     1       2.700  -1.306   0.201  1.00  0.00    -0.326 N 
ATOM     12  H   UNL     1       3.666  -1.239   0.022  1.00  0.00     0.169 HD
BRANCH  11  13
ATOM     13  C   UNL     1       2.198  -2.513   0.704  1.00  0.00     0.041 A 
ATOM     14  C   UNL     1       2.731  -2.987   1.901  1.00  0.00     0.027 A 
ATOM     15  C   UNL     1       1.218  -3.243   0.032  1.00  0.00     0.034 A 
ATOM     16  C   UNL     1       2.207  -4.136   2.489  1.00  0.00     0.011 A 
ATOM     17  C   UNL     1       0.779  -4.475   0.550  1.00  0.00    -0.016 A 
ATOM     18  C   UNL     1       1.238  -4.894   1.821  1.00  0.00    -0.018 A 
ATOM     19  C   UNL     1      -0.084  -5.317  -0.170  1.00  0.00     0.009 A 
ATOM     20  C   UNL     1       0.743  -6.080   2.381  1.00  0.00     0.009 A 
ATOM     21  C   UNL     1      -0.509  -6.533   0.371  1.00  0.00     0.001 A 
ATOM     22  C   UNL     1      -0.120  -6.900   1.656  1.00  0.00     0.001 A 
ENDBRANCH  11  13
ENDBRANCH   8   9
ENDBRANCH   7   8
BRANCH   7  23
ATOM     23  N   UNL     1       4.525   0.440   1.384  1.00  0.00    -0.332 N 
ATOM     24  H   UNL     1       5.077   0.075   0.608  1.00  0.00     0.347 HD
ATOM     25  H   UNL     1       3.936  -0.273   1.814  1.00  0.00     0.347 HD
BRANCH  23  26
ATOM     26  C   UNL     1       5.454   0.921   2.431  1.00  0.00     0.299 C 
BRANCH  26  27
ATOM     27  C   UNL     1       4.752   1.178   3.736  1.00  0.00     0.024 A 
ATOM     28  C   UNL     1       4.209   0.127   4.486  1.00  0.00     0.013 A 
ATOM     29  C   UNL     1       4.556   2.471   4.210  1.00  0.00     0.120 A 
ATOM     30  C   UNL     1       3.472   0.403   5.631  1.00  0.00     0.021 A 
ATOM     31  N   UNL     1       3.860   2.763   5.332  1.00  0.00    -0.264 NA
ATOM     32  C   UNL     1       3.323   1.726   6.007  1.00  0.00     0.111 A 
ENDBRANCH  26  27
ENDBRANCH  23  26
ENDBRANCH   7  23
ENDBRANCH   4   7
ENDBRANCH   2   3
ENDBRANCH   1   2
BRANCH   1  33
ATOM     33  C   UNL     1       5.986   3.054  -3.522  1.00  0.00     0.023 C 
BRANCH  33  34
ATOM     34  C   UNL     1       7.498   2.912  -3.629  1.00  0.00     0.116 C 
BRANCH  34  35
ATOM     35  N   UNL     1       7.899   1.697  -4.323  1.00  0.00    -0.352 N 
ATOM     36  C   UNL     1       8.854   1.547  -5.299  1.00  0.00     0.251 C 
ATOM     37  H   UNL     1       7.425   0.876  -4.059  1.00  0.00     0.163 HD
ATOM     38  O   UNL     1       8.958   0.480  -5.897  1.00  0.00    -0.269 OA
BRANCH  36  39
ATOM     39  C   UNL     1       9.722   2.693  -5.638  1.00  0.00     0.039 A 
ATOM     40  C   UNL     1       9.894   3.043  -6.978  1.00  0.00     0.014 A 
ATOM     41  C   UNL     1      10.325   3.447  -4.626  1.00  0.00     0.014 A 
ATOM     42  C   UNL     1      10.619   4.192  -7.301  1.00  0.00     0.010 A 
ATOM     43  C   UNL     1      10.975   4.633  -4.946  1.00  0.00     0.010 A 
ATOM     44  C   UNL     1      11.133   5.017  -6.287  1.00  0.00    -0.014 A 
BRANCH  44  45
ATOM     45  C   UNL     1      11.856   6.276  -6.603  1.00  0.00     0.031 A 
ATOM     46  C   UNL     1      13.299   6.428  -6.205  1.00  0.00     0.074 A 
ATOM     47  C   UNL     1      11.202   7.300  -7.185  1.00  0.00     0.049 A 
ATOM     48  N   UNL     1      14.080   7.473  -6.300  1.00  0.00    -0.248 NA
ATOM     49  C   UNL     1      13.936   5.256  -5.586  1.00  0.00     0.031 C 
ATOM     50  C   UNL     1       9.794   7.283  -7.590  1.00  0.00     0.029 A 
ATOM     51  N   UNL     1      11.630   8.557  -7.532  1.00  0.00    -0.354 N 
ATOM     52  C   UNL     1      15.295   7.089  -5.743  1.00  0.00     0.074 A 
ATOM     53  C   UNL     1      15.120   5.740  -5.248  1.00  0.00     0.031 C 
ATOM     54  C   UNL     1       9.485   8.462  -8.154  1.00  0.00     0.029 A 
ATOM     55  C   UNL     1      10.652   9.337  -8.105  1.00  0.00     0.049 A 
ATOM     56  H   UNL     1      12.551   8.871  -7.385  1.00  0.00     0.167 HD
ATOM     57  C   UNL     1      16.457   7.786  -5.676  1.00  0.00     0.034 A 
ATOM     58  C   UNL     1      10.687  10.617  -8.528  1.00  0.00     0.034 A 
ATOM     59  C   UNL     1      16.614   9.128  -6.182  1.00  0.00     0.049 A 
ATOM     60  C   UNL     1      11.977  11.390  -8.401  1.00  0.00     0.074 A 
ATOM     61  C   UNL     1      17.753   9.912  -6.204  1.00  0.00     0.029 A 
ATOM     62  N   UNL     1      15.598   9.890  -6.746  1.00  0.00    -0.354 N 
ATOM     63  N   UNL     1      13.130  10.999  -7.908  1.00  0.00    -0.248 NA
ATOM     64  C   UNL     1      11.971  12.773  -8.895  1.00  0.00     0.031 C 
ATOM     65  C   UNL     1      17.410  11.170  -6.710  1.00  0.00     0.029 A 
ATOM     66  C   UNL     1      16.078  11.145  -7.089  1.00  0.00     0.049 A 
ATOM     67  H   UNL     1      14.672   9.583  -6.883  1.00  0.00     0.167 HD
ATOM     68  C   UNL     1      13.996  12.078  -8.070  1.00  0.00     0.074 A 
ATOM     69  C   UNL     1      13.235  13.128  -8.714  1.00  0.00     0.031 C 
ATOM     70  C   UNL     1      15.305  12.187  -7.726  1.00  0.00     0.034 A 
BRANCH  57  71
ATOM     71  C   UNL     1      17.633   7.111  -5.008  1.00  0.00     0.023 A 
ATOM     72  C   UNL     1      18.177   5.913  -5.506  1.00  0.00     0.031 A 
ATOM     73  C   UNL     1      18.194   7.647  -3.836  1.00  0.00     0.131 A 
ATOM     74  C   UNL     1      19.183   5.248  -4.789  1.00  0.00     0.055 A 
ATOM     75  C   UNL     1      19.259   7.029  -3.178  1.00  0.00     0.041 A 
ATOM     76  F   UNL     1      17.704   8.775  -3.297  1.00  0.00    -0.206 F 
ATOM     77  C   UNL     1      19.748   5.812  -3.644  1.00  0.00     0.022 A 
BRANCH  74  78
ATOM     78  S   UNL     1      19.621   3.558  -5.283  1.00  0.00     0.124 S 
ATOM     79  O   UNL     1      18.334   2.877  -5.173  1.00  0.00    -0.237 OA
ATOM     80  O   UNL     1      20.131   3.747  -6.636  1.00  0.00    -0.237 OA
ATOM     81  O   UNL     1      20.616   3.158  -4.290  1.00  0.00    -0.744 OA
ENDBRANCH  74  78
ENDBRANCH  57  71
BRANCH  58  82
ATOM     82  C   UNL     1       9.470  11.258  -9.105  1.00  0.00     0.023 A 
ATOM     83  C   UNL     1       9.447  11.693 -10.440  1.00  0.00     0.031 A 
ATOM     84  C   UNL     1       8.326  11.486  -8.319  1.00  0.00     0.131 A 
ATOM     85  C   UNL     1       8.326  12.378 -10.934  1.00  0.00     0.055 A 
ATOM     86  C   UNL     1       7.191  12.116  -8.832  1.00  0.00     0.041 A 
ATOM     87  F   UNL     1       8.292  11.088  -7.037  1.00  0.00    -0.206 F 
ATOM     88  C   UNL     1       7.192  12.579 -10.144  1.00  0.00     0.022 A 
BRANCH  85  89
ATOM     89  S   UNL     1       8.409  13.086 -12.602  1.00  0.00     0.124 S 
ATOM     90  O   UNL     1       9.561  13.973 -12.491  1.00  0.00    -0.237 OA
ATOM     91  O   UNL     1       8.591  11.897 -13.427  1.00  0.00    -0.237 OA
ATOM     92  O   UNL     1       7.118  13.755 -12.752  1.00  0.00    -0.744 OA
ENDBRANCH  85  89
ENDBRANCH  58  82
BRANCH  70  93
ATOM     93  C   UNL     1      16.011  13.471  -8.094  1.00  0.00     0.023 A 
ATOM     94  C   UNL     1      15.668  14.704  -7.513  1.00  0.00     0.031 A 
ATOM     95  C   UNL     1      17.045  13.456  -9.048  1.00  0.00     0.131 A 
ATOM     96  C   UNL     1      16.313  15.877  -7.932  1.00  0.00     0.055 A 
ATOM     97  C   UNL     1      17.729  14.616  -9.412  1.00  0.00     0.041 A 
ATOM     98  F   UNL     1      17.413  12.307  -9.639  1.00  0.00    -0.206 F 
ATOM     99  C   UNL     1      17.355  15.838  -8.863  1.00  0.00     0.022 A 
BRANCH  96 100
ATOM    100  S   UNL     1      15.709  17.473  -7.315  1.00  0.00     0.124 S 
ATOM    101  O   UNL     1      14.316  17.457  -7.748  1.00  0.00    -0.237 OA
ATOM    102  O   UNL     1      15.932  17.356  -5.878  1.00  0.00    -0.237 OA
ATOM    103  O   UNL     1      16.559  18.448  -7.996  1.00  0.00    -0.744 OA
ENDBRANCH  96 100
ENDBRANCH  70  93
ENDBRANCH  44  45
ENDBRANCH  36  39
ENDBRANCH  34  35
ENDBRANCH  33  34
ENDBRANCH   1  33
TORSDOF 20
