REMARK SMILES C[C@]1(C(=O)NCc2ccc(C(=O)NCCCCNC(=O)c3ccc(-c4c5nc(c(-c6cc(S(=O)(=O)[O-])ccc6F)c6ccc([nH]6)c(-c6cc(S(=O)(=O)[O-])ccc6F)c6nc(c(-c7cc(S(=O)(=O)[O-])ccc7F)c7ccc4[nH]7)C=C6)C=C5)cc3)o2)CCC[NH2+]C1
REMARK SMILES IDX 15 1 14 2 13 3 11 4 12 5 10 7 7 8 8 9 84 10 9 11 6 12 5 13
REMARK SMILES IDX 3 14 4 15 2 17 1 18 85 19 89 20 86 21 88 22 87 23 16 26
REMARK SMILES IDX 17 27 18 28 19 29 20 31 21 32 22 33 83 34 23 35 82 36 24 37
REMARK SMILES IDX 25 38 26 39 76 40 27 41 81 42 75 43 77 44 28 45 80 46 74 47
REMARK SMILES IDX 73 48 29 50 61 51 41 52 60 53 42 54 45 55 59 56 78 57 43 58
REMARK SMILES IDX 44 59 58 61 79 62 46 63 30 64 31 65 39 66 32 67 38 68 40 69
REMARK SMILES IDX 37 70 33 71 34 72 35 73 36 74 62 75 63 76 71 77 64 78 70 79
REMARK SMILES IDX 72 80 69 81 65 82 66 83 67 84 68 85 47 86 48 87 56 88 49 89
REMARK SMILES IDX 55 90 57 91 54 92 50 93 51 94 52 95 53 96
REMARK H PARENT 13 6 5 16 88 24 88 25 18 30 77 49 45 60
REMARK Flexibility Score: inf
ROOT
ATOM      1  C   UNL     1       9.616   0.315   0.532  1.00  0.00     0.023 C 
ENDROOT
BRANCH   1   2
ATOM      2  C   UNL     1       8.911   1.154   1.597  1.00  0.00     0.116 C 
BRANCH   2   3
ATOM      3  N   UNL     1       8.440   2.401   1.045  1.00  0.00    -0.349 N 
ATOM      4  C   UNL     1       7.268   2.708   0.399  1.00  0.00     0.286 C 
ATOM      5  O   UNL     1       7.168   3.875   0.009  1.00  0.00    -0.266 OA
ATOM      6  H   UNL     1       9.062   3.157   1.149  1.00  0.00     0.163 HD
BRANCH   4   7
ATOM      7  C   UNL     1       6.215   1.725   0.200  1.00  0.00     0.191 A 
ATOM      8  C   UNL     1       4.174   1.187  -0.486  1.00  0.00     0.124 A 
ATOM      9  C   UNL     1       4.715   0.037   0.038  1.00  0.00     0.048 A 
ATOM     10  O   UNL     1       5.070   2.202  -0.391  1.00  0.00    -0.454 OA
ATOM     11  C   UNL     1       6.028   0.374   0.450  1.00  0.00     0.056 A 
BRANCH   8  12
ATOM     12  C   UNL     1       2.889   1.545  -1.119  1.00  0.00     0.191 C 
BRANCH  12  13
ATOM     13  N   UNL     1       1.941   0.469  -0.959  1.00  0.00    -0.348 N 
ATOM     14  C   UNL     1       0.913   0.202  -0.132  1.00  0.00     0.232 C 
ATOM     15  O   UNL     1       0.456  -0.946  -0.267  1.00  0.00    -0.274 OA
ATOM     16  H   UNL     1       2.082  -0.249  -1.618  1.00  0.00     0.163 HD
BRANCH  14  17
ATOM     17  C   UNL     1       0.320   1.125   0.960  1.00  0.00     0.095 C 
ATOM     18  C   UNL     1       0.616   0.417   2.307  1.00  0.00     0.028 C 
ATOM     19  C   UNL     1       0.786   2.584   1.099  1.00  0.00     0.028 C 
ATOM     20  C   UNL     1      -1.219   1.131   0.737  1.00  0.00     0.277 C 
ATOM     21  C   UNL     1       0.249   3.506   0.001  1.00  0.00     0.063 C 
ATOM     22  N   UNL     1      -1.626   1.980  -0.392  1.00  0.00    -0.345 N 
ATOM     23  C   UNL     1      -1.258   3.373  -0.165  1.00  0.00     0.260 C 
ATOM     24  H   UNL     1      -1.165   1.648  -1.240  1.00  0.00     0.346 HD
ATOM     25  H   UNL     1      -2.640   1.925  -0.488  1.00  0.00     0.346 HD
ENDBRANCH  14  17
ENDBRANCH  12  13
ENDBRANCH   8  12
ENDBRANCH   4   7
ENDBRANCH   2   3
ENDBRANCH   1   2
BRANCH   1  26
ATOM     26  C   UNL     1      11.101   0.654   0.367  1.00  0.00     0.023 C 
BRANCH  26  27
ATOM     27  C   UNL     1      11.937   0.509   1.636  1.00  0.00     0.116 C 
BRANCH  27  28
ATOM     28  N   UNL     1      11.780  -0.784   2.285  1.00  0.00    -0.352 N 
ATOM     29  C   UNL     1      12.690  -1.458   3.066  1.00  0.00     0.251 C 
ATOM     30  H   UNL     1      10.914  -1.233   2.147  1.00  0.00     0.163 HD
ATOM     31  O   UNL     1      12.452  -2.593   3.452  1.00  0.00    -0.269 OA
BRANCH  29  32
ATOM     32  C   UNL     1      13.972  -0.797   3.381  1.00  0.00     0.039 A 
ATOM     33  C   UNL     1      15.161  -1.466   3.087  1.00  0.00     0.014 A 
ATOM     34  C   UNL     1      13.990   0.503   3.891  1.00  0.00     0.014 A 
ATOM     35  C   UNL     1      16.375  -0.797   3.240  1.00  0.00     0.010 A 
ATOM     36  C   UNL     1      15.196   1.191   3.972  1.00  0.00     0.010 A 
ATOM     37  C   UNL     1      16.399   0.549   3.642  1.00  0.00    -0.014 A 
BRANCH  37  38
ATOM     38  C   UNL     1      17.678   1.302   3.711  1.00  0.00     0.031 A 
ATOM     39  C   UNL     1      18.173   1.825   5.030  1.00  0.00     0.074 A 
ATOM     40  C   UNL     1      18.358   1.557   2.575  1.00  0.00     0.049 A 
ATOM     41  N   UNL     1      19.238   2.540   5.288  1.00  0.00    -0.248 NA
ATOM     42  C   UNL     1      17.345   1.533   6.210  1.00  0.00     0.031 C 
ATOM     43  C   UNL     1      17.945   1.143   1.232  1.00  0.00     0.029 A 
ATOM     44  N   UNL     1      19.536   2.227   2.365  1.00  0.00    -0.354 N 
ATOM     45  C   UNL     1      19.205   2.788   6.656  1.00  0.00     0.074 A 
ATOM     46  C   UNL     1      17.979   2.206   7.158  1.00  0.00     0.031 C 
ATOM     47  C   UNL     1      18.870   1.540   0.344  1.00  0.00     0.029 A 
ATOM     48  C   UNL     1      19.918   2.276   1.044  1.00  0.00     0.049 A 
ATOM     49  H   UNL     1      20.060   2.636   3.092  1.00  0.00     0.167 HD
ATOM     50  C   UNL     1      20.126   3.421   7.424  1.00  0.00     0.034 A 
ATOM     51  C   UNL     1      20.988   2.854   0.463  1.00  0.00     0.034 A 
ATOM     52  C   UNL     1      21.348   3.986   6.905  1.00  0.00     0.049 A 
ATOM     53  C   UNL     1      21.988   3.568   1.337  1.00  0.00     0.074 A 
ATOM     54  C   UNL     1      22.377   4.597   7.599  1.00  0.00     0.029 A 
ATOM     55  N   UNL     1      21.702   4.018   5.562  1.00  0.00    -0.354 N 
ATOM     56  N   UNL     1      21.974   3.740   2.639  1.00  0.00    -0.248 NA
ATOM     57  C   UNL     1      23.154   4.154   0.665  1.00  0.00     0.031 C 
ATOM     58  C   UNL     1      23.317   5.061   6.672  1.00  0.00     0.029 A 
ATOM     59  C   UNL     1      22.917   4.669   5.405  1.00  0.00     0.049 A 
ATOM     60  H   UNL     1      21.169   3.635   4.829  1.00  0.00     0.167 HD
ATOM     61  C   UNL     1      23.145   4.429   2.943  1.00  0.00     0.074 A 
ATOM     62  C   UNL     1      23.849   4.620   1.692  1.00  0.00     0.031 C 
ATOM     63  C   UNL     1      23.599   4.865   4.146  1.00  0.00     0.034 A 
BRANCH  50  64
ATOM     64  C   UNL     1      19.830   3.549   8.900  1.00  0.00     0.023 A 
ATOM     65  C   UNL     1      19.695   2.420   9.728  1.00  0.00     0.031 A 
ATOM     66  C   UNL     1      19.658   4.816   9.485  1.00  0.00     0.131 A 
ATOM     67  C   UNL     1      19.324   2.576  11.072  1.00  0.00     0.055 A 
ATOM     68  C   UNL     1      19.371   4.968  10.843  1.00  0.00     0.041 A 
ATOM     69  F   UNL     1      19.751   5.931   8.742  1.00  0.00    -0.206 F 
ATOM     70  C   UNL     1      19.188   3.843  11.642  1.00  0.00     0.022 A 
BRANCH  67  71
ATOM     71  S   UNL     1      18.882   1.097  12.025  1.00  0.00     0.124 S 
ATOM     72  O   UNL     1      17.774   0.560  11.238  1.00  0.00    -0.237 OA
ATOM     73  O   UNL     1      20.118   0.324  11.998  1.00  0.00    -0.237 OA
ATOM     74  O   UNL     1      18.508   1.631  13.332  1.00  0.00    -0.744 OA
ENDBRANCH  67  71
ENDBRANCH  50  64
BRANCH  51  75
ATOM     75  C   UNL     1      21.174   2.794  -1.016  1.00  0.00     0.023 A 
ATOM     76  C   UNL     1      22.277   2.134  -1.581  1.00  0.00     0.031 A 
ATOM     77  C   UNL     1      20.277   3.440  -1.886  1.00  0.00     0.131 A 
ATOM     78  C   UNL     1      22.485   2.179  -2.969  1.00  0.00     0.055 A 
ATOM     79  C   UNL     1      20.458   3.434  -3.271  1.00  0.00     0.041 A 
ATOM     80  F   UNL     1      19.203   4.082  -1.400  1.00  0.00    -0.206 F 
ATOM     81  C   UNL     1      21.576   2.813  -3.818  1.00  0.00     0.022 A 
BRANCH  78  82
ATOM     82  S   UNL     1      24.017   1.478  -3.640  1.00  0.00     0.124 S 
ATOM     83  O   UNL     1      25.032   2.230  -2.911  1.00  0.00    -0.237 OA
ATOM     84  O   UNL     1      23.885   0.069  -3.286  1.00  0.00    -0.237 OA
ATOM     85  O   UNL     1      23.928   1.770  -5.069  1.00  0.00    -0.744 OA
ENDBRANCH  78  82
ENDBRANCH  51  75
BRANCH  63  86
ATOM     86  C   UNL     1      24.941   5.556   4.160  1.00  0.00     0.023 A 
ATOM     87  C   UNL     1      25.142   6.792   3.521  1.00  0.00     0.031 A 
ATOM     88  C   UNL     1      26.039   4.959   4.804  1.00  0.00     0.131 A 
ATOM     89  C   UNL     1      26.425   7.358   3.482  1.00  0.00     0.055 A 
ATOM     90  C   UNL     1      27.298   5.560   4.821  1.00  0.00     0.041 A 
ATOM     91  F   UNL     1      25.906   3.777   5.428  1.00  0.00    -0.206 F 
ATOM     92  C   UNL     1      27.500   6.760   4.144  1.00  0.00     0.022 A 
BRANCH  89  93
ATOM     93  S   UNL     1      26.694   8.835   2.465  1.00  0.00     0.124 S 
ATOM     94  O   UNL     1      26.274   8.375   1.145  1.00  0.00    -0.237 OA
ATOM     95  O   UNL     1      25.823   9.817   3.104  1.00  0.00    -0.237 OA
ATOM     96  O   UNL     1      28.126   9.093   2.605  1.00  0.00    -0.744 OA
ENDBRANCH  89  93
ENDBRANCH  63  86
ENDBRANCH  37  38
ENDBRANCH  29  32
ENDBRANCH  27  28
ENDBRANCH  26  27
ENDBRANCH   1  26
TORSDOF 17
