REMARK SMILES CC1(C)CSC[C@H](Nc2cc(C(=O)NCCCCNC(=O)c3ccc(-c4c5nc(c(-c6cc(S(=O)(=O)[O-])ccc6F)c6ccc([nH]6)c(-c6cc(S(=O)(=O)[O-])ccc6F)c6nc(c(-c7cc(S(=O)(=O)[O-])ccc7F)c7ccc4[nH]7)C=C6)C=C5)cc3)ccc2F)C1
REMARK SMILES IDX 17 1 16 2 15 3 14 4 12 5 13 6 11 8 9 9 10 10 87 11 86 12
REMARK SMILES IDX 88 13 85 14 8 15 7 17 1 18 2 19 3 20 4 21 89 22 5 23 6 24
REMARK SMILES IDX 18 25 19 26 20 27 21 29 22 30 23 31 84 32 24 33 83 34 25 35
REMARK SMILES IDX 26 36 27 37 77 38 28 39 82 40 76 41 78 42 29 43 81 44 75 45
REMARK SMILES IDX 74 46 30 48 62 49 42 50 61 51 43 52 46 53 60 54 79 55 44 56
REMARK SMILES IDX 45 57 59 59 80 60 47 61 31 62 32 63 40 64 33 65 39 66 41 67
REMARK SMILES IDX 38 68 34 69 35 70 36 71 37 72 63 73 64 74 72 75 65 76 71 77
REMARK SMILES IDX 73 78 70 79 66 80 67 81 68 82 69 83 48 84 49 85 57 86 50 87
REMARK SMILES IDX 56 88 58 89 55 90 51 91 52 92 53 93 54 94
REMARK H PARENT 14 7 8 16 19 28 78 47 46 58
REMARK Flexibility Score: inf
ROOT
ATOM      1  C   UNL     1       2.539  -8.710   8.814  1.00  0.00     0.023 C 
ENDROOT
BRANCH   1   2
ATOM      2  C   UNL     1       2.735  -7.378   8.079  1.00  0.00     0.023 C 
BRANCH   2   3
ATOM      3  C   UNL     1       3.042  -7.527   6.588  1.00  0.00     0.116 C 
BRANCH   3   4
ATOM      4  N   UNL     1       1.824  -7.790   5.850  1.00  0.00    -0.352 N 
ATOM      5  C   UNL     1       0.923  -6.977   5.217  1.00  0.00     0.251 C 
ATOM      6  O   UNL     1      -0.049  -7.527   4.694  1.00  0.00    -0.269 OA
ATOM      7  H   UNL     1       1.599  -8.746   5.792  1.00  0.00     0.163 HD
BRANCH   5   8
ATOM      8  C   UNL     1       1.073  -5.498   5.068  1.00  0.00     0.042 A 
ATOM      9  C   UNL     1       0.442  -3.558   3.691  1.00  0.00     0.071 A 
ATOM     10  C   UNL     1       0.343  -4.919   4.012  1.00  0.00     0.042 A 
ATOM     11  C   UNL     1       1.298  -2.769   4.467  1.00  0.00     0.146 A 
ATOM     12  C   UNL     1       1.986  -3.302   5.552  1.00  0.00     0.042 A 
ATOM     13  F   UNL     1       1.459  -1.465   4.192  1.00  0.00    -0.205 F 
ATOM     14  C   UNL     1       1.860  -4.660   5.862  1.00  0.00     0.017 A 
BRANCH   9  15
ATOM     15  N   UNL     1      -0.200  -3.103   2.538  1.00  0.00    -0.379 N 
ATOM     16  H   UNL     1      -1.178  -3.160   2.447  1.00  0.00     0.160 HD
BRANCH  15  17
ATOM     17  C   UNL     1       0.626  -2.536   1.464  1.00  0.00     0.089 C 
ATOM     18  C   UNL     1       1.183   0.026  -0.241  1.00  0.00     0.012 C 
ATOM     19  C   UNL     1       0.396  -1.202  -0.749  1.00  0.00    -0.024 C 
ATOM     20  C   UNL     1      -0.684  -0.700  -1.731  1.00  0.00     0.012 C 
ATOM     21  C   UNL     1       1.310  -2.181  -1.516  1.00  0.00     0.076 C 
ATOM     22  C   UNL     1      -0.320  -1.907   0.427  1.00  0.00     0.033 C 
ATOM     23  S   UNL     1       2.567  -3.013  -0.500  1.00  0.00    -0.159 SA
ATOM     24  C   UNL     1       1.489  -3.638   0.822  1.00  0.00     0.094 C 
ENDBRANCH  15  17
ENDBRANCH   9  15
ENDBRANCH   5   8
ENDBRANCH   3   4
ENDBRANCH   2   3
ENDBRANCH   1   2
BRANCH   1  25
ATOM     25  C   UNL     1       3.755  -9.633   8.819  1.00  0.00     0.116 C 
BRANCH  25  26
ATOM     26  N   UNL     1       4.955  -8.994   9.331  1.00  0.00    -0.352 N 
ATOM     27  C   UNL     1       6.015  -9.554  10.003  1.00  0.00     0.251 C 
ATOM     28  H   UNL     1       5.018  -8.024   9.175  1.00  0.00     0.163 HD
ATOM     29  O   UNL     1       6.891  -8.831  10.460  1.00  0.00    -0.269 OA
BRANCH  27  30
ATOM     30  C   UNL     1       6.064 -11.018  10.208  1.00  0.00     0.039 A 
ATOM     31  C   UNL     1       6.374 -11.500  11.481  1.00  0.00     0.014 A 
ATOM     32  C   UNL     1       5.796 -11.908   9.164  1.00  0.00     0.014 A 
ATOM     33  C   UNL     1       6.352 -12.874  11.722  1.00  0.00     0.010 A 
ATOM     34  C   UNL     1       5.709 -13.274   9.422  1.00  0.00     0.010 A 
ATOM     35  C   UNL     1       5.982 -13.771  10.705  1.00  0.00    -0.014 A 
BRANCH  35  36
ATOM     36  C   UNL     1       5.864 -15.224  10.987  1.00  0.00     0.031 A 
ATOM     37  C   UNL     1       6.789 -16.208  10.328  1.00  0.00     0.074 A 
ATOM     38  C   UNL     1       4.902 -15.655  11.829  1.00  0.00     0.049 A 
ATOM     39  N   UNL     1       6.838 -17.508  10.463  1.00  0.00    -0.248 NA
ATOM     40  C   UNL     1       7.774 -15.667   9.377  1.00  0.00     0.031 C 
ATOM     41  C   UNL     1       3.918 -14.796  12.494  1.00  0.00     0.029 A 
ATOM     42  N   UNL     1       4.601 -16.914  12.284  1.00  0.00    -0.354 N 
ATOM     43  C   UNL     1       7.854 -17.940   9.619  1.00  0.00     0.074 A 
ATOM     44  C   UNL     1       8.356 -16.771   8.931  1.00  0.00     0.031 C 
ATOM     45  C   UNL     1       3.159 -15.545  13.308  1.00  0.00     0.029 A 
ATOM     46  C   UNL     1       3.571 -16.941  13.196  1.00  0.00     0.049 A 
ATOM     47  H   UNL     1       5.076 -17.722  11.985  1.00  0.00     0.167 HD
ATOM     48  C   UNL     1       8.340 -19.193   9.454  1.00  0.00     0.034 A 
ATOM     49  C   UNL     1       3.022 -17.970  13.871  1.00  0.00     0.034 A 
ATOM     50  C   UNL     1       7.849 -20.345  10.165  1.00  0.00     0.049 A 
ATOM     51  C   UNL     1       3.568 -19.356  13.659  1.00  0.00     0.074 A 
ATOM     52  C   UNL     1       8.313 -21.647  10.114  1.00  0.00     0.029 A 
ATOM     53  N   UNL     1       6.784 -20.335  11.055  1.00  0.00    -0.354 N 
ATOM     54  N   UNL     1       4.548 -19.740  12.876  1.00  0.00    -0.248 NA
ATOM     55  C   UNL     1       2.939 -20.447  14.417  1.00  0.00     0.031 C 
ATOM     56  C   UNL     1       7.493 -22.435  10.925  1.00  0.00     0.029 A 
ATOM     57  C   UNL     1       6.559 -21.613  11.536  1.00  0.00     0.049 A 
ATOM     58  H   UNL     1       6.265 -19.537  11.307  1.00  0.00     0.167 HD
ATOM     59  C   UNL     1       4.668 -21.113  13.064  1.00  0.00     0.074 A 
ATOM     60  C   UNL     1       3.660 -21.493  14.031  1.00  0.00     0.031 C 
ATOM     61  C   UNL     1       5.543 -21.976  12.492  1.00  0.00     0.034 A 
BRANCH  48  62
ATOM     62  C   UNL     1       9.461 -19.389   8.468  1.00  0.00     0.023 A 
ATOM     63  C   UNL     1      10.743 -18.864   8.703  1.00  0.00     0.031 A 
ATOM     64  C   UNL     1       9.255 -20.140   7.298  1.00  0.00     0.131 A 
ATOM     65  C   UNL     1      11.761 -19.063   7.759  1.00  0.00     0.055 A 
ATOM     66  C   UNL     1      10.289 -20.388   6.394  1.00  0.00     0.041 A 
ATOM     67  F   UNL     1       8.045 -20.650   7.018  1.00  0.00    -0.206 F 
ATOM     68  C   UNL     1      11.550 -19.842   6.619  1.00  0.00     0.022 A 
BRANCH  65  69
ATOM     69  S   UNL     1      13.350 -18.227   8.008  1.00  0.00     0.124 S 
ATOM     70  O   UNL     1      12.964 -16.823   7.887  1.00  0.00    -0.237 OA
ATOM     71  O   UNL     1      13.738 -18.670   9.342  1.00  0.00    -0.237 OA
ATOM     72  O   UNL     1      14.179 -18.736   6.917  1.00  0.00    -0.744 OA
ENDBRANCH  65  69
ENDBRANCH  48  62
BRANCH  49  73
ATOM     73  C   UNL     1       1.899 -17.720  14.817  1.00  0.00     0.023 A 
ATOM     74  C   UNL     1       2.082 -17.840  16.203  1.00  0.00     0.031 A 
ATOM     75  C   UNL     1       0.632 -17.333  14.345  1.00  0.00     0.131 A 
ATOM     76  C   UNL     1       1.008 -17.591  17.072  1.00  0.00     0.055 A 
ATOM     77  C   UNL     1      -0.422 -17.051  15.215  1.00  0.00     0.041 A 
ATOM     78  F   UNL     1       0.413 -17.193  13.028  1.00  0.00    -0.206 F 
ATOM     79  C   UNL     1      -0.238 -17.184  16.588  1.00  0.00     0.022 A 
BRANCH  76  80
ATOM     80  S   UNL     1       1.254 -17.823  18.854  1.00  0.00     0.124 S 
ATOM     81  O   UNL     1       1.514 -19.256  18.932  1.00  0.00    -0.237 OA
ATOM     82  O   UNL     1       2.391 -16.948  19.122  1.00  0.00    -0.237 OA
ATOM     83  O   UNL     1      -0.014 -17.385  19.433  1.00  0.00    -0.744 OA
ENDBRANCH  76  80
ENDBRANCH  49  73
BRANCH  61  84
ATOM     84  C   UNL     1       5.480 -23.419  12.911  1.00  0.00     0.023 A 
ATOM     85  C   UNL     1       4.472 -24.274  12.439  1.00  0.00     0.031 A 
ATOM     86  C   UNL     1       6.500 -23.961  13.713  1.00  0.00     0.131 A 
ATOM     87  C   UNL     1       4.502 -25.634  12.780  1.00  0.00     0.055 A 
ATOM     88  C   UNL     1       6.545 -25.321  14.018  1.00  0.00     0.041 A 
ATOM     89  F   UNL     1       7.488 -23.181  14.178  1.00  0.00    -0.206 F 
ATOM     90  C   UNL     1       5.542 -26.166  13.550  1.00  0.00     0.022 A 
BRANCH  87  91
ATOM     91  S   UNL     1       3.167 -26.713  12.197  1.00  0.00     0.124 S 
ATOM     92  O   UNL     1       2.028 -26.228  12.970  1.00  0.00    -0.237 OA
ATOM     93  O   UNL     1       3.131 -26.431  10.765  1.00  0.00    -0.237 OA
ATOM     94  O   UNL     1       3.630 -28.054  12.549  1.00  0.00    -0.744 OA
ENDBRANCH  87  91
ENDBRANCH  61  84
ENDBRANCH  35  36
ENDBRANCH  27  30
ENDBRANCH  25  26
ENDBRANCH   1  25
TORSDOF 16
