REMARK SMILES COc1ccc(C(=O)NCCCCNC(=O)c2ccc(-c3c4nc(c(-c5cc(S(=O)(=O)[O-])ccc5F)c5ccc([nH]5)c(-c5cc(S(=O)(=O)[O-])ccc5F)c5nc(c(-c6cc(S(=O)(=O)[O-])ccc6F)c6ccc3[nH]6)C=C5)C=C4)cc2)cc1NCc1cc(C#N)cs1
REMARK SMILES IDX 11 1 10 2 9 3 7 4 8 5 6 7 3 8 4 9 81 10 5 11 80 12 2 13 1 14
REMARK SMILES IDX 82 15 83 17 84 18 85 19 90 20 86 21 89 22 87 23 88 24 12 25
REMARK SMILES IDX 13 26 14 27 15 28 16 30 17 31 18 32 79 33 19 34 78 35 20 36
REMARK SMILES IDX 21 37 22 38 72 39 23 40 77 41 71 42 73 43 24 44 76 45 70 46
REMARK SMILES IDX 69 47 25 49 57 50 37 51 56 52 38 53 41 54 55 55 74 56 39 57
REMARK SMILES IDX 40 58 54 60 75 61 42 62 26 63 27 64 35 65 28 66 34 67 36 68
REMARK SMILES IDX 33 69 29 70 30 71 31 72 32 73 58 74 59 75 67 76 60 77 66 78
REMARK SMILES IDX 68 79 65 80 61 81 62 82 63 83 64 84 43 85 44 86 52 87 45 88
REMARK SMILES IDX 51 89 53 90 50 91 46 92 47 93 48 94 49 95
REMARK H PARENT 9 6 82 16 14 29 73 48 41 59
REMARK Flexibility Score: inf
ROOT
ATOM      1  C   UNL     1       5.523   4.790   3.497  1.00  0.00     0.023 C 
ENDROOT
BRANCH   1   2
ATOM      2  C   UNL     1       4.387   4.280   4.389  1.00  0.00     0.116 C 
BRANCH   2   3
ATOM      3  N   UNL     1       3.283   5.220   4.375  1.00  0.00    -0.352 N 
ATOM      4  C   UNL     1       2.120   5.263   3.645  1.00  0.00     0.251 C 
ATOM      5  O   UNL     1       1.352   6.204   3.842  1.00  0.00    -0.269 OA
ATOM      6  H   UNL     1       3.385   5.967   5.008  1.00  0.00     0.163 HD
BRANCH   4   7
ATOM      7  C   UNL     1       1.725   4.191   2.687  1.00  0.00     0.042 A 
ATOM      8  C   UNL     1       0.884   2.093   1.008  1.00  0.00     0.142 A 
ATOM      9  C   UNL     1      -0.034   3.018   1.546  1.00  0.00     0.049 A 
ATOM     10  C   UNL     1       2.256   2.200   1.317  1.00  0.00     0.078 A 
ATOM     11  C   UNL     1       0.373   4.028   2.414  1.00  0.00     0.018 A 
ATOM     12  C   UNL     1       2.632   3.343   2.046  1.00  0.00     0.043 A 
BRANCH   8  13
ATOM     13  O   UNL     1       0.253   1.233   0.148  1.00  0.00    -0.495 OA
ATOM     14  C   UNL     1       0.739  -0.083  -0.019  1.00  0.00     0.278 C 
ENDBRANCH   8  13
BRANCH  10  15
ATOM     15  N   UNL     1       3.236   1.311   0.899  1.00  0.00    -0.377 N 
ATOM     16  H   UNL     1       3.028   0.751   0.116  1.00  0.00     0.161 HD
BRANCH  15  17
ATOM     17  C   UNL     1       4.553   1.129   1.514  1.00  0.00     0.160 C 
BRANCH  17  18
ATOM     18  C   UNL     1       4.681  -0.110   2.366  1.00  0.00     0.025 A 
ATOM     19  C   UNL     1       5.034  -0.218   3.701  1.00  0.00     0.036 A 
ATOM     20  S   UNL     1       4.413  -1.656   1.666  1.00  0.00    -0.146 S 
ATOM     21  C   UNL     1       5.066  -1.575   4.148  1.00  0.00     0.063 A 
ATOM     22  C   UNL     1       4.746  -2.456   3.140  1.00  0.00     0.084 A 
BRANCH  21  23
ATOM     23  C   UNL     1       5.382  -2.012   5.478  1.00  0.00     0.100 C 
ATOM     24  N   UNL     1       5.619  -2.394   6.544  1.00  0.00    -0.192 NA
ENDBRANCH  21  23
ENDBRANCH  17  18
ENDBRANCH  15  17
ENDBRANCH  10  15
ENDBRANCH   4   7
ENDBRANCH   2   3
ENDBRANCH   1   2
BRANCH   1  25
ATOM     25  C   UNL     1       6.410   5.828   4.183  1.00  0.00     0.023 C 
BRANCH  25  26
ATOM     26  C   UNL     1       7.133   5.303   5.415  1.00  0.00     0.116 C 
BRANCH  26  27
ATOM     27  N   UNL     1       7.985   4.163   5.120  1.00  0.00    -0.352 N 
ATOM     28  C   UNL     1       9.211   3.859   5.656  1.00  0.00     0.251 C 
ATOM     29  H   UNL     1       7.638   3.528   4.452  1.00  0.00     0.163 HD
ATOM     30  O   UNL     1       9.878   2.953   5.167  1.00  0.00    -0.269 OA
BRANCH  28  31
ATOM     31  C   UNL     1       9.721   4.659   6.788  1.00  0.00     0.039 A 
ATOM     32  C   UNL     1      11.054   5.066   6.779  1.00  0.00     0.014 A 
ATOM     33  C   UNL     1       8.878   5.024   7.843  1.00  0.00     0.014 A 
ATOM     34  C   UNL     1      11.533   5.859   7.820  1.00  0.00     0.010 A 
ATOM     35  C   UNL     1       9.327   5.907   8.816  1.00  0.00     0.010 A 
ATOM     36  C   UNL     1      10.671   6.303   8.838  1.00  0.00    -0.014 A 
BRANCH  36  37
ATOM     37  C   UNL     1      11.187   7.128   9.959  1.00  0.00     0.031 A 
ATOM     38  C   UNL     1      11.121   6.609  11.370  1.00  0.00     0.074 A 
ATOM     39  C   UNL     1      11.708   8.344   9.707  1.00  0.00     0.049 A 
ATOM     40  N   UNL     1      11.548   7.162  12.476  1.00  0.00    -0.248 NA
ATOM     41  C   UNL     1      10.456   5.312  11.567  1.00  0.00     0.031 C 
ATOM     42  C   UNL     1      11.770   8.977   8.389  1.00  0.00     0.029 A 
ATOM     43  N   UNL     1      12.292   9.260  10.544  1.00  0.00    -0.354 N 
ATOM     44  C   UNL     1      11.198   6.284  13.497  1.00  0.00     0.074 A 
ATOM     45  C   UNL     1      10.441   5.215  12.886  1.00  0.00     0.031 C 
ATOM     46  C   UNL     1      12.399  10.156   8.498  1.00  0.00     0.029 A 
ATOM     47  C   UNL     1      12.739  10.388   9.899  1.00  0.00     0.049 A 
ATOM     48  H   UNL     1      12.383   9.122  11.515  1.00  0.00     0.167 HD
ATOM     49  C   UNL     1      11.510   6.344  14.816  1.00  0.00     0.034 A 
ATOM     50  C   UNL     1      13.345  11.491  10.380  1.00  0.00     0.034 A 
ATOM     51  C   UNL     1      12.256   7.430  15.405  1.00  0.00     0.049 A 
ATOM     52  C   UNL     1      13.659  11.559  11.851  1.00  0.00     0.074 A 
ATOM     53  C   UNL     1      12.669   7.581  16.716  1.00  0.00     0.029 A 
ATOM     54  N   UNL     1      12.681   8.566  14.723  1.00  0.00    -0.354 N 
ATOM     55  N   UNL     1      13.384  10.690  12.797  1.00  0.00    -0.248 NA
ATOM     56  C   UNL     1      14.385  12.746  12.314  1.00  0.00     0.031 C 
ATOM     57  C   UNL     1      13.251   8.846  16.848  1.00  0.00     0.029 A 
ATOM     58  C   UNL     1      13.312   9.440  15.597  1.00  0.00     0.049 A 
ATOM     59  H   UNL     1      12.553   8.726  13.760  1.00  0.00     0.167 HD
ATOM     60  C   UNL     1      13.932  11.213  13.966  1.00  0.00     0.074 A 
ATOM     61  C   UNL     1      14.565  12.464  13.596  1.00  0.00     0.031 C 
ATOM     62  C   UNL     1      13.921  10.699  15.225  1.00  0.00     0.034 A 
BRANCH  49  63
ATOM     63  C   UNL     1      10.997   5.224  15.697  1.00  0.00     0.023 A 
ATOM     64  C   UNL     1      11.319   3.877  15.446  1.00  0.00     0.031 A 
ATOM     65  C   UNL     1      10.111   5.495  16.754  1.00  0.00     0.131 A 
ATOM     66  C   UNL     1      10.665   2.855  16.151  1.00  0.00     0.055 A 
ATOM     67  C   UNL     1       9.552   4.476  17.529  1.00  0.00     0.041 A 
ATOM     68  F   UNL     1       9.743   6.755  17.034  1.00  0.00    -0.206 F 
ATOM     69  C   UNL     1       9.806   3.146  17.213  1.00  0.00     0.022 A 
BRANCH  66  70
ATOM     70  S   UNL     1      10.776   1.160  15.512  1.00  0.00     0.124 S 
ATOM     71  O   UNL     1      10.306   1.332  14.139  1.00  0.00    -0.237 OA
ATOM     72  O   UNL     1      12.193   0.856  15.670  1.00  0.00    -0.237 OA
ATOM     73  O   UNL     1       9.873   0.407  16.380  1.00  0.00    -0.744 OA
ENDBRANCH  66  70
ENDBRANCH  49  63
BRANCH  50  74
ATOM     74  C   UNL     1      13.671  12.618   9.459  1.00  0.00     0.023 A 
ATOM     75  C   UNL     1      14.996  12.992   9.184  1.00  0.00     0.031 A 
ATOM     76  C   UNL     1      12.638  13.338   8.831  1.00  0.00     0.131 A 
ATOM     77  C   UNL     1      15.251  14.073   8.324  1.00  0.00     0.055 A 
ATOM     78  C   UNL     1      12.898  14.374   7.934  1.00  0.00     0.041 A 
ATOM     79  F   UNL     1      11.354  13.021   9.060  1.00  0.00    -0.206 F 
ATOM     80  C   UNL     1      14.212  14.752   7.683  1.00  0.00     0.022 A 
BRANCH  77  81
ATOM     81  S   UNL     1      16.964  14.631   8.101  1.00  0.00     0.124 S 
ATOM     82  O   UNL     1      17.342  14.982   9.465  1.00  0.00    -0.237 OA
ATOM     83  O   UNL     1      17.601  13.443   7.543  1.00  0.00    -0.237 OA
ATOM     84  O   UNL     1      16.837  15.758   7.179  1.00  0.00    -0.744 OA
ENDBRANCH  77  81
ENDBRANCH  50  74
BRANCH  62  85
ATOM     85  C   UNL     1      14.670  11.472  16.289  1.00  0.00     0.023 A 
ATOM     86  C   UNL     1      14.314  12.782  16.652  1.00  0.00     0.031 A 
ATOM     87  C   UNL     1      15.785  10.895  16.925  1.00  0.00     0.131 A 
ATOM     88  C   UNL     1      15.118  13.501  17.550  1.00  0.00     0.055 A 
ATOM     89  C   UNL     1      16.526  11.583  17.887  1.00  0.00     0.041 A 
ATOM     90  F   UNL     1      16.181   9.649  16.617  1.00  0.00    -0.206 F 
ATOM     91  C   UNL     1      16.207  12.902  18.188  1.00  0.00     0.022 A 
BRANCH  88  92
ATOM     92  S   UNL     1      14.820  15.280  17.748  1.00  0.00     0.124 S 
ATOM     93  O   UNL     1      14.897  15.752  16.369  1.00  0.00    -0.237 OA
ATOM     94  O   UNL     1      13.495  15.308  18.358  1.00  0.00    -0.237 OA
ATOM     95  O   UNL     1      15.913  15.716  18.614  1.00  0.00    -0.744 OA
ENDBRANCH  88  92
ENDBRANCH  62  85
ENDBRANCH  36  37
ENDBRANCH  28  31
ENDBRANCH  26  27
ENDBRANCH  25  26
ENDBRANCH   1  25
TORSDOF 19
