REMARK SMILES CCCCOC(=O)c1ccc(N2C[C@H](C(=O)NCCCCNC(=O)c3ccc(-c4c5nc(c(-c6cc(S(=O)(=O)[O-])ccc6F)c6ccc([nH]6)c(-c6cc(S(=O)(=O)[O-])ccc6F)c6nc(c(-c7cc(S(=O)(=O)[O-])ccc7F)c7ccc4[nH]7)C=C6)C=C5)cc3)CC2=O)cc1
REMARK SMILES IDX 18 1 17 2 15 3 16 4 14 6 12 7 13 8 89 9 88 10 90 11 11 12
REMARK SMILES IDX 8 13 9 14 92 15 10 16 91 17 6 18 7 19 5 20 4 21 3 22 2 23
REMARK SMILES IDX 1 24 19 25 20 26 21 27 22 28 23 29 24 31 25 32 26 33 87 34
REMARK SMILES IDX 27 35 86 36 28 37 29 38 30 39 80 40 31 41 85 42 79 43 81 44
REMARK SMILES IDX 32 45 84 46 78 47 77 48 33 50 65 51 45 52 64 53 46 54 49 55
REMARK SMILES IDX 63 56 82 57 47 58 48 59 62 61 83 62 50 63 34 64 35 65 43 66
REMARK SMILES IDX 36 67 42 68 44 69 41 70 37 71 38 72 39 73 40 74 66 75 67 76
REMARK SMILES IDX 75 77 68 78 74 79 76 80 73 81 69 82 70 83 71 84 72 85 51 86
REMARK SMILES IDX 52 87 60 88 53 89 59 90 61 91 58 92 54 93 55 94 56 95 57 96
REMARK H PARENT 17 5 22 30 81 49 49 60
REMARK Flexibility Score: inf
ROOT
ATOM      1  C   UNL     1      -9.405  -1.156   1.496  1.00  0.00     0.116 C 
ENDROOT
BRANCH   1   2
ATOM      2  N   UNL     1      -9.836   0.146   1.021  1.00  0.00    -0.356 N 
ATOM      3  C   UNL     1     -10.006   0.687  -0.207  1.00  0.00     0.225 C 
ATOM      4  O   UNL     1     -10.492   1.825  -0.239  1.00  0.00    -0.275 OA
ATOM      5  H   UNL     1     -10.052   0.771   1.750  1.00  0.00     0.163 HD
BRANCH   3   6
ATOM      6  C   UNL     1      -9.537   0.079  -1.519  1.00  0.00     0.107 C 
ATOM      7  N   UNL     1      -7.373  -0.852  -1.588  1.00  0.00    -0.312 N 
ATOM      8  C   UNL     1      -8.075   0.399  -1.748  1.00  0.00     0.139 C 
ATOM      9  C   UNL     1      -8.262  -1.934  -1.581  1.00  0.00     0.227 C 
ATOM     10  C   UNL     1      -9.665  -1.406  -1.767  1.00  0.00     0.116 C 
ATOM     11  O   UNL     1      -8.024  -3.126  -1.455  1.00  0.00    -0.274 OA
BRANCH   7  12
ATOM     12  C   UNL     1      -5.953  -0.927  -1.522  1.00  0.00     0.044 A 
ATOM     13  C   UNL     1      -3.145  -1.075  -1.343  1.00  0.00     0.060 A 
ATOM     14  C   UNL     1      -3.782   0.149  -1.162  1.00  0.00     0.018 A 
ATOM     15  C   UNL     1      -3.885  -2.221  -1.621  1.00  0.00     0.018 A 
ATOM     16  C   UNL     1      -5.178   0.220  -1.265  1.00  0.00     0.027 A 
ATOM     17  C   UNL     1      -5.279  -2.143  -1.707  1.00  0.00     0.027 A 
BRANCH  13  18
ATOM     18  C   UNL     1      -1.695  -1.197  -1.175  1.00  0.00     0.338 C 
ATOM     19  O   UNL     1      -1.170  -1.607  -0.151  1.00  0.00    -0.246 OA
BRANCH  18  20
ATOM     20  O   UNL     1      -1.097  -0.852  -2.337  1.00  0.00    -0.462 OA
BRANCH  20  21
ATOM     21  C   UNL     1       0.324  -1.057  -2.395  1.00  0.00     0.233 C 
BRANCH  21  22
ATOM     22  C   UNL     1       1.062   0.280  -2.363  1.00  0.00     0.041 C 
BRANCH  22  23
ATOM     23  C   UNL     1       0.887   1.074  -1.066  1.00  0.00     0.000 C 
ATOM     24  C   UNL     1       1.579   0.436   0.129  1.00  0.00     0.004 C 
ENDBRANCH  22  23
ENDBRANCH  21  22
ENDBRANCH  20  21
ENDBRANCH  18  20
ENDBRANCH  13  18
ENDBRANCH   7  12
ENDBRANCH   3   6
ENDBRANCH   1   2
BRANCH   1  25
ATOM     25  C   UNL     1      -8.011  -1.139   2.115  1.00  0.00     0.023 C 
BRANCH  25  26
ATOM     26  C   UNL     1      -7.900  -0.429   3.467  1.00  0.00     0.023 C 
BRANCH  26  27
ATOM     27  C   UNL     1      -8.880  -0.875   4.551  1.00  0.00     0.116 C 
BRANCH  27  28
ATOM     28  N   UNL     1      -8.877  -2.309   4.797  1.00  0.00    -0.352 N 
ATOM     29  C   UNL     1      -9.053  -2.980   5.986  1.00  0.00     0.251 C 
ATOM     30  H   UNL     1      -8.728  -2.876   4.006  1.00  0.00     0.163 HD
ATOM     31  O   UNL     1      -8.955  -4.203   6.017  1.00  0.00    -0.269 OA
BRANCH  29  32
ATOM     32  C   UNL     1      -9.310  -2.220   7.229  1.00  0.00     0.039 A 
ATOM     33  C   UNL     1      -8.527  -2.491   8.355  1.00  0.00     0.014 A 
ATOM     34  C   UNL     1     -10.289  -1.224   7.277  1.00  0.00     0.014 A 
ATOM     35  C   UNL     1      -8.666  -1.706   9.502  1.00  0.00     0.010 A 
ATOM     36  C   UNL     1     -10.387  -0.406   8.401  1.00  0.00     0.010 A 
ATOM     37  C   UNL     1      -9.566  -0.628   9.518  1.00  0.00    -0.014 A 
BRANCH  37  38
ATOM     38  C   UNL     1      -9.644   0.297  10.680  1.00  0.00     0.031 A 
ATOM     39  C   UNL     1     -10.906   0.382  11.494  1.00  0.00     0.074 A 
ATOM     40  C   UNL     1      -8.612   1.124  10.941  1.00  0.00     0.049 A 
ATOM     41  N   UNL     1     -11.210   1.204  12.465  1.00  0.00    -0.248 NA
ATOM     42  C   UNL     1     -11.978  -0.562  11.145  1.00  0.00     0.031 C 
ATOM     43  C   UNL     1      -7.354   1.170  10.190  1.00  0.00     0.029 A 
ATOM     44  N   UNL     1      -8.461   2.100  11.895  1.00  0.00    -0.354 N 
ATOM     45  C   UNL     1     -12.517   0.895  12.828  1.00  0.00     0.074 A 
ATOM     46  C   UNL     1     -12.958  -0.163  11.943  1.00  0.00     0.031 C 
ATOM     47  C   UNL     1      -6.562   2.120  10.714  1.00  0.00     0.029 A 
ATOM     48  C   UNL     1      -7.266   2.778  11.810  1.00  0.00     0.049 A 
ATOM     49  H   UNL     1      -9.144   2.297  12.576  1.00  0.00     0.167 HD
ATOM     50  C   UNL     1     -13.272   1.436  13.817  1.00  0.00     0.034 A 
ATOM     51  C   UNL     1      -6.797   3.823  12.521  1.00  0.00     0.034 A 
ATOM     52  C   UNL     1     -12.806   2.468  14.710  1.00  0.00     0.049 A 
ATOM     53  C   UNL     1      -7.649   4.393  13.627  1.00  0.00     0.074 A 
ATOM     54  C   UNL     1     -13.459   3.025  15.797  1.00  0.00     0.029 A 
ATOM     55  N   UNL     1     -11.575   3.103  14.620  1.00  0.00    -0.354 N 
ATOM     56  N   UNL     1      -8.859   4.044  13.998  1.00  0.00    -0.248 NA
ATOM     57  C   UNL     1      -7.067   5.486  14.417  1.00  0.00     0.031 C 
ATOM     58  C   UNL     1     -12.647   4.034  16.327  1.00  0.00     0.029 A 
ATOM     59  C   UNL     1     -11.461   4.064  15.613  1.00  0.00     0.049 A 
ATOM     60  H   UNL     1     -10.884   2.901  13.948  1.00  0.00     0.167 HD
ATOM     61  C   UNL     1      -9.171   4.859  15.083  1.00  0.00     0.074 A 
ATOM     62  C   UNL     1      -8.018   5.705  15.314  1.00  0.00     0.031 C 
ATOM     63  C   UNL     1     -10.306   4.903  15.825  1.00  0.00     0.034 A 
BRANCH  50  64
ATOM     64  C   UNL     1     -14.687   0.937  13.964  1.00  0.00     0.023 A 
ATOM     65  C   UNL     1     -14.970  -0.389  14.338  1.00  0.00     0.031 A 
ATOM     66  C   UNL     1     -15.771   1.798  13.717  1.00  0.00     0.131 A 
ATOM     67  C   UNL     1     -16.300  -0.833  14.389  1.00  0.00     0.055 A 
ATOM     68  C   UNL     1     -17.095   1.370  13.842  1.00  0.00     0.041 A 
ATOM     69  F   UNL     1     -15.562   3.069  13.340  1.00  0.00    -0.206 F 
ATOM     70  C   UNL     1     -17.365   0.044  14.167  1.00  0.00     0.022 A 
BRANCH  67  71
ATOM     71  S   UNL     1     -16.614  -2.601  14.634  1.00  0.00     0.124 S 
ATOM     72  O   UNL     1     -15.968  -3.180  13.458  1.00  0.00    -0.237 OA
ATOM     73  O   UNL     1     -15.966  -2.864  15.913  1.00  0.00    -0.237 OA
ATOM     74  O   UNL     1     -18.073  -2.692  14.643  1.00  0.00    -0.744 OA
ENDBRANCH  67  71
ENDBRANCH  50  64
BRANCH  51  75
ATOM     75  C   UNL     1      -5.468   4.420  12.205  1.00  0.00     0.023 A 
ATOM     76  C   UNL     1      -4.409   4.358  13.124  1.00  0.00     0.031 A 
ATOM     77  C   UNL     1      -5.255   5.108  10.997  1.00  0.00     0.131 A 
ATOM     78  C   UNL     1      -3.201   5.017  12.845  1.00  0.00     0.055 A 
ATOM     79  C   UNL     1      -4.034   5.718  10.702  1.00  0.00     0.041 A 
ATOM     80  F   UNL     1      -6.232   5.190  10.080  1.00  0.00    -0.206 F 
ATOM     81  C   UNL     1      -3.003   5.688  11.636  1.00  0.00     0.022 A 
BRANCH  78  82
ATOM     82  S   UNL     1      -1.922   5.063  14.130  1.00  0.00     0.124 S 
ATOM     83  O   UNL     1      -2.646   5.650  15.251  1.00  0.00    -0.237 OA
ATOM     84  O   UNL     1      -1.573   3.652  14.258  1.00  0.00    -0.237 OA
ATOM     85  O   UNL     1      -0.884   5.910  13.545  1.00  0.00    -0.744 OA
ENDBRANCH  78  82
ENDBRANCH  51  75
BRANCH  63  86
ATOM     86  C   UNL     1     -10.329   5.869  16.981  1.00  0.00     0.023 A 
ATOM     87  C   UNL     1     -10.359   7.260  16.781  1.00  0.00     0.031 A 
ATOM     88  C   UNL     1     -10.310   5.387  18.302  1.00  0.00     0.131 A 
ATOM     89  C   UNL     1     -10.320   8.124  17.886  1.00  0.00     0.055 A 
ATOM     90  C   UNL     1     -10.323   6.251  19.398  1.00  0.00     0.041 A 
ATOM     91  F   UNL     1     -10.280   4.068  18.547  1.00  0.00    -0.206 F 
ATOM     92  C   UNL     1     -10.317   7.628  19.193  1.00  0.00     0.022 A 
BRANCH  89  93
ATOM     93  S   UNL     1     -10.198   9.909  17.592  1.00  0.00     0.124 S 
ATOM     94  O   UNL     1      -8.947  10.010  16.848  1.00  0.00    -0.237 OA
ATOM     95  O   UNL     1     -11.414  10.186  16.835  1.00  0.00    -0.237 OA
ATOM     96  O   UNL     1     -10.165  10.477  18.939  1.00  0.00    -0.744 OA
ENDBRANCH  89  93
ENDBRANCH  63  86
ENDBRANCH  37  38
ENDBRANCH  29  32
ENDBRANCH  27  28
ENDBRANCH  26  27
ENDBRANCH  25  26
ENDBRANCH   1  25
TORSDOF 20
