REMARK SMILES O=C(NCCCCNC(=O)c1ccc(S(=O)(=O)NCc2ccn[nH]2)c(F)c1)c1ccc(-c2c3nc(c(-c4cc(S(=O)(=O)[O-])ccc4F)c4ccc([nH]4)c(-c4cc(S(=O)(=O)[O-])ccc4F)c4nc(c(-c5cc(S(=O)(=O)[O-])ccc5F)c5ccc2[nH]5)C=C4)C=C3)cc1
REMARK SMILES IDX 6 1 5 2 4 3 3 4 1 5 2 6 28 8 29 9 90 10 30 11 89 12 31 13
REMARK SMILES IDX 32 14 33 15 83 16 34 17 88 18 82 19 84 20 35 21 87 22 81 23
REMARK SMILES IDX 80 24 36 26 68 27 48 28 67 29 49 30 52 31 66 32 85 33 50 34
REMARK SMILES IDX 51 35 65 37 86 38 53 39 37 40 38 41 46 42 39 43 45 44 47 45
REMARK SMILES IDX 44 46 40 47 41 48 42 49 43 50 69 51 70 52 78 53 71 54 77 55
REMARK SMILES IDX 79 56 76 57 72 58 73 59 74 60 75 61 54 62 55 63 63 64 56 65
REMARK SMILES IDX 62 66 64 67 61 68 57 69 58 70 59 71 60 72 7 73 8 74 9 75
REMARK SMILES IDX 10 77 11 78 12 79 27 80 13 81 25 82 14 83 26 84 15 85 16 86
REMARK SMILES IDX 17 87 18 88 19 90 20 91 21 92 24 93 22 94 23 95
REMARK H PARENT 3 7 84 25 52 36 8 76 18 89 24 96
REMARK Flexibility Score: inf
ROOT
ATOM      1  C   UNL     1       4.569  -2.896   2.488  1.00  0.00     0.023 C 
ENDROOT
BRANCH   1   2
ATOM      2  C   UNL     1       5.057  -1.520   2.045  1.00  0.00     0.023 C 
BRANCH   2   3
ATOM      3  C   UNL     1       4.713  -1.131   0.612  1.00  0.00     0.116 C 
BRANCH   3   4
ATOM      4  N   UNL     1       3.280  -1.088   0.360  1.00  0.00    -0.352 N 
ATOM      5  O   UNL     1       1.280  -0.166  -0.109  1.00  0.00    -0.269 OA
ATOM      6  C   UNL     1       2.501  -0.046  -0.086  1.00  0.00     0.251 C 
ATOM      7  H   UNL     1       2.798  -1.929   0.534  1.00  0.00     0.163 HD
BRANCH   6   8
ATOM      8  C   UNL     1       3.133   1.224  -0.508  1.00  0.00     0.039 A 
ATOM      9  C   UNL     1       4.251   1.223  -1.345  1.00  0.00     0.014 A 
ATOM     10  C   UNL     1       2.597   2.434  -0.057  1.00  0.00     0.014 A 
ATOM     11  C   UNL     1       4.920   2.415  -1.607  1.00  0.00     0.010 A 
ATOM     12  C   UNL     1       3.225   3.639  -0.388  1.00  0.00     0.010 A 
ATOM     13  C   UNL     1       4.411   3.637  -1.138  1.00  0.00    -0.014 A 
BRANCH  13  14
ATOM     14  C   UNL     1       5.112   4.903  -1.476  1.00  0.00     0.031 A 
ATOM     15  C   UNL     1       5.750   5.743  -0.404  1.00  0.00     0.074 A 
ATOM     16  C   UNL     1       5.199   5.275  -2.769  1.00  0.00     0.049 A 
ATOM     17  N   UNL     1       6.363   6.894  -0.517  1.00  0.00    -0.248 NA
ATOM     18  C   UNL     1       5.693   5.229   0.973  1.00  0.00     0.031 C 
ATOM     19  C   UNL     1       4.639   4.528  -3.899  1.00  0.00     0.029 A 
ATOM     20  N   UNL     1       5.802   6.357  -3.356  1.00  0.00    -0.354 N 
ATOM     21  C   UNL     1       6.754   7.249   0.769  1.00  0.00     0.074 A 
ATOM     22  C   UNL     1       6.288   6.201   1.653  1.00  0.00     0.031 C 
ATOM     23  C   UNL     1       4.964   5.149  -5.042  1.00  0.00     0.029 A 
ATOM     24  C   UNL     1       5.689   6.374  -4.726  1.00  0.00     0.049 A 
ATOM     25  H   UNL     1       6.271   7.056  -2.845  1.00  0.00     0.167 HD
ATOM     26  C   UNL     1       7.442   8.345   1.171  1.00  0.00     0.034 A 
ATOM     27  C   UNL     1       6.098   7.286  -5.630  1.00  0.00     0.034 A 
ATOM     28  C   UNL     1       7.912   9.377   0.280  1.00  0.00     0.049 A 
ATOM     29  C   UNL     1       6.801   8.524  -5.149  1.00  0.00     0.074 A 
ATOM     30  C   UNL     1       8.630  10.520   0.590  1.00  0.00     0.029 A 
ATOM     31  N   UNL     1       7.713   9.394  -1.093  1.00  0.00    -0.354 N 
ATOM     32  N   UNL     1       7.124   8.861  -3.922  1.00  0.00    -0.248 NA
ATOM     33  C   UNL     1       7.181   9.509  -6.168  1.00  0.00     0.031 C 
ATOM     34  C   UNL     1       8.817  11.254  -0.586  1.00  0.00     0.029 A 
ATOM     35  C   UNL     1       8.271  10.540  -1.640  1.00  0.00     0.049 A 
ATOM     36  H   UNL     1       7.244   8.696  -1.605  1.00  0.00     0.167 HD
ATOM     37  C   UNL     1       7.752  10.097  -4.025  1.00  0.00     0.074 A 
ATOM     38  C   UNL     1       7.777  10.438  -5.433  1.00  0.00     0.031 C 
ATOM     39  C   UNL     1       8.265  10.877  -3.042  1.00  0.00     0.034 A 
BRANCH  26  40
ATOM     40  C   UNL     1       7.703   8.512   2.646  1.00  0.00     0.023 A 
ATOM     41  C   UNL     1       8.623   7.700   3.329  1.00  0.00     0.031 A 
ATOM     42  C   UNL     1       7.054   9.531   3.366  1.00  0.00     0.131 A 
ATOM     43  C   UNL     1       8.847   7.901   4.699  1.00  0.00     0.055 A 
ATOM     44  C   UNL     1       7.323   9.762   4.716  1.00  0.00     0.041 A 
ATOM     45  F   UNL     1       6.155  10.325   2.764  1.00  0.00    -0.206 F 
ATOM     46  C   UNL     1       8.221   8.941   5.392  1.00  0.00     0.022 A 
BRANCH  43  47
ATOM     47  S   UNL     1       9.929   6.747   5.586  1.00  0.00     0.124 S 
ATOM     48  O   UNL     1       9.161   5.507   5.511  1.00  0.00    -0.237 OA
ATOM     49  O   UNL     1      11.154   6.787   4.796  1.00  0.00    -0.237 OA
ATOM     50  O   UNL     1      10.031   7.330   6.923  1.00  0.00    -0.744 OA
ENDBRANCH  43  47
ENDBRANCH  26  40
BRANCH  27  51
ATOM     51  C   UNL     1       5.806   7.081  -7.075  1.00  0.00     0.023 A 
ATOM     52  C   UNL     1       6.838   6.838  -7.993  1.00  0.00     0.031 A 
ATOM     53  C   UNL     1       4.485   7.124  -7.555  1.00  0.00     0.131 A 
ATOM     54  C   UNL     1       6.533   6.667  -9.352  1.00  0.00     0.055 A 
ATOM     55  C   UNL     1       4.183   6.912  -8.900  1.00  0.00     0.041 A 
ATOM     56  F   UNL     1       3.464   7.346  -6.712  1.00  0.00    -0.206 F 
ATOM     57  C   UNL     1       5.213   6.689  -9.809  1.00  0.00     0.022 A 
BRANCH  54  58
ATOM     58  S   UNL     1       7.896   6.448 -10.528  1.00  0.00     0.124 S 
ATOM     59  O   UNL     1       8.596   7.722 -10.411  1.00  0.00    -0.237 OA
ATOM     60  O   UNL     1       8.585   5.283  -9.982  1.00  0.00    -0.237 OA
ATOM     61  O   UNL     1       7.213   6.223 -11.801  1.00  0.00    -0.744 OA
ENDBRANCH  54  58
ENDBRANCH  27  51
BRANCH  39  62
ATOM     62  C   UNL     1       8.910  12.170  -3.461  1.00  0.00     0.023 A 
ATOM     63  C   UNL     1       8.143  13.257  -3.912  1.00  0.00     0.031 A 
ATOM     64  C   UNL     1      10.305  12.321  -3.386  1.00  0.00     0.131 A 
ATOM     65  C   UNL     1       8.782  14.441  -4.306  1.00  0.00     0.055 A 
ATOM     66  C   UNL     1      10.931  13.518  -3.736  1.00  0.00     0.041 A 
ATOM     67  F   UNL     1      11.080  11.310  -2.960  1.00  0.00    -0.206 F 
ATOM     68  C   UNL     1      10.169  14.584  -4.205  1.00  0.00     0.022 A 
BRANCH  65  69
ATOM     69  S   UNL     1       7.778  15.787  -4.991  1.00  0.00     0.124 S 
ATOM     70  O   UNL     1       7.277  15.191  -6.226  1.00  0.00    -0.237 OA
ATOM     71  O   UNL     1       6.788  16.009  -3.943  1.00  0.00    -0.237 OA
ATOM     72  O   UNL     1       8.739  16.874  -5.173  1.00  0.00    -0.744 OA
ENDBRANCH  65  69
ENDBRANCH  39  62
ENDBRANCH  13  14
ENDBRANCH   6   8
ENDBRANCH   3   4
ENDBRANCH   2   3
ENDBRANCH   1   2
BRANCH   1  73
ATOM     73  C   UNL     1       4.949  -4.058   1.575  1.00  0.00     0.116 C 
BRANCH  73  74
ATOM     74  N   UNL     1       6.386  -4.239   1.439  1.00  0.00    -0.352 N 
ATOM     75  C   UNL     1       7.150  -5.367   1.610  1.00  0.00     0.251 C 
ATOM     76  H   UNL     1       6.886  -3.430   1.186  1.00  0.00     0.163 HD
ATOM     77  O   UNL     1       8.374  -5.307   1.556  1.00  0.00    -0.269 OA
BRANCH  75  78
ATOM     78  C   UNL     1       6.510  -6.667   1.907  1.00  0.00     0.042 A 
ATOM     79  C   UNL     1       5.412  -7.127   1.174  1.00  0.00     0.015 A 
ATOM     80  C   UNL     1       7.044  -7.451   2.934  1.00  0.00     0.054 A 
ATOM     81  C   UNL     1       4.759  -8.296   1.567  1.00  0.00     0.026 A 
ATOM     82  C   UNL     1       6.422  -8.647   3.283  1.00  0.00     0.144 A 
ATOM     83  C   UNL     1       5.252  -9.040   2.648  1.00  0.00     0.118 A 
ATOM     84  F   UNL     1       6.977  -9.392   4.249  1.00  0.00    -0.205 F 
BRANCH  83  85
ATOM     85  S   UNL     1       4.343 -10.461   3.150  1.00  0.00     0.243 S 
ATOM     86  O   UNL     1       2.941 -10.114   3.080  1.00  0.00    -0.207 OA
ATOM     87  O   UNL     1       4.870 -11.572   2.387  1.00  0.00    -0.207 OA
BRANCH  85  88
ATOM     88  N   UNL     1       4.701 -10.808   4.750  1.00  0.00    -0.205 NA
ATOM     89  H   UNL     1       5.677 -11.105   4.758  1.00  0.00     0.141 HD
BRANCH  88  90
ATOM     90  C   UNL     1       4.570  -9.844   5.833  1.00  0.00     0.154 C 
BRANCH  90  91
ATOM     91  C   UNL     1       3.180  -9.434   6.089  1.00  0.00     0.050 A 
ATOM     92  C   UNL     1       2.614  -8.187   6.253  1.00  0.00     0.046 A 
ATOM     93  N   UNL     1       2.156 -10.325   6.263  1.00  0.00    -0.281 N 
ATOM     94  C   UNL     1       1.270  -8.440   6.574  1.00  0.00     0.135 A 
ATOM     95  N   UNL     1       0.996  -9.745   6.618  1.00  0.00    -0.184 NA
ATOM     96  H   UNL     1       2.260 -11.296   6.141  1.00  0.00     0.190 HD
ENDBRANCH  90  91
ENDBRANCH  88  90
ENDBRANCH  85  88
ENDBRANCH  83  85
ENDBRANCH  75  78
ENDBRANCH  73  74
ENDBRANCH   1  73
TORSDOF 18
