REMARK SMILES O=C(NCCCCNC(=O)c1ccccc1NC(=O)c1ccc(N2C(=O)[C@H]3CC=CC[C@H]3C2=O)cc1)c1ccc(-c2c3nc(c(-c4cc(S(=O)(=O)[O-])ccc4F)c4ccc([nH]4)c(-c4cc(S(=O)(=O)[O-])ccc4F)c4nc(c(-c5cc(S(=O)(=O)[O-])ccc5F)c5ccc2[nH]5)C=C4)C=C3)cc1
REMARK SMILES IDX 5 1 4 2 3 3 1 4 2 5 37 7 38 8 99 9 39 10 98 11 40 12 41 13
REMARK SMILES IDX 42 14 92 15 43 16 97 17 91 18 93 19 44 20 96 21 90 22 89 23
REMARK SMILES IDX 45 25 77 26 57 27 76 28 58 29 61 30 75 31 94 32 59 33 60 34
REMARK SMILES IDX 74 36 95 37 62 38 46 39 47 40 55 41 48 42 54 43 56 44 53 45
REMARK SMILES IDX 49 46 50 47 51 48 52 49 78 50 79 51 87 52 80 53 86 54 88 55
REMARK SMILES IDX 85 56 81 57 82 58 83 59 84 60 63 61 64 62 72 63 65 64 71 65
REMARK SMILES IDX 73 66 70 67 66 68 67 69 68 70 69 71 6 72 7 73 8 74 9 75
REMARK SMILES IDX 10 77 11 78 12 79 16 80 13 81 15 82 14 83 17 84 18 85 19 87
REMARK SMILES IDX 20 88 21 89 36 90 22 91 35 92 23 93 24 94 25 95 33 96 26 97
REMARK SMILES IDX 27 98 32 99 34 100 28 101 31 102 29 103 30 104
REMARK H PARENT 3 6 93 24 61 35 8 76 17 86
REMARK Flexibility Score: inf
ROOT
ATOM      1  C   UNL     1       4.936   2.652  -0.633  1.00  0.00     0.023 C 
ENDROOT
BRANCH   1   2
ATOM      2  C   UNL     1       4.605   1.440   0.229  1.00  0.00     0.116 C 
BRANCH   2   3
ATOM      3  N   UNL     1       3.175   1.198   0.337  1.00  0.00    -0.352 N 
ATOM      4  O   UNL     1       1.228   0.112  -0.006  1.00  0.00    -0.269 OA
ATOM      5  C   UNL     1       2.457   0.080  -0.019  1.00  0.00     0.251 C 
ATOM      6  H   UNL     1       2.648   1.936   0.718  1.00  0.00     0.163 HD
BRANCH   5   7
ATOM      7  C   UNL     1       3.166  -1.149  -0.439  1.00  0.00     0.039 A 
ATOM      8  C   UNL     1       4.263  -1.619   0.288  1.00  0.00     0.014 A 
ATOM      9  C   UNL     1       2.724  -1.845  -1.568  1.00  0.00     0.014 A 
ATOM     10  C   UNL     1       4.999  -2.697  -0.191  1.00  0.00     0.010 A 
ATOM     11  C   UNL     1       3.415  -2.983  -1.998  1.00  0.00     0.010 A 
ATOM     12  C   UNL     1       4.572  -3.406  -1.325  1.00  0.00    -0.014 A 
BRANCH  12  13
ATOM     13  C   UNL     1       5.300  -4.639  -1.726  1.00  0.00     0.031 A 
ATOM     14  C   UNL     1       6.032  -4.726  -3.036  1.00  0.00     0.074 A 
ATOM     15  C   UNL     1       5.308  -5.681  -0.869  1.00  0.00     0.049 A 
ATOM     16  N   UNL     1       6.716  -5.727  -3.530  1.00  0.00    -0.248 NA
ATOM     17  C   UNL     1       5.989  -3.543  -3.909  1.00  0.00     0.031 C 
ATOM     18  C   UNL     1       4.622  -5.706   0.427  1.00  0.00     0.029 A 
ATOM     19  N   UNL     1       5.914  -6.908  -0.943  1.00  0.00    -0.354 N 
ATOM     20  C   UNL     1       7.170  -5.307  -4.776  1.00  0.00     0.074 A 
ATOM     21  C   UNL     1       6.665  -3.963  -4.971  1.00  0.00     0.031 C 
ATOM     22  C   UNL     1       4.880  -6.869   1.041  1.00  0.00     0.029 A 
ATOM     23  C   UNL     1       5.681  -7.704   0.155  1.00  0.00     0.049 A 
ATOM     24  H   UNL     1       6.464  -7.193  -1.709  1.00  0.00     0.167 HD
ATOM     25  C   UNL     1       7.936  -5.983  -5.668  1.00  0.00     0.034 A 
ATOM     26  C   UNL     1       6.043  -8.975   0.411  1.00  0.00     0.034 A 
ATOM     27  C   UNL     1       8.438  -7.320  -5.447  1.00  0.00     0.049 A 
ATOM     28  C   UNL     1       6.862  -9.710  -0.616  1.00  0.00     0.074 A 
ATOM     29  C   UNL     1       9.269  -8.072  -6.261  1.00  0.00     0.029 A 
ATOM     30  N   UNL     1       8.148  -8.111  -4.343  1.00  0.00    -0.354 N 
ATOM     31  N   UNL     1       7.313  -9.280  -1.772  1.00  0.00    -0.248 NA
ATOM     32  C   UNL     1       7.223 -11.098  -0.304  1.00  0.00     0.031 C 
ATOM     33  C   UNL     1       9.421  -9.338  -5.687  1.00  0.00     0.029 A 
ATOM     34  C   UNL     1       8.749  -9.355  -4.476  1.00  0.00     0.049 A 
ATOM     35  H   UNL     1       7.596  -7.830  -3.578  1.00  0.00     0.167 HD
ATOM     36  C   UNL     1       8.024 -10.343  -2.317  1.00  0.00     0.074 A 
ATOM     37  C   UNL     1       7.968 -11.420  -1.350  1.00  0.00     0.031 C 
ATOM     38  C   UNL     1       8.665 -10.425  -3.511  1.00  0.00     0.034 A 
BRANCH  25  39
ATOM     39  C   UNL     1       8.247  -5.316  -6.986  1.00  0.00     0.023 A 
ATOM     40  C   UNL     1       9.074  -4.183  -7.074  1.00  0.00     0.031 A 
ATOM     41  C   UNL     1       7.731  -5.850  -8.181  1.00  0.00     0.131 A 
ATOM     42  C   UNL     1       9.330  -3.600  -8.326  1.00  0.00     0.055 A 
ATOM     43  C   UNL     1       8.039  -5.303  -9.428  1.00  0.00     0.041 A 
ATOM     44  F   UNL     1       6.921  -6.920  -8.156  1.00  0.00    -0.206 F 
ATOM     45  C   UNL     1       8.837  -4.166  -9.505  1.00  0.00     0.022 A 
BRANCH  42  46
ATOM     46  S   UNL     1      10.245  -2.034  -8.390  1.00  0.00     0.124 S 
ATOM     47  O   UNL     1       9.379  -1.153  -7.611  1.00  0.00    -0.237 OA
ATOM     48  O   UNL     1      11.518  -2.387  -7.772  1.00  0.00    -0.237 OA
ATOM     49  O   UNL     1      10.307  -1.730  -9.818  1.00  0.00    -0.744 OA
ENDBRANCH  42  46
ENDBRANCH  25  39
BRANCH  26  50
ATOM     50  C   UNL     1       5.593  -9.653   1.661  1.00  0.00     0.023 A 
ATOM     51  C   UNL     1       6.518 -10.130   2.603  1.00  0.00     0.031 A 
ATOM     52  C   UNL     1       4.226  -9.881   1.906  1.00  0.00     0.131 A 
ATOM     53  C   UNL     1       6.069 -10.857   3.716  1.00  0.00     0.055 A 
ATOM     54  C   UNL     1       3.781 -10.547   3.048  1.00  0.00     0.041 A 
ATOM     55  F   UNL     1       3.298  -9.447   1.038  1.00  0.00    -0.206 F 
ATOM     56  C   UNL     1       4.706 -11.055   3.953  1.00  0.00     0.022 A 
BRANCH  53  57
ATOM     57  S   UNL     1       7.300 -11.642   4.792  1.00  0.00     0.124 S 
ATOM     58  O   UNL     1       8.076 -12.423   3.835  1.00  0.00    -0.237 OA
ATOM     59  O   UNL     1       7.973 -10.486   5.373  1.00  0.00    -0.237 OA
ATOM     60  O   UNL     1       6.488 -12.423   5.723  1.00  0.00    -0.744 OA
ENDBRANCH  53  57
ENDBRANCH  26  50
BRANCH  38  61
ATOM     61  C   UNL     1       9.374 -11.722  -3.808  1.00  0.00     0.023 A 
ATOM     62  C   UNL     1       8.664 -12.920  -4.005  1.00  0.00     0.031 A 
ATOM     63  C   UNL     1      10.778 -11.768  -3.860  1.00  0.00     0.131 A 
ATOM     64  C   UNL     1       9.361 -14.124  -4.181  1.00  0.00     0.055 A 
ATOM     65  C   UNL     1      11.465 -12.959  -4.098  1.00  0.00     0.041 A 
ATOM     66  F   UNL     1      11.505 -10.654  -3.675  1.00  0.00    -0.206 F 
ATOM     67  C   UNL     1      10.757 -14.148  -4.245  1.00  0.00     0.022 A 
BRANCH  64  68
ATOM     68  S   UNL     1       8.421 -15.675  -4.227  1.00  0.00     0.124 S 
ATOM     69  O   UNL     1       7.754 -15.664  -2.929  1.00  0.00    -0.237 OA
ATOM     70  O   UNL     1       7.559 -15.483  -5.389  1.00  0.00    -0.237 OA
ATOM     71  O   UNL     1       9.454 -16.697  -4.385  1.00  0.00    -0.744 OA
ENDBRANCH  64  68
ENDBRANCH  38  61
ENDBRANCH  12  13
ENDBRANCH   5   7
ENDBRANCH   2   3
ENDBRANCH   1   2
BRANCH   1  72
ATOM     72  C   UNL     1       4.445   3.996  -0.096  1.00  0.00     0.023 C 
BRANCH  72  73
ATOM     73  C   UNL     1       4.806   4.293   1.356  1.00  0.00     0.116 C 
BRANCH  73  74
ATOM     74  N   UNL     1       6.234   4.199   1.610  1.00  0.00    -0.352 N 
ATOM     75  C   UNL     1       7.079   5.092   2.211  1.00  0.00     0.253 C 
ATOM     76  H   UNL     1       6.657   3.365   1.303  1.00  0.00     0.163 HD
ATOM     77  O   UNL     1       8.289   4.883   2.220  1.00  0.00    -0.269 OA
BRANCH  75  78
ATOM     78  C   UNL     1       6.563   6.317   2.856  1.00  0.00     0.063 A 
ATOM     79  C   UNL     1       7.123   7.522   2.402  1.00  0.00     0.016 A 
ATOM     80  C   UNL     1       5.630   6.300   3.914  1.00  0.00     0.054 A 
ATOM     81  C   UNL     1       6.760   8.728   2.991  1.00  0.00     0.001 A 
ATOM     82  C   UNL     1       5.334   7.520   4.532  1.00  0.00     0.027 A 
ATOM     83  C   UNL     1       5.877   8.724   4.064  1.00  0.00     0.002 A 
BRANCH  80  84
ATOM     84  N   UNL     1       5.068   5.067   4.324  1.00  0.00    -0.321 N 
ATOM     85  C   UNL     1       3.957   4.726   5.060  1.00  0.00     0.255 C 
ATOM     86  H   UNL     1       5.583   4.287   4.018  1.00  0.00     0.170 HD
ATOM     87  O   UNL     1       3.737   3.547   5.328  1.00  0.00    -0.269 OA
BRANCH  85  88
ATOM     88  C   UNL     1       2.983   5.729   5.517  1.00  0.00     0.040 A 
ATOM     89  C   UNL     1       2.753   5.834   6.887  1.00  0.00     0.016 A 
ATOM     90  C   UNL     1       2.314   6.568   4.626  1.00  0.00     0.016 A 
ATOM     91  C   UNL     1       1.951   6.868   7.376  1.00  0.00     0.027 A 
ATOM     92  C   UNL     1       1.501   7.594   5.125  1.00  0.00     0.027 A 
ATOM     93  C   UNL     1       1.346   7.792   6.510  1.00  0.00     0.052 A 
BRANCH  93  94
ATOM     94  N   UNL     1       0.668   8.940   7.013  1.00  0.00    -0.250 N 
ATOM     95  C   UNL     1       0.930   9.516   8.235  1.00  0.00     0.238 C 
ATOM     96  C   UNL     1      -0.286   9.640   6.317  1.00  0.00     0.238 C 
ATOM     97  O   UNL     1       1.696   9.135   9.112  1.00  0.00    -0.274 OA
ATOM     98  C   UNL     1       0.130  10.790   8.374  1.00  0.00     0.096 C 
ATOM     99  C   UNL     1      -0.614  10.917   7.048  1.00  0.00     0.096 C 
ATOM    100  O   UNL     1      -0.852   9.325   5.276  1.00  0.00    -0.274 OA
ATOM    101  C   UNL     1       1.062  11.954   8.727  1.00  0.00     0.041 C 
ATOM    102  C   UNL     1      -0.236  12.108   6.158  1.00  0.00     0.041 C 
ATOM    103  C   UNL     1       1.782  12.498   7.531  1.00  0.00    -0.030 C 
ATOM    104  C   UNL     1       1.180  12.562   6.337  1.00  0.00    -0.030 C 
ENDBRANCH  93  94
ENDBRANCH  85  88
ENDBRANCH  80  84
ENDBRANCH  75  78
ENDBRANCH  73  74
ENDBRANCH  72  73
ENDBRANCH   1  72
TORSDOF 17
