REMARK SMILES CCCCCCNC(=O)Oc1cccc(-c2ccc([C@H](C)C(=O)NCCCCNC(=O)c3ccc(-c4c5nc(c(-c6cc(S(=O)(=O)[O-])ccc6F)c6ccc([nH]6)c(-c6cc(S(=O)(=O)[O-])ccc6F)c6nc(c(-c7cc(S(=O)(=O)[O-])ccc7F)c7ccc4[nH]7)C=C6)C=C5)cc3)cc2F)c1
REMARK SMILES IDX 20 1 21 2 19 3 16 4 17 5 96 6 18 7 95 8 97 9 15 10 11 11
REMARK SMILES IDX 12 12 98 13 13 14 14 15 10 16 8 17 7 18 9 20 6 21 5 22 4 23
REMARK SMILES IDX 3 24 2 25 1 26 22 27 23 28 24 29 25 31 26 32 27 33 28 34
REMARK SMILES IDX 29 35 30 36 31 38 32 39 33 40 94 41 34 42 93 43 35 44 36 45
REMARK SMILES IDX 37 46 87 47 38 48 92 49 86 50 88 51 39 52 91 53 85 54 84 55
REMARK SMILES IDX 40 57 72 58 52 59 71 60 53 61 56 62 70 63 89 64 54 65 55 66
REMARK SMILES IDX 69 68 90 69 57 70 41 71 42 72 50 73 43 74 49 75 51 76 48 77
REMARK SMILES IDX 44 78 45 79 46 80 47 81 73 82 74 83 82 84 75 85 81 86 83 87
REMARK SMILES IDX 80 88 76 89 77 90 78 91 79 92 58 93 59 94 67 95 60 96 66 97
REMARK SMILES IDX 68 98 65 99 61 100 62 101 63 102 64 103
REMARK H PARENT 7 19 24 30 29 37 88 56 56 67
REMARK Flexibility Score: inf
ROOT
ATOM      1  C   UNL     1      -4.774  11.347   7.435  1.00  0.00     0.105 C 
ATOM      2  C   UNL     1      -4.931   9.930   6.847  1.00  0.00     0.023 C 
ENDROOT
BRANCH   1   3
ATOM      3  C   UNL     1      -6.053  11.970   7.998  1.00  0.00    -0.033 A 
ATOM      4  C   UNL     1      -8.488  13.040   9.054  1.00  0.00     0.018 A 
ATOM      5  C   UNL     1      -7.270  13.186   9.734  1.00  0.00     0.012 A 
ATOM      6  C   UNL     1      -8.442  12.403   7.807  1.00  0.00     0.131 A 
ATOM      7  C   UNL     1      -6.074  12.690   9.202  1.00  0.00     0.005 A 
ATOM      8  C   UNL     1      -7.255  11.884   7.284  1.00  0.00     0.044 A 
ATOM      9  F   UNL     1      -9.555  12.275   7.066  1.00  0.00    -0.206 F 
BRANCH   4  10
ATOM     10  C   UNL     1      -9.747  13.534   9.643  1.00  0.00    -0.012 A 
ATOM     11  C   UNL     1     -12.096  13.233  10.184  1.00  0.00     0.133 A 
ATOM     12  C   UNL     1     -12.150  14.484  10.790  1.00  0.00     0.047 A 
ATOM     13  C   UNL     1     -10.917  12.758   9.608  1.00  0.00     0.056 A 
ATOM     14  C   UNL     1     -11.000  15.264  10.840  1.00  0.00     0.004 A 
ATOM     15  C   UNL     1      -9.813  14.794  10.269  1.00  0.00     0.009 A 
BRANCH  11  16
ATOM     16  O   UNL     1     -13.310  12.537  10.065  1.00  0.00    -0.410 OA
BRANCH  16  17
ATOM     17  C   UNL     1     -13.363  11.199  10.421  1.00  0.00     0.412 C 
ATOM     18  N   UNL     1     -14.580  10.629  10.172  1.00  0.00    -0.321 N 
ATOM     19  H   UNL     1     -14.689   9.687  10.435  1.00  0.00     0.167 HD
ATOM     20  O   UNL     1     -12.450  10.544  10.918  1.00  0.00    -0.224 OA
BRANCH  18  21
ATOM     21  C   UNL     1     -15.725  11.273   9.562  1.00  0.00     0.119 C 
BRANCH  21  22
ATOM     22  C   UNL     1     -16.133  10.590   8.257  1.00  0.00     0.021 C 
BRANCH  22  23
ATOM     23  C   UNL     1     -16.643   9.153   8.419  1.00  0.00     0.002 C 
BRANCH  23  24
ATOM     24  C   UNL     1     -17.864   8.985   9.331  1.00  0.00    -0.000 C 
BRANCH  24  25
ATOM     25  C   UNL     1     -19.104   9.783   8.920  1.00  0.00    -0.003 C 
ATOM     26  C   UNL     1     -19.659   9.374   7.564  1.00  0.00     0.004 C 
ENDBRANCH  24  25
ENDBRANCH  23  24
ENDBRANCH  22  23
ENDBRANCH  21  22
ENDBRANCH  18  21
ENDBRANCH  16  17
ENDBRANCH  11  16
ENDBRANCH   4  10
ENDBRANCH   1   3
BRANCH   1  27
ATOM     27  C   UNL     1      -3.574  11.357   8.387  1.00  0.00     0.227 C 
ATOM     28  O   UNL     1      -2.556  12.000   8.116  1.00  0.00    -0.274 OA
ATOM     29  N   UNL     1      -3.592  10.642   9.552  1.00  0.00    -0.356 N 
ATOM     30  H   UNL     1      -2.746  10.631  10.055  1.00  0.00     0.163 HD
BRANCH  29  31
ATOM     31  C   UNL     1      -4.686   9.894  10.155  1.00  0.00     0.116 C 
BRANCH  31  32
ATOM     32  C   UNL     1      -4.239   8.527  10.659  1.00  0.00     0.023 C 
BRANCH  32  33
ATOM     33  C   UNL     1      -3.254   8.571  11.827  1.00  0.00     0.023 C 
BRANCH  33  34
ATOM     34  C   UNL     1      -3.731   9.350  13.050  1.00  0.00     0.116 C 
BRANCH  34  35
ATOM     35  N   UNL     1      -4.960   8.816  13.615  1.00  0.00    -0.352 N 
ATOM     36  C   UNL     1      -5.226   8.444  14.912  1.00  0.00     0.251 C 
ATOM     37  H   UNL     1      -5.706   8.706  12.982  1.00  0.00     0.163 HD
ATOM     38  O   UNL     1      -6.267   7.852  15.179  1.00  0.00    -0.269 OA
BRANCH  36  39
ATOM     39  C   UNL     1      -4.232   8.729  15.970  1.00  0.00     0.039 A 
ATOM     40  C   UNL     1      -3.884   7.715  16.864  1.00  0.00     0.014 A 
ATOM     41  C   UNL     1      -3.625   9.985  16.057  1.00  0.00     0.014 A 
ATOM     42  C   UNL     1      -2.869   7.938  17.798  1.00  0.00     0.010 A 
ATOM     43  C   UNL     1      -2.560  10.177  16.932  1.00  0.00     0.010 A 
ATOM     44  C   UNL     1      -2.170   9.156  17.812  1.00  0.00    -0.014 A 
BRANCH  44  45
ATOM     45  C   UNL     1      -1.034   9.384  18.744  1.00  0.00     0.031 A 
ATOM     46  C   UNL     1      -1.123  10.459  19.792  1.00  0.00     0.074 A 
ATOM     47  C   UNL     1       0.098   8.665  18.608  1.00  0.00     0.049 A 
ATOM     48  N   UNL     1      -0.221  10.857  20.652  1.00  0.00    -0.248 NA
ATOM     49  C   UNL     1      -2.386  11.207  19.856  1.00  0.00     0.031 C 
ATOM     50  C   UNL     1       0.320   7.618  17.609  1.00  0.00     0.029 A 
ATOM     51  N   UNL     1       1.275   8.704  19.313  1.00  0.00    -0.354 N 
ATOM     52  C   UNL     1      -0.805  11.905  21.356  1.00  0.00     0.074 A 
ATOM     53  C   UNL     1      -2.106  12.130  20.762  1.00  0.00     0.031 C 
ATOM     54  C   UNL     1       1.540   7.089  17.790  1.00  0.00     0.029 A 
ATOM     55  C   UNL     1       2.207   7.789  18.883  1.00  0.00     0.049 A 
ATOM     56  H   UNL     1       1.437   9.329  20.056  1.00  0.00     0.167 HD
ATOM     57  C   UNL     1      -0.318  12.593  22.419  1.00  0.00     0.034 A 
ATOM     58  C   UNL     1       3.459   7.544  19.319  1.00  0.00     0.034 A 
ATOM     59  C   UNL     1       0.984  12.357  22.997  1.00  0.00     0.049 A 
ATOM     60  C   UNL     1       4.005   8.359  20.464  1.00  0.00     0.074 A 
ATOM     61  C   UNL     1       1.568  12.970  24.093  1.00  0.00     0.029 A 
ATOM     62  N   UNL     1       1.912  11.438  22.519  1.00  0.00    -0.354 N 
ATOM     63  N   UNL     1       3.426   9.320  21.146  1.00  0.00    -0.248 NA
ATOM     64  C   UNL     1       5.372   8.049  20.900  1.00  0.00     0.031 C 
ATOM     65  C   UNL     1       2.869  12.473  24.233  1.00  0.00     0.029 A 
ATOM     66  C   UNL     1       3.072  11.491  23.277  1.00  0.00     0.049 A 
ATOM     67  H   UNL     1       1.766  10.837  21.753  1.00  0.00     0.167 HD
ATOM     68  C   UNL     1       4.347   9.703  22.118  1.00  0.00     0.074 A 
ATOM     69  C   UNL     1       5.513   8.862  21.937  1.00  0.00     0.031 C 
ATOM     70  C   UNL     1       4.236  10.657  23.078  1.00  0.00     0.034 A 
BRANCH  57  71
ATOM     71  C   UNL     1      -1.198  13.680  22.995  1.00  0.00     0.023 A 
ATOM     72  C   UNL     1      -2.474  13.393  23.514  1.00  0.00     0.031 A 
ATOM     73  C   UNL     1      -0.789  15.025  22.972  1.00  0.00     0.131 A 
ATOM     74  C   UNL     1      -3.333  14.438  23.885  1.00  0.00     0.055 A 
ATOM     75  C   UNL     1      -1.613  16.053  23.436  1.00  0.00     0.041 A 
ATOM     76  F   UNL     1       0.408  15.368  22.472  1.00  0.00    -0.206 F 
ATOM     77  C   UNL     1      -2.902  15.765  23.876  1.00  0.00     0.022 A 
BRANCH  74  78
ATOM     78  S   UNL     1      -5.077  14.050  24.198  1.00  0.00     0.124 S 
ATOM     79  O   UNL     1      -5.469  13.422  22.938  1.00  0.00    -0.237 OA
ATOM     80  O   UNL     1      -5.002  13.167  25.356  1.00  0.00    -0.237 OA
ATOM     81  O   UNL     1      -5.680  15.357  24.446  1.00  0.00    -0.744 OA
ENDBRANCH  74  78
ENDBRANCH  57  71
BRANCH  58  82
ATOM     82  C   UNL     1       4.285   6.477  18.684  1.00  0.00     0.023 A 
ATOM     83  C   UNL     1       4.672   5.342  19.413  1.00  0.00     0.031 A 
ATOM     84  C   UNL     1       4.728   6.591  17.355  1.00  0.00     0.131 A 
ATOM     85  C   UNL     1       5.513   4.385  18.825  1.00  0.00     0.055 A 
ATOM     86  C   UNL     1       5.523   5.611  16.757  1.00  0.00     0.041 A 
ATOM     87  F   UNL     1       4.382   7.654  16.612  1.00  0.00    -0.206 F 
ATOM     88  C   UNL     1       5.930   4.505  17.497  1.00  0.00     0.022 A 
BRANCH  85  89
ATOM     89  S   UNL     1       6.118   3.015  19.848  1.00  0.00     0.124 S 
ATOM     90  O   UNL     1       6.826   3.724  20.906  1.00  0.00    -0.237 OA
ATOM     91  O   UNL     1       4.875   2.355  20.236  1.00  0.00    -0.237 OA
ATOM     92  O   UNL     1       6.964   2.254  18.930  1.00  0.00    -0.744 OA
ENDBRANCH  85  89
ENDBRANCH  58  82
BRANCH  70  93
ATOM     93  C   UNL     1       5.394  10.802  24.037  1.00  0.00     0.023 A 
ATOM     94  C   UNL     1       6.657  11.250  23.613  1.00  0.00     0.031 A 
ATOM     95  C   UNL     1       5.232  10.467  25.393  1.00  0.00     0.131 A 
ATOM     96  C   UNL     1       7.724  11.295  24.524  1.00  0.00     0.055 A 
ATOM     97  C   UNL     1       6.280  10.574  26.308  1.00  0.00     0.041 A 
ATOM     98  F   UNL     1       4.049  10.030  25.853  1.00  0.00    -0.206 F 
ATOM     99  C   UNL     1       7.540  10.976  25.872  1.00  0.00     0.022 A 
BRANCH  96 100
ATOM    100  S   UNL     1       9.385  11.679  23.903  1.00  0.00     0.124 S 
ATOM    101  O   UNL     1       9.587  10.631  22.908  1.00  0.00    -0.237 OA
ATOM    102  O   UNL     1       9.217  13.031  23.380  1.00  0.00    -0.237 OA
ATOM    103  O   UNL     1      10.229  11.576  25.092  1.00  0.00    -0.744 OA
ENDBRANCH  96 100
ENDBRANCH  70  93
ENDBRANCH  44  45
ENDBRANCH  36  39
ENDBRANCH  34  35
ENDBRANCH  33  34
ENDBRANCH  32  33
ENDBRANCH  31  32
ENDBRANCH  29  31
ENDBRANCH   1  27
TORSDOF 23
