REMARK SMILES N#C/C(=C\c1cn(CC(=O)NCCCCNC(=O)c2ccc(-c3c4nc(c(-c5cc(S(=O)(=O)[O-])ccc5F)c5ccc([nH]5)c(-c5cc(S(=O)(=O)[O-])ccc5F)c5nc(c(-c6cc(S(=O)(=O)[O-])ccc6F)c6ccc3[nH]6)C=C5)C=C4)cc2)c2ccccc12)C(=O)N1CCCC[C@@H]1C#N
REMARK SMILES IDX 12 1 11 2 9 3 10 4 8 6 7 7 5 8 6 9 87 10 82 11 86 12 83 13
REMARK SMILES IDX 85 14 84 15 4 16 3 17 2 18 1 19 88 20 89 21 90 22 91 23
REMARK SMILES IDX 95 24 92 25 94 26 93 27 96 28 97 29 13 30 14 31 15 32 16 33
REMARK SMILES IDX 17 34 18 36 19 37 20 38 81 39 21 40 80 41 22 42 23 43 24 44
REMARK SMILES IDX 74 45 25 46 79 47 73 48 75 49 26 50 78 51 72 52 71 53 27 55
REMARK SMILES IDX 59 56 39 57 58 58 40 59 43 60 57 61 76 62 41 63 42 64 56 66
REMARK SMILES IDX 77 67 44 68 28 69 29 70 37 71 30 72 36 73 38 74 35 75 31 76
REMARK SMILES IDX 32 77 33 78 34 79 60 80 61 81 69 82 62 83 68 84 70 85 67 86
REMARK SMILES IDX 63 87 64 88 65 89 66 90 45 91 46 92 54 93 47 94 53 95 55 96
REMARK SMILES IDX 52 97 48 98 49 99 50 100 51 101
REMARK H PARENT 11 5 16 35 75 54 43 65
REMARK Flexibility Score: inf
ROOT
ATOM      1  C   UNL     1       2.304  -3.630   4.006  1.00  0.00     0.116 C 
ENDROOT
BRANCH   1   2
ATOM      2  N   UNL     1       1.585  -4.839   3.652  1.00  0.00    -0.355 N 
ATOM      3  C   UNL     1       1.897  -5.789   2.723  1.00  0.00     0.239 C 
ATOM      4  O   UNL     1       1.156  -6.770   2.616  1.00  0.00    -0.273 OA
ATOM      5  H   UNL     1       0.753  -4.997   4.154  1.00  0.00     0.163 HD
BRANCH   3   6
ATOM      6  C   UNL     1       3.174  -5.691   1.913  1.00  0.00     0.222 C 
BRANCH   6   7
ATOM      7  N   UNL     1       3.219  -4.542   1.020  1.00  0.00    -0.337 N 
ATOM      8  C   UNL     1       3.766  -2.533   0.247  1.00  0.00     0.002 A 
ATOM      9  C   UNL     1       4.152  -3.537   1.106  1.00  0.00     0.095 A 
ATOM     10  C   UNL     1       2.707  -3.053  -0.564  1.00  0.00     0.007 A 
ATOM     11  C   UNL     1       2.341  -4.288  -0.012  1.00  0.00     0.049 A 
ATOM     12  C   UNL     1       1.980  -2.584  -1.681  1.00  0.00     0.011 A 
ATOM     13  C   UNL     1       1.235  -5.017  -0.482  1.00  0.00     0.027 A 
ATOM     14  C   UNL     1       0.866  -3.292  -2.140  1.00  0.00     0.001 A 
ATOM     15  C   UNL     1       0.492  -4.485  -1.538  1.00  0.00     0.002 A 
BRANCH   8  16
ATOM     16  C   UNL     1       4.393  -1.243   0.261  1.00  0.00     0.035 C 
ATOM     17  C   UNL     1       3.822  -0.028   0.087  1.00  0.00     0.118 C 
BRANCH  17  18
ATOM     18  C   UNL     1       2.302  -0.028   0.087  1.00  0.00     0.105 C 
ATOM     19  N   UNL     1       1.041  -0.028   0.087  1.00  0.00    -0.192 NA
ENDBRANCH  17  18
BRANCH  17  20
ATOM     20  C   UNL     1       4.593   1.247   0.175  1.00  0.00     0.265 C 
ATOM     21  O   UNL     1       3.987   2.275   0.472  1.00  0.00    -0.268 OA
BRANCH  20  22
ATOM     22  N   UNL     1       5.982   1.255   0.015  1.00  0.00    -0.322 N 
ATOM     23  C   UNL     1       6.730   2.306   0.709  1.00  0.00     0.121 C 
ATOM     24  C   UNL     1       6.814   0.361  -0.831  1.00  0.00     0.189 C 
ATOM     25  C   UNL     1       7.771   1.666   1.629  1.00  0.00     0.022 C 
ATOM     26  C   UNL     1       7.915  -0.297   0.034  1.00  0.00     0.041 C 
ATOM     27  C   UNL     1       8.701   0.725   0.863  1.00  0.00     0.005 C 
BRANCH  24  28
ATOM     28  C   UNL     1       7.441   1.068  -1.974  1.00  0.00     0.087 C 
ATOM     29  N   UNL     1       7.988   1.590  -2.865  1.00  0.00    -0.196 NA
ENDBRANCH  24  28
ENDBRANCH  20  22
ENDBRANCH  17  20
ENDBRANCH   8  16
ENDBRANCH   6   7
ENDBRANCH   3   6
ENDBRANCH   1   2
BRANCH   1  30
ATOM     30  C   UNL     1       1.535  -2.365   3.627  1.00  0.00     0.023 C 
BRANCH  30  31
ATOM     31  C   UNL     1       0.265  -2.121   4.457  1.00  0.00     0.023 C 
BRANCH  31  32
ATOM     32  C   UNL     1       0.474  -2.178   5.972  1.00  0.00     0.116 C 
BRANCH  32  33
ATOM     33  N   UNL     1       1.454  -1.229   6.460  1.00  0.00    -0.352 N 
ATOM     34  C   UNL     1       1.380   0.009   7.038  1.00  0.00     0.251 C 
ATOM     35  H   UNL     1       2.380  -1.546   6.351  1.00  0.00     0.163 HD
ATOM     36  O   UNL     1       2.431   0.430   7.531  1.00  0.00    -0.269 OA
BRANCH  34  37
ATOM     37  C   UNL     1       0.182   0.891   7.021  1.00  0.00     0.039 A 
ATOM     38  C   UNL     1      -1.048   0.562   6.458  1.00  0.00     0.014 A 
ATOM     39  C   UNL     1       0.373   2.203   7.502  1.00  0.00     0.014 A 
ATOM     40  C   UNL     1      -1.994   1.551   6.229  1.00  0.00     0.010 A 
ATOM     41  C   UNL     1      -0.581   3.192   7.296  1.00  0.00     0.010 A 
ATOM     42  C   UNL     1      -1.730   2.877   6.586  1.00  0.00    -0.014 A 
BRANCH  42  43
ATOM     43  C   UNL     1      -2.745   3.870   6.256  1.00  0.00     0.031 A 
ATOM     44  C   UNL     1      -4.077   3.570   6.847  1.00  0.00     0.074 A 
ATOM     45  C   UNL     1      -2.520   4.968   5.505  1.00  0.00     0.049 A 
ATOM     46  N   UNL     1      -5.138   3.162   6.232  1.00  0.00    -0.248 NA
ATOM     47  C   UNL     1      -4.176   3.522   8.313  1.00  0.00     0.031 C 
ATOM     48  C   UNL     1      -1.245   5.538   5.063  1.00  0.00     0.029 A 
ATOM     49  N   UNL     1      -3.427   5.861   5.019  1.00  0.00    -0.354 N 
ATOM     50  C   UNL     1      -6.110   2.998   7.216  1.00  0.00     0.074 A 
ATOM     51  C   UNL     1      -5.418   3.064   8.478  1.00  0.00     0.031 C 
ATOM     52  C   UNL     1      -1.451   6.792   4.593  1.00  0.00     0.029 A 
ATOM     53  C   UNL     1      -2.880   7.047   4.544  1.00  0.00     0.049 A 
ATOM     54  H   UNL     1      -4.394   5.680   5.006  1.00  0.00     0.167 HD
ATOM     55  C   UNL     1      -7.441   3.021   6.918  1.00  0.00     0.034 A 
ATOM     56  C   UNL     1      -3.559   8.168   4.181  1.00  0.00     0.034 A 
ATOM     57  C   UNL     1      -7.661   2.839   5.509  1.00  0.00     0.049 A 
ATOM     58  C   UNL     1      -4.967   7.780   3.920  1.00  0.00     0.074 A 
ATOM     59  C   UNL     1      -7.440   1.806   4.620  1.00  0.00     0.029 A 
ATOM     60  N   UNL     1      -7.831   3.967   4.742  1.00  0.00    -0.354 N 
ATOM     61  N   UNL     1      -5.338   7.053   2.904  1.00  0.00    -0.248 NA
ATOM     62  C   UNL     1      -5.881   7.798   5.052  1.00  0.00     0.031 C 
ATOM     63  C   UNL     1      -7.007   2.440   3.421  1.00  0.00     0.029 A 
ATOM     64  C   UNL     1      -7.067   3.822   3.613  1.00  0.00     0.049 A 
ATOM     65  H   UNL     1      -8.400   4.739   4.964  1.00  0.00     0.167 HD
ATOM     66  C   UNL     1      -6.262   6.169   3.438  1.00  0.00     0.074 A 
ATOM     67  C   UNL     1      -6.610   6.721   4.747  1.00  0.00     0.031 C 
ATOM     68  C   UNL     1      -6.444   4.925   2.908  1.00  0.00     0.034 A 
BRANCH  55  69
ATOM     69  C   UNL     1      -8.500   3.550   7.854  1.00  0.00     0.023 A 
ATOM     70  C   UNL     1      -8.192   4.261   9.029  1.00  0.00     0.031 A 
ATOM     71  C   UNL     1      -9.857   3.554   7.472  1.00  0.00     0.131 A 
ATOM     72  C   UNL     1      -9.178   4.915   9.776  1.00  0.00     0.055 A 
ATOM     73  C   UNL     1     -10.834   4.268   8.180  1.00  0.00     0.041 A 
ATOM     74  F   UNL     1     -10.267   2.915   6.366  1.00  0.00    -0.206 F 
ATOM     75  C   UNL     1     -10.497   4.955   9.339  1.00  0.00     0.022 A 
BRANCH  72  76
ATOM     76  S   UNL     1      -8.748   5.743  11.332  1.00  0.00     0.124 S 
ATOM     77  O   UNL     1      -9.171   7.114  11.073  1.00  0.00    -0.237 OA
ATOM     78  O   UNL     1      -9.559   5.000  12.293  1.00  0.00    -0.237 OA
ATOM     79  O   UNL     1      -7.308   5.530  11.445  1.00  0.00    -0.744 OA
ENDBRANCH  72  76
ENDBRANCH  55  69
BRANCH  56  80
ATOM     80  C   UNL     1      -3.231   9.557   4.600  1.00  0.00     0.023 A 
ATOM     81  C   UNL     1      -2.548   9.769   5.811  1.00  0.00     0.031 A 
ATOM     82  C   UNL     1      -3.880  10.665   4.023  1.00  0.00     0.131 A 
ATOM     83  C   UNL     1      -2.583  11.021   6.439  1.00  0.00     0.055 A 
ATOM     84  C   UNL     1      -3.891  11.924   4.639  1.00  0.00     0.041 A 
ATOM     85  F   UNL     1      -4.589  10.525   2.892  1.00  0.00    -0.206 F 
ATOM     86  C   UNL     1      -3.254  12.102   5.863  1.00  0.00     0.022 A 
BRANCH  83  87
ATOM     87  S   UNL     1      -1.852  11.238   8.085  1.00  0.00     0.124 S 
ATOM     88  O   UNL     1      -1.056  12.451   7.911  1.00  0.00    -0.237 OA
ATOM     89  O   UNL     1      -3.040  11.380   8.920  1.00  0.00    -0.237 OA
ATOM     90  O   UNL     1      -1.079  10.015   8.280  1.00  0.00    -0.744 OA
ENDBRANCH  83  87
ENDBRANCH  56  80
BRANCH  68  91
ATOM     91  C   UNL     1      -5.771   4.581   1.596  1.00  0.00     0.023 A 
ATOM     92  C   UNL     1      -6.574   3.981   0.613  1.00  0.00     0.031 A 
ATOM     93  C   UNL     1      -4.380   4.602   1.374  1.00  0.00     0.131 A 
ATOM     94  C   UNL     1      -5.995   3.378  -0.509  1.00  0.00     0.055 A 
ATOM     95  C   UNL     1      -3.808   4.063   0.214  1.00  0.00     0.041 A 
ATOM     96  F   UNL     1      -3.528   5.061   2.300  1.00  0.00    -0.206 F 
ATOM     97  C   UNL     1      -4.615   3.428  -0.725  1.00  0.00     0.022 A 
BRANCH  94  98
ATOM     98  S   UNL     1      -7.013   2.372  -1.618  1.00  0.00     0.124 S 
ATOM     99  O   UNL     1      -6.935   3.118  -2.871  1.00  0.00    -0.237 OA
ATOM    100  O   UNL     1      -6.314   1.089  -1.607  1.00  0.00    -0.237 OA
ATOM    101  O   UNL     1      -8.326   2.361  -0.980  1.00  0.00    -0.744 OA
ENDBRANCH  94  98
ENDBRANCH  68  91
ENDBRANCH  42  43
ENDBRANCH  34  37
ENDBRANCH  32  33
ENDBRANCH  31  32
ENDBRANCH  30  31
ENDBRANCH   1  30
TORSDOF 20
