REMARK SMILES O=C(NCCCCNC(=O)c1noc(-c2ccccc2C(F)(F)F)n1)c1ccc(-c2c3nc(c(-c4cc(S(=O)(=O)[O-])ccc4F)c4ccc([nH]4)c(-c4cc(S(=O)(=O)[O-])ccc4F)c4nc(c(-c5cc(S(=O)(=O)[O-])ccc5F)c5ccc2[nH]5)C=C4)C=C3)cc1
REMARK SMILES IDX 5 1 4 2 3 3 1 4 2 5 26 7 27 8 88 9 28 10 87 11 29 12 30 13
REMARK SMILES IDX 31 14 81 15 32 16 86 17 80 18 82 19 33 20 85 21 79 22 78 23
REMARK SMILES IDX 34 25 66 26 46 27 65 28 47 29 50 30 64 31 83 32 48 33 49 34
REMARK SMILES IDX 63 36 84 37 51 38 35 39 36 40 44 41 37 42 43 43 45 44 42 45
REMARK SMILES IDX 38 46 39 47 40 48 41 49 67 50 68 51 76 52 69 53 75 54 77 55
REMARK SMILES IDX 74 56 70 57 71 58 72 59 73 60 52 61 53 62 61 63 54 64 60 65
REMARK SMILES IDX 62 66 59 67 55 68 56 69 57 70 58 71 6 72 7 73 8 74 9 75
REMARK SMILES IDX 10 77 11 78 12 79 25 80 13 81 14 82 15 83 16 84 20 85 17 86
REMARK SMILES IDX 19 87 18 88 21 89 22 90 23 91 24 92
REMARK H PARENT 3 6 82 24 50 35 8 76
REMARK Flexibility Score: inf
ROOT
ATOM      1  C   UNL     1       4.785  -2.253  -1.462  1.00  0.00     0.023 C 
ENDROOT
BRANCH   1   2
ATOM      2  C   UNL     1       4.489  -0.846  -0.959  1.00  0.00     0.116 C 
BRANCH   2   3
ATOM      3  N   UNL     1       3.068  -0.523  -0.956  1.00  0.00    -0.352 N 
ATOM      4  O   UNL     1       1.099   0.143  -0.075  1.00  0.00    -0.269 OA
ATOM      5  C   UNL     1       2.317   0.047   0.046  1.00  0.00     0.251 C 
ATOM      6  H   UNL     1       2.580  -0.742  -1.783  1.00  0.00     0.163 HD
BRANCH   5   7
ATOM      7  C   UNL     1       2.986   0.513   1.279  1.00  0.00     0.039 A 
ATOM      8  C   UNL     1       4.152   1.277   1.204  1.00  0.00     0.014 A 
ATOM      9  C   UNL     1       2.462   0.148   2.523  1.00  0.00     0.014 A 
ATOM     10  C   UNL     1       4.879   1.539   2.359  1.00  0.00     0.010 A 
ATOM     11  C   UNL     1       3.151   0.490   3.691  1.00  0.00     0.010 A 
ATOM     12  C   UNL     1       4.386   1.153   3.616  1.00  0.00    -0.014 A 
BRANCH  12  13
ATOM     13  C   UNL     1       5.173   1.484   4.833  1.00  0.00     0.031 A 
ATOM     14  C   UNL     1       5.769   0.403   5.693  1.00  0.00     0.074 A 
ATOM     15  C   UNL     1       5.387   2.781   5.129  1.00  0.00     0.049 A 
ATOM     16  N   UNL     1       6.514   0.516   6.763  1.00  0.00    -0.248 NA
ATOM     17  C   UNL     1       5.481  -0.986   5.308  1.00  0.00     0.031 C 
ATOM     18  C   UNL     1       4.855   3.914   4.367  1.00  0.00     0.029 A 
ATOM     19  N   UNL     1       6.127   3.368   6.122  1.00  0.00    -0.354 N 
ATOM     20  C   UNL     1       6.771  -0.782   7.193  1.00  0.00     0.074 A 
ATOM     21  C   UNL     1       6.069  -1.665   6.283  1.00  0.00     0.031 C 
ATOM     22  C   UNL     1       5.333   5.055   4.884  1.00  0.00     0.029 A 
ATOM     23  C   UNL     1       6.148   4.741   6.051  1.00  0.00     0.049 A 
ATOM     24  H   UNL     1       6.597   2.856   6.819  1.00  0.00     0.167 HD
ATOM     25  C   UNL     1       7.526  -1.196   8.242  1.00  0.00     0.034 A 
ATOM     26  C   UNL     1       6.747   5.650   6.844  1.00  0.00     0.034 A 
ATOM     27  C   UNL     1       8.225  -0.298   9.133  1.00  0.00     0.049 A 
ATOM     28  C   UNL     1       7.553   5.166   8.017  1.00  0.00     0.074 A 
ATOM     29  C   UNL     1       9.046  -0.610  10.204  1.00  0.00     0.029 A 
ATOM     30  N   UNL     1       8.180   1.089   9.064  1.00  0.00    -0.354 N 
ATOM     31  N   UNL     1       7.795   3.934   8.400  1.00  0.00    -0.248 NA
ATOM     32  C   UNL     1       8.165   6.197   8.863  1.00  0.00     0.031 C 
ATOM     33  C   UNL     1       9.444   0.584  10.819  1.00  0.00     0.029 A 
ATOM     34  C   UNL     1       8.931   1.646  10.091  1.00  0.00     0.049 A 
ATOM     35  H   UNL     1       7.687   1.603   8.384  1.00  0.00     0.167 HD
ATOM     36  C   UNL     1       8.604   4.042   9.526  1.00  0.00     0.074 A 
ATOM     37  C   UNL     1       8.825   5.459   9.743  1.00  0.00     0.031 C 
ATOM     38  C   UNL     1       9.120   3.061  10.309  1.00  0.00     0.034 A 
BRANCH  25  39
ATOM     39  C   UNL     1       7.591  -2.683   8.509  1.00  0.00     0.023 A 
ATOM     40  C   UNL     1       8.167  -3.579   7.592  1.00  0.00     0.031 A 
ATOM     41  C   UNL     1       7.040  -3.215   9.689  1.00  0.00     0.131 A 
ATOM     42  C   UNL     1       8.114  -4.962   7.833  1.00  0.00     0.055 A 
ATOM     43  C   UNL     1       7.060  -4.585   9.960  1.00  0.00     0.041 A 
ATOM     44  F   UNL     1       6.459  -2.413  10.595  1.00  0.00    -0.206 F 
ATOM     45  C   UNL     1       7.585  -5.469   9.022  1.00  0.00     0.022 A 
BRANCH  42  46
ATOM     46  S   UNL     1       8.611  -6.095   6.506  1.00  0.00     0.124 S 
ATOM     47  O   UNL     1       7.734  -5.675   5.415  1.00  0.00    -0.237 OA
ATOM     48  O   UNL     1      10.026  -5.787   6.343  1.00  0.00    -0.237 OA
ATOM     49  O   UNL     1       8.318  -7.417   7.056  1.00  0.00    -0.744 OA
ENDBRANCH  42  46
ENDBRANCH  25  39
BRANCH  26  50
ATOM     50  C   UNL     1       6.586   7.104   6.567  1.00  0.00     0.023 A 
ATOM     51  C   UNL     1       7.684   7.896   6.199  1.00  0.00     0.031 A 
ATOM     52  C   UNL     1       5.330   7.726   6.683  1.00  0.00     0.131 A 
ATOM     53  C   UNL     1       7.512   9.273   5.990  1.00  0.00     0.055 A 
ATOM     54  C   UNL     1       5.154   9.086   6.426  1.00  0.00     0.041 A 
ATOM     55  F   UNL     1       4.247   7.011   7.027  1.00  0.00    -0.206 F 
ATOM     56  C   UNL     1       6.253   9.870   6.087  1.00  0.00     0.022 A 
BRANCH  53  57
ATOM     57  S   UNL     1       8.975  10.289   5.651  1.00  0.00     0.124 S 
ATOM     58  O   UNL     1       9.793  10.037   6.832  1.00  0.00    -0.237 OA
ATOM     59  O   UNL     1       9.459   9.715   4.400  1.00  0.00    -0.237 OA
ATOM     60  O   UNL     1       8.432  11.641   5.544  1.00  0.00    -0.744 OA
ENDBRANCH  53  57
ENDBRANCH  26  50
BRANCH  38  61
ATOM     61  C   UNL     1       9.996   3.505  11.453  1.00  0.00     0.023 A 
ATOM     62  C   UNL     1       9.474   4.214  12.549  1.00  0.00     0.031 A 
ATOM     63  C   UNL     1      11.379   3.253  11.424  1.00  0.00     0.131 A 
ATOM     64  C   UNL     1      10.338   4.703  13.540  1.00  0.00     0.055 A 
ATOM     65  C   UNL     1      12.226   3.692  12.443  1.00  0.00     0.041 A 
ATOM     66  F   UNL     1      11.930   2.583  10.399  1.00  0.00    -0.206 F 
ATOM     67  C   UNL     1      11.709   4.435  13.501  1.00  0.00     0.022 A 
BRANCH  64  68
ATOM     68  S   UNL     1       9.661   5.785  14.829  1.00  0.00     0.124 S 
ATOM     69  O   UNL     1       9.087   6.873  14.043  1.00  0.00    -0.237 OA
ATOM     70  O   UNL     1       8.705   4.910  15.500  1.00  0.00    -0.237 OA
ATOM     71  O   UNL     1      10.833   6.147  15.624  1.00  0.00    -0.744 OA
ENDBRANCH  64  68
ENDBRANCH  38  61
ENDBRANCH  12  13
ENDBRANCH   5   7
ENDBRANCH   2   3
ENDBRANCH   1   2
BRANCH   1  72
ATOM     72  C   UNL     1       4.319  -2.546  -2.887  1.00  0.00     0.023 C 
BRANCH  72  73
ATOM     73  C   UNL     1       4.833  -1.571  -3.945  1.00  0.00     0.116 C 
BRANCH  73  74
ATOM     74  N   UNL     1       6.275  -1.653  -4.103  1.00  0.00    -0.349 N 
ATOM     75  C   UNL     1       6.997  -2.134  -5.178  1.00  0.00     0.292 C 
ATOM     76  H   UNL     1       6.808  -1.323  -3.343  1.00  0.00     0.163 HD
ATOM     77  O   UNL     1       8.209  -2.306  -5.043  1.00  0.00    -0.266 OA
BRANCH  75  78
ATOM     78  C   UNL     1       6.286  -2.422  -6.429  1.00  0.00     0.260 A 
ATOM     79  N   UNL     1       6.529  -3.522  -7.167  1.00  0.00    -0.051 NA
ATOM     80  N   UNL     1       5.287  -1.612  -6.946  1.00  0.00    -0.182 NA
ATOM     81  O   UNL     1       5.583  -3.446  -8.191  1.00  0.00    -0.333 OA
ATOM     82  C   UNL     1       4.890  -2.291  -7.991  1.00  0.00     0.259 A 
BRANCH  82  83
ATOM     83  C   UNL     1       3.808  -2.002  -8.912  1.00  0.00     0.052 A 
ATOM     84  C   UNL     1       2.770  -2.942  -9.046  1.00  0.00     0.014 A 
ATOM     85  C   UNL     1       3.731  -0.781  -9.611  1.00  0.00     0.068 A 
ATOM     86  C   UNL     1       1.660  -2.674  -9.845  1.00  0.00     0.001 A 
ATOM     87  C   UNL     1       2.598  -0.526 -10.409  1.00  0.00     0.014 A 
ATOM     88  C   UNL     1       1.572  -1.464 -10.524  1.00  0.00     0.001 A 
BRANCH  85  89
ATOM     89  C   UNL     1       4.804   0.280  -9.516  1.00  0.00     0.417 C 
ATOM     90  F   UNL     1       4.916   0.994 -10.677  1.00  0.00    -0.166 F 
ATOM     91  F   UNL     1       4.546   1.199  -8.548  1.00  0.00    -0.166 F 
ATOM     92  F   UNL     1       6.055  -0.198  -9.281  1.00  0.00    -0.166 F 
ENDBRANCH  85  89
ENDBRANCH  82  83
ENDBRANCH  75  78
ENDBRANCH  73  74
ENDBRANCH  72  73
ENDBRANCH   1  72
TORSDOF 16
