REMARK SMILES CC1(C)Oc2ccc(NC(=O)[C@H]3CC=CC[C@@H]3C(=O)NCCCCNC(=O)c3ccc(-c4c5nc(c(-c6cc(S(=O)(=O)[O-])ccc6F)c6ccc([nH]6)c(-c6cc(S(=O)(=O)[O-])ccc6F)c6nc(c(-c7cc(S(=O)(=O)[O-])ccc7F)c7ccc4[nH]7)C=C6)C=C5)cc3)cc2NC1=O
REMARK SMILES IDX 23 1 22 2 21 3 20 4 18 5 19 6 17 8 12 9 13 10 14 11 16 12
REMARK SMILES IDX 15 13 10 14 9 15 11 17 8 18 1 19 2 20 3 21 4 22 94 23 5 24
REMARK SMILES IDX 93 25 95 26 6 27 92 28 7 30 91 31 24 32 25 33 26 34 27 36
REMARK SMILES IDX 28 37 29 38 90 39 30 40 89 41 31 42 32 43 33 44 83 45 34 46
REMARK SMILES IDX 88 47 82 48 84 49 35 50 87 51 81 52 80 53 36 55 68 56 48 57
REMARK SMILES IDX 67 58 49 59 52 60 66 61 85 62 50 63 51 64 65 66 86 67 53 68
REMARK SMILES IDX 37 69 38 70 46 71 39 72 45 73 47 74 44 75 40 76 41 77 42 78
REMARK SMILES IDX 43 79 69 80 70 81 78 82 71 83 77 84 79 85 76 86 72 87 73 88
REMARK SMILES IDX 74 89 75 90 54 91 55 92 63 93 56 94 62 95 64 96 61 97 57 98
REMARK SMILES IDX 58 99 59 100 60 101
REMARK H PARENT 20 7 9 16 93 29 25 35 84 54 52 65
REMARK Flexibility Score: inf
ROOT
ATOM      1  C   UNL     1       2.556  -3.885   8.553  1.00  0.00     0.023 C 
ENDROOT
BRANCH   1   2
ATOM      2  C   UNL     1       1.231  -3.132   8.706  1.00  0.00     0.023 C 
BRANCH   2   3
ATOM      3  C   UNL     1       1.025  -2.374  10.018  1.00  0.00     0.116 C 
BRANCH   3   4
ATOM      4  N   UNL     1       2.144  -1.521  10.368  1.00  0.00    -0.356 N 
ATOM      5  C   UNL     1       2.198  -0.194  10.665  1.00  0.00     0.224 C 
ATOM      6  O   UNL     1       3.252   0.218  11.152  1.00  0.00    -0.275 OA
ATOM      7  H   UNL     1       3.014  -1.981  10.396  1.00  0.00     0.163 HD
BRANCH   5   8
ATOM      8  C   UNL     1       1.016   0.728  10.357  1.00  0.00     0.095 C 
ATOM      9  C   UNL     1       0.918   0.971   8.829  1.00  0.00     0.095 C 
ATOM     10  C   UNL     1       2.167   1.743   8.347  1.00  0.00     0.041 C 
ATOM     11  C   UNL     1       2.459   2.955   9.181  1.00  0.00    -0.030 C 
ATOM     12  C   UNL     1       1.164   2.062  11.132  1.00  0.00     0.041 C 
ATOM     13  C   UNL     1       1.985   3.108  10.425  1.00  0.00    -0.030 C 
BRANCH   9  14
ATOM     14  C   UNL     1      -0.375   1.734   8.478  1.00  0.00     0.228 C 
ATOM     15  N   UNL     1      -0.565   2.182   7.198  1.00  0.00    -0.326 N 
ATOM     16  H   UNL     1      -1.058   3.030   7.117  1.00  0.00     0.169 HD
ATOM     17  O   UNL     1      -1.226   2.025   9.321  1.00  0.00    -0.274 OA
BRANCH  15  18
ATOM     18  C   UNL     1      -0.161   1.606   5.987  1.00  0.00     0.043 A 
ATOM     19  C   UNL     1       1.181   0.120  -0.024  1.00  0.00     0.067 C 
ATOM     20  C   UNL     1       0.451   0.767   1.155  1.00  0.00     0.182 C 
ATOM     21  C   UNL     1      -1.060   0.784   0.858  1.00  0.00     0.067 C 
ATOM     22  O   UNL     1       0.685  -0.080   2.287  1.00  0.00    -0.476 OA
ATOM     23  C   UNL     1       0.922   2.231   1.327  1.00  0.00     0.268 C 
ATOM     24  C   UNL     1       0.432   0.518   3.491  1.00  0.00     0.144 A 
ATOM     25  N   UNL     1       0.746   2.736   2.592  1.00  0.00    -0.319 N 
ATOM     26  O   UNL     1       1.307   2.951   0.409  1.00  0.00    -0.270 OA
ATOM     27  C   UNL     1       0.197  -0.325   4.571  1.00  0.00     0.051 A 
ATOM     28  C   UNL     1       0.415   1.905   3.664  1.00  0.00     0.086 A 
ATOM     29  H   UNL     1       0.854   3.703   2.746  1.00  0.00     0.170 HD
ATOM     30  C   UNL     1      -0.103   0.219   5.820  1.00  0.00     0.030 A 
ATOM     31  C   UNL     1       0.094   2.454   4.904  1.00  0.00     0.056 A 
ENDBRANCH  15  18
ENDBRANCH   9  14
ENDBRANCH   5   8
ENDBRANCH   3   4
ENDBRANCH   2   3
ENDBRANCH   1   2
BRANCH   1  32
ATOM     32  C   UNL     1       2.930  -4.853   9.671  1.00  0.00     0.116 C 
BRANCH  32  33
ATOM     33  N   UNL     1       2.031  -5.989   9.796  1.00  0.00    -0.352 N 
ATOM     34  C   UNL     1       2.327  -7.325   9.972  1.00  0.00     0.251 C 
ATOM     35  H   UNL     1       1.071  -5.773   9.748  1.00  0.00     0.163 HD
ATOM     36  O   UNL     1       1.414  -8.147   9.979  1.00  0.00    -0.269 OA
BRANCH  34  37
ATOM     37  C   UNL     1       3.737  -7.777  10.092  1.00  0.00     0.039 A 
ATOM     38  C   UNL     1       4.660  -7.081  10.873  1.00  0.00     0.014 A 
ATOM     39  C   UNL     1       4.152  -8.906   9.376  1.00  0.00     0.014 A 
ATOM     40  C   UNL     1       6.018  -7.382  10.774  1.00  0.00     0.010 A 
ATOM     41  C   UNL     1       5.507  -9.260   9.347  1.00  0.00     0.010 A 
ATOM     42  C   UNL     1       6.463  -8.457   9.986  1.00  0.00    -0.014 A 
BRANCH  42  43
ATOM     43  C   UNL     1       7.927  -8.683   9.815  1.00  0.00     0.031 A 
ATOM     44  C   UNL     1       8.579  -8.521   8.463  1.00  0.00     0.074 A 
ATOM     45  C   UNL     1       8.691  -8.957  10.891  1.00  0.00     0.049 A 
ATOM     46  N   UNL     1       9.848  -8.588   8.147  1.00  0.00    -0.248 NA
ATOM     47  C   UNL     1       7.695  -8.251   7.317  1.00  0.00     0.031 C 
ATOM     48  C   UNL     1       8.180  -9.145  12.248  1.00  0.00     0.029 A 
ATOM     49  N   UNL     1      10.052  -9.094  11.025  1.00  0.00    -0.354 N 
ATOM     50  C   UNL     1       9.914  -8.375   6.773  1.00  0.00     0.074 A 
ATOM     51  C   UNL     1       8.554  -8.225   6.307  1.00  0.00     0.031 C 
ATOM     52  C   UNL     1       9.213  -9.318  13.085  1.00  0.00     0.029 A 
ATOM     53  C   UNL     1      10.460  -9.307  12.322  1.00  0.00     0.049 A 
ATOM     54  H   UNL     1      10.675  -9.045  10.265  1.00  0.00     0.167 HD
ATOM     55  C   UNL     1      11.007  -8.289   5.977  1.00  0.00     0.034 A 
ATOM     56  C   UNL     1      11.693  -9.472  12.846  1.00  0.00     0.034 A 
ATOM     57  C   UNL     1      12.361  -8.425   6.450  1.00  0.00     0.049 A 
ATOM     58  C   UNL     1      12.895  -9.370  11.941  1.00  0.00     0.074 A 
ATOM     59  C   UNL     1      13.533  -8.356   5.716  1.00  0.00     0.029 A 
ATOM     60  N   UNL     1      12.730  -8.640   7.769  1.00  0.00    -0.354 N 
ATOM     61  N   UNL     1      12.936  -9.126  10.652  1.00  0.00    -0.248 NA
ATOM     62  C   UNL     1      14.217  -9.550  12.556  1.00  0.00     0.031 C 
ATOM     63  C   UNL     1      14.605  -8.577   6.582  1.00  0.00     0.029 A 
ATOM     64  C   UNL     1      14.109  -8.713   7.868  1.00  0.00     0.049 A 
ATOM     65  H   UNL     1      12.104  -8.727   8.524  1.00  0.00     0.167 HD
ATOM     66  C   UNL     1      14.285  -9.094  10.309  1.00  0.00     0.074 A 
ATOM     67  C   UNL     1      15.029  -9.321  11.530  1.00  0.00     0.031 C 
ATOM     68  C   UNL     1      14.851  -8.902   9.092  1.00  0.00     0.034 A 
BRANCH  55  69
ATOM     69  C   UNL     1      10.809  -8.010   4.506  1.00  0.00     0.023 A 
ATOM     70  C   UNL     1      11.211  -8.957   3.545  1.00  0.00     0.031 A 
ATOM     71  C   UNL     1      10.348  -6.760   4.056  1.00  0.00     0.131 A 
ATOM     72  C   UNL     1      11.178  -8.625   2.184  1.00  0.00     0.055 A 
ATOM     73  C   UNL     1      10.278  -6.450   2.697  1.00  0.00     0.041 A 
ATOM     74  F   UNL     1       9.950  -5.824   4.933  1.00  0.00    -0.206 F 
ATOM     75  C   UNL     1      10.707  -7.380   1.755  1.00  0.00     0.022 A 
BRANCH  72  76
ATOM     76  S   UNL     1      11.803  -9.768   0.922  1.00  0.00     0.124 S 
ATOM     77  O   UNL     1      10.619  -9.970   0.089  1.00  0.00    -0.237 OA
ATOM     78  O   UNL     1      12.873  -8.989   0.306  1.00  0.00    -0.237 OA
ATOM     79  O   UNL     1      12.231 -10.935   1.686  1.00  0.00    -0.744 OA
ENDBRANCH  72  76
ENDBRANCH  55  69
BRANCH  56  80
ATOM     80  C   UNL     1      11.832  -9.683  14.318  1.00  0.00     0.023 A 
ATOM     81  C   UNL     1      11.244 -10.798  14.944  1.00  0.00     0.031 A 
ATOM     82  C   UNL     1      12.454  -8.722  15.132  1.00  0.00     0.131 A 
ATOM     83  C   UNL     1      11.228 -10.886  16.342  1.00  0.00     0.055 A 
ATOM     84  C   UNL     1      12.502  -8.852  16.521  1.00  0.00     0.041 A 
ATOM     85  F   UNL     1      13.017  -7.633  14.585  1.00  0.00    -0.206 F 
ATOM     86  C   UNL     1      11.868  -9.929  17.134  1.00  0.00     0.022 A 
BRANCH  83  87
ATOM     87  S   UNL     1      10.246 -12.162  17.179  1.00  0.00     0.124 S 
ATOM     88  O   UNL     1      11.272 -12.914  17.894  1.00  0.00    -0.237 OA
ATOM     89  O   UNL     1       9.358 -11.356  18.014  1.00  0.00    -0.237 OA
ATOM     90  O   UNL     1       9.592 -12.868  16.083  1.00  0.00    -0.744 OA
ENDBRANCH  83  87
ENDBRANCH  56  80
BRANCH  68  91
ATOM     91  C   UNL     1      16.358  -8.895   8.979  1.00  0.00     0.023 A 
ATOM     92  C   UNL     1      17.020  -7.734   8.532  1.00  0.00     0.031 A 
ATOM     93  C   UNL     1      17.114 -10.067   9.150  1.00  0.00     0.131 A 
ATOM     94  C   UNL     1      18.388  -7.782   8.235  1.00  0.00     0.055 A 
ATOM     95  C   UNL     1      18.486 -10.097   8.895  1.00  0.00     0.041 A 
ATOM     96  F   UNL     1      16.526 -11.203   9.559  1.00  0.00    -0.206 F 
ATOM     97  C   UNL     1      19.125  -8.955   8.421  1.00  0.00     0.022 A 
BRANCH  94  98
ATOM     98  S   UNL     1      19.240  -6.354   7.508  1.00  0.00     0.124 S 
ATOM     99  O   UNL     1      20.235  -6.043   8.532  1.00  0.00    -0.237 OA
ATOM    100  O   UNL     1      19.774  -6.912   6.269  1.00  0.00    -0.237 OA
ATOM    101  O   UNL     1      18.185  -5.359   7.344  1.00  0.00    -0.744 OA
ENDBRANCH  94  98
ENDBRANCH  68  91
ENDBRANCH  42  43
ENDBRANCH  34  37
ENDBRANCH  32  33
ENDBRANCH   1  32
TORSDOF 16
