REMARK SMILES CC1=NN(c2ccc(Cl)cc2)C(=O)/C1=C/c1ccccc1OCC(=O)NCCCCNC(=O)c1ccc(-c2c3nc(c(-c4cc(S(=O)(=O)[O-])ccc4F)c4ccc([nH]4)c(-c4cc(S(=O)(=O)[O-])ccc4F)c4nc(c(-c5cc(S(=O)(=O)[O-])ccc5F)c5ccc2[nH]5)C=C4)C=C3)cc1
REMARK SMILES IDX 28 1 27 2 26 3 24 4 25 5 23 7 22 8 21 9 16 10 17 11 18 12
REMARK SMILES IDX 20 13 19 14 15 15 1 16 2 17 3 18 14 19 4 20 12 21 13 22 5 23
REMARK SMILES IDX 6 24 11 25 7 26 10 27 8 28 9 29 29 30 30 31 31 32 32 33
REMARK SMILES IDX 33 35 34 36 35 37 96 38 36 39 95 40 37 41 38 42 39 43 89 44
REMARK SMILES IDX 40 45 94 46 88 47 90 48 41 49 93 50 87 51 86 52 42 54 74 55
REMARK SMILES IDX 54 56 73 57 55 58 58 59 72 60 91 61 56 62 57 63 71 65 92 66
REMARK SMILES IDX 59 67 43 68 44 69 52 70 45 71 51 72 53 73 50 74 46 75 47 76
REMARK SMILES IDX 48 77 49 78 75 79 76 80 84 81 77 82 83 83 85 84 82 85 78 86
REMARK SMILES IDX 79 87 80 88 81 89 60 90 61 91 69 92 62 93 68 94 70 95 67 96
REMARK SMILES IDX 63 97 64 98 65 99 66 100
REMARK H PARENT 26 6 31 34 90 53 58 64
REMARK Flexibility Score: inf
ROOT
ATOM      1  C   UNL     1      -4.681  -0.258  -1.136  1.00  0.00     0.023 C 
ENDROOT
BRANCH   1   2
ATOM      2  C   UNL     1      -3.712   0.389  -2.122  1.00  0.00     0.116 C 
BRANCH   2   3
ATOM      3  N   UNL     1      -2.399   0.694  -1.594  1.00  0.00    -0.353 N 
ATOM      4  C   UNL     1      -1.211   0.162  -2.013  1.00  0.00     0.257 C 
ATOM      5  O   UNL     1      -0.193   0.849  -1.910  1.00  0.00    -0.271 OA
ATOM      6  H   UNL     1      -2.357   1.349  -0.861  1.00  0.00     0.163 HD
BRANCH   4   7
ATOM      7  C   UNL     1      -1.146  -1.236  -2.632  1.00  0.00     0.329 C 
BRANCH   7   8
ATOM      8  O   UNL     1      -2.086  -2.186  -2.180  1.00  0.00    -0.483 OA
BRANCH   8   9
ATOM      9  C   UNL     1      -1.873  -3.026  -1.126  1.00  0.00     0.127 A 
ATOM     10  C   UNL     1      -0.863  -3.046  -0.148  1.00  0.00     0.017 A 
ATOM     11  C   UNL     1      -0.913  -4.025   0.866  1.00  0.00     0.012 A 
ATOM     12  C   UNL     1      -1.940  -4.969   0.915  1.00  0.00     0.001 A 
ATOM     13  C   UNL     1      -2.895  -3.991  -1.059  1.00  0.00     0.047 A 
ATOM     14  C   UNL     1      -2.932  -4.955  -0.054  1.00  0.00     0.004 A 
BRANCH  10  15
ATOM     15  C   UNL     1       0.282  -2.139  -0.087  1.00  0.00     0.027 C 
ATOM     16  C   UNL     1      -1.898  -0.705   1.868  1.00  0.00     0.069 C 
ATOM     17  C   UNL     1      -0.611  -0.174   1.340  1.00  0.00     0.071 C 
ATOM     18  N   UNL     1      -0.205   1.054   1.531  1.00  0.00    -0.169 NA
ATOM     19  C   UNL     1       0.340  -0.957   0.538  1.00  0.00     0.066 C 
ATOM     20  N   UNL     1       1.019   1.163   0.865  1.00  0.00    -0.196 N 
ATOM     21  C   UNL     1       1.487  -0.042   0.316  1.00  0.00     0.280 C 
ATOM     22  O   UNL     1       2.526  -0.340  -0.239  1.00  0.00    -0.267 OA
BRANCH  20  23
ATOM     23  C   UNL     1       1.559   2.452   0.646  1.00  0.00     0.069 A 
ATOM     24  C   UNL     1       2.471   2.684  -0.395  1.00  0.00     0.030 A 
ATOM     25  C   UNL     1       1.139   3.545   1.419  1.00  0.00     0.030 A 
ATOM     26  C   UNL     1       2.953   3.970  -0.658  1.00  0.00     0.023 A 
ATOM     27  C   UNL     1       1.639   4.830   1.174  1.00  0.00     0.023 A 
ATOM     28  C   UNL     1       2.541   5.037   0.134  1.00  0.00     0.041 A 
ATOM     29  Cl  UNL     1       3.146   6.616  -0.183  1.00  0.00    -0.084 Cl
ENDBRANCH  20  23
ENDBRANCH  10  15
ENDBRANCH   8   9
ENDBRANCH   7   8
ENDBRANCH   4   7
ENDBRANCH   2   3
ENDBRANCH   1   2
BRANCH   1  30
ATOM     30  C   UNL     1      -5.022   0.518   0.139  1.00  0.00     0.023 C 
BRANCH  30  31
ATOM     31  C   UNL     1      -5.275   2.013   0.007  1.00  0.00     0.116 C 
BRANCH  31  32
ATOM     32  N   UNL     1      -6.387   2.320  -0.871  1.00  0.00    -0.352 N 
ATOM     33  C   UNL     1      -7.501   3.093  -0.650  1.00  0.00     0.251 C 
ATOM     34  H   UNL     1      -6.335   1.911  -1.764  1.00  0.00     0.163 HD
ATOM     35  O   UNL     1      -8.398   3.081  -1.491  1.00  0.00    -0.269 OA
BRANCH  33  36
ATOM     36  C   UNL     1      -7.651   3.908   0.582  1.00  0.00     0.039 A 
ATOM     37  C   UNL     1      -8.919   3.997   1.166  1.00  0.00     0.014 A 
ATOM     38  C   UNL     1      -6.587   4.624   1.138  1.00  0.00     0.014 A 
ATOM     39  C   UNL     1      -9.109   4.763   2.321  1.00  0.00     0.010 A 
ATOM     40  C   UNL     1      -6.763   5.330   2.333  1.00  0.00     0.010 A 
ATOM     41  C   UNL     1      -8.028   5.419   2.932  1.00  0.00    -0.014 A 
BRANCH  41  42
ATOM     42  C   UNL     1      -8.222   6.209   4.181  1.00  0.00     0.031 A 
ATOM     43  C   UNL     1      -7.983   7.699   4.186  1.00  0.00     0.074 A 
ATOM     44  C   UNL     1      -8.582   5.582   5.321  1.00  0.00     0.049 A 
ATOM     45  N   UNL     1      -8.077   8.549   5.178  1.00  0.00    -0.248 NA
ATOM     46  C   UNL     1      -7.559   8.309   2.917  1.00  0.00     0.031 C 
ATOM     47  C   UNL     1      -8.801   4.140   5.457  1.00  0.00     0.029 A 
ATOM     48  N   UNL     1      -8.822   6.070   6.582  1.00  0.00    -0.354 N 
ATOM     49  C   UNL     1      -7.703   9.786   4.660  1.00  0.00     0.074 A 
ATOM     50  C   UNL     1      -7.339   9.566   3.276  1.00  0.00     0.031 C 
ATOM     51  C   UNL     1      -9.166   3.866   6.720  1.00  0.00     0.029 A 
ATOM     52  C   UNL     1      -9.166   5.100   7.498  1.00  0.00     0.049 A 
ATOM     53  H   UNL     1      -8.755   7.025   6.811  1.00  0.00     0.167 HD
ATOM     54  C   UNL     1      -7.679  10.994   5.276  1.00  0.00     0.034 A 
ATOM     55  C   UNL     1      -9.441   5.192   8.816  1.00  0.00     0.034 A 
ATOM     56  C   UNL     1      -8.075  11.204   6.648  1.00  0.00     0.049 A 
ATOM     57  C   UNL     1      -9.421   6.553   9.470  1.00  0.00     0.074 A 
ATOM     58  C   UNL     1      -8.163  12.399   7.343  1.00  0.00     0.029 A 
ATOM     59  N   UNL     1      -8.438  10.202   7.538  1.00  0.00    -0.354 N 
ATOM     60  N   UNL     1      -9.140   7.722   8.940  1.00  0.00    -0.248 NA
ATOM     61  C   UNL     1      -9.776   6.609  10.893  1.00  0.00     0.031 C 
ATOM     62  C   UNL     1      -8.506  12.113   8.669  1.00  0.00     0.029 A 
ATOM     63  C   UNL     1      -8.719  10.749   8.782  1.00  0.00     0.049 A 
ATOM     64  H   UNL     1      -8.489   9.244   7.318  1.00  0.00     0.167 HD
ATOM     65  C   UNL     1      -9.330   8.654   9.959  1.00  0.00     0.074 A 
ATOM     66  C   UNL     1      -9.770   7.913  11.121  1.00  0.00     0.031 C 
ATOM     67  C   UNL     1      -9.159  10.001   9.935  1.00  0.00     0.034 A 
BRANCH  54  68
ATOM     68  C   UNL     1      -7.183  12.183   4.486  1.00  0.00     0.023 A 
ATOM     69  C   UNL     1      -7.867  12.671   3.360  1.00  0.00     0.031 A 
ATOM     70  C   UNL     1      -6.011  12.852   4.886  1.00  0.00     0.131 A 
ATOM     71  C   UNL     1      -7.348  13.761   2.643  1.00  0.00     0.055 A 
ATOM     72  C   UNL     1      -5.540  13.981   4.212  1.00  0.00     0.041 A 
ATOM     73  F   UNL     1      -5.304  12.420   5.942  1.00  0.00    -0.206 F 
ATOM     74  C   UNL     1      -6.204  14.436   3.077  1.00  0.00     0.022 A 
BRANCH  71  75
ATOM     75  S   UNL     1      -8.128  14.221   1.072  1.00  0.00     0.124 S 
ATOM     76  O   UNL     1      -7.962  12.998   0.290  1.00  0.00    -0.237 OA
ATOM     77  O   UNL     1      -9.492  14.540   1.477  1.00  0.00    -0.237 OA
ATOM     78  O   UNL     1      -7.332  15.358   0.613  1.00  0.00    -0.744 OA
ENDBRANCH  71  75
ENDBRANCH  54  68
BRANCH  55  79
ATOM     79  C   UNL     1      -9.749   3.973   9.623  1.00  0.00     0.023 A 
ATOM     80  C   UNL     1     -10.983   3.827  10.277  1.00  0.00     0.031 A 
ATOM     81  C   UNL     1      -8.779   2.974   9.825  1.00  0.00     0.131 A 
ATOM     82  C   UNL     1     -11.188   2.754  11.159  1.00  0.00     0.055 A 
ATOM     83  C   UNL     1      -9.013   1.872  10.650  1.00  0.00     0.041 A 
ATOM     84  F   UNL     1      -7.581   3.058   9.223  1.00  0.00    -0.206 F 
ATOM     85  C   UNL     1     -10.216   1.768  11.339  1.00  0.00     0.022 A 
BRANCH  82  86
ATOM     86  S   UNL     1     -12.694   2.739  12.172  1.00  0.00     0.124 S 
ATOM     87  O   UNL     1     -12.628   4.043  12.821  1.00  0.00    -0.237 OA
ATOM     88  O   UNL     1     -13.734   2.576  11.162  1.00  0.00    -0.237 OA
ATOM     89  O   UNL     1     -12.498   1.590  13.054  1.00  0.00    -0.744 OA
ENDBRANCH  82  86
ENDBRANCH  55  79
BRANCH  67  90
ATOM     90  C   UNL     1      -9.516  10.760  11.193  1.00  0.00     0.023 A 
ATOM     91  C   UNL     1      -8.824  10.567  12.402  1.00  0.00     0.031 A 
ATOM     92  C   UNL     1     -10.595  11.663  11.189  1.00  0.00     0.131 A 
ATOM     93  C   UNL     1      -9.268  11.202  13.571  1.00  0.00     0.055 A 
ATOM     94  C   UNL     1     -10.984  12.350  12.339  1.00  0.00     0.041 A 
ATOM     95  F   UNL     1     -11.294  11.888  10.065  1.00  0.00    -0.206 F 
ATOM     96  C   UNL     1     -10.332  12.106  13.544  1.00  0.00     0.022 A 
BRANCH  93  97
ATOM     97  S   UNL     1      -8.519  10.730  15.155  1.00  0.00     0.124 S 
ATOM     98  O   UNL     1      -8.719   9.285  15.167  1.00  0.00    -0.237 OA
ATOM     99  O   UNL     1      -7.141  11.181  14.994  1.00  0.00    -0.237 OA
ATOM    100  O   UNL     1      -9.303  11.473  16.140  1.00  0.00    -0.744 OA
ENDBRANCH  93  97
ENDBRANCH  67  90
ENDBRANCH  41  42
ENDBRANCH  33  36
ENDBRANCH  31  32
ENDBRANCH  30  31
ENDBRANCH   1  30
TORSDOF 18
