REMARK SMILES [NH3+][C@@H](Cc1c[nH]c2ccccc12)C(=O)N[C@@H](CS)C(=O)N[C@@H](CO)C(=O)NCCCCNC(=O)c1ccc(-c2c3nc(c(-c4cc(S(=O)(=O)[O-])ccc4F)c4ccc([nH]4)c(-c4cc(S(=O)(=O)[O-])ccc4F)c4nc(c(-c5cc(S(=O)(=O)[O-])ccc5F)c5ccc2[nH]5)C=C4)C=C3)cc1
REMARK SMILES IDX 28 1 27 2 25 3 26 4 22 6 21 7 19 8 20 9 16 11 15 12 13 13
REMARK SMILES IDX 14 14 2 16 1 17 3 21 4 22 5 23 12 24 6 25 7 26 11 27 8 29
REMARK SMILES IDX 10 30 9 31 17 32 18 33 23 35 24 36 29 38 30 39 31 40 32 41
REMARK SMILES IDX 33 42 34 44 35 45 36 46 97 47 37 48 96 49 38 50 39 51 40 52
REMARK SMILES IDX 90 53 41 54 95 55 89 56 91 57 42 58 94 59 88 60 87 61 43 63
REMARK SMILES IDX 75 64 55 65 74 66 56 67 59 68 73 69 92 70 57 71 58 72 72 74
REMARK SMILES IDX 93 75 60 76 44 77 45 78 53 79 46 80 52 81 54 82 51 83 47 84
REMARK SMILES IDX 48 85 49 86 50 87 76 88 77 89 85 90 78 91 84 92 86 93 83 94
REMARK SMILES IDX 79 95 80 96 81 97 82 98 61 99 62 100 70 101 63 102 69 103
REMARK SMILES IDX 71 104 68 105 64 106 65 107 66 108 67 109
REMARK H PARENT 27 5 21 10 15 15 1 18 1 19 1 20 6 28 18 34 24 37 32 43 91 62
REMARK H PARENT 59 73
REMARK Flexibility Score: inf
ROOT
ATOM      1  C   UNL     1      -5.213   5.689   2.187  1.00  0.00     0.116 C 
ENDROOT
BRANCH   1   2
ATOM      2  N   UNL     1      -5.331   5.301   0.794  1.00  0.00    -0.354 N 
ATOM      3  C   UNL     1      -5.099   4.113   0.175  1.00  0.00     0.244 C 
ATOM      4  O   UNL     1      -5.485   3.994  -0.994  1.00  0.00    -0.273 OA
ATOM      5  H   UNL     1      -5.630   6.022   0.195  1.00  0.00     0.163 HD
BRANCH   3   6
ATOM      6  C   UNL     1      -4.456   2.908   0.876  1.00  0.00     0.197 C 
BRANCH   6   7
ATOM      7  N   UNL     1      -3.205   3.224   1.551  1.00  0.00    -0.340 N 
ATOM      8  C   UNL     1      -1.998   2.626   1.516  1.00  0.00     0.244 C 
ATOM      9  O   UNL     1      -1.304   2.812   2.522  1.00  0.00    -0.273 OA
ATOM     10  H   UNL     1      -3.249   4.015   2.136  1.00  0.00     0.164 HD
BRANCH   8  11
ATOM     11  C   UNL     1      -1.543   1.642   0.422  1.00  0.00     0.181 C 
BRANCH  11  12
ATOM     12  N   UNL     1      -1.665   0.287   0.928  1.00  0.00    -0.338 N 
ATOM     13  C   UNL     1      -0.718  -0.459   1.571  1.00  0.00     0.279 C 
ATOM     14  O   UNL     1      -1.135  -1.398   2.259  1.00  0.00    -0.268 OA
ATOM     15  H   UNL     1      -2.538  -0.148   0.791  1.00  0.00     0.164 HD
BRANCH  13  16
ATOM     16  C   UNL     1       0.815  -0.221   1.397  1.00  0.00     0.275 C 
BRANCH  16  17
ATOM     17  N   UNL     1       1.217  -0.402  -0.014  1.00  0.00    -0.347 N 
ATOM     18  H   UNL     1       2.220  -0.243  -0.105  1.00  0.00     0.345 HD
ATOM     19  H   UNL     1       0.712   0.263  -0.599  1.00  0.00     0.345 HD
ATOM     20  H   UNL     1       0.995  -1.353  -0.311  1.00  0.00     0.345 HD
ENDBRANCH  16  17
BRANCH  16  21
ATOM     21  C   UNL     1       1.470   0.935   2.191  1.00  0.00     0.113 C 
BRANCH  21  22
ATOM     22  C   UNL     1       1.670   2.314   1.596  1.00  0.00    -0.016 A 
ATOM     23  C   UNL     1       1.678   2.746   0.280  1.00  0.00     0.087 A 
ATOM     24  C   UNL     1       1.934   3.494   2.385  1.00  0.00     0.003 A 
ATOM     25  N   UNL     1       1.672   4.118   0.270  1.00  0.00    -0.361 N 
ATOM     26  C   UNL     1       1.853   4.600   1.541  1.00  0.00     0.046 A 
ATOM     27  C   UNL     1       2.202   3.721   3.752  1.00  0.00     0.010 A 
ATOM     28  H   UNL     1       1.555   4.675  -0.533  1.00  0.00     0.166 HD
ATOM     29  C   UNL     1       1.950   5.920   1.998  1.00  0.00     0.026 A 
ATOM     30  C   UNL     1       2.365   5.032   4.218  1.00  0.00     0.001 A 
ATOM     31  C   UNL     1       2.217   6.114   3.356  1.00  0.00     0.002 A 
ENDBRANCH  21  22
ENDBRANCH  16  21
ENDBRANCH  13  16
ENDBRANCH  11  12
BRANCH  11  32
ATOM     32  C   UNL     1      -1.940   1.914  -1.038  1.00  0.00     0.101 C 
BRANCH  32  33
ATOM     33  S   UNL     1      -2.839   0.580  -1.903  1.00  0.00    -0.177 SA
ATOM     34  H   UNL     1      -2.038  -0.515  -2.004  1.00  0.00     0.102 HD
ENDBRANCH  32  33
ENDBRANCH  11  32
ENDBRANCH   8  11
ENDBRANCH   6   7
BRANCH   6  35
ATOM     35  C   UNL     1      -5.433   2.157   1.791  1.00  0.00     0.191 C 
BRANCH  35  36
ATOM     36  O   UNL     1      -5.492   2.703   3.106  1.00  0.00    -0.394 OA
ATOM     37  H   UNL     1      -4.619   2.636   3.524  1.00  0.00     0.210 HD
ENDBRANCH  35  36
ENDBRANCH   6  35
ENDBRANCH   3   6
ENDBRANCH   1   2
BRANCH   1  38
ATOM     38  C   UNL     1      -4.392   6.963   2.370  1.00  0.00     0.023 C 
BRANCH  38  39
ATOM     39  C   UNL     1      -5.001   8.220   1.748  1.00  0.00     0.023 C 
BRANCH  39  40
ATOM     40  C   UNL     1      -6.477   8.452   2.051  1.00  0.00     0.116 C 
BRANCH  40  41
ATOM     41  N   UNL     1      -6.779   8.466   3.475  1.00  0.00    -0.352 N 
ATOM     42  C   UNL     1      -7.577   9.344   4.176  1.00  0.00     0.251 C 
ATOM     43  H   UNL     1      -6.357   7.754   4.009  1.00  0.00     0.163 HD
ATOM     44  O   UNL     1      -7.665   9.270   5.391  1.00  0.00    -0.269 OA
BRANCH  42  45
ATOM     45  C   UNL     1      -8.276  10.408   3.427  1.00  0.00     0.039 A 
ATOM     46  C   UNL     1      -8.040  11.739   3.775  1.00  0.00     0.014 A 
ATOM     47  C   UNL     1      -9.067  10.086   2.321  1.00  0.00     0.014 A 
ATOM     48  C   UNL     1      -8.514  12.756   2.947  1.00  0.00     0.010 A 
ATOM     49  C   UNL     1      -9.481  11.099   1.463  1.00  0.00     0.010 A 
ATOM     50  C   UNL     1      -9.186  12.440   1.754  1.00  0.00    -0.014 A 
BRANCH  50  51
ATOM     51  C   UNL     1      -9.543  13.490   0.767  1.00  0.00     0.031 A 
ATOM     52  C   UNL     1     -10.985  13.759   0.446  1.00  0.00     0.074 A 
ATOM     53  C   UNL     1      -8.563  14.125   0.092  1.00  0.00     0.049 A 
ATOM     54  N   UNL     1     -11.496  14.535  -0.473  1.00  0.00    -0.248 NA
ATOM     55  C   UNL     1     -11.981  13.033   1.248  1.00  0.00     0.031 C 
ATOM     56  C   UNL     1      -7.126  13.917   0.292  1.00  0.00     0.029 A 
ATOM     57  N   UNL     1      -8.624  15.058  -0.912  1.00  0.00    -0.354 N 
ATOM     58  C   UNL     1     -12.874  14.384  -0.370  1.00  0.00     0.074 A 
ATOM     59  C   UNL     1     -13.112  13.399   0.664  1.00  0.00     0.031 C 
ATOM     60  C   UNL     1      -6.445  14.706  -0.554  1.00  0.00     0.029 A 
ATOM     61  C   UNL     1      -7.390  15.437  -1.391  1.00  0.00     0.049 A 
ATOM     62  H   UNL     1      -9.470  15.422  -1.258  1.00  0.00     0.167 HD
ATOM     63  C   UNL     1     -13.848  15.023  -1.063  1.00  0.00     0.034 A 
ATOM     64  C   UNL     1      -7.058  16.259  -2.407  1.00  0.00     0.034 A 
ATOM     65  C   UNL     1     -13.590  16.009  -2.083  1.00  0.00     0.049 A 
ATOM     66  C   UNL     1      -8.159  16.918  -3.197  1.00  0.00     0.074 A 
ATOM     67  C   UNL     1     -14.499  16.777  -2.789  1.00  0.00     0.029 A 
ATOM     68  N   UNL     1     -12.329  16.353  -2.554  1.00  0.00    -0.354 N 
ATOM     69  N   UNL     1      -9.459  16.809  -3.047  1.00  0.00    -0.248 NA
ATOM     70  C   UNL     1      -7.749  17.805  -4.293  1.00  0.00     0.031 C 
ATOM     71  C   UNL     1     -13.794  17.534  -3.733  1.00  0.00     0.029 A 
ATOM     72  C   UNL     1     -12.439  17.288  -3.572  1.00  0.00     0.049 A 
ATOM     73  H   UNL     1     -11.481  15.986  -2.215  1.00  0.00     0.167 HD
ATOM     74  C   UNL     1     -10.021  17.629  -4.021  1.00  0.00     0.074 A 
ATOM     75  C   UNL     1      -8.920  18.236  -4.740  1.00  0.00     0.031 C 
ATOM     76  C   UNL     1     -11.330  17.862  -4.295  1.00  0.00     0.034 A 
BRANCH  63  77
ATOM     77  C   UNL     1     -15.277  14.651  -0.753  1.00  0.00     0.023 A 
ATOM     78  C   UNL     1     -15.841  14.885   0.513  1.00  0.00     0.031 A 
ATOM     79  C   UNL     1     -16.078  14.029  -1.727  1.00  0.00     0.131 A 
ATOM     80  C   UNL     1     -17.138  14.433   0.796  1.00  0.00     0.055 A 
ATOM     81  C   UNL     1     -17.396  13.652  -1.463  1.00  0.00     0.041 A 
ATOM     82  F   UNL     1     -15.587  13.763  -2.947  1.00  0.00    -0.206 F 
ATOM     83  C   UNL     1     -17.929  13.839  -0.191  1.00  0.00     0.022 A 
BRANCH  80  84
ATOM     84  S   UNL     1     -17.725  14.508   2.510  1.00  0.00     0.124 S 
ATOM     85  O   UNL     1     -16.726  13.694   3.199  1.00  0.00    -0.237 OA
ATOM     86  O   UNL     1     -17.689  15.938   2.793  1.00  0.00    -0.237 OA
ATOM     87  O   UNL     1     -19.060  13.917   2.442  1.00  0.00    -0.744 OA
ENDBRANCH  80  84
ENDBRANCH  63  77
BRANCH  64  88
ATOM     88  C   UNL     1      -5.628  16.479  -2.763  1.00  0.00     0.023 A 
ATOM     89  C   UNL     1      -5.033  17.741  -2.614  1.00  0.00     0.031 A 
ATOM     90  C   UNL     1      -4.845  15.438  -3.294  1.00  0.00     0.131 A 
ATOM     91  C   UNL     1      -3.706  17.942  -3.027  1.00  0.00     0.055 A 
ATOM     92  C   UNL     1      -3.511  15.631  -3.660  1.00  0.00     0.041 A 
ATOM     93  F   UNL     1      -5.364  14.210  -3.452  1.00  0.00    -0.206 F 
ATOM     94  C   UNL     1      -2.938  16.893  -3.538  1.00  0.00     0.022 A 
BRANCH  91  95
ATOM     95  S   UNL     1      -3.018  19.619  -2.955  1.00  0.00     0.124 S 
ATOM     96  O   UNL     1      -3.945  20.358  -3.804  1.00  0.00    -0.237 OA
ATOM     97  O   UNL     1      -3.082  19.910  -1.527  1.00  0.00    -0.237 OA
ATOM     98  O   UNL     1      -1.670  19.456  -3.495  1.00  0.00    -0.744 OA
ENDBRANCH  91  95
ENDBRANCH  64  88
BRANCH  76  99
ATOM     99  C   UNL     1     -11.631  18.829  -5.411  1.00  0.00     0.023 A 
ATOM    100  C   UNL     1     -11.375  18.502  -6.753  1.00  0.00     0.031 A 
ATOM    101  C   UNL     1     -12.181  20.091  -5.127  1.00  0.00     0.131 A 
ATOM    102  C   UNL     1     -11.632  19.442  -7.761  1.00  0.00     0.055 A 
ATOM    103  C   UNL     1     -12.484  21.003  -6.138  1.00  0.00     0.041 A 
ATOM    104  F   UNL     1     -12.442  20.453  -3.861  1.00  0.00    -0.206 F 
ATOM    105  C   UNL     1     -12.201  20.684  -7.464  1.00  0.00     0.022 A 
BRANCH 102 106
ATOM    106  S   UNL     1     -11.158  19.046  -9.466  1.00  0.00     0.124 S 
ATOM    107  O   UNL     1      -9.709  18.912  -9.354  1.00  0.00    -0.237 OA
ATOM    108  O   UNL     1     -11.895  17.811  -9.718  1.00  0.00    -0.237 OA
ATOM    109  O   UNL     1     -11.617  20.205 -10.229  1.00  0.00    -0.744 OA
ENDBRANCH 102 106
ENDBRANCH  76  99
ENDBRANCH  50  51
ENDBRANCH  42  45
ENDBRANCH  40  41
ENDBRANCH  39  40
ENDBRANCH  38  39
ENDBRANCH   1  38
TORSDOF 25
