REMARK SMILES O=C(NCCCCNC(=O)c1ccn(-c2cc(-c3ccncc3)nc(-c3ccccc3F)n2)n1)c1ccc(-c2c3nc(c(-c4cc(S(=O)(=O)[O-])ccc4F)c4ccc([nH]4)c(-c4cc(S(=O)(=O)[O-])ccc4F)c4nc(c(-c5cc(S(=O)(=O)[O-])ccc5F)c5ccc2[nH]5)C=C4)C=C3)cc1
REMARK SMILES IDX 5 1 4 2 3 3 1 4 2 5 35 7 36 8 97 9 37 10 96 11 38 12 39 13
REMARK SMILES IDX 40 14 90 15 41 16 95 17 89 18 91 19 42 20 94 21 88 22 87 23
REMARK SMILES IDX 43 25 75 26 55 27 74 28 56 29 59 30 73 31 92 32 57 33 58 34
REMARK SMILES IDX 72 36 93 37 60 38 44 39 45 40 53 41 46 42 52 43 54 44 51 45
REMARK SMILES IDX 47 46 48 47 49 48 50 49 76 50 77 51 85 52 78 53 84 54 86 55
REMARK SMILES IDX 83 56 79 57 80 58 81 59 82 60 61 61 62 62 70 63 63 64 69 65
REMARK SMILES IDX 71 66 68 67 64 68 65 69 66 70 67 71 6 72 7 73 8 74 9 75
REMARK SMILES IDX 10 77 11 78 12 79 34 80 13 81 14 82 15 83 16 84 33 85 17 86
REMARK SMILES IDX 25 87 24 88 18 89 19 90 23 91 20 92 22 93 21 94 26 95 27 96
REMARK SMILES IDX 31 97 28 98 30 99 32 100 29 101
REMARK H PARENT 3 6 91 24 59 35 8 76
REMARK Flexibility Score: inf
ROOT
ATOM      1  C   UNL     1       4.863  -0.736  -2.176  1.00  0.00     0.023 C 
ENDROOT
BRANCH   1   2
ATOM      2  C   UNL     1       4.742   0.489  -1.269  1.00  0.00     0.116 C 
BRANCH   2   3
ATOM      3  N   UNL     1       3.392   0.970  -1.064  1.00  0.00    -0.352 N 
ATOM      4  O   UNL     1       1.344   1.261  -0.276  1.00  0.00    -0.269 OA
ATOM      5  C   UNL     1       2.339   0.533  -0.306  1.00  0.00     0.251 C 
ATOM      6  H   UNL     1       3.188   1.783  -1.579  1.00  0.00     0.163 HD
BRANCH   5   7
ATOM      7  C   UNL     1       2.306  -0.773   0.405  1.00  0.00     0.039 A 
ATOM      8  C   UNL     1       3.428  -1.526   0.758  1.00  0.00     0.014 A 
ATOM      9  C   UNL     1       1.032  -1.277   0.712  1.00  0.00     0.014 A 
ATOM     10  C   UNL     1       3.289  -2.807   1.279  1.00  0.00     0.010 A 
ATOM     11  C   UNL     1       0.887  -2.539   1.278  1.00  0.00     0.010 A 
ATOM     12  C   UNL     1       2.018  -3.324   1.513  1.00  0.00    -0.014 A 
BRANCH  12  13
ATOM     13  C   UNL     1       1.912  -4.664   2.090  1.00  0.00     0.031 A 
ATOM     14  C   UNL     1       2.395  -4.830   3.500  1.00  0.00     0.074 A 
ATOM     15  C   UNL     1       1.226  -5.640   1.462  1.00  0.00     0.049 A 
ATOM     16  N   UNL     1       3.117  -5.776   4.017  1.00  0.00    -0.248 NA
ATOM     17  C   UNL     1       2.048  -3.764   4.458  1.00  0.00     0.031 C 
ATOM     18  C   UNL     1       0.452  -5.525   0.222  1.00  0.00     0.029 A 
ATOM     19  N   UNL     1       0.936  -6.899   1.893  1.00  0.00    -0.354 N 
ATOM     20  C   UNL     1       3.184  -5.515   5.387  1.00  0.00     0.074 A 
ATOM     21  C   UNL     1       2.587  -4.220   5.587  1.00  0.00     0.031 C 
ATOM     22  C   UNL     1      -0.419  -6.554   0.153  1.00  0.00     0.029 A 
ATOM     23  C   UNL     1      -0.182  -7.447   1.275  1.00  0.00     0.049 A 
ATOM     24  H   UNL     1       1.465  -7.374   2.575  1.00  0.00     0.167 HD
ATOM     25  C   UNL     1       3.600  -6.426   6.312  1.00  0.00     0.034 A 
ATOM     26  C   UNL     1      -0.937  -8.480   1.730  1.00  0.00     0.034 A 
ATOM     27  C   UNL     1       4.374  -7.486   5.736  1.00  0.00     0.049 A 
ATOM     28  C   UNL     1      -0.107  -9.240   2.696  1.00  0.00     0.074 A 
ATOM     29  C   UNL     1       5.576  -7.543   5.056  1.00  0.00     0.029 A 
ATOM     30  N   UNL     1       3.776  -8.703   5.517  1.00  0.00    -0.354 N 
ATOM     31  N   UNL     1       0.985  -9.879   2.378  1.00  0.00    -0.248 NA
ATOM     32  C   UNL     1      -0.258  -8.936   4.111  1.00  0.00     0.031 C 
ATOM     33  C   UNL     1       5.388  -8.549   4.064  1.00  0.00     0.029 A 
ATOM     34  C   UNL     1       4.103  -9.065   4.232  1.00  0.00     0.049 A 
ATOM     35  H   UNL     1       3.225  -9.213   6.153  1.00  0.00     0.167 HD
ATOM     36  C   UNL     1       1.835  -9.698   3.457  1.00  0.00     0.074 A 
ATOM     37  C   UNL     1       0.983  -9.195   4.531  1.00  0.00     0.031 C 
ATOM     38  C   UNL     1       3.193  -9.712   3.310  1.00  0.00     0.034 A 
BRANCH  25  39
ATOM     39  C   UNL     1       3.112  -6.453   7.737  1.00  0.00     0.023 A 
ATOM     40  C   UNL     1       3.822  -7.179   8.712  1.00  0.00     0.031 A 
ATOM     41  C   UNL     1       1.834  -5.981   8.115  1.00  0.00     0.131 A 
ATOM     42  C   UNL     1       3.260  -7.407   9.985  1.00  0.00     0.055 A 
ATOM     43  C   UNL     1       1.306  -6.159   9.395  1.00  0.00     0.041 A 
ATOM     44  F   UNL     1       1.008  -5.400   7.232  1.00  0.00    -0.206 F 
ATOM     45  C   UNL     1       2.014  -6.888  10.336  1.00  0.00     0.022 A 
BRANCH  42  46
ATOM     46  S   UNL     1       4.121  -8.504  11.146  1.00  0.00     0.124 S 
ATOM     47  O   UNL     1       4.280  -9.720  10.355  1.00  0.00    -0.237 OA
ATOM     48  O   UNL     1       5.341  -7.754  11.425  1.00  0.00    -0.237 OA
ATOM     49  O   UNL     1       3.190  -8.612  12.268  1.00  0.00    -0.744 OA
ENDBRANCH  42  46
ENDBRANCH  25  39
BRANCH  26  50
ATOM     50  C   UNL     1      -2.420  -8.591   1.651  1.00  0.00     0.023 A 
ATOM     51  C   UNL     1      -3.085  -9.813   1.868  1.00  0.00     0.031 A 
ATOM     52  C   UNL     1      -3.231  -7.433   1.586  1.00  0.00     0.131 A 
ATOM     53  C   UNL     1      -4.492  -9.845   1.994  1.00  0.00     0.055 A 
ATOM     54  C   UNL     1      -4.622  -7.473   1.688  1.00  0.00     0.041 A 
ATOM     55  F   UNL     1      -2.694  -6.205   1.510  1.00  0.00    -0.206 F 
ATOM     56  C   UNL     1      -5.260  -8.682   1.902  1.00  0.00     0.022 A 
BRANCH  53  57
ATOM     57  S   UNL     1      -5.341 -11.398   2.418  1.00  0.00     0.124 S 
ATOM     58  O   UNL     1      -5.402 -12.073   1.127  1.00  0.00    -0.237 OA
ATOM     59  O   UNL     1      -4.454 -11.985   3.415  1.00  0.00    -0.237 OA
ATOM     60  O   UNL     1      -6.630 -10.944   2.941  1.00  0.00    -0.744 OA
ENDBRANCH  53  57
ENDBRANCH  26  50
BRANCH  38  61
ATOM     61  C   UNL     1       3.779 -10.184   1.997  1.00  0.00     0.023 A 
ATOM     62  C   UNL     1       3.549  -9.554   0.754  1.00  0.00     0.031 A 
ATOM     63  C   UNL     1       4.734 -11.213   2.043  1.00  0.00     0.131 A 
ATOM     64  C   UNL     1       4.263  -9.966  -0.388  1.00  0.00     0.055 A 
ATOM     65  C   UNL     1       5.450 -11.609   0.913  1.00  0.00     0.041 A 
ATOM     66  F   UNL     1       5.024 -11.822   3.205  1.00  0.00    -0.206 F 
ATOM     67  C   UNL     1       5.215 -10.988  -0.308  1.00  0.00     0.022 A 
BRANCH  64  68
ATOM     68  S   UNL     1       3.983  -9.154  -1.995  1.00  0.00     0.124 S 
ATOM     69  O   UNL     1       2.547  -9.303  -2.201  1.00  0.00    -0.237 OA
ATOM     70  O   UNL     1       4.461  -7.795  -1.756  1.00  0.00    -0.237 OA
ATOM     71  O   UNL     1       4.812  -9.931  -2.920  1.00  0.00    -0.744 OA
ENDBRANCH  64  68
ENDBRANCH  38  61
ENDBRANCH  12  13
ENDBRANCH   5   7
ENDBRANCH   2   3
ENDBRANCH   1   2
BRANCH   1  72
ATOM     72  C   UNL     1       4.326  -0.549  -3.598  1.00  0.00     0.023 C 
BRANCH  72  73
ATOM     73  C   UNL     1       4.775   0.728  -4.296  1.00  0.00     0.116 C 
BRANCH  73  74
ATOM     74  N   UNL     1       6.221   0.822  -4.369  1.00  0.00    -0.351 N 
ATOM     75  C   UNL     1       6.993   1.100  -5.467  1.00  0.00     0.271 C 
ATOM     76  H   UNL     1       6.708   0.668  -3.527  1.00  0.00     0.163 HD
ATOM     77  O   UNL     1       8.220   1.085  -5.368  1.00  0.00    -0.267 OA
BRANCH  75  78
ATOM     78  C   UNL     1       6.310   1.480  -6.700  1.00  0.00     0.150 A 
ATOM     79  C   UNL     1       5.660   2.714  -6.955  1.00  0.00     0.056 A 
ATOM     80  N   UNL     1       6.230   0.656  -7.760  1.00  0.00    -0.161 NA
ATOM     81  C   UNL     1       5.305   2.656  -8.277  1.00  0.00     0.118 A 
ATOM     82  N   UNL     1       5.708   1.425  -8.744  1.00  0.00    -0.222 N 
BRANCH  82  83
ATOM     83  C   UNL     1       5.661   0.995 -10.095  1.00  0.00     0.158 A 
ATOM     84  C   UNL     1       5.681  -0.354 -10.380  1.00  0.00     0.078 A 
ATOM     85  N   UNL     1       5.619   1.953 -11.046  1.00  0.00    -0.209 NA
ATOM     86  C   UNL     1       5.615  -0.686 -11.719  1.00  0.00     0.077 A 
ATOM     87  C   UNL     1       5.648   1.530 -12.317  1.00  0.00     0.165 A 
ATOM     88  N   UNL     1       5.642   0.244 -12.701  1.00  0.00    -0.228 NA
BRANCH  86  89
ATOM     89  C   UNL     1       5.459  -2.073 -12.168  1.00  0.00     0.003 A 
ATOM     90  C   UNL     1       4.359  -2.841 -11.762  1.00  0.00     0.030 A 
ATOM     91  C   UNL     1       6.381  -2.661 -13.039  1.00  0.00     0.030 A 
ATOM     92  C   UNL     1       4.232  -4.137 -12.235  1.00  0.00     0.111 A 
ATOM     93  C   UNL     1       6.173  -3.968 -13.451  1.00  0.00     0.111 A 
ATOM     94  N   UNL     1       5.116  -4.717 -13.073  1.00  0.00    -0.265 NA
ENDBRANCH  86  89
BRANCH  87  95
ATOM     95  C   UNL     1       5.837   2.558 -13.330  1.00  0.00     0.055 A 
ATOM     96  C   UNL     1       6.965   3.401 -13.289  1.00  0.00     0.015 A 
ATOM     97  C   UNL     1       4.904   2.766 -14.347  1.00  0.00     0.134 A 
ATOM     98  C   UNL     1       7.148   4.410 -14.238  1.00  0.00     0.001 A 
ATOM     99  C   UNL     1       5.075   3.777 -15.293  1.00  0.00     0.040 A 
ATOM    100  F   UNL     1       3.793   2.016 -14.415  1.00  0.00    -0.206 F 
ATOM    101  C   UNL     1       6.200   4.599 -15.240  1.00  0.00     0.003 A 
ENDBRANCH  87  95
ENDBRANCH  82  83
ENDBRANCH  75  78
ENDBRANCH  73  74
ENDBRANCH  72  73
ENDBRANCH   1  72
TORSDOF 17
