REMARK SMILES COc1ccc(-c2noc(C[N@H+]3CCCC[C@@H]3C(=O)NCCCCNC(=O)c3ccc(-c4c5nc(c(-c6cc(S(=O)(=O)[O-])ccc6F)c6ccc([nH]6)c(-c6cc(S(=O)(=O)[O-])ccc6F)c6nc(c(-c7cc(S(=O)(=O)[O-])ccc7F)c7ccc4[nH]7)C=C6)C=C5)cc3)n2)cc1OC
REMARK SMILES IDX 22 1 21 2 20 3 18 4 19 5 17 7 12 8 13 9 14 11 16 12 15 13
REMARK SMILES IDX 11 14 10 15 7 16 8 17 91 18 9 19 6 20 3 21 4 22 93 23 5 24
REMARK SMILES IDX 92 25 2 26 1 27 94 28 95 29 23 30 24 31 25 32 26 33 27 35
REMARK SMILES IDX 28 36 29 37 90 38 30 39 89 40 31 41 32 42 33 43 83 44 34 45
REMARK SMILES IDX 88 46 82 47 84 48 35 49 87 50 81 51 80 52 36 54 68 55 48 56
REMARK SMILES IDX 67 57 49 58 52 59 66 60 85 61 50 62 51 63 65 65 86 66 53 67
REMARK SMILES IDX 37 68 38 69 46 70 39 71 45 72 47 73 44 74 40 75 41 76 42 77
REMARK SMILES IDX 43 78 69 79 70 80 78 81 71 82 77 83 79 84 76 85 72 86 73 87
REMARK SMILES IDX 74 88 75 89 54 90 55 91 63 92 56 93 62 94 64 95 61 96 57 97
REMARK SMILES IDX 58 98 59 99 60 100
REMARK H PARENT 20 6 12 10 25 34 84 53 52 64
REMARK Flexibility Score: inf
ROOT
ATOM      1  C   UNL     1       5.072  11.869  -7.799  1.00  0.00     0.023 C 
ENDROOT
BRANCH   1   2
ATOM      2  C   UNL     1       5.314  10.502  -7.160  1.00  0.00     0.116 C 
BRANCH   2   3
ATOM      3  N   UNL     1       5.062  10.549  -5.732  1.00  0.00    -0.351 N 
ATOM      4  C   UNL     1       4.024  10.028  -5.015  1.00  0.00     0.278 C 
ATOM      5  O   UNL     1       4.004  10.228  -3.797  1.00  0.00    -0.268 OA
ATOM      6  H   UNL     1       5.740  11.027  -5.202  1.00  0.00     0.163 HD
BRANCH   4   7
ATOM      7  C   UNL     1       2.942   9.150  -5.688  1.00  0.00     0.274 C 
ATOM      8  N   UNL     1       3.577   7.955  -6.307  1.00  0.00    -0.317 N 
ATOM      9  C   UNL     1       2.650   7.155  -7.113  1.00  0.00     0.263 C 
ATOM     10  H   UNL     1       4.272   8.332  -6.952  1.00  0.00     0.349 HD
ATOM     11  C   UNL     1       1.918   8.005  -8.149  1.00  0.00     0.062 C 
ATOM     12  C   UNL     1       2.077   9.985  -6.645  1.00  0.00     0.076 C 
ATOM     13  C   UNL     1       1.135   9.118  -7.467  1.00  0.00     0.012 C 
BRANCH   8  14
ATOM     14  C   UNL     1       4.304   7.111  -5.319  1.00  0.00     0.364 C 
BRANCH  14  15
ATOM     15  C   UNL     1       3.457   6.350  -4.349  1.00  0.00     0.282 A 
ATOM     16  C   UNL     1       2.327   4.974  -3.252  1.00  0.00     0.202 A 
ATOM     17  N   UNL     1       1.960   6.152  -2.731  1.00  0.00    -0.057 NA
ATOM     18  N   UNL     1       3.246   5.056  -4.270  1.00  0.00    -0.186 NA
ATOM     19  O   UNL     1       2.747   7.067  -3.430  1.00  0.00    -0.333 OA
BRANCH  16  20
ATOM     20  C   UNL     1       1.883   3.699  -2.737  1.00  0.00     0.027 A 
ATOM     21  C   UNL     1       1.127   1.218  -1.691  1.00  0.00     0.160 A 
ATOM     22  C   UNL     1       0.157   2.106  -2.186  1.00  0.00     0.051 A 
ATOM     23  C   UNL     1       2.484   1.553  -1.751  1.00  0.00     0.161 A 
ATOM     24  C   UNL     1       0.531   3.353  -2.692  1.00  0.00     0.016 A 
ATOM     25  C   UNL     1       2.847   2.793  -2.281  1.00  0.00     0.062 A 
BRANCH  21  26
ATOM     26  O   UNL     1       0.712  -0.014  -1.261  1.00  0.00    -0.493 OA
ATOM     27  C   UNL     1       0.025   0.061  -0.011  1.00  0.00     0.278 C 
ENDBRANCH  21  26
BRANCH  23  28
ATOM     28  O   UNL     1       3.567   0.804  -1.385  1.00  0.00    -0.493 OA
ATOM     29  C   UNL     1       3.373  -0.220  -0.425  1.00  0.00     0.278 C 
ENDBRANCH  23  28
ENDBRANCH  16  20
ENDBRANCH  14  15
ENDBRANCH   8  14
ENDBRANCH   4   7
ENDBRANCH   2   3
ENDBRANCH   1   2
BRANCH   1  30
ATOM     30  C   UNL     1       6.090  12.936  -7.397  1.00  0.00     0.023 C 
BRANCH  30  31
ATOM     31  C   UNL     1       7.536  12.586  -7.721  1.00  0.00     0.116 C 
BRANCH  31  32
ATOM     32  N   UNL     1       7.747  12.337  -9.137  1.00  0.00    -0.352 N 
ATOM     33  C   UNL     1       8.762  12.791  -9.947  1.00  0.00     0.251 C 
ATOM     34  H   UNL     1       7.074  11.768  -9.575  1.00  0.00     0.163 HD
ATOM     35  O   UNL     1       8.698  12.629 -11.157  1.00  0.00    -0.269 OA
BRANCH  33  36
ATOM     36  C   UNL     1       9.906  13.503  -9.336  1.00  0.00     0.039 A 
ATOM     37  C   UNL     1      10.358  14.687  -9.923  1.00  0.00     0.014 A 
ATOM     38  C   UNL     1      10.510  13.016  -8.174  1.00  0.00     0.014 A 
ATOM     39  C   UNL     1      11.383  15.410  -9.311  1.00  0.00     0.010 A 
ATOM     40  C   UNL     1      11.469  13.782  -7.520  1.00  0.00     0.010 A 
ATOM     41  C   UNL     1      11.926  14.981  -8.088  1.00  0.00    -0.014 A 
BRANCH  41  42
ATOM     42  C   UNL     1      12.999  15.752  -7.408  1.00  0.00     0.031 A 
ATOM     43  C   UNL     1      14.352  15.125  -7.200  1.00  0.00     0.074 A 
ATOM     44  C   UNL     1      12.744  16.988  -6.937  1.00  0.00     0.049 A 
ATOM     45  N   UNL     1      15.399  15.600  -6.575  1.00  0.00    -0.248 NA
ATOM     46  C   UNL     1      14.540  13.769  -7.738  1.00  0.00     0.031 C 
ATOM     47  C   UNL     1      11.460  17.686  -7.044  1.00  0.00     0.029 A 
ATOM     48  N   UNL     1      13.548  17.879  -6.270  1.00  0.00    -0.354 N 
ATOM     49  C   UNL     1      16.362  14.598  -6.635  1.00  0.00     0.074 A 
ATOM     50  C   UNL     1      15.748  13.464  -7.291  1.00  0.00     0.031 C 
ATOM     51  C   UNL     1      11.575  18.905  -6.493  1.00  0.00     0.029 A 
ATOM     52  C   UNL     1      12.920  19.060  -5.949  1.00  0.00     0.049 A 
ATOM     53  H   UNL     1      14.487  17.689  -6.043  1.00  0.00     0.167 HD
ATOM     54  C   UNL     1      17.649  14.631  -6.209  1.00  0.00     0.034 A 
ATOM     55  C   UNL     1      13.374  20.141  -5.284  1.00  0.00     0.034 A 
ATOM     56  C   UNL     1      18.248  15.776  -5.567  1.00  0.00     0.049 A 
ATOM     57  C   UNL     1      14.802  20.145  -4.793  1.00  0.00     0.074 A 
ATOM     58  C   UNL     1      19.553  15.936  -5.135  1.00  0.00     0.029 A 
ATOM     59  N   UNL     1      17.581  16.955  -5.258  1.00  0.00    -0.354 N 
ATOM     60  N   UNL     1      15.715  19.207  -4.899  1.00  0.00    -0.248 NA
ATOM     61  C   UNL     1      15.262  21.358  -4.107  1.00  0.00     0.031 C 
ATOM     62  C   UNL     1      19.656  17.179  -4.501  1.00  0.00     0.029 A 
ATOM     63  C   UNL     1      18.440  17.834  -4.616  1.00  0.00     0.049 A 
ATOM     64  H   UNL     1      16.637  17.140  -5.466  1.00  0.00     0.167 HD
ATOM     65  C   UNL     1      16.870  19.736  -4.328  1.00  0.00     0.074 A 
ATOM     66  C   UNL     1      16.539  21.077  -3.893  1.00  0.00     0.031 C 
ATOM     67  C   UNL     1      18.096  19.169  -4.183  1.00  0.00     0.034 A 
BRANCH  54  68
ATOM     68  C   UNL     1      18.478  13.383  -6.405  1.00  0.00     0.023 A 
ATOM     69  C   UNL     1      18.741  12.863  -7.685  1.00  0.00     0.031 A 
ATOM     70  C   UNL     1      18.988  12.683  -5.297  1.00  0.00     0.131 A 
ATOM     71  C   UNL     1      19.416  11.640  -7.822  1.00  0.00     0.055 A 
ATOM     72  C   UNL     1      19.738  11.514  -5.444  1.00  0.00     0.041 A 
ATOM     73  F   UNL     1      18.752  13.115  -4.048  1.00  0.00    -0.206 F 
ATOM     74  C   UNL     1      19.941  10.977  -6.711  1.00  0.00     0.022 A 
BRANCH  71  75
ATOM     75  S   UNL     1      19.456  10.852  -9.455  1.00  0.00     0.124 S 
ATOM     76  O   UNL     1      18.032  10.710  -9.749  1.00  0.00    -0.237 OA
ATOM     77  O   UNL     1      20.180  11.830 -10.259  1.00  0.00    -0.237 OA
ATOM     78  O   UNL     1      20.163   9.596  -9.212  1.00  0.00    -0.744 OA
ENDBRANCH  71  75
ENDBRANCH  54  68
BRANCH  55  79
ATOM     79  C   UNL     1      12.481  21.310  -5.034  1.00  0.00     0.023 A 
ATOM     80  C   UNL     1      12.768  22.571  -5.580  1.00  0.00     0.031 A 
ATOM     81  C   UNL     1      11.351  21.195  -4.204  1.00  0.00     0.131 A 
ATOM     82  C   UNL     1      11.970  23.677  -5.246  1.00  0.00     0.055 A 
ATOM     83  C   UNL     1      10.526  22.285  -3.923  1.00  0.00     0.041 A 
ATOM     84  F   UNL     1      11.027  20.012  -3.658  1.00  0.00    -0.206 F 
ATOM     85  C   UNL     1      10.843  23.540  -4.434  1.00  0.00     0.022 A 
BRANCH  82  86
ATOM     86  S   UNL     1      12.487  25.322  -5.812  1.00  0.00     0.124 S 
ATOM     87  O   UNL     1      13.822  25.428  -5.236  1.00  0.00    -0.237 OA
ATOM     88  O   UNL     1      12.422  25.177  -7.262  1.00  0.00    -0.237 OA
ATOM     89  O   UNL     1      11.483  26.212  -5.231  1.00  0.00    -0.744 OA
ENDBRANCH  82  86
ENDBRANCH  55  79
BRANCH  67  90
ATOM     90  C   UNL     1      19.185  20.025  -3.582  1.00  0.00     0.023 A 
ATOM     91  C   UNL     1      19.130  20.479  -2.252  1.00  0.00     0.031 A 
ATOM     92  C   UNL     1      20.293  20.403  -4.363  1.00  0.00     0.131 A 
ATOM     93  C   UNL     1      20.131  21.333  -1.764  1.00  0.00     0.055 A 
ATOM     94  C   UNL     1      21.320  21.195  -3.849  1.00  0.00     0.041 A 
ATOM     95  F   UNL     1      20.398  20.003  -5.640  1.00  0.00    -0.206 F 
ATOM     96  C   UNL     1      21.235  21.678  -2.547  1.00  0.00     0.022 A 
BRANCH  93  97
ATOM     97  S   UNL     1      19.916  22.076  -0.123  1.00  0.00     0.124 S 
ATOM     98  O   UNL     1      18.636  22.762  -0.266  1.00  0.00    -0.237 OA
ATOM     99  O   UNL     1      19.919  20.909   0.751  1.00  0.00    -0.237 OA
ATOM    100  O   UNL     1      21.077  22.954   0.011  1.00  0.00    -0.744 OA
ENDBRANCH  93  97
ENDBRANCH  67  90
ENDBRANCH  41  42
ENDBRANCH  33  36
ENDBRANCH  31  32
ENDBRANCH  30  31
ENDBRANCH   1  30
TORSDOF 19
