REMARK SMILES [NH3+][C@H](C(=O)NCCCCNC(=O)c1ccc(-c2c3nc(c(-c4cc(S(=O)(=O)[O-])ccc4F)c4ccc([nH]4)c(-c4cc(S(=O)(=O)[O-])ccc4F)c4nc(c(-c5cc(S(=O)(=O)[O-])ccc5F)c5ccc2[nH]5)C=C4)C=C3)cc1)c1cc(F)c(Cl)c(Cl)c1
REMARK SMILES IDX 8 1 7 2 6 3 5 4 3 5 4 6 2 8 1 9 76 13 77 14 84 15 78 16
REMARK SMILES IDX 82 17 79 18 80 19 83 20 81 21 9 22 10 23 11 24 12 26 13 27
REMARK SMILES IDX 14 28 75 29 15 30 74 31 16 32 17 33 18 34 68 35 19 36 73 37
REMARK SMILES IDX 67 38 69 39 20 40 72 41 66 42 65 43 21 45 53 46 33 47 52 48
REMARK SMILES IDX 34 49 37 50 51 51 70 52 35 53 36 54 50 56 71 57 38 58 22 59
REMARK SMILES IDX 23 60 31 61 24 62 30 63 32 64 29 65 25 66 26 67 27 68 28 69
REMARK SMILES IDX 54 70 55 71 63 72 56 73 62 74 64 75 61 76 57 77 58 78 59 79
REMARK SMILES IDX 60 80 39 81 40 82 48 83 41 84 47 85 49 86 46 87 42 88 43 89
REMARK SMILES IDX 44 90 45 91
REMARK H PARENT 5 7 1 10 1 11 1 12 10 25 69 44 37 55
REMARK Flexibility Score: inf
ROOT
ATOM      1  C   UNL     1      -0.340  -3.115  -2.436  1.00  0.00     0.023 C 
ENDROOT
BRANCH   1   2
ATOM      2  C   UNL     1      -0.483  -2.863  -0.933  1.00  0.00     0.023 C 
BRANCH   2   3
ATOM      3  C   UNL     1       0.809  -2.430  -0.240  1.00  0.00     0.116 C 
BRANCH   3   4
ATOM      4  N   UNL     1       1.182  -1.080  -0.616  1.00  0.00    -0.351 N 
ATOM      5  C   UNL     1       1.020   0.085   0.077  1.00  0.00     0.283 C 
ATOM      6  O   UNL     1       1.330   1.144  -0.479  1.00  0.00    -0.268 OA
ATOM      7  H   UNL     1       1.614  -0.992  -1.496  1.00  0.00     0.163 HD
BRANCH   5   8
ATOM      8  C   UNL     1       0.508   0.067   1.544  1.00  0.00     0.302 C 
BRANCH   8   9
ATOM      9  N   UNL     1       1.113   1.211   2.269  1.00  0.00    -0.343 N 
ATOM     10  H   UNL     1       0.786   1.213   3.235  1.00  0.00     0.345 HD
ATOM     11  H   UNL     1       0.840   2.083   1.816  1.00  0.00     0.345 HD
ATOM     12  H   UNL     1       2.129   1.124   2.254  1.00  0.00     0.345 HD
ENDBRANCH   8   9
BRANCH   8  13
ATOM     13  C   UNL     1      -1.011   0.099   1.620  1.00  0.00     0.023 A 
ATOM     14  C   UNL     1      -1.742   1.283   1.448  1.00  0.00     0.051 A 
ATOM     15  C   UNL     1      -1.730  -1.089   1.842  1.00  0.00     0.032 A 
ATOM     16  C   UNL     1      -3.137   1.270   1.500  1.00  0.00     0.143 A 
ATOM     17  C   UNL     1      -3.132  -1.102   1.855  1.00  0.00     0.063 A 
ATOM     18  F   UNL     1      -3.787   2.436   1.358  1.00  0.00    -0.205 F 
ATOM     19  C   UNL     1      -3.845   0.085   1.691  1.00  0.00     0.095 A 
ATOM     20  Cl  UNL     1      -3.908  -2.633   2.061  1.00  0.00    -0.083 Cl
ATOM     21  Cl  UNL     1      -5.572   0.136   1.720  1.00  0.00    -0.079 Cl
ENDBRANCH   8  13
ENDBRANCH   5   8
ENDBRANCH   3   4
ENDBRANCH   2   3
ENDBRANCH   1   2
BRANCH   1  22
ATOM     22  C   UNL     1       0.687  -4.174  -2.815  1.00  0.00     0.116 C 
BRANCH  22  23
ATOM     23  N   UNL     1       0.401  -5.473  -2.231  1.00  0.00    -0.352 N 
ATOM     24  C   UNL     1       0.526  -6.717  -2.801  1.00  0.00     0.251 C 
ATOM     25  H   UNL     1       0.074  -5.461  -1.302  1.00  0.00     0.163 HD
ATOM     26  O   UNL     1       0.088  -7.700  -2.206  1.00  0.00    -0.269 OA
BRANCH  24  27
ATOM     27  C   UNL     1       1.153  -6.860  -4.133  1.00  0.00     0.039 A 
ATOM     28  C   UNL     1       0.576  -7.732  -5.060  1.00  0.00     0.014 A 
ATOM     29  C   UNL     1       2.305  -6.144  -4.470  1.00  0.00     0.014 A 
ATOM     30  C   UNL     1       1.138  -7.859  -6.332  1.00  0.00     0.010 A 
ATOM     31  C   UNL     1       2.807  -6.202  -5.766  1.00  0.00     0.010 A 
ATOM     32  C   UNL     1       2.247  -7.081  -6.704  1.00  0.00    -0.014 A 
BRANCH  32  33
ATOM     33  C   UNL     1       2.869  -7.226  -8.047  1.00  0.00     0.031 A 
ATOM     34  C   UNL     1       4.288  -7.721  -8.164  1.00  0.00     0.074 A 
ATOM     35  C   UNL     1       2.175  -6.891  -9.152  1.00  0.00     0.049 A 
ATOM     36  N   UNL     1       5.017  -7.905  -9.236  1.00  0.00    -0.248 NA
ATOM     37  C   UNL     1       4.992  -8.016  -6.907  1.00  0.00     0.031 C 
ATOM     38  C   UNL     1       0.808  -6.363  -9.163  1.00  0.00     0.029 A 
ATOM     39  N   UNL     1       2.517  -6.950 -10.479  1.00  0.00    -0.354 N 
ATOM     40  C   UNL     1       6.265  -8.320  -8.780  1.00  0.00     0.074 A 
ATOM     41  C   UNL     1       6.214  -8.286  -7.335  1.00  0.00     0.031 C 
ATOM     42  C   UNL     1       0.414  -6.192 -10.435  1.00  0.00     0.029 A 
ATOM     43  C   UNL     1       1.511  -6.552 -11.329  1.00  0.00     0.049 A 
ATOM     44  H   UNL     1       3.400  -7.250 -10.794  1.00  0.00     0.167 HD
ATOM     45  C   UNL     1       7.343  -8.720  -9.498  1.00  0.00     0.034 A 
ATOM     46  C   UNL     1       1.476  -6.488 -12.675  1.00  0.00     0.034 A 
ATOM     47  C   UNL     1       7.368  -8.764 -10.940  1.00  0.00     0.049 A 
ATOM     48  C   UNL     1       2.694  -6.923 -13.454  1.00  0.00     0.074 A 
ATOM     49  C   UNL     1       8.384  -9.203 -11.772  1.00  0.00     0.029 A 
ATOM     50  N   UNL     1       6.332  -8.347 -11.768  1.00  0.00    -0.354 N 
ATOM     51  N   UNL     1       3.848  -7.367 -13.009  1.00  0.00    -0.248 NA
ATOM     52  C   UNL     1       2.594  -6.868 -14.917  1.00  0.00     0.031 C 
ATOM     53  C   UNL     1       7.995  -8.975 -13.097  1.00  0.00     0.029 A 
ATOM     54  C   UNL     1       6.698  -8.488 -13.098  1.00  0.00     0.049 A 
ATOM     55  H   UNL     1       5.465  -8.001 -11.455  1.00  0.00     0.167 HD
ATOM     56  C   UNL     1       4.591  -7.691 -14.143  1.00  0.00     0.074 A 
ATOM     57  C   UNL     1       3.749  -7.400 -15.285  1.00  0.00     0.031 C 
ATOM     58  C   UNL     1       5.851  -8.192 -14.231  1.00  0.00     0.034 A 
BRANCH  45  59
ATOM     59  C   UNL     1       8.587  -9.108  -8.731  1.00  0.00     0.023 A 
ATOM     60  C   UNL     1       8.591 -10.169  -7.806  1.00  0.00     0.031 A 
ATOM     61  C   UNL     1       9.780  -8.382  -8.896  1.00  0.00     0.131 A 
ATOM     62  C   UNL     1       9.729 -10.414  -7.023  1.00  0.00     0.055 A 
ATOM     63  C   UNL     1      10.939  -8.692  -8.181  1.00  0.00     0.041 A 
ATOM     64  F   UNL     1       9.836  -7.342  -9.743  1.00  0.00    -0.206 F 
ATOM     65  C   UNL     1      10.913  -9.702  -7.224  1.00  0.00     0.022 A 
BRANCH  62  66
ATOM     66  S   UNL     1       9.586 -11.557  -5.621  1.00  0.00     0.124 S 
ATOM     67  O   UNL     1       8.510 -10.939  -4.847  1.00  0.00    -0.237 OA
ATOM     68  O   UNL     1       9.260 -12.819  -6.274  1.00  0.00    -0.237 OA
ATOM     69  O   UNL     1      10.905 -11.498  -4.994  1.00  0.00    -0.744 OA
ENDBRANCH  62  66
ENDBRANCH  45  59
BRANCH  46  70
ATOM     70  C   UNL     1       0.252  -6.011 -13.383  1.00  0.00     0.023 A 
ATOM     71  C   UNL     1      -0.462  -6.861 -14.243  1.00  0.00     0.031 A 
ATOM     72  C   UNL     1      -0.193  -4.684 -13.253  1.00  0.00     0.131 A 
ATOM     73  C   UNL     1      -1.545  -6.361 -14.983  1.00  0.00     0.055 A 
ATOM     74  C   UNL     1      -1.308  -4.207 -13.944  1.00  0.00     0.041 A 
ATOM     75  F   UNL     1       0.450  -3.828 -12.441  1.00  0.00    -0.206 F 
ATOM     76  C   UNL     1      -1.982  -5.044 -14.828  1.00  0.00     0.022 A 
BRANCH  73  77
ATOM     77  S   UNL     1      -2.314  -7.433 -16.229  1.00  0.00     0.124 S 
ATOM     78  O   UNL     1      -1.180  -7.745 -17.090  1.00  0.00    -0.237 OA
ATOM     79  O   UNL     1      -2.822  -8.530 -15.412  1.00  0.00    -0.237 OA
ATOM     80  O   UNL     1      -3.337  -6.577 -16.827  1.00  0.00    -0.744 OA
ENDBRANCH  73  77
ENDBRANCH  46  70
BRANCH  58  81
ATOM     81  C   UNL     1       6.363  -8.527 -15.613  1.00  0.00     0.023 A 
ATOM     82  C   UNL     1       6.550  -7.544 -16.601  1.00  0.00     0.031 A 
ATOM     83  C   UNL     1       6.641  -9.864 -15.954  1.00  0.00     0.131 A 
ATOM     84  C   UNL     1       6.924  -7.921 -17.900  1.00  0.00     0.055 A 
ATOM     85  C   UNL     1       7.088 -10.223 -17.226  1.00  0.00     0.041 A 
ATOM     86  F   UNL     1       6.478 -10.848 -15.054  1.00  0.00    -0.206 F 
ATOM     87  C   UNL     1       7.213  -9.251 -18.213  1.00  0.00     0.022 A 
BRANCH  84  88
ATOM     88  S   UNL     1       6.896  -6.667 -19.211  1.00  0.00     0.124 S 
ATOM     89  O   UNL     1       5.530  -6.163 -19.120  1.00  0.00    -0.237 OA
ATOM     90  O   UNL     1       7.945  -5.747 -18.783  1.00  0.00    -0.237 OA
ATOM     91  O   UNL     1       7.197  -7.429 -20.421  1.00  0.00    -0.744 OA
ENDBRANCH  84  88
ENDBRANCH  58  81
ENDBRANCH  32  33
ENDBRANCH  24  27
ENDBRANCH  22  23
ENDBRANCH   1  22
TORSDOF 16
