REMARK SMILES O=C(NCCCCNC(=O)c1cncnc1N1CC[C@H]2[NH2+]CCC[C@]2(CO)C1)c1ccc(-c2c3nc(c(-c4cc(S(=O)(=O)[O-])ccc4F)c4ccc([nH]4)c(-c4cc(S(=O)(=O)[O-])ccc4F)c4nc(c(-c5cc(S(=O)(=O)[O-])ccc5F)c5ccc2[nH]5)C=C4)C=C3)cc1
REMARK SMILES IDX 5 1 4 2 3 3 1 4 2 5 29 7 30 8 91 9 31 10 90 11 32 12 33 13
REMARK SMILES IDX 34 14 84 15 35 16 89 17 83 18 85 19 36 20 88 21 82 22 81 23
REMARK SMILES IDX 37 25 69 26 49 27 68 28 50 29 53 30 67 31 86 32 51 33 52 34
REMARK SMILES IDX 66 36 87 37 54 38 38 39 39 40 47 41 40 42 46 43 48 44 45 45
REMARK SMILES IDX 41 46 42 47 43 48 44 49 70 50 71 51 79 52 72 53 78 54 80 55
REMARK SMILES IDX 77 56 73 57 74 58 75 59 76 60 55 61 56 62 64 63 57 64 63 65
REMARK SMILES IDX 65 66 62 67 58 68 59 69 60 70 61 71 6 72 7 73 8 74 9 75
REMARK SMILES IDX 10 77 11 78 12 79 16 80 13 81 15 82 14 83 17 84 18 85 28 86
REMARK SMILES IDX 19 87 25 88 20 89 24 90 21 91 23 92 22 93 26 96 27 97
REMARK H PARENT 3 6 85 24 53 35 8 76 21 94 21 95 27 98
REMARK Flexibility Score: inf
ROOT
ATOM      1  C   UNL     1       4.902  -2.437  -1.273  1.00  0.00     0.023 C 
ENDROOT
BRANCH   1   2
ATOM      2  C   UNL     1       4.569  -0.980  -0.976  1.00  0.00     0.116 C 
BRANCH   2   3
ATOM      3  N   UNL     1       3.142  -0.701  -0.943  1.00  0.00    -0.352 N 
ATOM      4  O   UNL     1       1.179  -0.011  -0.076  1.00  0.00    -0.269 OA
ATOM      5  C   UNL     1       2.395  -0.074   0.032  1.00  0.00     0.251 C 
ATOM      6  H   UNL     1       2.635  -1.004  -1.732  1.00  0.00     0.163 HD
BRANCH   5   7
ATOM      7  C   UNL     1       3.070   0.491   1.225  1.00  0.00     0.039 A 
ATOM      8  C   UNL     1       4.232   1.252   1.095  1.00  0.00     0.014 A 
ATOM      9  C   UNL     1       2.544   0.229   2.493  1.00  0.00     0.014 A 
ATOM     10  C   UNL     1       4.960   1.597   2.229  1.00  0.00     0.010 A 
ATOM     11  C   UNL     1       3.230   0.660   3.634  1.00  0.00     0.010 A 
ATOM     12  C   UNL     1       4.469   1.307   3.513  1.00  0.00    -0.014 A 
BRANCH  12  13
ATOM     13  C   UNL     1       5.266   1.714   4.703  1.00  0.00     0.031 A 
ATOM     14  C   UNL     1       5.838   0.688   5.646  1.00  0.00     0.074 A 
ATOM     15  C   UNL     1       5.515   3.024   4.899  1.00  0.00     0.049 A 
ATOM     16  N   UNL     1       6.596   0.867   6.699  1.00  0.00    -0.248 NA
ATOM     17  C   UNL     1       5.507  -0.719   5.379  1.00  0.00     0.031 C 
ATOM     18  C   UNL     1       5.010   4.110   4.055  1.00  0.00     0.029 A 
ATOM     19  N   UNL     1       6.275   3.665   5.843  1.00  0.00    -0.354 N 
ATOM     20  C   UNL     1       6.816  -0.399   7.234  1.00  0.00     0.074 A 
ATOM     21  C   UNL     1       6.080  -1.331   6.405  1.00  0.00     0.031 C 
ATOM     22  C   UNL     1       5.524   5.272   4.480  1.00  0.00     0.029 A 
ATOM     23  C   UNL     1       6.337   5.028   5.665  1.00  0.00     0.049 A 
ATOM     24  H   UNL     1       6.732   3.196   6.577  1.00  0.00     0.167 HD
ATOM     25  C   UNL     1       7.567  -0.749   8.310  1.00  0.00     0.034 A 
ATOM     26  C   UNL     1       6.967   5.978   6.380  1.00  0.00     0.034 A 
ATOM     27  C   UNL     1       8.303   0.195   9.120  1.00  0.00     0.049 A 
ATOM     28  C   UNL     1       7.769   5.567   7.585  1.00  0.00     0.074 A 
ATOM     29  C   UNL     1       9.129  -0.056  10.203  1.00  0.00     0.029 A 
ATOM     30  N   UNL     1       8.297   1.573   8.943  1.00  0.00    -0.354 N 
ATOM     31  N   UNL     1       7.983   4.363   8.062  1.00  0.00    -0.248 NA
ATOM     32  C   UNL     1       8.413   6.644   8.344  1.00  0.00     0.031 C 
ATOM     33  C   UNL     1       9.565   1.170  10.721  1.00  0.00     0.029 A 
ATOM     34  C   UNL     1       9.074   2.186   9.917  1.00  0.00     0.049 A 
ATOM     35  H   UNL     1       7.811   2.047   8.230  1.00  0.00     0.167 HD
ATOM     36  C   UNL     1       8.806   4.538   9.170  1.00  0.00     0.074 A 
ATOM     37  C   UNL     1       9.065   5.961   9.273  1.00  0.00     0.031 C 
ATOM     38  C   UNL     1       9.305   3.608  10.023  1.00  0.00     0.034 A 
BRANCH  25  39
ATOM     39  C   UNL     1       7.587  -2.210   8.699  1.00  0.00     0.023 A 
ATOM     40  C   UNL     1       8.119  -3.200   7.853  1.00  0.00     0.031 A 
ATOM     41  C   UNL     1       7.039  -2.624   9.927  1.00  0.00     0.131 A 
ATOM     42  C   UNL     1       8.023  -4.555   8.210  1.00  0.00     0.055 A 
ATOM     43  C   UNL     1       7.018  -3.966  10.312  1.00  0.00     0.041 A 
ATOM     44  F   UNL     1       6.499  -1.729  10.770  1.00  0.00    -0.206 F 
ATOM     45  C   UNL     1       7.497  -4.943   9.445  1.00  0.00     0.022 A 
BRANCH  42  46
ATOM     46  S   UNL     1       8.455  -5.810   6.973  1.00  0.00     0.124 S 
ATOM     47  O   UNL     1       7.579  -5.447   5.861  1.00  0.00    -0.237 OA
ATOM     48  O   UNL     1       9.879  -5.573   6.768  1.00  0.00    -0.237 OA
ATOM     49  O   UNL     1       8.120  -7.071   7.632  1.00  0.00    -0.744 OA
ENDBRANCH  42  46
ENDBRANCH  25  39
BRANCH  26  50
ATOM     50  C   UNL     1       6.851   7.411   5.988  1.00  0.00     0.023 A 
ATOM     51  C   UNL     1       7.974   8.137   5.564  1.00  0.00     0.031 A 
ATOM     52  C   UNL     1       5.616   8.080   6.052  1.00  0.00     0.131 A 
ATOM     53  C   UNL     1       7.847   9.499   5.252  1.00  0.00     0.055 A 
ATOM     54  C   UNL     1       5.484   9.421   5.692  1.00  0.00     0.041 A 
ATOM     55  F   UNL     1       4.511   7.428   6.447  1.00  0.00    -0.206 F 
ATOM     56  C   UNL     1       6.607  10.142   5.300  1.00  0.00     0.022 A 
BRANCH  53  57
ATOM     57  S   UNL     1       9.343  10.441   4.848  1.00  0.00     0.124 S 
ATOM     58  O   UNL     1      10.146  10.254   6.051  1.00  0.00    -0.237 OA
ATOM     59  O   UNL     1       9.815   9.758   3.648  1.00  0.00    -0.237 OA
ATOM     60  O   UNL     1       8.843  11.797   4.634  1.00  0.00    -0.744 OA
ENDBRANCH  53  57
ENDBRANCH  26  50
BRANCH  38  61
ATOM     61  C   UNL     1      10.210   4.114  11.119  1.00  0.00     0.023 A 
ATOM     62  C   UNL     1       9.728   4.935  12.154  1.00  0.00     0.031 A 
ATOM     63  C   UNL     1      11.582   3.806  11.103  1.00  0.00     0.131 A 
ATOM     64  C   UNL     1      10.622   5.474  13.092  1.00  0.00     0.055 A 
ATOM     65  C   UNL     1      12.456   4.296  12.074  1.00  0.00     0.041 A 
ATOM     66  F   UNL     1      12.096   3.030  10.136  1.00  0.00    -0.206 F 
ATOM     67  C   UNL     1      11.980   5.148  13.067  1.00  0.00     0.022 A 
BRANCH  64  68
ATOM     68  S   UNL     1      10.003   6.696  14.282  1.00  0.00     0.124 S 
ATOM     69  O   UNL     1       9.459   7.726  13.404  1.00  0.00    -0.237 OA
ATOM     70  O   UNL     1       9.025   5.923  15.041  1.00  0.00    -0.237 OA
ATOM     71  O   UNL     1      11.199   7.084  15.028  1.00  0.00    -0.744 OA
ENDBRANCH  64  68
ENDBRANCH  38  61
ENDBRANCH  12  13
ENDBRANCH   5   7
ENDBRANCH   2   3
ENDBRANCH   1   2
BRANCH   1  72
ATOM     72  C   UNL     1       4.419  -2.971  -2.619  1.00  0.00     0.023 C 
BRANCH  72  73
ATOM     73  C   UNL     1       4.771  -2.116  -3.832  1.00  0.00     0.116 C 
BRANCH  73  74
ATOM     74  N   UNL     1       6.202  -1.908  -3.998  1.00  0.00    -0.352 N 
ATOM     75  C   UNL     1       7.027  -2.277  -5.035  1.00  0.00     0.256 C 
ATOM     76  H   UNL     1       6.646  -1.434  -3.258  1.00  0.00     0.163 HD
ATOM     77  O   UNL     1       8.215  -1.972  -5.019  1.00  0.00    -0.269 OA
BRANCH  75  78
ATOM     78  C   UNL     1       6.471  -3.005  -6.177  1.00  0.00     0.100 A 
ATOM     79  C   UNL     1       5.548  -2.346  -6.970  1.00  0.00     0.130 A 
ATOM     80  C   UNL     1       6.882  -4.263  -6.601  1.00  0.00     0.144 A 
ATOM     81  N   UNL     1       4.965  -2.882  -8.057  1.00  0.00    -0.244 NA
ATOM     82  N   UNL     1       6.313  -4.820  -7.699  1.00  0.00    -0.219 NA
ATOM     83  C   UNL     1       5.382  -4.116  -8.359  1.00  0.00     0.224 A 
BRANCH  80  84
ATOM     84  N   UNL     1       7.910  -5.015  -6.045  1.00  0.00    -0.355 N 
ATOM     85  C   UNL     1       8.024  -5.184  -4.600  1.00  0.00     0.124 C 
ATOM     86  C   UNL     1       9.156  -4.888  -6.821  1.00  0.00     0.133 C 
ATOM     87  C   UNL     1       8.965  -6.346  -4.269  1.00  0.00     0.087 C 
ATOM     88  C   UNL     1      10.134  -6.042  -6.515  1.00  0.00     0.063 C 
ATOM     89  C   UNL     1      10.309  -6.142  -4.978  1.00  0.00     0.194 C 
ATOM     90  C   UNL     1      11.520  -5.705  -7.123  1.00  0.00     0.023 C 
ATOM     91  N   UNL     1      11.273  -7.199  -4.620  1.00  0.00    -0.343 N 
ATOM     92  C   UNL     1      12.587  -6.707  -6.682  1.00  0.00     0.062 C 
ATOM     93  C   UNL     1      12.601  -6.891  -5.163  1.00  0.00     0.260 C 
ATOM     94  H   UNL     1      10.952  -8.089  -5.003  1.00  0.00     0.346 HD
ATOM     95  H   UNL     1      11.337  -7.256  -3.604  1.00  0.00     0.346 HD
BRANCH  88  96
ATOM     96  C   UNL     1       9.575  -7.354  -7.125  1.00  0.00     0.171 C 
BRANCH  96  97
ATOM     97  O   UNL     1       9.591  -7.310  -8.554  1.00  0.00    -0.395 OA
ATOM     98  H   UNL     1       9.033  -6.578  -8.861  1.00  0.00     0.210 HD
ENDBRANCH  96  97
ENDBRANCH  88  96
ENDBRANCH  80  84
ENDBRANCH  75  78
ENDBRANCH  73  74
ENDBRANCH  72  73
ENDBRANCH   1  72
TORSDOF 17
