REMARK SMILES CC[C@@H]1CCC[C@](CCCCCO)(C(=O)NCCCCNC(=O)c2ccc(-c3c4nc(c(-c5cc(S(=O)(=O)[O-])ccc5F)c5ccc([nH]5)c(-c5cc(S(=O)(=O)[O-])ccc5F)c5nc(c(-c6cc(S(=O)(=O)[O-])ccc6F)c6ccc3[nH]6)C=C5)C=C4)cc2)C1
REMARK SMILES IDX 17 1 16 2 14 3 15 4 7 6 3 7 4 8 87 9 5 10 6 11 2 12 1 13
REMARK SMILES IDX 8 14 9 15 10 16 11 17 12 18 13 19 18 21 19 22 20 23 21 24
REMARK SMILES IDX 22 25 23 27 24 28 25 29 86 30 26 31 85 32 27 33 28 34 29 35
REMARK SMILES IDX 79 36 30 37 84 38 78 39 80 40 31 41 83 42 77 43 76 44 32 46
REMARK SMILES IDX 64 47 44 48 63 49 45 50 48 51 62 52 81 53 46 54 47 55 61 57
REMARK SMILES IDX 82 58 49 59 33 60 34 61 42 62 35 63 41 64 43 65 40 66 36 67
REMARK SMILES IDX 37 68 38 69 39 70 65 71 66 72 74 73 67 74 73 75 75 76 72 77
REMARK SMILES IDX 68 78 69 79 70 80 71 81 50 82 51 83 59 84 52 85 58 86 60 87
REMARK SMILES IDX 57 88 53 89 54 90 55 91 56 92
REMARK H PARENT 16 5 13 20 21 26 80 45 48 56
REMARK Flexibility Score: inf
ROOT
ATOM      1  C   UNL     1      -0.086  -0.788   4.144  1.00  0.00     0.116 C 
ENDROOT
BRANCH   1   2
ATOM      2  N   UNL     1      -0.855  -2.017   4.048  1.00  0.00    -0.356 N 
ATOM      3  C   UNL     1      -0.609  -3.221   3.451  1.00  0.00     0.226 C 
ATOM      4  O   UNL     1      -1.323  -4.158   3.826  1.00  0.00    -0.274 OA
ATOM      5  H   UNL     1      -1.727  -1.974   4.504  1.00  0.00     0.163 HD
BRANCH   3   6
ATOM      6  C   UNL     1       0.486  -3.442   2.372  1.00  0.00     0.049 C 
ATOM      7  C   UNL     1       1.129  -2.517  -0.011  1.00  0.00    -0.010 C 
ATOM      8  C   UNL     1       0.792  -3.868  -0.645  1.00  0.00     0.003 C 
ATOM      9  C   UNL     1       0.370  -2.323   1.306  1.00  0.00     0.020 C 
ATOM     10  C   UNL     1       0.939  -5.014   0.346  1.00  0.00     0.001 C 
ATOM     11  C   UNL     1       0.117  -4.772   1.615  1.00  0.00     0.017 C 
BRANCH   7  12
ATOM     12  C   UNL     1       0.810  -1.369  -0.999  1.00  0.00     0.000 C 
ATOM     13  C   UNL     1       1.205   0.015  -0.492  1.00  0.00     0.004 C 
ENDBRANCH   7  12
BRANCH   6  14
ATOM     14  C   UNL     1       1.916  -3.675   2.973  1.00  0.00     0.017 C 
BRANCH  14  15
ATOM     15  C   UNL     1       2.500  -2.785   4.079  1.00  0.00     0.001 C 
BRANCH  15  16
ATOM     16  C   UNL     1       1.980  -3.046   5.503  1.00  0.00     0.002 C 
BRANCH  16  17
ATOM     17  C   UNL     1       2.521  -4.297   6.200  1.00  0.00     0.028 C 
BRANCH  17  18
ATOM     18  C   UNL     1       3.959  -4.180   6.691  1.00  0.00     0.156 C 
BRANCH  18  19
ATOM     19  O   UNL     1       4.091  -3.154   7.663  1.00  0.00    -0.396 OA
ATOM     20  H   UNL     1       3.841  -2.303   7.271  1.00  0.00     0.210 HD
ENDBRANCH  18  19
ENDBRANCH  17  18
ENDBRANCH  16  17
ENDBRANCH  15  16
ENDBRANCH  14  15
ENDBRANCH   6  14
ENDBRANCH   3   6
ENDBRANCH   1   2
BRANCH   1  21
ATOM     21  C   UNL     1      -0.936   0.465   4.280  1.00  0.00     0.023 C 
BRANCH  21  22
ATOM     22  C   UNL     1      -1.567   0.645   5.658  1.00  0.00     0.023 C 
BRANCH  22  23
ATOM     23  C   UNL     1      -0.620   0.483   6.845  1.00  0.00     0.116 C 
BRANCH  23  24
ATOM     24  N   UNL     1       0.556   1.342   6.773  1.00  0.00    -0.352 N 
ATOM     25  C   UNL     1       1.036   2.237   7.703  1.00  0.00     0.251 C 
ATOM     26  H   UNL     1       1.080   1.272   5.942  1.00  0.00     0.163 HD
ATOM     27  O   UNL     1       1.984   2.959   7.431  1.00  0.00    -0.269 OA
BRANCH  25  28
ATOM     28  C   UNL     1       0.353   2.340   9.010  1.00  0.00     0.039 A 
ATOM     29  C   UNL     1      -0.094   3.590   9.441  1.00  0.00     0.014 A 
ATOM     30  C   UNL     1       0.084   1.191   9.757  1.00  0.00     0.014 A 
ATOM     31  C   UNL     1      -0.898   3.674  10.579  1.00  0.00     0.010 A 
ATOM     32  C   UNL     1      -0.783   1.268  10.841  1.00  0.00     0.010 A 
ATOM     33  C   UNL     1      -1.292   2.509  11.258  1.00  0.00    -0.014 A 
BRANCH  33  34
ATOM     34  C   UNL     1      -2.249   2.563  12.393  1.00  0.00     0.031 A 
ATOM     35  C   UNL     1      -1.820   2.113  13.762  1.00  0.00     0.074 A 
ATOM     36  C   UNL     1      -3.524   2.942  12.175  1.00  0.00     0.049 A 
ATOM     37  N   UNL     1      -2.525   2.008  14.859  1.00  0.00    -0.248 NA
ATOM     38  C   UNL     1      -0.420   1.691  13.902  1.00  0.00     0.031 C 
ATOM     39  C   UNL     1      -4.076   3.354  10.882  1.00  0.00     0.029 A 
ATOM     40  N   UNL     1      -4.591   3.035  13.034  1.00  0.00    -0.354 N 
ATOM     41  C   UNL     1      -1.658   1.495  15.817  1.00  0.00     0.074 A 
ATOM     42  C   UNL     1      -0.399   1.244  15.147  1.00  0.00     0.031 C 
ATOM     43  C   UNL     1      -5.367   3.685  11.040  1.00  0.00     0.029 A 
ATOM     44  C   UNL     1      -5.750   3.465  12.431  1.00  0.00     0.049 A 
ATOM     45  H   UNL     1      -4.532   2.814  13.991  1.00  0.00     0.167 HD
ATOM     46  C   UNL     1      -1.881   1.278  17.138  1.00  0.00     0.034 A 
ATOM     47  C   UNL     1      -6.984   3.653  12.939  1.00  0.00     0.034 A 
ATOM     48  C   UNL     1      -3.142   1.539  17.790  1.00  0.00     0.049 A 
ATOM     49  C   UNL     1      -7.222   3.379  14.401  1.00  0.00     0.074 A 
ATOM     50  C   UNL     1      -3.464   1.414  19.130  1.00  0.00     0.029 A 
ATOM     51  N   UNL     1      -4.297   1.968  17.146  1.00  0.00    -0.354 N 
ATOM     52  N   UNL     1      -6.378   2.946  15.309  1.00  0.00    -0.248 NA
ATOM     53  C   UNL     1      -8.577   3.627  14.907  1.00  0.00     0.031 C 
ATOM     54  C   UNL     1      -4.825   1.700  19.285  1.00  0.00     0.029 A 
ATOM     55  C   UNL     1      -5.339   2.079  18.055  1.00  0.00     0.049 A 
ATOM     56  H   UNL     1      -4.366   2.165  16.184  1.00  0.00     0.167 HD
ATOM     57  C   UNL     1      -7.095   2.898  16.501  1.00  0.00     0.074 A 
ATOM     58  C   UNL     1      -8.435   3.356  16.197  1.00  0.00     0.031 C 
ATOM     59  C   UNL     1      -6.679   2.518  17.737  1.00  0.00     0.034 A 
BRANCH  46  60
ATOM     60  C   UNL     1      -0.738   0.705  17.943  1.00  0.00     0.023 A 
ATOM     61  C   UNL     1       0.486   1.387  18.071  1.00  0.00     0.031 A 
ATOM     62  C   UNL     1      -0.847  -0.563  18.539  1.00  0.00     0.131 A 
ATOM     63  C   UNL     1       1.579   0.758  18.685  1.00  0.00     0.055 A 
ATOM     64  C   UNL     1       0.218  -1.145  19.231  1.00  0.00     0.041 A 
ATOM     65  F   UNL     1      -1.982  -1.272  18.437  1.00  0.00    -0.206 F 
ATOM     66  C   UNL     1       1.447  -0.494  19.289  1.00  0.00     0.022 A 
BRANCH  63  67
ATOM     67  S   UNL     1       3.217   1.521  18.522  1.00  0.00     0.124 S 
ATOM     68  O   UNL     1       3.357   1.612  17.070  1.00  0.00    -0.237 OA
ATOM     69  O   UNL     1       3.047   2.785  19.228  1.00  0.00    -0.237 OA
ATOM     70  O   UNL     1       4.109   0.560  19.167  1.00  0.00    -0.744 OA
ENDBRANCH  63  67
ENDBRANCH  46  60
BRANCH  47  71
ATOM     71  C   UNL     1      -8.092   4.128  12.063  1.00  0.00     0.023 A 
ATOM     72  C   UNL     1      -8.658   5.399  12.244  1.00  0.00     0.031 A 
ATOM     73  C   UNL     1      -8.612   3.311  11.044  1.00  0.00     0.131 A 
ATOM     74  C   UNL     1      -9.736   5.806  11.442  1.00  0.00     0.055 A 
ATOM     75  C   UNL     1      -9.655   3.737  10.219  1.00  0.00     0.041 A 
ATOM     76  F   UNL     1      -8.099   2.090  10.824  1.00  0.00    -0.206 F 
ATOM     77  C   UNL     1     -10.230   4.988  10.423  1.00  0.00     0.022 A 
BRANCH  74  78
ATOM     78  S   UNL     1     -10.521   7.404  11.786  1.00  0.00     0.124 S 
ATOM     79  O   UNL     1     -10.993   7.215  13.153  1.00  0.00    -0.237 OA
ATOM     80  O   UNL     1      -9.409   8.332  11.612  1.00  0.00    -0.237 OA
ATOM     81  O   UNL     1     -11.568   7.494  10.770  1.00  0.00    -0.744 OA
ENDBRANCH  74  78
ENDBRANCH  47  71
BRANCH  59  82
ATOM     82  C   UNL     1      -7.683   2.625  18.859  1.00  0.00     0.023 A 
ATOM     83  C   UNL     1      -8.824   1.805  18.914  1.00  0.00     0.031 A 
ATOM     84  C   UNL     1      -7.500   3.573  19.881  1.00  0.00     0.131 A 
ATOM     85  C   UNL     1      -9.765   1.985  19.939  1.00  0.00     0.055 A 
ATOM     86  C   UNL     1      -8.409   3.707  20.931  1.00  0.00     0.041 A 
ATOM     87  F   UNL     1      -6.430   4.385  19.876  1.00  0.00    -0.206 F 
ATOM     88  C   UNL     1      -9.556   2.920  20.957  1.00  0.00     0.022 A 
BRANCH  85  89
ATOM     89  S   UNL     1     -11.314   1.043  19.878  1.00  0.00     0.124 S 
ATOM     90  O   UNL     1     -11.869   1.455  18.593  1.00  0.00    -0.237 OA
ATOM     91  O   UNL     1     -10.845  -0.336  19.957  1.00  0.00    -0.237 OA
ATOM     92  O   UNL     1     -12.049   1.514  21.050  1.00  0.00    -0.744 OA
ENDBRANCH  85  89
ENDBRANCH  59  82
ENDBRANCH  33  34
ENDBRANCH  25  28
ENDBRANCH  23  24
ENDBRANCH  22  23
ENDBRANCH  21  22
ENDBRANCH   1  21
TORSDOF 21
