REMARK SMILES Cc1c(C(=O)NCCCCNC(=O)c2ccc(-c3c4nc(c(-c5cc(S(=O)(=O)[O-])ccc5F)c5ccc([nH]5)c(-c5cc(S(=O)(=O)[O-])ccc5F)c5nc(c(-c6cc(S(=O)(=O)[O-])ccc6F)c6ccc3[nH]6)C=C5)C=C4)cc2)oc2c1/C(=N/NC(=O)C(c1ccccc1)c1ccccc1)CCC2
REMARK SMILES IDX 8 1 7 2 6 3 4 4 5 5 3 7 1 8 2 9 79 10 77 11 78 12 80 13
REMARK SMILES IDX 100 14 81 15 98 16 99 17 82 18 83 19 84 21 85 22 86 23 87 24
REMARK SMILES IDX 91 25 88 26 90 27 89 28 92 29 93 30 97 31 94 32 96 33 95 34
REMARK SMILES IDX 9 35 10 36 11 37 12 38 13 40 14 41 15 42 76 43 16 44 75 45
REMARK SMILES IDX 17 46 18 47 19 48 69 49 20 50 74 51 68 52 70 53 21 54 73 55
REMARK SMILES IDX 67 56 66 57 22 59 54 60 34 61 53 62 35 63 38 64 52 65 71 66
REMARK SMILES IDX 36 67 37 68 51 70 72 71 39 72 23 73 24 74 32 75 25 76 31 77
REMARK SMILES IDX 33 78 30 79 26 80 27 81 28 82 29 83 55 84 56 85 64 86 57 87
REMARK SMILES IDX 63 88 65 89 62 90 58 91 59 92 60 93 61 94 40 95 41 96 49 97
REMARK SMILES IDX 42 98 48 99 50 100 47 101 43 102 44 103 45 104 46 105
REMARK H PARENT 6 6 82 20 11 39 70 58 38 69
REMARK Flexibility Score: inf
ROOT
ATOM      1  C   UNL     1      -1.980  -3.513   4.891  1.00  0.00     0.023 C 
ENDROOT
BRANCH   1   2
ATOM      2  C   UNL     1      -0.475  -3.514   4.584  1.00  0.00     0.116 C 
BRANCH   2   3
ATOM      3  N   UNL     1      -0.188  -3.811   3.181  1.00  0.00    -0.349 N 
ATOM      4  C   UNL     1      -0.043  -2.951   2.101  1.00  0.00     0.287 C 
ATOM      5  O   UNL     1       0.292  -3.425   1.025  1.00  0.00    -0.266 OA
ATOM      6  H   UNL     1      -0.083  -4.767   2.971  1.00  0.00     0.163 HD
BRANCH   4   7
ATOM      7  C   UNL     1      -0.242  -1.534   2.327  1.00  0.00     0.195 A 
ATOM      8  C   UNL     1       0.824  -0.286   0.318  1.00  0.00     0.049 C 
ATOM      9  C   UNL     1       0.143  -0.386   1.637  1.00  0.00     0.010 A 
ATOM     10  C   UNL     1      -0.087   0.683   2.560  1.00  0.00     0.043 A 
ATOM     11  O   UNL     1      -0.869  -1.180   3.481  1.00  0.00    -0.455 OA
ATOM     12  C   UNL     1      -0.627   0.109   3.682  1.00  0.00     0.114 A 
ATOM     13  C   UNL     1       0.225   2.102   2.558  1.00  0.00     0.072 C 
ATOM     14  C   UNL     1      -0.834   0.637   5.039  1.00  0.00     0.076 C 
ATOM     15  N   UNL     1       0.416   2.549   1.346  1.00  0.00    -0.177 NA
ATOM     16  C   UNL     1       0.292   2.634   4.015  1.00  0.00     0.059 C 
ATOM     17  C   UNL     1      -0.833   2.147   4.947  1.00  0.00     0.014 C 
BRANCH  15  18
ATOM     18  N   UNL     1       0.688   3.729   0.699  1.00  0.00    -0.246 N 
ATOM     19  C   UNL     1       0.748   5.062   1.049  1.00  0.00     0.252 C 
ATOM     20  H   UNL     1       0.892   3.589  -0.254  1.00  0.00     0.193 HD
ATOM     21  O   UNL     1       0.933   5.910   0.168  1.00  0.00    -0.272 OA
BRANCH  19  22
ATOM     22  C   UNL     1       0.585   5.465   2.500  1.00  0.00     0.140 C 
BRANCH  22  23
ATOM     23  C   UNL     1      -0.937   5.185   2.916  1.00  0.00    -0.031 A 
ATOM     24  C   UNL     1      -1.553   5.762   4.035  1.00  0.00     0.005 A 
ATOM     25  C   UNL     1      -1.802   4.348   2.143  1.00  0.00     0.005 A 
ATOM     26  C   UNL     1      -2.883   5.420   4.399  1.00  0.00     0.000 A 
ATOM     27  C   UNL     1      -3.078   3.936   2.545  1.00  0.00     0.000 A 
ATOM     28  C   UNL     1      -3.623   4.473   3.688  1.00  0.00     0.000 A 
ENDBRANCH  22  23
BRANCH  22  29
ATOM     29  C   UNL     1       1.902   4.976   3.266  1.00  0.00    -0.031 A 
ATOM     30  C   UNL     1       2.740   3.928   2.768  1.00  0.00     0.005 A 
ATOM     31  C   UNL     1       2.347   5.542   4.468  1.00  0.00     0.005 A 
ATOM     32  C   UNL     1       3.776   3.330   3.493  1.00  0.00     0.000 A 
ATOM     33  C   UNL     1       3.460   5.001   5.162  1.00  0.00     0.000 A 
ATOM     34  C   UNL     1       4.133   3.865   4.708  1.00  0.00     0.000 A 
ENDBRANCH  22  29
ENDBRANCH  19  22
ENDBRANCH  15  18
ENDBRANCH   4   7
ENDBRANCH   2   3
ENDBRANCH   1   2
BRANCH   1  35
ATOM     35  C   UNL     1      -2.600  -4.913   4.948  1.00  0.00     0.023 C 
BRANCH  35  36
ATOM     36  C   UNL     1      -2.037  -5.801   6.053  1.00  0.00     0.116 C 
BRANCH  36  37
ATOM     37  N   UNL     1      -2.348  -5.305   7.389  1.00  0.00    -0.352 N 
ATOM     38  C   UNL     1      -1.858  -5.774   8.596  1.00  0.00     0.251 C 
ATOM     39  H   UNL     1      -2.978  -4.551   7.438  1.00  0.00     0.163 HD
ATOM     40  O   UNL     1      -2.499  -5.626   9.623  1.00  0.00    -0.269 OA
BRANCH  38  41
ATOM     41  C   UNL     1      -0.540  -6.442   8.614  1.00  0.00     0.039 A 
ATOM     42  C   UNL     1      -0.320  -7.590   9.380  1.00  0.00     0.014 A 
ATOM     43  C   UNL     1       0.484  -5.899   7.837  1.00  0.00     0.014 A 
ATOM     44  C   UNL     1       0.913  -8.237   9.285  1.00  0.00     0.010 A 
ATOM     45  C   UNL     1       1.661  -6.592   7.664  1.00  0.00     0.010 A 
ATOM     46  C   UNL     1       1.893  -7.747   8.405  1.00  0.00    -0.014 A 
BRANCH  46  47
ATOM     47  C   UNL     1       3.092  -8.530   8.106  1.00  0.00     0.031 A 
ATOM     48  C   UNL     1       2.803  -9.895   7.588  1.00  0.00     0.074 A 
ATOM     49  C   UNL     1       4.342  -8.015   8.071  1.00  0.00     0.049 A 
ATOM     50  N   UNL     1       2.987 -11.012   8.205  1.00  0.00    -0.248 NA
ATOM     51  C   UNL     1       2.064 -10.040   6.323  1.00  0.00     0.031 C 
ATOM     52  C   UNL     1       4.748  -6.626   8.295  1.00  0.00     0.029 A 
ATOM     53  N   UNL     1       5.516  -8.611   7.714  1.00  0.00    -0.354 N 
ATOM     54  C   UNL     1       2.640 -12.014   7.305  1.00  0.00     0.074 A 
ATOM     55  C   UNL     1       1.875 -11.361   6.277  1.00  0.00     0.031 C 
ATOM     56  C   UNL     1       6.010  -6.444   7.847  1.00  0.00     0.029 A 
ATOM     57  C   UNL     1       6.558  -7.725   7.433  1.00  0.00     0.049 A 
ATOM     58  H   UNL     1       5.620  -9.589   7.660  1.00  0.00     0.167 HD
ATOM     59  C   UNL     1       3.233 -13.240   7.365  1.00  0.00     0.034 A 
ATOM     60  C   UNL     1       7.771  -8.014   6.879  1.00  0.00     0.034 A 
ATOM     61  C   UNL     1       3.969 -13.389   8.604  1.00  0.00     0.049 A 
ATOM     62  C   UNL     1       8.020  -9.454   7.143  1.00  0.00     0.074 A 
ATOM     63  C   UNL     1       3.633 -13.310   9.942  1.00  0.00     0.029 A 
ATOM     64  N   UNL     1       5.340 -13.250   8.556  1.00  0.00    -0.354 N 
ATOM     65  N   UNL     1       8.196  -9.933   8.345  1.00  0.00    -0.248 NA
ATOM     66  C   UNL     1       7.564 -10.423   6.156  1.00  0.00     0.031 C 
ATOM     67  C   UNL     1       4.721 -12.617  10.548  1.00  0.00     0.029 A 
ATOM     68  C   UNL     1       5.707 -12.413   9.581  1.00  0.00     0.049 A 
ATOM     69  H   UNL     1       5.946 -13.674   7.906  1.00  0.00     0.167 HD
ATOM     70  C   UNL     1       7.439 -11.094   8.377  1.00  0.00     0.074 A 
ATOM     71  C   UNL     1       7.162 -11.402   6.973  1.00  0.00     0.031 C 
ATOM     72  C   UNL     1       6.856 -11.527   9.536  1.00  0.00     0.034 A 
BRANCH  59  73
ATOM     73  C   UNL     1       3.487 -14.161   6.191  1.00  0.00     0.023 A 
ATOM     74  C   UNL     1       4.131 -15.383   6.472  1.00  0.00     0.031 A 
ATOM     75  C   UNL     1       3.417 -13.807   4.826  1.00  0.00     0.131 A 
ATOM     76  C   UNL     1       4.774 -16.113   5.460  1.00  0.00     0.055 A 
ATOM     77  C   UNL     1       3.995 -14.578   3.812  1.00  0.00     0.041 A 
ATOM     78  F   UNL     1       2.875 -12.662   4.400  1.00  0.00    -0.206 F 
ATOM     79  C   UNL     1       4.712 -15.719   4.128  1.00  0.00     0.022 A 
BRANCH  76  80
ATOM     80  S   UNL     1       5.855 -17.481   5.952  1.00  0.00     0.124 S 
ATOM     81  O   UNL     1       6.787 -16.805   6.847  1.00  0.00    -0.237 OA
ATOM     82  O   UNL     1       4.911 -18.400   6.579  1.00  0.00    -0.237 OA
ATOM     83  O   UNL     1       6.421 -17.936   4.685  1.00  0.00    -0.744 OA
ENDBRANCH  76  80
ENDBRANCH  59  73
BRANCH  60  84
ATOM     84  C   UNL     1       8.591  -7.196   5.929  1.00  0.00     0.023 A 
ATOM     85  C   UNL     1       9.940  -7.493   5.614  1.00  0.00     0.031 A 
ATOM     86  C   UNL     1       7.958  -6.235   5.109  1.00  0.00     0.131 A 
ATOM     87  C   UNL     1      10.583  -6.852   4.523  1.00  0.00     0.055 A 
ATOM     88  C   UNL     1       8.597  -5.607   4.035  1.00  0.00     0.041 A 
ATOM     89  F   UNL     1       6.660  -5.932   5.263  1.00  0.00    -0.206 F 
ATOM     90  C   UNL     1       9.909  -5.923   3.729  1.00  0.00     0.022 A 
BRANCH  87  91
ATOM     91  S   UNL     1      12.289  -7.292   4.039  1.00  0.00     0.124 S 
ATOM     92  O   UNL     1      13.082  -6.656   5.084  1.00  0.00    -0.237 OA
ATOM     93  O   UNL     1      12.256  -8.750   4.043  1.00  0.00    -0.237 OA
ATOM     94  O   UNL     1      12.432  -6.692   2.711  1.00  0.00    -0.744 OA
ENDBRANCH  87  91
ENDBRANCH  60  84
BRANCH  72  95
ATOM     95  C   UNL     1       7.285 -10.900  10.850  1.00  0.00     0.023 A 
ATOM     96  C   UNL     1       7.252  -9.517  11.146  1.00  0.00     0.031 A 
ATOM     97  C   UNL     1       7.624 -11.778  11.896  1.00  0.00     0.131 A 
ATOM     98  C   UNL     1       7.563  -9.065  12.445  1.00  0.00     0.055 A 
ATOM     99  C   UNL     1       7.901 -11.330  13.186  1.00  0.00     0.041 A 
ATOM    100  F   UNL     1       7.652 -13.105  11.688  1.00  0.00    -0.206 F 
ATOM    101  C   UNL     1       7.878  -9.970  13.464  1.00  0.00     0.022 A 
BRANCH  98 102
ATOM    102  S   UNL     1       7.588  -7.284  12.834  1.00  0.00     0.124 S 
ATOM    103  O   UNL     1       8.348  -6.704  11.733  1.00  0.00    -0.237 OA
ATOM    104  O   UNL     1       6.168  -6.948  12.877  1.00  0.00    -0.237 OA
ATOM    105  O   UNL     1       8.264  -7.230  14.132  1.00  0.00    -0.744 OA
ENDBRANCH  98 102
ENDBRANCH  72  95
ENDBRANCH  46  47
ENDBRANCH  38  41
ENDBRANCH  36  37
ENDBRANCH  35  36
ENDBRANCH   1  35
TORSDOF 18
