REMARK SMILES CS(=O)(=O)c1ccc(/C=C(/C(=O)NCCCCNC(=O)c2ccc(-c3c4nc(c(-c5cc(S(=O)(=O)[O-])ccc5F)c5ccc([nH]5)c(-c5cc(S(=O)(=O)[O-])ccc5F)c5nc(c(-c6cc(S(=O)(=O)[O-])ccc6F)c6ccc3[nH]6)C=C5)C=C4)cc2)c2ccccc2)cc1
REMARK SMILES IDX 16 1 15 2 14 3 13 4 11 5 12 6 10 8 9 9 8 10 5 11 6 12 91 13
REMARK SMILES IDX 7 14 90 15 2 16 1 17 3 18 4 19 84 20 85 21 89 22 86 23 88 24
REMARK SMILES IDX 87 25 17 26 18 27 19 28 20 30 21 31 22 32 83 33 23 34 82 35
REMARK SMILES IDX 24 36 25 37 26 38 76 39 27 40 81 41 75 42 77 43 28 44 80 45
REMARK SMILES IDX 74 46 73 47 29 49 61 50 41 51 60 52 42 53 45 54 59 55 78 56
REMARK SMILES IDX 43 57 44 58 58 60 79 61 46 62 30 63 31 64 39 65 32 66 38 67
REMARK SMILES IDX 40 68 37 69 33 70 34 71 35 72 36 73 62 74 63 75 71 76 64 77
REMARK SMILES IDX 70 78 72 79 69 80 65 81 66 82 67 83 68 84 47 85 48 86 56 87
REMARK SMILES IDX 49 88 55 89 57 90 54 91 50 92 51 93 52 94 53 95
REMARK H PARENT 13 7 18 29 77 48 45 59
REMARK Flexibility Score: inf
ROOT
ATOM      1  C   UNL     1       2.199   2.416  11.200  1.00  0.00     0.023 C 
ENDROOT
BRANCH   1   2
ATOM      2  C   UNL     1       2.124   2.259   9.676  1.00  0.00     0.023 C 
BRANCH   2   3
ATOM      3  C   UNL     1       3.204   1.353   9.078  1.00  0.00     0.116 C 
BRANCH   3   4
ATOM      4  N   UNL     1       2.925  -0.037   9.384  1.00  0.00    -0.352 N 
ATOM      5  C   UNL     1       2.347  -1.053   8.689  1.00  0.00     0.251 C 
ATOM      6  O   UNL     1       2.237  -2.128   9.285  1.00  0.00    -0.269 OA
ATOM      7  H   UNL     1       3.216  -0.301  10.286  1.00  0.00     0.163 HD
BRANCH   5   8
ATOM      8  C   UNL     1       1.922  -0.942   7.241  1.00  0.00     0.047 C 
ATOM      9  C   UNL     1       1.420   0.199   6.717  1.00  0.00     0.022 C 
BRANCH   9  10
ATOM     10  C   UNL     1       1.041   0.494   5.319  1.00  0.00    -0.025 A 
ATOM     11  C   UNL     1       0.498   1.124   2.642  1.00  0.00     0.067 A 
ATOM     12  C   UNL     1      -0.038  -0.035   3.205  1.00  0.00     0.021 A 
ATOM     13  C   UNL     1       1.254   2.004   3.415  1.00  0.00     0.021 A 
ATOM     14  C   UNL     1       0.223  -0.337   4.544  1.00  0.00     0.009 A 
ATOM     15  C   UNL     1       1.523   1.685   4.749  1.00  0.00     0.009 A 
BRANCH  11  16
ATOM     16  S   UNL     1       0.200   1.475   0.927  1.00  0.00     0.175 S 
ATOM     17  C   UNL     1       1.030   0.161   0.073  1.00  0.00     0.163 C 
ATOM     18  O   UNL     1       0.883   2.708   0.596  1.00  0.00    -0.224 OA
ATOM     19  O   UNL     1      -1.229   1.329   0.704  1.00  0.00    -0.224 OA
ENDBRANCH  11  16
ENDBRANCH   9  10
BRANCH   8  20
ATOM     20  C   UNL     1       1.908  -2.198   6.448  1.00  0.00    -0.013 A 
ATOM     21  C   UNL     1       0.960  -3.186   6.764  1.00  0.00     0.009 A 
ATOM     22  C   UNL     1       2.748  -2.393   5.345  1.00  0.00     0.009 A 
ATOM     23  C   UNL     1       0.831  -4.331   5.979  1.00  0.00     0.001 A 
ATOM     24  C   UNL     1       2.613  -3.539   4.554  1.00  0.00     0.001 A 
ATOM     25  C   UNL     1       1.651  -4.501   4.867  1.00  0.00     0.000 A 
ENDBRANCH   8  20
ENDBRANCH   5   8
ENDBRANCH   3   4
ENDBRANCH   2   3
ENDBRANCH   1   2
BRANCH   1  26
ATOM     26  C   UNL     1       3.475   3.067  11.728  1.00  0.00     0.116 C 
BRANCH  26  27
ATOM     27  N   UNL     1       3.717   4.383  11.161  1.00  0.00    -0.352 N 
ATOM     28  C   UNL     1       4.298   5.482  11.746  1.00  0.00     0.251 C 
ATOM     29  H   UNL     1       3.424   4.504  10.229  1.00  0.00     0.163 HD
ATOM     30  O   UNL     1       4.309   6.552  11.144  1.00  0.00    -0.269 OA
BRANCH  28  31
ATOM     31  C   UNL     1       4.866   5.381  13.108  1.00  0.00     0.039 A 
ATOM     32  C   UNL     1       4.555   6.376  14.038  1.00  0.00     0.014 A 
ATOM     33  C   UNL     1       5.693   4.314  13.469  1.00  0.00     0.014 A 
ATOM     34  C   UNL     1       5.021   6.267  15.350  1.00  0.00     0.010 A 
ATOM     35  C   UNL     1       6.106   4.176  14.793  1.00  0.00     0.010 A 
ATOM     36  C   UNL     1       5.773   5.149  15.746  1.00  0.00    -0.014 A 
BRANCH  36  37
ATOM     37  C   UNL     1       6.215   4.983  17.155  1.00  0.00     0.031 A 
ATOM     38  C   UNL     1       7.680   5.012  17.495  1.00  0.00     0.074 A 
ATOM     39  C   UNL     1       5.300   4.742  18.114  1.00  0.00     0.049 A 
ATOM     40  N   UNL     1       8.267   4.817  18.647  1.00  0.00    -0.248 NA
ATOM     41  C   UNL     1       8.607   5.263  16.382  1.00  0.00     0.031 C 
ATOM     42  C   UNL     1       3.855   4.646  17.897  1.00  0.00     0.029 A 
ATOM     43  N   UNL     1       5.448   4.524  19.461  1.00  0.00    -0.354 N 
ATOM     44  C   UNL     1       9.632   4.909  18.398  1.00  0.00     0.074 A 
ATOM     45  C   UNL     1       9.783   5.118  16.973  1.00  0.00     0.031 C 
ATOM     46  C   UNL     1       3.249   4.407  19.072  1.00  0.00     0.029 A 
ATOM     47  C   UNL     1       4.261   4.295  20.117  1.00  0.00     0.049 A 
ATOM     48  H   UNL     1       6.322   4.531  19.914  1.00  0.00     0.167 HD
ATOM     49  C   UNL     1      10.662   4.846  19.280  1.00  0.00     0.034 A 
ATOM     50  C   UNL     1       4.017   4.018  21.413  1.00  0.00     0.034 A 
ATOM     51  C   UNL     1      10.492   4.650  20.699  1.00  0.00     0.049 A 
ATOM     52  C   UNL     1       5.177   3.949  22.373  1.00  0.00     0.074 A 
ATOM     53  C   UNL     1      11.459   4.626  21.690  1.00  0.00     0.029 A 
ATOM     54  N   UNL     1       9.273   4.437  21.332  1.00  0.00    -0.354 N 
ATOM     55  N   UNL     1       6.460   4.090  22.131  1.00  0.00    -0.248 NA
ATOM     56  C   UNL     1       4.854   3.697  23.783  1.00  0.00     0.031 C 
ATOM     57  C   UNL     1      10.833   4.341  22.909  1.00  0.00     0.029 A 
ATOM     58  C   UNL     1       9.467   4.255  22.693  1.00  0.00     0.049 A 
ATOM     59  H   UNL     1       8.399   4.418  20.880  1.00  0.00     0.167 HD
ATOM     60  C   UNL     1       7.093   3.972  23.365  1.00  0.00     0.074 A 
ATOM     61  C   UNL     1       6.050   3.763  24.348  1.00  0.00     0.031 C 
ATOM     62  C   UNL     1       8.417   4.036  23.660  1.00  0.00     0.034 A 
BRANCH  49  63
ATOM     63  C   UNL     1      12.060   4.967  18.720  1.00  0.00     0.023 A 
ATOM     64  C   UNL     1      12.495   6.136  18.070  1.00  0.00     0.031 A 
ATOM     65  C   UNL     1      12.958   3.889  18.805  1.00  0.00     0.131 A 
ATOM     66  C   UNL     1      13.758   6.170  17.461  1.00  0.00     0.055 A 
ATOM     67  C   UNL     1      14.246   3.959  18.268  1.00  0.00     0.041 A 
ATOM     68  F   UNL     1      12.594   2.740  19.395  1.00  0.00    -0.206 F 
ATOM     69  C   UNL     1      14.647   5.099  17.576  1.00  0.00     0.022 A 
BRANCH  66  70
ATOM     70  S   UNL     1      14.164   7.576  16.389  1.00  0.00     0.124 S 
ATOM     71  O   UNL     1      13.107   7.494  15.384  1.00  0.00    -0.237 OA
ATOM     72  O   UNL     1      14.085   8.706  17.308  1.00  0.00    -0.237 OA
ATOM     73  O   UNL     1      15.505   7.260  15.901  1.00  0.00    -0.744 OA
ENDBRANCH  66  70
ENDBRANCH  49  63
BRANCH  50  74
ATOM     74  C   UNL     1       2.624   3.781  21.885  1.00  0.00     0.023 A 
ATOM     75  C   UNL     1       2.003   4.668  22.777  1.00  0.00     0.031 A 
ATOM     76  C   UNL     1       1.906   2.643  21.477  1.00  0.00     0.131 A 
ATOM     77  C   UNL     1       0.721   4.381  23.270  1.00  0.00     0.055 A 
ATOM     78  C   UNL     1       0.612   2.386  21.933  1.00  0.00     0.041 A 
ATOM     79  F   UNL     1       2.451   1.768  20.617  1.00  0.00    -0.206 F 
ATOM     80  C   UNL     1       0.017   3.252  22.846  1.00  0.00     0.022 A 
BRANCH  77  81
ATOM     81  S   UNL     1       0.014   5.469  24.538  1.00  0.00     0.124 S 
ATOM     82  O   UNL     1       1.018   5.388  25.593  1.00  0.00    -0.237 OA
ATOM     83  O   UNL     1      -0.071   6.742  23.830  1.00  0.00    -0.237 OA
ATOM     84  O   UNL     1      -1.270   4.843  24.846  1.00  0.00    -0.744 OA
ENDBRANCH  77  81
ENDBRANCH  50  74
BRANCH  62  85
ATOM     85  C   UNL     1       8.796   3.920  25.115  1.00  0.00     0.023 A 
ATOM     86  C   UNL     1       8.629   2.721  25.830  1.00  0.00     0.031 A 
ATOM     87  C   UNL     1       9.316   5.033  25.799  1.00  0.00     0.131 A 
ATOM     88  C   UNL     1       8.926   2.679  27.201  1.00  0.00     0.055 A 
ATOM     89  C   UNL     1       9.664   4.969  27.149  1.00  0.00     0.041 A 
ATOM     90  F   UNL     1       9.495   6.203  25.164  1.00  0.00    -0.206 F 
ATOM     91  C   UNL     1       9.457   3.791  27.861  1.00  0.00     0.022 A 
BRANCH  88  92
ATOM     92  S   UNL     1       8.527   1.175  28.133  1.00  0.00     0.124 S 
ATOM     93  O   UNL     1       7.090   1.053  27.912  1.00  0.00    -0.237 OA
ATOM     94  O   UNL     1       9.360   0.172  27.478  1.00  0.00    -0.237 OA
ATOM     95  O   UNL     1       8.918   1.506  29.502  1.00  0.00    -0.744 OA
ENDBRANCH  88  92
ENDBRANCH  62  85
ENDBRANCH  36  37
ENDBRANCH  28  31
ENDBRANCH  26  27
ENDBRANCH   1  26
TORSDOF 17
