REMARK SMILES Cc1noc(C)c1C[NH2+][C@H](C)[C@H](C)C(=O)NCCCCNC(=O)c1ccc(-c2c3nc(c(-c4cc(S(=O)(=O)[O-])ccc4F)c4ccc([nH]4)c(-c4cc(S(=O)(=O)[O-])ccc4F)c4nc(c(-c5cc(S(=O)(=O)[O-])ccc5F)c5ccc2[nH]5)C=C4)C=C3)cc1
REMARK SMILES IDX 18 1 17 2 16 3 14 4 15 5 12 7 13 8 10 9 11 10 9 11 8 14 7 15
REMARK SMILES IDX 1 16 2 17 3 18 4 19 5 20 6 21 19 22 20 23 21 24 22 25 23 27
REMARK SMILES IDX 24 28 25 29 86 30 26 31 85 32 27 33 28 34 29 35 79 36 30 37
REMARK SMILES IDX 84 38 78 39 80 40 31 41 83 42 77 43 76 44 32 46 64 47 44 48
REMARK SMILES IDX 63 49 45 50 48 51 62 52 81 53 46 54 47 55 61 57 82 58 49 59
REMARK SMILES IDX 33 60 34 61 42 62 35 63 41 64 43 65 40 66 36 67 37 68 38 69
REMARK SMILES IDX 39 70 65 71 66 72 74 73 67 74 73 75 75 76 72 77 68 78 69 79
REMARK SMILES IDX 70 80 71 81 50 82 51 83 59 84 52 85 58 86 60 87 57 88 53 89
REMARK SMILES IDX 54 90 55 91 56 92
REMARK H PARENT 16 6 9 12 9 13 21 26 80 45 48 56
REMARK Flexibility Score: inf
ROOT
ATOM      1  C   UNL     1      -1.851   6.914   1.318  1.00  0.00     0.023 C 
ENDROOT
BRANCH   1   2
ATOM      2  C   UNL     1      -2.555   6.489   0.034  1.00  0.00     0.116 C 
BRANCH   2   3
ATOM      3  N   UNL     1      -1.937   7.062  -1.146  1.00  0.00    -0.356 N 
ATOM      4  C   UNL     1      -1.461   6.480  -2.278  1.00  0.00     0.228 C 
ATOM      5  O   UNL     1      -0.993   7.218  -3.149  1.00  0.00    -0.275 OA
ATOM      6  H   UNL     1      -1.847   8.042  -1.123  1.00  0.00     0.163 HD
BRANCH   4   7
ATOM      7  C   UNL     1      -1.506   4.970  -2.494  1.00  0.00     0.133 C 
ATOM      8  C   UNL     1      -0.648   4.242  -1.453  1.00  0.00     0.024 C 
BRANCH   7   9
ATOM      9  C   UNL     1      -2.962   4.458  -2.627  1.00  0.00     0.191 C 
ATOM     10  C   UNL     1      -3.664   5.096  -3.834  1.00  0.00     0.076 C 
BRANCH   9  11
ATOM     11  N   UNL     1      -3.045   2.999  -2.812  1.00  0.00    -0.339 N 
ATOM     12  H   UNL     1      -3.484   2.805  -3.712  1.00  0.00     0.346 HD
ATOM     13  H   UNL     1      -2.098   2.620  -2.776  1.00  0.00     0.346 HD
BRANCH  11  14
ATOM     14  C   UNL     1      -3.828   2.361  -1.758  1.00  0.00     0.303 C 
BRANCH  14  15
ATOM     15  C   UNL     1      -3.980   0.924  -2.090  1.00  0.00     0.071 A 
ATOM     16  C   UNL     1      -5.465   1.049  -4.233  1.00  0.00     0.071 C 
ATOM     17  C   UNL     1      -4.707   0.348  -3.170  1.00  0.00     0.090 A 
ATOM     18  N   UNL     1      -4.648  -0.989  -3.145  1.00  0.00    -0.085 NA
ATOM     19  O   UNL     1      -3.881  -1.310  -2.042  1.00  0.00    -0.361 OA
ATOM     20  C   UNL     1      -3.488  -0.171  -1.413  1.00  0.00     0.142 A 
ATOM     21  C   UNL     1      -2.671  -0.343  -0.198  1.00  0.00     0.091 C 
ENDBRANCH  14  15
ENDBRANCH  11  14
ENDBRANCH   9  11
ENDBRANCH   7   9
ENDBRANCH   4   7
ENDBRANCH   2   3
ENDBRANCH   1   2
BRANCH   1  22
ATOM     22  C   UNL     1      -1.937   8.407   1.634  1.00  0.00     0.023 C 
BRANCH  22  23
ATOM     23  C   UNL     1      -3.346   8.992   1.647  1.00  0.00     0.116 C 
BRANCH  23  24
ATOM     24  N   UNL     1      -4.230   8.324   2.591  1.00  0.00    -0.352 N 
ATOM     25  C   UNL     1      -5.027   8.874   3.568  1.00  0.00     0.251 C 
ATOM     26  H   UNL     1      -4.263   7.342   2.520  1.00  0.00     0.163 HD
ATOM     27  O   UNL     1      -5.612   8.144   4.363  1.00  0.00    -0.269 OA
BRANCH  25  28
ATOM     28  C   UNL     1      -5.134  10.344   3.673  1.00  0.00     0.039 A 
ATOM     29  C   UNL     1      -4.907  10.952   4.910  1.00  0.00     0.014 A 
ATOM     30  C   UNL     1      -5.402  11.118   2.541  1.00  0.00     0.014 A 
ATOM     31  C   UNL     1      -4.860  12.345   4.993  1.00  0.00     0.010 A 
ATOM     32  C   UNL     1      -5.285  12.503   2.613  1.00  0.00     0.010 A 
ATOM     33  C   UNL     1      -5.001  13.130   3.836  1.00  0.00    -0.014 A 
BRANCH  33  34
ATOM     34  C   UNL     1      -4.833  14.606   3.879  1.00  0.00     0.031 A 
ATOM     35  C   UNL     1      -5.990  15.505   3.543  1.00  0.00     0.074 A 
ATOM     36  C   UNL     1      -3.619  15.131   4.136  1.00  0.00     0.049 A 
ATOM     37  N   UNL     1      -6.020  16.808   3.426  1.00  0.00    -0.248 NA
ATOM     38  C   UNL     1      -7.276  14.846   3.269  1.00  0.00     0.031 C 
ATOM     39  C   UNL     1      -2.408  14.359   4.426  1.00  0.00     0.029 A 
ATOM     40  N   UNL     1      -3.197  16.436   4.181  1.00  0.00    -0.354 N 
ATOM     41  C   UNL     1      -7.321  17.124   3.049  1.00  0.00     0.074 A 
ATOM     42  C   UNL     1      -8.030  15.870   2.901  1.00  0.00     0.031 C 
ATOM     43  C   UNL     1      -1.386  15.205   4.636  1.00  0.00     0.029 A 
ATOM     44  C   UNL     1      -1.855  16.575   4.455  1.00  0.00     0.049 A 
ATOM     45  H   UNL     1      -3.798  17.201   4.032  1.00  0.00     0.167 HD
ATOM     46  C   UNL     1      -7.877  18.347   2.867  1.00  0.00     0.034 A 
ATOM     47  C   UNL     1      -1.088  17.680   4.536  1.00  0.00     0.034 A 
ATOM     48  C   UNL     1      -7.162  19.588   3.037  1.00  0.00     0.049 A 
ATOM     49  C   UNL     1      -1.724  19.027   4.316  1.00  0.00     0.074 A 
ATOM     50  C   UNL     1      -7.645  20.882   2.950  1.00  0.00     0.029 A 
ATOM     51  N   UNL     1      -5.806  19.690   3.323  1.00  0.00    -0.354 N 
ATOM     52  N   UNL     1      -2.971  19.312   4.017  1.00  0.00    -0.248 NA
ATOM     53  C   UNL     1      -0.852  20.202   4.451  1.00  0.00     0.031 C 
ATOM     54  C   UNL     1      -6.572  21.765   3.123  1.00  0.00     0.029 A 
ATOM     55  C   UNL     1      -5.431  21.024   3.384  1.00  0.00     0.049 A 
ATOM     56  H   UNL     1      -5.200  18.927   3.461  1.00  0.00     0.167 HD
ATOM     57  C   UNL     1      -3.036  20.701   3.952  1.00  0.00     0.074 A 
ATOM     58  C   UNL     1      -1.708  21.195   4.256  1.00  0.00     0.031 C 
ATOM     59  C   UNL     1      -4.098  21.498   3.671  1.00  0.00     0.034 A 
BRANCH  46  60
ATOM     60  C   UNL     1      -9.325  18.391   2.441  1.00  0.00     0.023 A 
ATOM     61  C   UNL     1     -10.349  17.891   3.264  1.00  0.00     0.031 A 
ATOM     62  C   UNL     1      -9.683  18.904   1.182  1.00  0.00     0.131 A 
ATOM     63  C   UNL     1     -11.667  17.838   2.787  1.00  0.00     0.055 A 
ATOM     64  C   UNL     1     -11.010  18.923   0.746  1.00  0.00     0.041 A 
ATOM     65  F   UNL     1      -8.746  19.377   0.345  1.00  0.00    -0.206 F 
ATOM     66  C   UNL     1     -12.009  18.373   1.544  1.00  0.00     0.022 A 
BRANCH  63  67
ATOM     67  S   UNL     1     -12.900  16.926   3.756  1.00  0.00     0.124 S 
ATOM     68  O   UNL     1     -12.312  15.589   3.795  1.00  0.00    -0.237 OA
ATOM     69  O   UNL     1     -12.911  17.655   5.019  1.00  0.00    -0.237 OA
ATOM     70  O   UNL     1     -14.118  17.041   2.957  1.00  0.00    -0.744 OA
ENDBRANCH  63  67
ENDBRANCH  46  60
BRANCH  47  71
ATOM     71  C   UNL     1       0.369  17.566   4.824  1.00  0.00     0.023 A 
ATOM     72  C   UNL     1       0.907  18.057   6.024  1.00  0.00     0.031 A 
ATOM     73  C   UNL     1       1.251  16.999   3.887  1.00  0.00     0.131 A 
ATOM     74  C   UNL     1       2.293  18.010   6.240  1.00  0.00     0.055 A 
ATOM     75  C   UNL     1       2.624  16.914   4.125  1.00  0.00     0.041 A 
ATOM     76  F   UNL     1       0.785  16.508   2.728  1.00  0.00    -0.206 F 
ATOM     77  C   UNL     1       3.154  17.433   5.303  1.00  0.00     0.022 A 
BRANCH  74  78
ATOM     78  S   UNL     1       2.965  18.782   7.737  1.00  0.00     0.124 S 
ATOM     79  O   UNL     1       2.504  20.158   7.596  1.00  0.00    -0.237 OA
ATOM     80  O   UNL     1       2.332  17.997   8.791  1.00  0.00    -0.237 OA
ATOM     81  O   UNL     1       4.407  18.589   7.601  1.00  0.00    -0.744 OA
ENDBRANCH  74  78
ENDBRANCH  47  71
BRANCH  59  82
ATOM     82  C   UNL     1      -3.864  22.986   3.716  1.00  0.00     0.023 A 
ATOM     83  C   UNL     1      -3.072  23.636   2.754  1.00  0.00     0.031 A 
ATOM     84  C   UNL     1      -4.434  23.760   4.742  1.00  0.00     0.131 A 
ATOM     85  C   UNL     1      -2.833  25.014   2.864  1.00  0.00     0.055 A 
ATOM     86  C   UNL     1      -4.235  25.139   4.816  1.00  0.00     0.041 A 
ATOM     87  F   UNL     1      -5.196  23.187   5.686  1.00  0.00    -0.206 F 
ATOM     88  C   UNL     1      -3.421  25.772   3.880  1.00  0.00     0.022 A 
BRANCH  85  89
ATOM     89  S   UNL     1      -1.682  25.795   1.700  1.00  0.00     0.124 S 
ATOM     90  O   UNL     1      -0.441  25.076   1.972  1.00  0.00    -0.237 OA
ATOM     91  O   UNL     1      -2.307  25.521   0.410  1.00  0.00    -0.237 OA
ATOM     92  O   UNL     1      -1.686  27.200   2.103  1.00  0.00    -0.744 OA
ENDBRANCH  85  89
ENDBRANCH  59  82
ENDBRANCH  33  34
ENDBRANCH  25  28
ENDBRANCH  23  24
ENDBRANCH  22  23
ENDBRANCH   1  22
TORSDOF 18
