REMARK SMILES O=C(NCCCCNC(=O)[C@@]1(c2ccccc2)CCCC[NH2+]1)c1ccc(-c2c3nc(c(-c4cc(S(=O)(=O)[O-])ccc4F)c4ccc([nH]4)c(-c4cc(S(=O)(=O)[O-])ccc4F)c4nc(c(-c5cc(S(=O)(=O)[O-])ccc5F)c5ccc2[nH]5)C=C4)C=C3)cc1
REMARK SMILES IDX 4 1 3 2 1 3 2 4 23 6 24 7 85 8 25 9 84 10 26 11 27 12 28 13
REMARK SMILES IDX 78 14 29 15 83 16 77 17 79 18 30 19 82 20 76 21 75 22 31 24
REMARK SMILES IDX 63 25 43 26 62 27 44 28 47 29 61 30 80 31 45 32 46 33 60 35
REMARK SMILES IDX 81 36 48 37 32 38 33 39 41 40 34 41 40 42 42 43 39 44 35 45
REMARK SMILES IDX 36 46 37 47 38 48 64 49 65 50 73 51 66 52 72 53 74 54 71 55
REMARK SMILES IDX 67 56 68 57 69 58 70 59 49 60 50 61 58 62 51 63 57 64 59 65
REMARK SMILES IDX 56 66 52 67 53 68 54 69 55 70 5 71 6 72 7 73 8 74 9 75 10 77
REMARK SMILES IDX 11 78 18 79 22 80 19 81 21 82 20 85 12 86 13 87 17 88 14 89
REMARK SMILES IDX 16 90 15 91
REMARK H PARENT 3 5 79 23 47 34 8 76 22 83 22 84
REMARK Flexibility Score: inf
ROOT
ATOM      1  C   UNL     1       2.965  -8.631   2.328  1.00  0.00     0.116 C 
ENDROOT
BRANCH   1   2
ATOM      2  N   UNL     1       3.799  -9.561   1.581  1.00  0.00    -0.352 N 
ATOM      3  O   UNL     1       4.258 -11.440   0.426  1.00  0.00    -0.269 OA
ATOM      4  C   UNL     1       3.421 -10.649   0.833  1.00  0.00     0.251 C 
ATOM      5  H   UNL     1       4.768  -9.386   1.616  1.00  0.00     0.163 HD
BRANCH   4   6
ATOM      6  C   UNL     1       1.988 -10.847   0.540  1.00  0.00     0.039 A 
ATOM      7  C   UNL     1       1.211  -9.776   0.087  1.00  0.00     0.014 A 
ATOM      8  C   UNL     1       1.423 -12.108   0.732  1.00  0.00     0.014 A 
ATOM      9  C   UNL     1      -0.159  -9.936  -0.065  1.00  0.00     0.010 A 
ATOM     10  C   UNL     1       0.059 -12.286   0.504  1.00  0.00     0.010 A 
ATOM     11  C   UNL     1      -0.743 -11.197   0.124  1.00  0.00    -0.014 A 
BRANCH  11  12
ATOM     12  C   UNL     1      -2.188 -11.387  -0.138  1.00  0.00     0.031 A 
ATOM     13  C   UNL     1      -3.122 -11.764   0.972  1.00  0.00     0.074 A 
ATOM     14  C   UNL     1      -2.637 -11.248  -1.399  1.00  0.00     0.049 A 
ATOM     15  N   UNL     1      -4.386 -12.091   0.913  1.00  0.00    -0.248 NA
ATOM     16  C   UNL     1      -2.552 -11.793   2.326  1.00  0.00     0.031 C 
ATOM     17  C   UNL     1      -1.809 -10.877  -2.550  1.00  0.00     0.029 A 
ATOM     18  N   UNL     1      -3.889 -11.417  -1.930  1.00  0.00    -0.354 N 
ATOM     19  C   UNL     1      -4.763 -12.390   2.218  1.00  0.00     0.074 A 
ATOM     20  C   UNL     1      -3.578 -12.234   3.039  1.00  0.00     0.031 C 
ATOM     21  C   UNL     1      -2.574 -10.846  -3.649  1.00  0.00     0.029 A 
ATOM     22  C   UNL     1      -3.924 -11.267  -3.295  1.00  0.00     0.049 A 
ATOM     23  H   UNL     1      -4.683 -11.625  -1.387  1.00  0.00     0.167 HD
ATOM     24  C   UNL     1      -5.985 -12.759   2.679  1.00  0.00     0.034 A 
ATOM     25  C   UNL     1      -4.916 -11.494  -4.175  1.00  0.00     0.034 A 
ATOM     26  C   UNL     1      -7.143 -12.911   1.829  1.00  0.00     0.049 A 
ATOM     27  C   UNL     1      -6.247 -11.957  -3.656  1.00  0.00     0.074 A 
ATOM     28  C   UNL     1      -8.439 -13.242   2.183  1.00  0.00     0.029 A 
ATOM     29  N   UNL     1      -7.139 -12.761   0.445  1.00  0.00    -0.354 N 
ATOM     30  N   UNL     1      -6.597 -12.226  -2.419  1.00  0.00    -0.248 NA
ATOM     31  C   UNL     1      -7.315 -12.144  -4.644  1.00  0.00     0.031 C 
ATOM     32  C   UNL     1      -9.198 -13.361   1.013  1.00  0.00     0.029 A 
ATOM     33  C   UNL     1      -8.399 -13.027  -0.070  1.00  0.00     0.049 A 
ATOM     34  H   UNL     1      -6.354 -12.502  -0.091  1.00  0.00     0.167 HD
ATOM     35  C   UNL     1      -7.936 -12.592  -2.476  1.00  0.00     0.074 A 
ATOM     36  C   UNL     1      -8.329 -12.509  -3.870  1.00  0.00     0.031 C 
ATOM     37  C   UNL     1      -8.767 -12.952  -1.466  1.00  0.00     0.034 A 
BRANCH  24  38
ATOM     38  C   UNL     1      -6.102 -13.079   4.152  1.00  0.00     0.023 A 
ATOM     39  C   UNL     1      -5.839 -12.118   5.145  1.00  0.00     0.031 A 
ATOM     40  C   UNL     1      -6.425 -14.382   4.572  1.00  0.00     0.131 A 
ATOM     41  C   UNL     1      -5.808 -12.496   6.497  1.00  0.00     0.055 A 
ATOM     42  C   UNL     1      -6.481 -14.729   5.924  1.00  0.00     0.041 A 
ATOM     43  F   UNL     1      -6.668 -15.350   3.674  1.00  0.00    -0.206 F 
ATOM     44  C   UNL     1      -6.151 -13.789   6.895  1.00  0.00     0.022 A 
BRANCH  41  45
ATOM     45  S   UNL     1      -5.133 -11.323   7.706  1.00  0.00     0.124 S 
ATOM     46  O   UNL     1      -3.827 -11.017   7.127  1.00  0.00    -0.237 OA
ATOM     47  O   UNL     1      -6.113 -10.244   7.678  1.00  0.00    -0.237 OA
ATOM     48  O   UNL     1      -5.088 -12.096   8.946  1.00  0.00    -0.744 OA
ENDBRANCH  41  45
ENDBRANCH  24  38
BRANCH  25  49
ATOM     49  C   UNL     1      -4.648 -11.338  -5.630  1.00  0.00     0.023 A 
ATOM     50  C   UNL     1      -5.223 -10.295  -6.369  1.00  0.00     0.031 A 
ATOM     51  C   UNL     1      -3.764 -12.213  -6.289  1.00  0.00     0.131 A 
ATOM     52  C   UNL     1      -4.915 -10.159  -7.732  1.00  0.00     0.055 A 
ATOM     53  C   UNL     1      -3.429 -12.047  -7.633  1.00  0.00     0.041 A 
ATOM     54  F   UNL     1      -3.177 -13.217  -5.618  1.00  0.00    -0.206 F 
ATOM     55  C   UNL     1      -4.011 -11.018  -8.364  1.00  0.00     0.022 A 
BRANCH  52  56
ATOM     56  S   UNL     1      -5.737  -8.851  -8.681  1.00  0.00     0.124 S 
ATOM     57  O   UNL     1      -7.140  -9.229  -8.555  1.00  0.00    -0.237 OA
ATOM     58  O   UNL     1      -5.328  -7.650  -7.961  1.00  0.00    -0.237 OA
ATOM     59  O   UNL     1      -5.169  -8.995 -10.020  1.00  0.00    -0.744 OA
ENDBRANCH  52  56
ENDBRANCH  25  49
BRANCH  37  60
ATOM     60  C   UNL     1     -10.203 -13.231  -1.829  1.00  0.00     0.023 A 
ATOM     61  C   UNL     1     -10.577 -14.380  -2.546  1.00  0.00     0.031 A 
ATOM     62  C   UNL     1     -11.210 -12.335  -1.432  1.00  0.00     0.131 A 
ATOM     63  C   UNL     1     -11.927 -14.586  -2.873  1.00  0.00     0.055 A 
ATOM     64  C   UNL     1     -12.555 -12.570  -1.717  1.00  0.00     0.041 A 
ATOM     65  F   UNL     1     -10.902 -11.221  -0.749  1.00  0.00    -0.206 F 
ATOM     66  C   UNL     1     -12.919 -13.697  -2.448  1.00  0.00     0.022 A 
BRANCH  63  67
ATOM     67  S   UNL     1     -12.369 -16.008  -3.908  1.00  0.00     0.124 S 
ATOM     68  O   UNL     1     -11.664 -15.709  -5.150  1.00  0.00    -0.237 OA
ATOM     69  O   UNL     1     -11.853 -17.133  -3.135  1.00  0.00    -0.237 OA
ATOM     70  O   UNL     1     -13.827 -15.932  -3.989  1.00  0.00    -0.744 OA
ENDBRANCH  63  67
ENDBRANCH  37  60
ENDBRANCH  11  12
ENDBRANCH   4   6
ENDBRANCH   1   2
BRANCH   1  71
ATOM     71  C   UNL     1       3.437  -8.469   3.766  1.00  0.00     0.023 C 
BRANCH  71  72
ATOM     72  C   UNL     1       4.899  -8.032   3.905  1.00  0.00     0.023 C 
BRANCH  72  73
ATOM     73  C   UNL     1       5.206  -6.660   3.299  1.00  0.00     0.116 C 
BRANCH  73  74
ATOM     74  N   UNL     1       4.562  -5.600   4.047  1.00  0.00    -0.350 N 
ATOM     75  C   UNL     1       5.007  -4.668   4.935  1.00  0.00     0.286 C 
ATOM     76  H   UNL     1       3.595  -5.541   3.876  1.00  0.00     0.163 HD
ATOM     77  O   UNL     1       4.118  -3.922   5.372  1.00  0.00    -0.267 OA
BRANCH  75  78
ATOM     78  C   UNL     1       6.524  -4.433   5.322  1.00  0.00     0.201 C 
ATOM     79  C   UNL     1       6.562  -3.630   6.664  1.00  0.00     0.085 C 
ATOM     80  N   UNL     1       7.277  -5.696   5.552  1.00  0.00    -0.330 N 
ATOM     81  C   UNL     1       6.075  -4.445   7.867  1.00  0.00     0.013 C 
ATOM     82  C   UNL     1       6.755  -6.509   6.640  1.00  0.00     0.261 C 
ATOM     83  H   UNL     1       8.245  -5.457   5.767  1.00  0.00     0.347 HD
ATOM     84  H   UNL     1       7.188  -6.251   4.701  1.00  0.00     0.347 HD
ATOM     85  C   UNL     1       6.826  -5.766   7.963  1.00  0.00     0.062 C 
BRANCH  78  86
ATOM     86  C   UNL     1       7.250  -3.567   4.261  1.00  0.00     0.022 A 
ATOM     87  C   UNL     1       8.651  -3.411   4.315  1.00  0.00     0.011 A 
ATOM     88  C   UNL     1       6.558  -2.836   3.277  1.00  0.00     0.011 A 
ATOM     89  C   UNL     1       9.327  -2.562   3.434  1.00  0.00     0.001 A 
ATOM     90  C   UNL     1       7.237  -1.994   2.388  1.00  0.00     0.001 A 
ATOM     91  C   UNL     1       8.618  -1.853   2.470  1.00  0.00     0.000 A 
ENDBRANCH  78  86
ENDBRANCH  75  78
ENDBRANCH  73  74
ENDBRANCH  72  73
ENDBRANCH  71  72
ENDBRANCH   1  71
TORSDOF 15
