REMARK SMILES CC(=O)O[C@H]1C[C@@H](C(=O)NCCCCNC(=O)c2ccc(-c3c4nc(c(-c5cc(S(=O)(=O)[O-])ccc5F)c5ccc([nH]5)c(-c5cc(S(=O)(=O)[O-])ccc5F)c5nc(c(-c6cc(S(=O)(=O)[O-])ccc6F)c6ccc3[nH]6)C=C5)C=C4)cc2)N(S(=O)(=O)c2ccc(F)cc2)C1
REMARK SMILES IDX 13 1 12 2 11 3 10 4 8 5 9 6 7 8 5 9 6 10 92 11 81 12 4 13
REMARK SMILES IDX 2 14 1 15 3 16 82 17 83 18 84 19 85 20 86 21 91 22 87 23
REMARK SMILES IDX 90 24 88 25 89 26 14 27 15 28 16 29 17 31 18 32 19 33 80 34
REMARK SMILES IDX 20 35 79 36 21 37 22 38 23 39 73 40 24 41 78 42 72 43 74 44
REMARK SMILES IDX 25 45 77 46 71 47 70 48 26 50 58 51 38 52 57 53 39 54 42 55
REMARK SMILES IDX 56 56 75 57 40 58 41 59 55 61 76 62 43 63 27 64 28 65 36 66
REMARK SMILES IDX 29 67 35 68 37 69 34 70 30 71 31 72 32 73 33 74 59 75 60 76
REMARK SMILES IDX 68 77 61 78 67 79 69 80 66 81 62 82 63 83 64 84 65 85 44 86
REMARK SMILES IDX 45 87 53 88 46 89 52 90 54 91 51 92 47 93 48 94 49 95 50 96
REMARK H PARENT 10 7 15 30 74 49 42 60
REMARK Flexibility Score: inf
ROOT
ATOM      1  C   UNL     1       5.939   1.332  -5.893  1.00  0.00     0.023 C 
ENDROOT
BRANCH   1   2
ATOM      2  C   UNL     1       5.141   1.315  -4.581  1.00  0.00     0.023 C 
BRANCH   2   3
ATOM      3  C   UNL     1       4.993   2.684  -3.905  1.00  0.00     0.116 C 
BRANCH   3   4
ATOM      4  N   UNL     1       4.275   3.604  -4.771  1.00  0.00    -0.355 N 
ATOM      5  C   UNL     1       2.912   3.547  -4.915  1.00  0.00     0.238 C 
ATOM      6  O   UNL     1       2.458   3.296  -6.027  1.00  0.00    -0.273 OA
ATOM      7  H   UNL     1       4.781   4.287  -5.267  1.00  0.00     0.163 HD
BRANCH   5   8
ATOM      8  C   UNL     1       2.064   3.777  -3.684  1.00  0.00     0.166 C 
ATOM      9  C   UNL     1       0.219   3.084  -2.354  1.00  0.00     0.193 C 
ATOM     10  C   UNL     1       1.094   2.618  -3.501  1.00  0.00     0.077 C 
ATOM     11  C   UNL     1       0.104   4.600  -2.586  1.00  0.00     0.148 C 
ATOM     12  N   UNL     1       1.210   4.997  -3.534  1.00  0.00    -0.182 NA
BRANCH   9  13
ATOM     13  O   UNL     1      -1.092   2.491  -2.428  1.00  0.00    -0.461 OA
BRANCH  13  14
ATOM     14  C   UNL     1      -1.386   1.231  -2.037  1.00  0.00     0.302 C 
ATOM     15  C   UNL     1      -0.328   0.467  -1.301  1.00  0.00     0.139 C 
ATOM     16  O   UNL     1      -2.495   0.749  -2.247  1.00  0.00    -0.253 OA
ENDBRANCH  13  14
ENDBRANCH   9  13
BRANCH  12  17
ATOM     17  S   UNL     1       0.606   5.828  -4.906  1.00  0.00     0.243 S 
ATOM     18  O   UNL     1       0.104   4.854  -5.846  1.00  0.00    -0.207 OA
ATOM     19  O   UNL     1      -0.286   6.851  -4.390  1.00  0.00    -0.207 OA
BRANCH  17  20
ATOM     20  C   UNL     1       1.980   6.712  -5.623  1.00  0.00     0.082 A 
ATOM     21  C   UNL     1       2.240   8.021  -5.189  1.00  0.00     0.025 A 
ATOM     22  C   UNL     1       2.662   6.207  -6.736  1.00  0.00     0.025 A 
ATOM     23  C   UNL     1       3.217   8.789  -5.829  1.00  0.00     0.040 A 
ATOM     24  C   UNL     1       3.675   6.957  -7.340  1.00  0.00     0.040 A 
ATOM     25  C   UNL     1       3.939   8.243  -6.885  1.00  0.00     0.123 A 
ATOM     26  F   UNL     1       4.879   8.978  -7.492  1.00  0.00    -0.207 F 
ENDBRANCH  17  20
ENDBRANCH  12  17
ENDBRANCH   5   8
ENDBRANCH   3   4
ENDBRANCH   2   3
ENDBRANCH   1   2
BRANCH   1  27
ATOM     27  C   UNL     1       7.358   1.879  -5.778  1.00  0.00     0.116 C 
BRANCH  27  28
ATOM     28  N   UNL     1       8.164   1.124  -4.835  1.00  0.00    -0.352 N 
ATOM     29  C   UNL     1       9.443   0.642  -4.973  1.00  0.00     0.251 C 
ATOM     30  H   UNL     1       7.731   0.929  -3.973  1.00  0.00     0.163 HD
ATOM     31  O   UNL     1       9.887  -0.129  -4.128  1.00  0.00    -0.269 OA
BRANCH  29  32
ATOM     32  C   UNL     1      10.263   1.029  -6.142  1.00  0.00     0.039 A 
ATOM     33  C   UNL     1      11.003   0.043  -6.800  1.00  0.00     0.014 A 
ATOM     34  C   UNL     1      10.315   2.356  -6.581  1.00  0.00     0.014 A 
ATOM     35  C   UNL     1      11.751   0.377  -7.931  1.00  0.00     0.010 A 
ATOM     36  C   UNL     1      11.009   2.674  -7.746  1.00  0.00     0.010 A 
ATOM     37  C   UNL     1      11.737   1.688  -8.431  1.00  0.00    -0.014 A 
BRANCH  37  38
ATOM     38  C   UNL     1      12.481   2.047  -9.666  1.00  0.00     0.031 A 
ATOM     39  C   UNL     1      13.640   3.004  -9.600  1.00  0.00     0.074 A 
ATOM     40  C   UNL     1      12.073   1.560 -10.854  1.00  0.00     0.049 A 
ATOM     41  N   UNL     1      14.377   3.483 -10.569  1.00  0.00    -0.248 NA
ATOM     42  C   UNL     1      13.995   3.511  -8.267  1.00  0.00     0.031 C 
ATOM     43  C   UNL     1      10.939   0.655 -11.051  1.00  0.00     0.029 A 
ATOM     44  N   UNL     1      12.561   1.760 -12.120  1.00  0.00    -0.354 N 
ATOM     45  C   UNL     1      15.271   4.362  -9.967  1.00  0.00     0.074 A 
ATOM     46  C   UNL     1      14.939   4.392  -8.558  1.00  0.00     0.031 C 
ATOM     47  C   UNL     1      10.838   0.355 -12.355  1.00  0.00     0.029 A 
ATOM     48  C   UNL     1      11.871   1.076 -13.092  1.00  0.00     0.049 A 
ATOM     49  H   UNL     1      13.333   2.340 -12.314  1.00  0.00     0.167 HD
ATOM     50  C   UNL     1      16.288   5.061 -10.534  1.00  0.00     0.034 A 
ATOM     51  C   UNL     1      12.049   1.037 -14.427  1.00  0.00     0.034 A 
ATOM     52  C   UNL     1      16.612   5.007 -11.940  1.00  0.00     0.049 A 
ATOM     53  C   UNL     1      13.166   1.842 -15.039  1.00  0.00     0.074 A 
ATOM     54  C   UNL     1      17.662   5.613 -12.608  1.00  0.00     0.029 A 
ATOM     55  N   UNL     1      15.881   4.316 -12.899  1.00  0.00    -0.354 N 
ATOM     56  N   UNL     1      14.042   2.622 -14.450  1.00  0.00    -0.248 NA
ATOM     57  C   UNL     1      13.320   1.752 -16.496  1.00  0.00     0.031 C 
ATOM     58  C   UNL     1      17.527   5.344 -13.976  1.00  0.00     0.029 A 
ATOM     59  C   UNL     1      16.435   4.510 -14.156  1.00  0.00     0.049 A 
ATOM     60  H   UNL     1      15.085   3.767 -12.713  1.00  0.00     0.167 HD
ATOM     61  C   UNL     1      14.873   3.091 -15.463  1.00  0.00     0.074 A 
ATOM     62  C   UNL     1      14.396   2.498 -16.697  1.00  0.00     0.031 C 
ATOM     63  C   UNL     1      15.938   3.929 -15.381  1.00  0.00     0.034 A 
BRANCH  50  64
ATOM     64  C   UNL     1      17.092   5.966  -9.628  1.00  0.00     0.023 A 
ATOM     65  C   UNL     1      17.820   5.460  -8.535  1.00  0.00     0.031 A 
ATOM     66  C   UNL     1      17.087   7.358  -9.824  1.00  0.00     0.131 A 
ATOM     67  C   UNL     1      18.427   6.342  -7.628  1.00  0.00     0.055 A 
ATOM     68  C   UNL     1      17.771   8.225  -8.968  1.00  0.00     0.041 A 
ATOM     69  F   UNL     1      16.397   7.904 -10.837  1.00  0.00    -0.206 F 
ATOM     70  C   UNL     1      18.428   7.720  -7.850  1.00  0.00     0.022 A 
BRANCH  67  71
ATOM     71  S   UNL     1      19.056   5.673  -6.064  1.00  0.00     0.124 S 
ATOM     72  O   UNL     1      17.865   5.024  -5.520  1.00  0.00    -0.237 OA
ATOM     73  O   UNL     1      20.122   4.783  -6.508  1.00  0.00    -0.237 OA
ATOM     74  O   UNL     1      19.495   6.861  -5.334  1.00  0.00    -0.744 OA
ENDBRANCH  67  71
ENDBRANCH  50  64
BRANCH  51  75
ATOM     75  C   UNL     1      11.159   0.202 -15.281  1.00  0.00     0.023 A 
ATOM     76  C   UNL     1      11.662  -0.920 -15.956  1.00  0.00     0.031 A 
ATOM     77  C   UNL     1       9.803   0.529 -15.457  1.00  0.00     0.131 A 
ATOM     78  C   UNL     1      10.825  -1.656 -16.808  1.00  0.00     0.055 A 
ATOM     79  C   UNL     1       8.963  -0.233 -16.271  1.00  0.00     0.041 A 
ATOM     80  F   UNL     1       9.272   1.588 -14.825  1.00  0.00    -0.206 F 
ATOM     81  C   UNL     1       9.476  -1.327 -16.962  1.00  0.00     0.022 A 
BRANCH  78  82
ATOM     82  S   UNL     1      11.544  -3.019 -17.764  1.00  0.00     0.124 S 
ATOM     83  O   UNL     1      12.560  -2.328 -18.550  1.00  0.00    -0.237 OA
ATOM     84  O   UNL     1      12.037  -3.901 -16.711  1.00  0.00    -0.237 OA
ATOM     85  O   UNL     1      10.409  -3.536 -18.526  1.00  0.00    -0.744 OA
ENDBRANCH  78  82
ENDBRANCH  51  75
BRANCH  63  86
ATOM     86  C   UNL     1      16.680   4.213 -16.664  1.00  0.00     0.023 A 
ATOM     87  C   UNL     1      16.093   4.944 -17.712  1.00  0.00     0.031 A 
ATOM     88  C   UNL     1      17.983   3.719 -16.850  1.00  0.00     0.131 A 
ATOM     89  C   UNL     1      16.786   5.111 -18.921  1.00  0.00     0.055 A 
ATOM     90  C   UNL     1      18.690   3.938 -18.033  1.00  0.00     0.041 A 
ATOM     91  F   UNL     1      18.590   3.011 -15.884  1.00  0.00    -0.206 F 
ATOM     92  C   UNL     1      18.087   4.626 -19.082  1.00  0.00     0.022 A 
BRANCH  89  93
ATOM     93  S   UNL     1      15.929   5.889 -20.317  1.00  0.00     0.124 S 
ATOM     94  O   UNL     1      14.777   5.010 -20.494  1.00  0.00    -0.237 OA
ATOM     95  O   UNL     1      15.639   7.223 -19.802  1.00  0.00    -0.237 OA
ATOM     96  O   UNL     1      16.915   5.843 -21.395  1.00  0.00    -0.744 OA
ENDBRANCH  89  93
ENDBRANCH  63  86
ENDBRANCH  37  38
ENDBRANCH  29  32
ENDBRANCH  27  28
ENDBRANCH   1  27
TORSDOF 18
