REMARK SMILES O=C(NCCCCNC(=O)[C@H]1CC2=c3ccccc3=N[C@H]2[C@@H](c2ccccc2)[NH2+]1)c1ccc(-c2c3nc(c(-c4cc(S(=O)(=O)[O-])ccc4F)c4ccc([nH]4)c(-c4cc(S(=O)(=O)[O-])ccc4F)c4nc(c(-c5cc(S(=O)(=O)[O-])ccc5F)c5ccc2[nH]5)C=C4)C=C3)cc1
REMARK SMILES IDX 4 1 3 2 1 3 2 4 30 6 31 7 92 8 32 9 91 10 33 11 34 12 35 13
REMARK SMILES IDX 85 14 36 15 90 16 84 17 86 18 37 19 89 20 83 21 82 22 38 24
REMARK SMILES IDX 70 25 50 26 69 27 51 28 54 29 68 30 87 31 52 32 53 33 67 35
REMARK SMILES IDX 88 36 55 37 39 38 40 39 48 40 41 41 47 42 49 43 46 44 42 45
REMARK SMILES IDX 43 46 44 47 45 48 71 49 72 50 80 51 73 52 79 53 81 54 78 55
REMARK SMILES IDX 74 56 75 57 76 58 77 59 56 60 57 61 65 62 58 63 64 64 66 65
REMARK SMILES IDX 63 66 59 67 60 68 61 69 62 70 5 71 6 72 7 73 8 74 9 75 10 77
REMARK SMILES IDX 11 78 12 79 29 80 13 81 22 82 14 85 21 86 15 87 19 88 20 89
REMARK SMILES IDX 16 90 18 91 17 92 23 93 24 94 28 95 25 96 27 97 26 98
REMARK H PARENT 3 5 86 23 54 34 8 76 29 83 29 84
REMARK Flexibility Score: inf
ROOT
ATOM      1  C   UNL     1       4.711  -0.968  -0.995  1.00  0.00     0.116 C 
ENDROOT
BRANCH   1   2
ATOM      2  N   UNL     1       3.279  -0.734  -0.901  1.00  0.00    -0.352 N 
ATOM      3  O   UNL     1       1.300  -0.105  -0.067  1.00  0.00    -0.269 OA
ATOM      4  C   UNL     1       2.528  -0.044   0.019  1.00  0.00     0.251 C 
ATOM      5  H   UNL     1       2.753  -1.143  -1.626  1.00  0.00     0.163 HD
BRANCH   4   6
ATOM      6  C   UNL     1       3.141   0.759   1.108  1.00  0.00     0.039 A 
ATOM      7  C   UNL     1       2.462   0.848   2.330  1.00  0.00     0.014 A 
ATOM      8  C   UNL     1       4.316   1.492   0.930  1.00  0.00     0.014 A 
ATOM      9  C   UNL     1       2.963   1.650   3.361  1.00  0.00     0.010 A 
ATOM     10  C   UNL     1       4.866   2.215   1.992  1.00  0.00     0.010 A 
ATOM     11  C   UNL     1       4.176   2.338   3.207  1.00  0.00    -0.014 A 
BRANCH  11  12
ATOM     12  C   UNL     1       4.682   3.255   4.269  1.00  0.00     0.031 A 
ATOM     13  C   UNL     1       4.819   4.732   3.987  1.00  0.00     0.074 A 
ATOM     14  C   UNL     1       5.021   2.773   5.483  1.00  0.00     0.049 A 
ATOM     15  N   UNL     1       5.225   5.689   4.782  1.00  0.00    -0.248 NA
ATOM     16  C   UNL     1       4.477   5.193   2.631  1.00  0.00     0.031 C 
ATOM     17  C   UNL     1       4.964   1.365   5.873  1.00  0.00     0.029 A 
ATOM     18  N   UNL     1       5.471   3.412   6.615  1.00  0.00    -0.354 N 
ATOM     19  C   UNL     1       5.202   6.853   4.019  1.00  0.00     0.074 A 
ATOM     20  C   UNL     1       4.807   6.475   2.683  1.00  0.00     0.031 C 
ATOM     21  C   UNL     1       5.315   1.252   7.163  1.00  0.00     0.029 A 
ATOM     22  C   UNL     1       5.664   2.571   7.688  1.00  0.00     0.049 A 
ATOM     23  H   UNL     1       5.639   4.381   6.654  1.00  0.00     0.167 HD
ATOM     24  C   UNL     1       5.451   8.126   4.406  1.00  0.00     0.034 A 
ATOM     25  C   UNL     1       6.063   2.830   8.952  1.00  0.00     0.034 A 
ATOM     26  C   UNL     1       5.795   8.501   5.753  1.00  0.00     0.049 A 
ATOM     27  C   UNL     1       6.328   4.261   9.359  1.00  0.00     0.074 A 
ATOM     28  C   UNL     1       6.006   9.773   6.254  1.00  0.00     0.029 A 
ATOM     29  N   UNL     1       5.966   7.621   6.811  1.00  0.00    -0.354 N 
ATOM     30  N   UNL     1       6.217   5.358   8.646  1.00  0.00    -0.248 NA
ATOM     31  C   UNL     1       6.752   4.497  10.748  1.00  0.00     0.031 C 
ATOM     32  C   UNL     1       6.380   9.659   7.591  1.00  0.00     0.029 A 
ATOM     33  C   UNL     1       6.303   8.324   7.955  1.00  0.00     0.049 A 
ATOM     34  H   UNL     1       5.863   6.644   6.756  1.00  0.00     0.167 HD
ATOM     35  C   UNL     1       6.501   6.412   9.513  1.00  0.00     0.074 A 
ATOM     36  C   UNL     1       6.778   5.822  10.805  1.00  0.00     0.031 C 
ATOM     37  C   UNL     1       6.527   7.744   9.258  1.00  0.00     0.034 A 
BRANCH  24  38
ATOM     38  C   UNL     1       5.334   9.238   3.390  1.00  0.00     0.023 A 
ATOM     39  C   UNL     1       6.453  10.045   3.108  1.00  0.00     0.031 A 
ATOM     40  C   UNL     1       4.095   9.601   2.833  1.00  0.00     0.131 A 
ATOM     41  C   UNL     1       6.298  11.206   2.340  1.00  0.00     0.055 A 
ATOM     42  C   UNL     1       3.958  10.728   2.022  1.00  0.00     0.041 A 
ATOM     43  F   UNL     1       2.997   8.866   3.073  1.00  0.00    -0.206 F 
ATOM     44  C   UNL     1       5.059  11.547   1.789  1.00  0.00     0.022 A 
BRANCH  41  45
ATOM     45  S   UNL     1       7.677  12.360   2.107  1.00  0.00     0.124 S 
ATOM     46  O   UNL     1       7.770  12.424   0.648  1.00  0.00    -0.237 OA
ATOM     47  O   UNL     1       7.170  13.571   2.751  1.00  0.00    -0.237 OA
ATOM     48  O   UNL     1       8.797  11.711   2.771  1.00  0.00    -0.744 OA
ENDBRANCH  41  45
ENDBRANCH  24  38
BRANCH  25  49
ATOM     49  C   UNL     1       6.141   1.715   9.946  1.00  0.00     0.023 A 
ATOM     50  C   UNL     1       7.010   0.625   9.758  1.00  0.00     0.031 A 
ATOM     51  C   UNL     1       5.286   1.689  11.063  1.00  0.00     0.131 A 
ATOM     52  C   UNL     1       6.964  -0.465  10.639  1.00  0.00     0.055 A 
ATOM     53  C   UNL     1       5.298   0.636  11.980  1.00  0.00     0.041 A 
ATOM     54  F   UNL     1       4.426   2.695  11.280  1.00  0.00    -0.206 F 
ATOM     55  C   UNL     1       6.130  -0.456  11.761  1.00  0.00     0.022 A 
BRANCH  52  56
ATOM     56  S   UNL     1       7.895  -1.982  10.287  1.00  0.00     0.124 S 
ATOM     57  O   UNL     1       8.755  -2.092  11.465  1.00  0.00    -0.237 OA
ATOM     58  O   UNL     1       6.823  -2.974  10.198  1.00  0.00    -0.237 OA
ATOM     59  O   UNL     1       8.574  -1.690   9.035  1.00  0.00    -0.744 OA
ENDBRANCH  52  56
ENDBRANCH  25  49
BRANCH  37  60
ATOM     60  C   UNL     1       6.804   8.710  10.388  1.00  0.00     0.023 A 
ATOM     61  C   UNL     1       5.846   9.694  10.707  1.00  0.00     0.031 A 
ATOM     62  C   UNL     1       8.055   8.776  11.024  1.00  0.00     0.131 A 
ATOM     63  C   UNL     1       6.170  10.726  11.596  1.00  0.00     0.055 A 
ATOM     64  C   UNL     1       8.353   9.772  11.956  1.00  0.00     0.041 A 
ATOM     65  F   UNL     1       9.013   7.878  10.741  1.00  0.00    -0.206 F 
ATOM     66  C   UNL     1       7.415  10.763  12.232  1.00  0.00     0.022 A 
BRANCH  63  67
ATOM     67  S   UNL     1       5.037  12.118  11.869  1.00  0.00     0.124 S 
ATOM     68  O   UNL     1       4.732  11.983  13.291  1.00  0.00    -0.237 OA
ATOM     69  O   UNL     1       5.869  13.265  11.517  1.00  0.00    -0.237 OA
ATOM     70  O   UNL     1       3.924  11.850  10.964  1.00  0.00    -0.744 OA
ENDBRANCH  63  67
ENDBRANCH  37  60
ENDBRANCH  11  12
ENDBRANCH   4   6
ENDBRANCH   1   2
BRANCH   1  71
ATOM     71  C   UNL     1       5.078  -2.452  -1.040  1.00  0.00     0.023 C 
BRANCH  71  72
ATOM     72  C   UNL     1       4.519  -3.232  -2.233  1.00  0.00     0.023 C 
BRANCH  72  73
ATOM     73  C   UNL     1       5.148  -2.874  -3.584  1.00  0.00     0.116 C 
BRANCH  73  74
ATOM     74  N   UNL     1       6.349  -3.667  -3.838  1.00  0.00    -0.351 N 
ATOM     75  C   UNL     1       6.765  -4.455  -4.873  1.00  0.00     0.278 C 
ATOM     76  H   UNL     1       7.001  -3.624  -3.101  1.00  0.00     0.163 HD
ATOM     77  O   UNL     1       7.609  -5.314  -4.576  1.00  0.00    -0.268 OA
BRANCH  75  78
ATOM     78  C   UNL     1       6.401  -4.261  -6.375  1.00  0.00     0.277 C 
ATOM     79  C   UNL     1       6.056  -5.608  -7.128  1.00  0.00     0.109 C 
ATOM     80  N   UNL     1       5.504  -3.127  -6.666  1.00  0.00    -0.327 N 
ATOM     81  C   UNL     1       4.588  -6.005  -6.990  1.00  0.00    -0.024 C 
ATOM     82  C   UNL     1       4.235  -3.590  -7.236  1.00  0.00     0.243 C 
ATOM     83  H   UNL     1       5.961  -2.504  -7.332  1.00  0.00     0.347 HD
ATOM     84  H   UNL     1       5.308  -2.638  -5.793  1.00  0.00     0.347 HD
ATOM     85  C   UNL     1       4.218  -7.096  -6.331  1.00  0.00     0.002 A 
ATOM     86  C   UNL     1       3.629  -4.899  -6.637  1.00  0.00     0.196 C 
ATOM     87  C   UNL     1       4.695  -8.438  -6.347  1.00  0.00     0.010 A 
ATOM     88  C   UNL     1       3.817  -6.400  -5.076  1.00  0.00     0.066 A 
ATOM     89  N   UNL     1       3.502  -5.127  -5.161  1.00  0.00    -0.270 NA
ATOM     90  C   UNL     1       4.738  -9.130  -5.202  1.00  0.00     0.001 A 
ATOM     91  C   UNL     1       3.995  -7.214  -3.839  1.00  0.00     0.028 A 
ATOM     92  C   UNL     1       4.442  -8.482  -3.937  1.00  0.00     0.002 A 
BRANCH  82  93
ATOM     93  C   UNL     1       3.338  -2.511  -7.840  1.00  0.00     0.012 A 
ATOM     94  C   UNL     1       2.405  -2.910  -8.822  1.00  0.00     0.010 A 
ATOM     95  C   UNL     1       3.642  -1.145  -7.739  1.00  0.00     0.010 A 
ATOM     96  C   UNL     1       1.886  -1.997  -9.740  1.00  0.00     0.001 A 
ATOM     97  C   UNL     1       3.112  -0.230  -8.656  1.00  0.00     0.001 A 
ATOM     98  C   UNL     1       2.261  -0.660  -9.672  1.00  0.00     0.000 A 
ENDBRANCH  82  93
ENDBRANCH  75  78
ENDBRANCH  73  74
ENDBRANCH  72  73
ENDBRANCH  71  72
ENDBRANCH   1  71
TORSDOF 15
