REMARK SMILES CC(C)Cc1ccc([C@H](C)C(=O)NCCCCNC(=O)c2ccc(-c3c4nc(c(-c5cc(S(=O)(=O)[O-])ccc5F)c5ccc([nH]5)c(-c5cc(S(=O)(=O)[O-])ccc5F)c5nc(c(-c6cc(S(=O)(=O)[O-])ccc6F)c6ccc3[nH]6)C=C5)C=C4)cc2)cc1
REMARK SMILES IDX 15 1 14 2 13 3 11 4 12 5 9 7 10 8 8 9 5 10 6 11 85 12 7 13
REMARK SMILES IDX 84 14 4 15 2 16 1 17 3 18 16 19 17 20 18 21 19 22 20 24
REMARK SMILES IDX 21 25 22 26 83 27 23 28 82 29 24 30 25 31 26 32 76 33 27 34
REMARK SMILES IDX 81 35 75 36 77 37 28 38 80 39 74 40 73 41 29 43 61 44 41 45
REMARK SMILES IDX 60 46 42 47 45 48 59 49 78 50 43 51 44 52 58 54 79 55 46 56
REMARK SMILES IDX 30 57 31 58 39 59 32 60 38 61 40 62 37 63 33 64 34 65 35 66
REMARK SMILES IDX 36 67 62 68 63 69 71 70 64 71 70 72 72 73 69 74 65 75 66 76
REMARK SMILES IDX 67 77 68 78 47 79 48 80 56 81 49 82 55 83 57 84 54 85 50 86
REMARK SMILES IDX 51 87 52 88 53 89
REMARK H PARENT 13 6 18 23 77 42 45 53
REMARK Flexibility Score: inf
ROOT
ATOM      1  C   UNL     1      -1.814   4.164  -3.483  1.00  0.00     0.023 C 
ENDROOT
BRANCH   1   2
ATOM      2  C   UNL     1      -1.696   4.955  -2.186  1.00  0.00     0.116 C 
BRANCH   2   3
ATOM      3  N   UNL     1      -2.989   5.298  -1.616  1.00  0.00    -0.356 N 
ATOM      4  C   UNL     1      -3.369   5.436  -0.312  1.00  0.00     0.227 C 
ATOM      5  O   UNL     1      -4.485   5.922  -0.102  1.00  0.00    -0.274 OA
ATOM      6  H   UNL     1      -3.703   5.456  -2.275  1.00  0.00     0.163 HD
BRANCH   4   7
ATOM      7  C   UNL     1      -2.492   4.981   0.861  1.00  0.00     0.105 C 
ATOM      8  C   UNL     1      -2.302   3.460   0.827  1.00  0.00     0.023 C 
BRANCH   7   9
ATOM      9  C   UNL     1      -1.209   5.769   1.103  1.00  0.00    -0.036 A 
ATOM     10  C   UNL     1       1.175   7.228   1.614  1.00  0.00    -0.048 A 
ATOM     11  C   UNL     1       0.403   7.484   0.480  1.00  0.00     0.004 A 
ATOM     12  C   UNL     1       0.756   6.220   2.487  1.00  0.00     0.004 A 
ATOM     13  C   UNL     1      -0.797   6.811   0.267  1.00  0.00     0.005 A 
ATOM     14  C   UNL     1      -0.416   5.496   2.231  1.00  0.00     0.005 A 
BRANCH  10  15
ATOM     15  C   UNL     1       2.422   8.036   1.897  1.00  0.00     0.038 C 
BRANCH  15  16
ATOM     16  C   UNL     1       2.258   9.557   1.668  1.00  0.00    -0.013 C 
ATOM     17  C   UNL     1       1.175  10.159   2.568  1.00  0.00     0.008 C 
ATOM     18  C   UNL     1       3.586  10.279   1.891  1.00  0.00     0.008 C 
ENDBRANCH  15  16
ENDBRANCH  10  15
ENDBRANCH   7   9
ENDBRANCH   4   7
ENDBRANCH   2   3
ENDBRANCH   1   2
BRANCH   1  19
ATOM     19  C   UNL     1      -2.433   4.934  -4.654  1.00  0.00     0.023 C 
BRANCH  19  20
ATOM     20  C   UNL     1      -1.796   6.284  -4.979  1.00  0.00     0.116 C 
BRANCH  20  21
ATOM     21  N   UNL     1      -0.373   6.192  -5.278  1.00  0.00    -0.352 N 
ATOM     22  C   UNL     1       0.312   6.621  -6.392  1.00  0.00     0.251 C 
ATOM     23  H   UNL     1       0.177   5.762  -4.584  1.00  0.00     0.163 HD
ATOM     24  O   UNL     1       1.502   6.349  -6.522  1.00  0.00    -0.269 OA
BRANCH  22  25
ATOM     25  C   UNL     1      -0.404   7.370  -7.445  1.00  0.00     0.039 A 
ATOM     26  C   UNL     1      -0.321   6.926  -8.767  1.00  0.00     0.014 A 
ATOM     27  C   UNL     1      -1.198   8.473  -7.119  1.00  0.00     0.014 A 
ATOM     28  C   UNL     1      -1.117   7.524  -9.747  1.00  0.00     0.010 A 
ATOM     29  C   UNL     1      -2.038   9.025  -8.084  1.00  0.00     0.010 A 
ATOM     30  C   UNL     1      -2.022   8.541  -9.402  1.00  0.00    -0.014 A 
BRANCH  30  31
ATOM     31  C   UNL     1      -2.995   9.078 -10.390  1.00  0.00     0.031 A 
ATOM     32  C   UNL     1      -2.937  10.522 -10.804  1.00  0.00     0.074 A 
ATOM     33  C   UNL     1      -3.986   8.284 -10.844  1.00  0.00     0.049 A 
ATOM     34  N   UNL     1      -3.759  11.199 -11.564  1.00  0.00    -0.248 NA
ATOM     35  C   UNL     1      -1.819  11.312 -10.270  1.00  0.00     0.031 C 
ATOM     36  C   UNL     1      -4.173   6.876 -10.484  1.00  0.00     0.029 A 
ATOM     37  N   UNL     1      -5.032   8.548 -11.693  1.00  0.00    -0.354 N 
ATOM     38  C   UNL     1      -3.266  12.499 -11.591  1.00  0.00     0.074 A 
ATOM     39  C   UNL     1      -2.106  12.523 -10.724  1.00  0.00     0.031 C 
ATOM     40  C   UNL     1      -5.254   6.398 -11.120  1.00  0.00     0.029 A 
ATOM     41  C   UNL     1      -5.868   7.473 -11.893  1.00  0.00     0.049 A 
ATOM     42  H   UNL     1      -5.171   9.424 -12.120  1.00  0.00     0.167 HD
ATOM     43  C   UNL     1      -3.728  13.567 -12.289  1.00  0.00     0.034 A 
ATOM     44  C   UNL     1      -7.010   7.368 -12.601  1.00  0.00     0.034 A 
ATOM     45  C   UNL     1      -4.883  13.524 -13.153  1.00  0.00     0.049 A 
ATOM     46  C   UNL     1      -7.526   8.578 -13.337  1.00  0.00     0.074 A 
ATOM     47  C   UNL     1      -5.400  14.530 -13.952  1.00  0.00     0.029 A 
ATOM     48  N   UNL     1      -5.708  12.420 -13.325  1.00  0.00    -0.354 N 
ATOM     49  N   UNL     1      -7.020   9.789 -13.391  1.00  0.00    -0.248 NA
ATOM     50  C   UNL     1      -8.763   8.407 -14.109  1.00  0.00     0.031 C 
ATOM     51  C   UNL     1      -6.571  14.056 -14.554  1.00  0.00     0.029 A 
ATOM     52  C   UNL     1      -6.749  12.731 -14.188  1.00  0.00     0.049 A 
ATOM     53  H   UNL     1      -5.575  11.544 -12.896  1.00  0.00     0.167 HD
ATOM     54  C   UNL     1      -7.865  10.515 -14.224  1.00  0.00     0.074 A 
ATOM     55  C   UNL     1      -8.903   9.604 -14.660  1.00  0.00     0.031 C 
ATOM     56  C   UNL     1      -7.788  11.817 -14.600  1.00  0.00     0.034 A 
BRANCH  43  57
ATOM     57  C   UNL     1      -2.992  14.874 -12.120  1.00  0.00     0.023 A 
ATOM     58  C   UNL     1      -1.650  15.020 -12.514  1.00  0.00     0.031 A 
ATOM     59  C   UNL     1      -3.629  15.982 -11.533  1.00  0.00     0.131 A 
ATOM     60  C   UNL     1      -0.967  16.216 -12.247  1.00  0.00     0.055 A 
ATOM     61  C   UNL     1      -2.967  17.197 -11.343  1.00  0.00     0.041 A 
ATOM     62  F   UNL     1      -4.904  15.897 -11.119  1.00  0.00    -0.206 F 
ATOM     63  C   UNL     1      -1.623  17.314 -11.686  1.00  0.00     0.022 A 
BRANCH  60  64
ATOM     64  S   UNL     1       0.826  16.265 -12.511  1.00  0.00     0.124 S 
ATOM     65  O   UNL     1       1.283  15.194 -11.629  1.00  0.00    -0.237 OA
ATOM     66  O   UNL     1       0.942  16.008 -13.941  1.00  0.00    -0.237 OA
ATOM     67  O   UNL     1       1.199  17.613 -12.086  1.00  0.00    -0.744 OA
ENDBRANCH  60  64
ENDBRANCH  43  57
BRANCH  44  68
ATOM     68  C   UNL     1      -7.761   6.081 -12.639  1.00  0.00     0.023 A 
ATOM     69  C   UNL     1      -7.900   5.361 -13.835  1.00  0.00     0.031 A 
ATOM     70  C   UNL     1      -8.386   5.572 -11.486  1.00  0.00     0.131 A 
ATOM     71  C   UNL     1      -8.681   4.195 -13.864  1.00  0.00     0.055 A 
ATOM     72  C   UNL     1      -9.121   4.386 -11.508  1.00  0.00     0.041 A 
ATOM     73  F   UNL     1      -8.279   6.219 -10.314  1.00  0.00    -0.206 F 
ATOM     74  C   UNL     1      -9.282   3.696 -12.706  1.00  0.00     0.022 A 
BRANCH  71  75
ATOM     75  S   UNL     1      -8.964   3.379 -15.459  1.00  0.00     0.124 S 
ATOM     76  O   UNL     1      -9.589   4.446 -16.232  1.00  0.00    -0.237 OA
ATOM     77  O   UNL     1      -7.610   3.008 -15.854  1.00  0.00    -0.237 OA
ATOM     78  O   UNL     1      -9.840   2.260 -15.117  1.00  0.00    -0.744 OA
ENDBRANCH  71  75
ENDBRANCH  44  68
BRANCH  56  79
ATOM     79  C   UNL     1      -8.839  12.315 -15.559  1.00  0.00     0.023 A 
ATOM     80  C   UNL     1     -10.184  12.453 -15.174  1.00  0.00     0.031 A 
ATOM     81  C   UNL     1      -8.490  12.647 -16.880  1.00  0.00     0.131 A 
ATOM     82  C   UNL     1     -11.141  12.865 -16.115  1.00  0.00     0.055 A 
ATOM     83  C   UNL     1      -9.437  13.109 -17.796  1.00  0.00     0.041 A 
ATOM     84  F   UNL     1      -7.221  12.531 -17.301  1.00  0.00    -0.206 F 
ATOM     85  C   UNL     1     -10.773  13.210 -17.418  1.00  0.00     0.022 A 
BRANCH  82  86
ATOM     86  S   UNL     1     -12.890  12.874 -15.634  1.00  0.00     0.124 S 
ATOM     87  O   UNL     1     -13.119  11.472 -15.299  1.00  0.00    -0.237 OA
ATOM     88  O   UNL     1     -12.902  13.808 -14.513  1.00  0.00    -0.237 OA
ATOM     89  O   UNL     1     -13.574  13.344 -16.837  1.00  0.00    -0.744 OA
ENDBRANCH  82  86
ENDBRANCH  56  79
ENDBRANCH  30  31
ENDBRANCH  22  25
ENDBRANCH  20  21
ENDBRANCH  19  20
ENDBRANCH   1  19
TORSDOF 17
