REMARK SMILES O=C(NCCCCNC(=O)[C@@H]1CCC[N@@H+](Cc2cccc3ccccc23)C1)c1ccc(-c2c3nc(c(-c4cc(S(=O)(=O)[O-])ccc4F)c4ccc([nH]4)c(-c4cc(S(=O)(=O)[O-])ccc4F)c4nc(c(-c5cc(S(=O)(=O)[O-])ccc5F)c5ccc2[nH]5)C=C4)C=C3)cc1
REMARK SMILES IDX 5 1 4 2 3 3 1 4 2 5 28 7 29 8 90 9 30 10 89 11 31 12 32 13
REMARK SMILES IDX 33 14 83 15 34 16 88 17 82 18 84 19 35 20 87 21 81 22 80 23
REMARK SMILES IDX 36 25 68 26 48 27 67 28 49 29 52 30 66 31 85 32 50 33 51 34
REMARK SMILES IDX 65 36 86 37 53 38 37 39 38 40 46 41 39 42 45 43 47 44 44 45
REMARK SMILES IDX 40 46 41 47 42 48 43 49 69 50 70 51 78 52 71 53 77 54 79 55
REMARK SMILES IDX 76 56 72 57 73 58 74 59 75 60 54 61 55 62 63 63 56 64 62 65
REMARK SMILES IDX 64 66 61 67 57 68 58 69 59 70 60 71 6 72 7 73 8 74 9 75
REMARK SMILES IDX 10 77 11 78 12 79 27 80 13 81 15 82 14 83 16 85 17 86 18 87
REMARK SMILES IDX 26 88 19 89 21 90 25 91 20 92 22 93 24 94 23 95
REMARK H PARENT 3 6 84 24 52 35 8 76 15 84
REMARK Flexibility Score: inf
ROOT
ATOM      1  C   UNL     1       4.771  -2.314  -0.235  1.00  0.00     0.023 C 
ENDROOT
BRANCH   1   2
ATOM      2  C   UNL     1       4.427  -0.836  -0.213  1.00  0.00     0.116 C 
BRANCH   2   3
ATOM      3  N   UNL     1       3.014  -0.564  -0.462  1.00  0.00    -0.352 N 
ATOM      4  O   UNL     1       1.023   0.461  -0.112  1.00  0.00    -0.269 OA
ATOM      5  C   UNL     1       2.225   0.401   0.120  1.00  0.00     0.251 C 
ATOM      6  H   UNL     1       2.572  -1.141  -1.126  1.00  0.00     0.163 HD
BRANCH   5   7
ATOM      7  C   UNL     1       2.869   1.336   1.060  1.00  0.00     0.039 A 
ATOM      8  C   UNL     1       4.047   1.978   0.679  1.00  0.00     0.014 A 
ATOM      9  C   UNL     1       2.373   1.454   2.360  1.00  0.00     0.014 A 
ATOM     10  C   UNL     1       4.831   2.579   1.649  1.00  0.00     0.010 A 
ATOM     11  C   UNL     1       3.114   2.161   3.309  1.00  0.00     0.010 A 
ATOM     12  C   UNL     1       4.373   2.685   2.973  1.00  0.00    -0.014 A 
BRANCH  12  13
ATOM     13  C   UNL     1       5.234   3.370   3.970  1.00  0.00     0.031 A 
ATOM     14  C   UNL     1       5.778   2.637   5.167  1.00  0.00     0.074 A 
ATOM     15  C   UNL     1       5.572   4.654   3.742  1.00  0.00     0.049 A 
ATOM     16  N   UNL     1       6.560   3.081   6.118  1.00  0.00    -0.248 NA
ATOM     17  C   UNL     1       5.382   1.230   5.327  1.00  0.00     0.031 C 
ATOM     18  C   UNL     1       5.100   5.457   2.609  1.00  0.00     0.029 A 
ATOM     19  N   UNL     1       6.415   5.498   4.414  1.00  0.00    -0.354 N 
ATOM     20  C   UNL     1       6.720   2.024   7.010  1.00  0.00     0.074 A 
ATOM     21  C   UNL     1       5.935   0.923   6.492  1.00  0.00     0.031 C 
ATOM     22  C   UNL     1       5.720   6.644   2.621  1.00  0.00     0.029 A 
ATOM     23  C   UNL     1       6.563   6.723   3.806  1.00  0.00     0.049 A 
ATOM     24  H   UNL     1       6.871   5.252   5.251  1.00  0.00     0.167 HD
ATOM     25  C   UNL     1       7.453   1.984   8.151  1.00  0.00     0.034 A 
ATOM     26  C   UNL     1       7.283   7.799   4.170  1.00  0.00     0.034 A 
ATOM     27  C   UNL     1       8.249   3.091   8.631  1.00  0.00     0.049 A 
ATOM     28  C   UNL     1       8.091   7.724   5.434  1.00  0.00     0.074 A 
ATOM     29  C   UNL     1       9.051   3.154   9.758  1.00  0.00     0.029 A 
ATOM     30  N   UNL     1       8.346   4.331   8.010  1.00  0.00    -0.354 N 
ATOM     31  N   UNL     1       8.219   6.721   6.272  1.00  0.00    -0.248 NA
ATOM     32  C   UNL     1       8.847   8.924   5.802  1.00  0.00     0.031 C 
ATOM     33  C   UNL     1       9.584   4.446   9.849  1.00  0.00     0.029 A 
ATOM     34  C   UNL     1       9.173   5.171   8.741  1.00  0.00     0.049 A 
ATOM     35  H   UNL     1       7.892   4.578   7.171  1.00  0.00     0.167 HD
ATOM     36  C   UNL     1       9.085   7.168   7.263  1.00  0.00     0.074 A 
ATOM     37  C   UNL     1       9.467   8.519   6.900  1.00  0.00     0.031 C 
ATOM     38  C   UNL     1       9.525   6.523   8.374  1.00  0.00     0.034 A 
BRANCH  25  39
ATOM     39  C   UNL     1       7.378   0.726   8.986  1.00  0.00     0.023 A 
ATOM     40  C   UNL     1       7.854  -0.513   8.521  1.00  0.00     0.031 A 
ATOM     41  C   UNL     1       6.797   0.765  10.267  1.00  0.00     0.131 A 
ATOM     42  C   UNL     1       7.678  -1.669   9.299  1.00  0.00     0.055 A 
ATOM     43  C   UNL     1       6.694  -0.375  11.068  1.00  0.00     0.041 A 
ATOM     44  F   UNL     1       6.305   1.913  10.759  1.00  0.00    -0.206 F 
ATOM     45  C   UNL     1       7.122  -1.605  10.579  1.00  0.00     0.022 A 
BRANCH  42  46
ATOM     46  S   UNL     1       8.056  -3.282   8.558  1.00  0.00     0.124 S 
ATOM     47  O   UNL     1       7.192  -3.276   7.379  1.00  0.00    -0.237 OA
ATOM     48  O   UNL     1       9.488  -3.183   8.301  1.00  0.00    -0.237 OA
ATOM     49  O   UNL     1       7.672  -4.236   9.597  1.00  0.00    -0.744 OA
ENDBRANCH  42  46
ENDBRANCH  25  39
BRANCH  26  50
ATOM     50  C   UNL     1       7.247   9.036   3.343  1.00  0.00     0.023 A 
ATOM     51  C   UNL     1       8.397   9.507   2.693  1.00  0.00     0.031 A 
ATOM     52  C   UNL     1       6.056   9.771   3.196  1.00  0.00     0.131 A 
ATOM     53  C   UNL     1       8.340  10.696   1.950  1.00  0.00     0.055 A 
ATOM     54  C   UNL     1       5.992  10.923   2.413  1.00  0.00     0.041 A 
ATOM     55  F   UNL     1       4.925   9.358   3.791  1.00  0.00    -0.206 F 
ATOM     56  C   UNL     1       7.143  11.398   1.793  1.00  0.00     0.022 A 
BRANCH  53  57
ATOM     57  S   UNL     1       9.876  11.351   1.244  1.00  0.00     0.124 S 
ATOM     58  O   UNL     1      10.712  11.497   2.430  1.00  0.00    -0.237 OA
ATOM     59  O   UNL     1      10.258  10.293   0.315  1.00  0.00    -0.237 OA
ATOM     60  O   UNL     1       9.455  12.604   0.619  1.00  0.00    -0.744 OA
ENDBRANCH  53  57
ENDBRANCH  26  50
BRANCH  38  61
ATOM     61  C   UNL     1      10.495   7.278   9.245  1.00  0.00     0.023 A 
ATOM     62  C   UNL     1      10.105   8.425   9.958  1.00  0.00     0.031 A 
ATOM     63  C   UNL     1      11.839   6.872   9.322  1.00  0.00     0.131 A 
ATOM     64  C   UNL     1      11.065   9.168  10.661  1.00  0.00     0.055 A 
ATOM     65  C   UNL     1      12.777   7.582  10.072  1.00  0.00     0.041 A 
ATOM     66  F   UNL     1      12.264   5.786   8.658  1.00  0.00    -0.206 F 
ATOM     67  C   UNL     1      12.395   8.747  10.734  1.00  0.00     0.022 A 
BRANCH  64  68
ATOM     68  S   UNL     1      10.573  10.757  11.385  1.00  0.00     0.124 S 
ATOM     69  O   UNL     1      10.060  11.476  10.223  1.00  0.00    -0.237 OA
ATOM     70  O   UNL     1       9.580  10.354  12.375  1.00  0.00    -0.237 OA
ATOM     71  O   UNL     1      11.821  11.283  11.937  1.00  0.00    -0.744 OA
ENDBRANCH  64  68
ENDBRANCH  38  61
ENDBRANCH  12  13
ENDBRANCH   5   7
ENDBRANCH   2   3
ENDBRANCH   1   2
BRANCH   1  72
ATOM     72  C   UNL     1       4.334  -3.039  -1.506  1.00  0.00     0.023 C 
BRANCH  72  73
ATOM     73  C   UNL     1       4.985  -2.514  -2.787  1.00  0.00     0.116 C 
BRANCH  73  74
ATOM     74  N   UNL     1       6.356  -2.958  -2.917  1.00  0.00    -0.356 N 
ATOM     75  C   UNL     1       6.941  -3.985  -3.586  1.00  0.00     0.228 C 
ATOM     76  H   UNL     1       6.996  -2.401  -2.418  1.00  0.00     0.163 HD
ATOM     77  O   UNL     1       8.177  -4.004  -3.538  1.00  0.00    -0.275 OA
BRANCH  75  78
ATOM     78  C   UNL     1       6.173  -4.967  -4.489  1.00  0.00     0.133 C 
ATOM     79  C   UNL     1       4.778  -5.437  -4.085  1.00  0.00     0.025 C 
ATOM     80  C   UNL     1       7.025  -6.245  -4.737  1.00  0.00     0.276 C 
ATOM     81  C   UNL     1       4.852  -6.299  -2.839  1.00  0.00     0.062 C 
ATOM     82  N   UNL     1       7.007  -7.219  -3.629  1.00  0.00    -0.331 N 
ATOM     83  C   UNL     1       5.672  -7.541  -3.117  1.00  0.00     0.262 C 
ATOM     84  H   UNL     1       7.468  -6.722  -2.867  1.00  0.00     0.348 HD
BRANCH  82  85
ATOM     85  C   UNL     1       7.817  -8.428  -3.891  1.00  0.00     0.299 C 
BRANCH  85  86
ATOM     86  C   UNL     1       7.079  -9.556  -4.610  1.00  0.00     0.014 A 
ATOM     87  C   UNL     1       6.892  -9.424  -5.999  1.00  0.00     0.010 A 
ATOM     88  C   UNL     1       6.458 -10.642  -3.915  1.00  0.00    -0.010 A 
ATOM     89  C   UNL     1       6.049 -10.282  -6.693  1.00  0.00     0.001 A 
ATOM     90  C   UNL     1       5.605 -11.511  -4.644  1.00  0.00    -0.018 A 
ATOM     91  C   UNL     1       6.608 -10.903  -2.530  1.00  0.00     0.009 A 
ATOM     92  C   UNL     1       5.400 -11.309  -6.016  1.00  0.00     0.009 A 
ATOM     93  C   UNL     1       4.945 -12.568  -3.993  1.00  0.00     0.009 A 
ATOM     94  C   UNL     1       5.955 -11.966  -1.899  1.00  0.00     0.001 A 
ATOM     95  C   UNL     1       5.121 -12.797  -2.630  1.00  0.00     0.001 A 
ENDBRANCH  85  86
ENDBRANCH  82  85
ENDBRANCH  75  78
ENDBRANCH  73  74
ENDBRANCH  72  73
ENDBRANCH   1  72
TORSDOF 16
