REMARK SMILES CC(=O)c1cn(CC(=O)NCC(=O)NCC(=O)NCCCCNC(=O)c2ccc(-c3c4nc(c(-c5cc(S(=O)(=O)[O-])ccc5F)c5ccc([nH]5)c(-c5cc(S(=O)(=O)[O-])ccc5F)c5nc(c(-c6cc(S(=O)(=O)[O-])ccc6F)c6ccc3[nH]6)C=C5)C=C4)cc2)c2ccccc12
REMARK SMILES IDX 19 1 18 2 16 3 17 4 15 6 14 7 12 8 13 9 11 11 10 12 8 13
REMARK SMILES IDX 9 14 7 16 6 17 4 18 5 19 94 20 89 21 93 22 90 23 92 24 91 25
REMARK SMILES IDX 2 26 1 27 3 28 20 29 21 30 22 31 23 32 24 33 25 35 26 36
REMARK SMILES IDX 27 37 88 38 28 39 87 40 29 41 30 42 31 43 81 44 32 45 86 46
REMARK SMILES IDX 80 47 82 48 33 49 85 50 79 51 78 52 34 54 66 55 46 56 65 57
REMARK SMILES IDX 47 58 50 59 64 60 83 61 48 62 49 63 63 65 84 66 51 67 35 68
REMARK SMILES IDX 36 69 44 70 37 71 43 72 45 73 42 74 38 75 39 76 40 77 41 78
REMARK SMILES IDX 67 79 68 80 76 81 69 82 75 83 77 84 74 85 70 86 71 87 72 88
REMARK SMILES IDX 73 89 52 90 53 91 61 92 54 93 60 94 62 95 59 96 55 97 56 98
REMARK SMILES IDX 57 99 58 100
REMARK H PARENT 18 5 14 10 10 15 23 34 82 53 50 64
REMARK Flexibility Score: inf
ROOT
ATOM      1  C   UNL     1       1.656   5.701   4.420  1.00  0.00     0.116 C 
ENDROOT
BRANCH   1   2
ATOM      2  N   UNL     1       2.875   5.109   3.933  1.00  0.00    -0.355 N 
ATOM      3  C   UNL     1       2.999   3.951   3.223  1.00  0.00     0.239 C 
ATOM      4  O   UNL     1       4.128   3.500   3.025  1.00  0.00    -0.273 OA
ATOM      5  H   UNL     1       3.708   5.593   4.133  1.00  0.00     0.163 HD
BRANCH   3   6
ATOM      6  C   UNL     1       1.759   3.352   2.548  1.00  0.00     0.216 C 
BRANCH   6   7
ATOM      7  N   UNL     1       0.637   2.939   3.369  1.00  0.00    -0.346 N 
ATOM      8  C   UNL     1      -0.697   3.174   3.197  1.00  0.00     0.239 C 
ATOM      9  O   UNL     1      -1.476   2.480   3.858  1.00  0.00    -0.273 OA
ATOM     10  H   UNL     1       0.871   2.412   4.167  1.00  0.00     0.164 HD
BRANCH   8  11
ATOM     11  C   UNL     1      -1.256   4.149   2.126  1.00  0.00     0.216 C 
BRANCH  11  12
ATOM     12  N   UNL     1      -0.708   5.502   2.107  1.00  0.00    -0.345 N 
ATOM     13  C   UNL     1      -0.120   6.248   1.131  1.00  0.00     0.240 C 
ATOM     14  O   UNL     1       0.385   7.322   1.477  1.00  0.00    -0.273 OA
ATOM     15  H   UNL     1      -0.777   5.967   2.972  1.00  0.00     0.164 HD
BRANCH  13  16
ATOM     16  C   UNL     1      -0.167   5.860  -0.335  1.00  0.00     0.222 C 
BRANCH  16  17
ATOM     17  N   UNL     1       0.573   4.656  -0.678  1.00  0.00    -0.337 N 
ATOM     18  C   UNL     1       0.906   2.479  -1.020  1.00  0.00     0.043 A 
ATOM     19  C   UNL     1      -0.024   3.498  -1.097  1.00  0.00     0.099 A 
ATOM     20  C   UNL     1       2.173   3.101  -0.778  1.00  0.00     0.010 A 
ATOM     21  C   UNL     1       1.937   4.473  -0.590  1.00  0.00     0.049 A 
ATOM     22  C   UNL     1       3.498   2.629  -0.650  1.00  0.00     0.011 A 
ATOM     23  C   UNL     1       2.968   5.372  -0.264  1.00  0.00     0.027 A 
ATOM     24  C   UNL     1       4.526   3.514  -0.311  1.00  0.00     0.001 A 
ATOM     25  C   UNL     1       4.262   4.865  -0.119  1.00  0.00     0.002 A 
BRANCH  18  26
ATOM     26  C   UNL     1       0.537   1.070  -1.126  1.00  0.00     0.161 C 
ATOM     27  C   UNL     1       1.126   0.103  -0.128  1.00  0.00     0.093 C 
ATOM     28  O   UNL     1      -0.333   0.699  -1.914  1.00  0.00    -0.294 OA
ENDBRANCH  18  26
ENDBRANCH  16  17
ENDBRANCH  13  16
ENDBRANCH  11  12
ENDBRANCH   8  11
ENDBRANCH   6   7
ENDBRANCH   3   6
ENDBRANCH   1   2
BRANCH   1  29
ATOM     29  C   UNL     1       1.512   5.496   5.915  1.00  0.00     0.023 C 
BRANCH  29  30
ATOM     30  C   UNL     1       2.478   6.359   6.722  1.00  0.00     0.023 C 
BRANCH  30  31
ATOM     31  C   UNL     1       2.395   7.853   6.388  1.00  0.00     0.116 C 
BRANCH  31  32
ATOM     32  N   UNL     1       1.056   8.394   6.506  1.00  0.00    -0.352 N 
ATOM     33  C   UNL     1       0.315   8.863   7.556  1.00  0.00     0.251 C 
ATOM     34  H   UNL     1       0.578   8.433   5.646  1.00  0.00     0.163 HD
ATOM     35  O   UNL     1      -0.792   9.326   7.269  1.00  0.00    -0.269 OA
BRANCH  33  36
ATOM     36  C   UNL     1       0.727   8.787   8.984  1.00  0.00     0.039 A 
ATOM     37  C   UNL     1       1.942   8.281   9.444  1.00  0.00     0.014 A 
ATOM     38  C   UNL     1      -0.227   9.203   9.931  1.00  0.00     0.014 A 
ATOM     39  C   UNL     1       2.150   8.067  10.796  1.00  0.00     0.010 A 
ATOM     40  C   UNL     1      -0.006   9.032  11.293  1.00  0.00     0.010 A 
ATOM     41  C   UNL     1       1.160   8.407  11.717  1.00  0.00    -0.014 A 
BRANCH  41  42
ATOM     42  C   UNL     1       1.462   8.163  13.121  1.00  0.00     0.031 A 
ATOM     43  C   UNL     1       2.675   8.875  13.617  1.00  0.00     0.074 A 
ATOM     44  C   UNL     1       0.687   7.415  13.928  1.00  0.00     0.049 A 
ATOM     45  N   UNL     1       3.807   8.374  13.996  1.00  0.00    -0.248 NA
ATOM     46  C   UNL     1       2.674  10.341  13.513  1.00  0.00     0.031 C 
ATOM     47  C   UNL     1      -0.665   6.911  13.673  1.00  0.00     0.029 A 
ATOM     48  N   UNL     1       0.921   7.025  15.210  1.00  0.00    -0.354 N 
ATOM     49  C   UNL     1       4.597   9.461  14.376  1.00  0.00     0.074 A 
ATOM     50  C   UNL     1       3.917  10.635  13.893  1.00  0.00     0.031 C 
ATOM     51  C   UNL     1      -1.216   6.506  14.841  1.00  0.00     0.029 A 
ATOM     52  C   UNL     1      -0.202   6.563  15.879  1.00  0.00     0.049 A 
ATOM     53  H   UNL     1       1.812   7.068  15.627  1.00  0.00     0.167 HD
ATOM     54  C   UNL     1       5.640   9.328  15.246  1.00  0.00     0.034 A 
ATOM     55  C   UNL     1      -0.305   6.310  17.207  1.00  0.00     0.034 A 
ATOM     56  C   UNL     1       6.041   7.954  15.369  1.00  0.00     0.049 A 
ATOM     57  C   UNL     1       1.064   6.175  17.756  1.00  0.00     0.074 A 
ATOM     58  C   UNL     1       6.603   7.016  14.529  1.00  0.00     0.029 A 
ATOM     59  N   UNL     1       5.555   7.259  16.447  1.00  0.00    -0.354 N 
ATOM     60  N   UNL     1       1.870   5.186  17.488  1.00  0.00    -0.248 NA
ATOM     61  C   UNL     1       1.695   7.373  18.286  1.00  0.00     0.031 C 
ATOM     62  C   UNL     1       6.030   5.775  14.927  1.00  0.00     0.029 A 
ATOM     63  C   UNL     1       5.191   6.012  16.019  1.00  0.00     0.049 A 
ATOM     64  H   UNL     1       5.481   7.598  17.368  1.00  0.00     0.167 HD
ATOM     65  C   UNL     1       3.120   5.777  17.386  1.00  0.00     0.074 A 
ATOM     66  C   UNL     1       2.968   7.096  17.997  1.00  0.00     0.031 C 
ATOM     67  C   UNL     1       4.084   5.255  16.572  1.00  0.00     0.034 A 
BRANCH  54  68
ATOM     68  C   UNL     1       6.024  10.378  16.272  1.00  0.00     0.023 A 
ATOM     69  C   UNL     1       5.276  11.547  16.494  1.00  0.00     0.031 A 
ATOM     70  C   UNL     1       7.020  10.104  17.235  1.00  0.00     0.131 A 
ATOM     71  C   UNL     1       5.489  12.363  17.612  1.00  0.00     0.055 A 
ATOM     72  C   UNL     1       7.194  10.883  18.387  1.00  0.00     0.041 A 
ATOM     73  F   UNL     1       7.812   9.025  17.127  1.00  0.00    -0.206 F 
ATOM     74  C   UNL     1       6.419  12.018  18.585  1.00  0.00     0.022 A 
BRANCH  71  75
ATOM     75  S   UNL     1       4.524  13.884  17.829  1.00  0.00     0.124 S 
ATOM     76  O   UNL     1       3.839  13.629  19.089  1.00  0.00    -0.237 OA
ATOM     77  O   UNL     1       5.575  14.897  17.868  1.00  0.00    -0.237 OA
ATOM     78  O   UNL     1       3.676  13.922  16.637  1.00  0.00    -0.744 OA
ENDBRANCH  71  75
ENDBRANCH  54  68
BRANCH  55  79
ATOM     79  C   UNL     1      -1.449   6.649  18.083  1.00  0.00     0.023 A 
ATOM     80  C   UNL     1      -2.208   7.804  17.815  1.00  0.00     0.031 A 
ATOM     81  C   UNL     1      -1.596   6.053  19.346  1.00  0.00     0.131 A 
ATOM     82  C   UNL     1      -3.033   8.356  18.805  1.00  0.00     0.055 A 
ATOM     83  C   UNL     1      -2.435   6.595  20.327  1.00  0.00     0.041 A 
ATOM     84  F   UNL     1      -0.870   4.974  19.677  1.00  0.00    -0.206 F 
ATOM     85  C   UNL     1      -3.147   7.762  20.063  1.00  0.00     0.022 A 
BRANCH  82  86
ATOM     86  S   UNL     1      -3.905   9.920  18.514  1.00  0.00     0.124 S 
ATOM     87  O   UNL     1      -5.271   9.587  18.913  1.00  0.00    -0.237 OA
ATOM     88  O   UNL     1      -3.194  10.827  19.407  1.00  0.00    -0.237 OA
ATOM     89  O   UNL     1      -3.720  10.154  17.085  1.00  0.00    -0.744 OA
ENDBRANCH  82  86
ENDBRANCH  55  79
BRANCH  67  90
ATOM     90  C   UNL     1       3.889   3.871  15.998  1.00  0.00     0.023 A 
ATOM     91  C   UNL     1       4.966   2.977  16.134  1.00  0.00     0.031 A 
ATOM     92  C   UNL     1       2.837   3.499  15.141  1.00  0.00     0.131 A 
ATOM     93  C   UNL     1       5.007   1.798  15.384  1.00  0.00     0.055 A 
ATOM     94  C   UNL     1       2.844   2.280  14.454  1.00  0.00     0.041 A 
ATOM     95  F   UNL     1       1.824   4.333  14.870  1.00  0.00    -0.206 F 
ATOM     96  C   UNL     1       3.943   1.433  14.556  1.00  0.00     0.022 A 
BRANCH  93  97
ATOM     97  S   UNL     1       6.525   0.812  15.329  1.00  0.00     0.124 S 
ATOM     98  O   UNL     1       6.093  -0.453  15.916  1.00  0.00    -0.237 OA
ATOM     99  O   UNL     1       6.815   0.772  13.897  1.00  0.00    -0.237 OA
ATOM    100  O   UNL     1       7.476   1.579  16.129  1.00  0.00    -0.744 OA
ENDBRANCH  93  97
ENDBRANCH  67  90
ENDBRANCH  41  42
ENDBRANCH  33  36
ENDBRANCH  31  32
ENDBRANCH  30  31
ENDBRANCH  29  30
ENDBRANCH   1  29
TORSDOF 20
