REMARK SMILES CC[C@@H](C)CN(CC)C(=O)N1[C@@H](C(C)C)SC[C@H]1C(=O)NCCCCNC(=O)c1ccc(-c2c3nc(c(-c4cc(S(=O)(=O)[O-])ccc4F)c4ccc([nH]4)c(-c4cc(S(=O)(=O)[O-])ccc4F)c4nc(c(-c5cc(S(=O)(=O)[O-])ccc5F)c5ccc2[nH]5)C=C4)C=C3)cc1
REMARK SMILES IDX 22 1 21 2 19 3 20 4 18 6 11 7 12 8 16 9 17 10 9 11 10 12
REMARK SMILES IDX 6 13 5 14 3 15 4 16 2 17 1 18 7 19 8 20 13 21 14 22 15 23
REMARK SMILES IDX 23 24 24 25 25 26 26 27 27 28 28 30 29 31 30 32 91 33 31 34
REMARK SMILES IDX 90 35 32 36 33 37 34 38 84 39 35 40 89 41 83 42 85 43 36 44
REMARK SMILES IDX 88 45 82 46 81 47 37 49 69 50 49 51 68 52 50 53 53 54 67 55
REMARK SMILES IDX 86 56 51 57 52 58 66 60 87 61 54 62 38 63 39 64 47 65 40 66
REMARK SMILES IDX 46 67 48 68 45 69 41 70 42 71 43 72 44 73 70 74 71 75 79 76
REMARK SMILES IDX 72 77 78 78 80 79 77 80 73 81 74 82 75 83 76 84 55 85 56 86
REMARK SMILES IDX 64 87 57 88 63 89 65 90 62 91 58 92 59 93 60 94 61 95
REMARK H PARENT 21 5 26 29 85 48 53 59
REMARK Flexibility Score: inf
ROOT
ATOM      1  C   UNL     1      -1.315   6.540  -1.682  1.00  0.00     0.116 C 
ENDROOT
BRANCH   1   2
ATOM      2  N   UNL     1      -0.629   5.839  -0.619  1.00  0.00    -0.354 N 
ATOM      3  C   UNL     1       0.584   5.226  -0.578  1.00  0.00     0.243 C 
ATOM      4  O   UNL     1       0.988   4.892   0.545  1.00  0.00    -0.273 OA
ATOM      5  H   UNL     1      -1.130   5.799   0.227  1.00  0.00     0.163 HD
BRANCH   3   6
ATOM      6  C   UNL     1       1.552   5.122  -1.783  1.00  0.00     0.187 C 
ATOM      7  N   UNL     1       1.088   4.647  -3.101  1.00  0.00    -0.300 N 
ATOM      8  C   UNL     1       1.537   5.437  -4.253  1.00  0.00     0.148 C 
ATOM      9  S   UNL     1       2.921   6.445  -3.615  1.00  0.00    -0.134 SA
ATOM     10  C   UNL     1       2.269   6.460  -1.933  1.00  0.00     0.107 C 
BRANCH   7  11
ATOM     11  C   UNL     1       0.484   3.418  -3.093  1.00  0.00     0.321 C 
ATOM     12  O   UNL     1      -0.435   3.231  -2.292  1.00  0.00    -0.248 OA
BRANCH  11  13
ATOM     13  N   UNL     1       0.964   2.366  -3.848  1.00  0.00    -0.325 N 
BRANCH  13  14
ATOM     14  C   UNL     1       0.313   1.057  -3.625  1.00  0.00     0.124 C 
BRANCH  14  15
ATOM     15  C   UNL     1       1.000   0.187  -2.531  1.00  0.00     0.005 C 
ATOM     16  C   UNL     1       0.560  -1.271  -2.704  1.00  0.00     0.009 C 
BRANCH  15  17
ATOM     17  C   UNL     1       0.710   0.707  -1.107  1.00  0.00     0.002 C 
ATOM     18  C   UNL     1       1.265  -0.160   0.017  1.00  0.00     0.004 C 
ENDBRANCH  15  17
ENDBRANCH  14  15
ENDBRANCH  13  14
BRANCH  13  19
ATOM     19  C   UNL     1       2.164   2.313  -4.688  1.00  0.00     0.118 C 
ATOM     20  C   UNL     1       1.836   2.336  -6.178  1.00  0.00     0.027 C 
ENDBRANCH  13  19
ENDBRANCH  11  13
ENDBRANCH   7  11
BRANCH   8  21
ATOM     21  C   UNL     1       0.357   6.216  -4.910  1.00  0.00     0.016 C 
ATOM     22  C   UNL     1       0.488   7.738  -5.013  1.00  0.00     0.010 C 
ATOM     23  C   UNL     1       0.005   5.647  -6.288  1.00  0.00     0.010 C 
ENDBRANCH   8  21
ENDBRANCH   3   6
ENDBRANCH   1   2
BRANCH   1  24
ATOM     24  C   UNL     1      -2.418   5.703  -2.337  1.00  0.00     0.023 C 
BRANCH  24  25
ATOM     25  C   UNL     1      -3.828   6.264  -2.184  1.00  0.00     0.023 C 
BRANCH  25  26
ATOM     26  C   UNL     1      -4.045   7.692  -2.667  1.00  0.00     0.116 C 
BRANCH  26  27
ATOM     27  N   UNL     1      -3.839   7.906  -4.092  1.00  0.00    -0.352 N 
ATOM     28  C   UNL     1      -4.559   8.734  -4.935  1.00  0.00     0.251 C 
ATOM     29  H   UNL     1      -3.101   7.401  -4.504  1.00  0.00     0.163 HD
ATOM     30  O   UNL     1      -4.287   8.793  -6.127  1.00  0.00    -0.269 OA
BRANCH  28  31
ATOM     31  C   UNL     1      -5.707   9.493  -4.381  1.00  0.00     0.039 A 
ATOM     32  C   UNL     1      -6.962   9.351  -4.978  1.00  0.00     0.014 A 
ATOM     33  C   UNL     1      -5.570  10.228  -3.201  1.00  0.00     0.014 A 
ATOM     34  C   UNL     1      -8.097   9.841  -4.323  1.00  0.00     0.010 A 
ATOM     35  C   UNL     1      -6.708  10.630  -2.507  1.00  0.00     0.010 A 
ATOM     36  C   UNL     1      -7.987  10.421  -3.048  1.00  0.00    -0.014 A 
BRANCH  36  37
ATOM     37  C   UNL     1      -9.192  10.781  -2.248  1.00  0.00     0.031 A 
ATOM     38  C   UNL     1      -9.409  12.203  -1.804  1.00  0.00     0.074 A 
ATOM     39  C   UNL     1     -10.041   9.814  -1.842  1.00  0.00     0.049 A 
ATOM     40  N   UNL     1     -10.333  12.695  -1.018  1.00  0.00    -0.248 NA
ATOM     41  C   UNL     1      -8.431  13.193  -2.275  1.00  0.00     0.031 C 
ATOM     42  C   UNL     1      -9.909   8.386  -2.145  1.00  0.00     0.029 A 
ATOM     43  N   UNL     1     -11.181   9.881  -1.078  1.00  0.00    -0.354 N 
ATOM     44  C   UNL     1     -10.034  14.047  -0.883  1.00  0.00     0.074 A 
ATOM     45  C   UNL     1      -8.804  14.276  -1.612  1.00  0.00     0.031 C 
ATOM     46  C   UNL     1     -10.944   7.721  -1.605  1.00  0.00     0.029 A 
ATOM     47  C   UNL     1     -11.790   8.662  -0.879  1.00  0.00     0.049 A 
ATOM     48  H   UNL     1     -11.530  10.723  -0.707  1.00  0.00     0.167 HD
ATOM     49  C   UNL     1     -10.733  15.014  -0.236  1.00  0.00     0.034 A 
ATOM     50  C   UNL     1     -12.900   8.338  -0.187  1.00  0.00     0.034 A 
ATOM     51  C   UNL     1     -11.971  14.777   0.465  1.00  0.00     0.049 A 
ATOM     52  C   UNL     1     -13.669   9.429   0.513  1.00  0.00     0.074 A 
ATOM     53  C   UNL     1     -12.791  15.691   1.104  1.00  0.00     0.029 A 
ATOM     54  N   UNL     1     -12.572  13.534   0.619  1.00  0.00    -0.354 N 
ATOM     55  N   UNL     1     -13.398  10.711   0.590  1.00  0.00    -0.248 NA
ATOM     56  C   UNL     1     -14.899   9.030   1.210  1.00  0.00     0.031 C 
ATOM     57  C   UNL     1     -13.856  14.996   1.687  1.00  0.00     0.029 A 
ATOM     58  C   UNL     1     -13.739  13.655   1.358  1.00  0.00     0.049 A 
ATOM     59  H   UNL     1     -12.219  12.689   0.257  1.00  0.00     0.167 HD
ATOM     60  C   UNL     1     -14.441  11.275   1.319  1.00  0.00     0.074 A 
ATOM     61  C   UNL     1     -15.351  10.196   1.646  1.00  0.00     0.031 C 
ATOM     62  C   UNL     1     -14.631  12.569   1.684  1.00  0.00     0.034 A 
BRANCH  49  63
ATOM     63  C   UNL     1     -10.155  16.409  -0.254  1.00  0.00     0.023 A 
ATOM     64  C   UNL     1      -9.977  17.114  -1.458  1.00  0.00     0.031 A 
ATOM     65  C   UNL     1      -9.732  17.025   0.936  1.00  0.00     0.131 A 
ATOM     66  C   UNL     1      -9.309  18.348  -1.456  1.00  0.00     0.055 A 
ATOM     67  C   UNL     1      -9.148  18.294   0.941  1.00  0.00     0.041 A 
ATOM     68  F   UNL     1      -9.859  16.395   2.115  1.00  0.00    -0.206 F 
ATOM     69  C   UNL     1      -8.916  18.955  -0.262  1.00  0.00     0.022 A 
BRANCH  66  70
ATOM     70  S   UNL     1      -8.822  19.067  -3.048  1.00  0.00     0.124 S 
ATOM     71  O   UNL     1      -7.954  18.023  -3.588  1.00  0.00    -0.237 OA
ATOM     72  O   UNL     1     -10.103  19.244  -3.720  1.00  0.00    -0.237 OA
ATOM     73  O   UNL     1      -8.137  20.302  -2.671  1.00  0.00    -0.744 OA
ENDBRANCH  66  70
ENDBRANCH  49  63
BRANCH  50  74
ATOM     74  C   UNL     1     -13.365   6.923  -0.119  1.00  0.00     0.023 A 
ATOM     75  C   UNL     1     -14.574   6.532  -0.718  1.00  0.00     0.031 A 
ATOM     76  C   UNL     1     -12.633   5.950   0.583  1.00  0.00     0.131 A 
ATOM     77  C   UNL     1     -15.038   5.217  -0.567  1.00  0.00     0.055 A 
ATOM     78  C   UNL     1     -13.075   4.630   0.691  1.00  0.00     0.041 A 
ATOM     79  F   UNL     1     -11.467   6.269   1.167  1.00  0.00    -0.206 F 
ATOM     80  C   UNL     1     -14.292   4.260   0.125  1.00  0.00     0.022 A 
BRANCH  77  81
ATOM     81  S   UNL     1     -16.675   4.792  -1.224  1.00  0.00     0.124 S 
ATOM     82  O   UNL     1     -17.534   5.734  -0.516  1.00  0.00    -0.237 OA
ATOM     83  O   UNL     1     -16.499   5.034  -2.653  1.00  0.00    -0.237 OA
ATOM     84  O   UNL     1     -16.840   3.390  -0.848  1.00  0.00    -0.744 OA
ENDBRANCH  77  81
ENDBRANCH  50  74
BRANCH  62  85
ATOM     85  C   UNL     1     -15.898  12.884   2.438  1.00  0.00     0.023 A 
ATOM     86  C   UNL     1     -16.114  12.422   3.748  1.00  0.00     0.031 A 
ATOM     87  C   UNL     1     -16.912  13.644   1.827  1.00  0.00     0.131 A 
ATOM     88  C   UNL     1     -17.338  12.678   4.385  1.00  0.00     0.055 A 
ATOM     89  C   UNL     1     -18.105  13.942   2.486  1.00  0.00     0.041 A 
ATOM     90  F   UNL     1     -16.757  14.109   0.577  1.00  0.00    -0.206 F 
ATOM     91  C   UNL     1     -18.329  13.447   3.768  1.00  0.00     0.022 A 
BRANCH  88  92
ATOM     92  S   UNL     1     -17.655  11.917   6.000  1.00  0.00     0.124 S 
ATOM     93  O   UNL     1     -17.514  10.496   5.700  1.00  0.00    -0.237 OA
ATOM     94  O   UNL     1     -16.605  12.499   6.831  1.00  0.00    -0.237 OA
ATOM     95  O   UNL     1     -19.012  12.351   6.324  1.00  0.00    -0.744 OA
ENDBRANCH  88  92
ENDBRANCH  62  85
ENDBRANCH  36  37
ENDBRANCH  28  31
ENDBRANCH  26  27
ENDBRANCH  25  26
ENDBRANCH  24  25
ENDBRANCH   1  24
TORSDOF 21
