REMARK SMILES C[C@H](NC(=O)OCc1ccccc1)C(=O)NCC(=O)N1CCC[C@H]1C(=O)NCCCCNC(=O)c1ccc(-c2c3nc(c(-c4cc(S(=O)(=O)[O-])ccc4F)c4ccc([nH]4)c(-c4cc(S(=O)(=O)[O-])ccc4F)c4nc(c(-c5cc(S(=O)(=O)[O-])ccc5F)c5ccc2[nH]5)C=C4)C=C3)cc1
REMARK SMILES IDX 25 1 26 2 27 3 24 5 20 6 21 7 22 8 23 9 18 10 19 11 17 12
REMARK SMILES IDX 16 13 14 14 15 15 2 17 1 18 3 19 4 20 5 22 6 23 7 24 8 25
REMARK SMILES IDX 9 26 13 27 10 28 12 29 11 30 28 31 29 32 30 33 31 34 32 35
REMARK SMILES IDX 33 36 34 38 35 39 36 40 97 41 37 42 96 43 38 44 39 45 40 46
REMARK SMILES IDX 90 47 41 48 95 49 89 50 91 51 42 52 94 53 88 54 87 55 43 57
REMARK SMILES IDX 75 58 55 59 74 60 56 61 59 62 73 63 92 64 57 65 58 66 72 68
REMARK SMILES IDX 93 69 60 70 44 71 45 72 53 73 46 74 52 75 54 76 51 77 47 78
REMARK SMILES IDX 48 79 49 80 50 81 76 82 77 83 85 84 78 85 84 86 86 87 83 88
REMARK SMILES IDX 79 89 80 90 81 91 82 92 61 93 62 94 70 95 63 96 69 97 71 98
REMARK SMILES IDX 68 99 64 100 65 101 66 102 67 103
REMARK H PARENT 27 4 16 16 3 21 32 37 91 56 59 67
REMARK Flexibility Score: inf
ROOT
ATOM      1  C   UNL     1      -1.760   3.924  -2.791  1.00  0.00     0.242 C 
ATOM      2  O   UNL     1      -2.759   3.635  -3.457  1.00  0.00    -0.273 OA
ATOM      3  N   UNL     1      -1.575   5.233  -2.439  1.00  0.00    -0.354 N 
ATOM      4  H   UNL     1      -2.107   5.891  -2.944  1.00  0.00     0.163 HD
ENDROOT
BRANCH   1   5
ATOM      5  C   UNL     1      -0.758   2.845  -2.319  1.00  0.00     0.174 C 
ATOM      6  N   UNL     1      -1.306   1.966  -1.268  1.00  0.00    -0.329 N 
ATOM      7  C   UNL     1      -1.624   0.666  -1.830  1.00  0.00     0.120 C 
ATOM      8  C   UNL     1      -0.597   0.494  -2.933  1.00  0.00     0.024 C 
ATOM      9  C   UNL     1      -0.437   1.900  -3.496  1.00  0.00     0.037 C 
BRANCH   6  10
ATOM     10  C   UNL     1      -1.544   2.465  -0.009  1.00  0.00     0.242 C 
ATOM     11  O   UNL     1      -1.590   3.683   0.191  1.00  0.00    -0.273 OA
BRANCH  10  12
ATOM     12  C   UNL     1      -1.476   1.586   1.246  1.00  0.00     0.216 C 
BRANCH  12  13
ATOM     13  N   UNL     1      -1.765   0.171   1.208  1.00  0.00    -0.345 N 
ATOM     14  C   UNL     1      -0.923  -0.896   1.343  1.00  0.00     0.242 C 
ATOM     15  O   UNL     1      -1.435  -2.013   1.462  1.00  0.00    -0.273 OA
ATOM     16  H   UNL     1      -2.711  -0.059   1.062  1.00  0.00     0.164 HD
BRANCH  14  17
ATOM     17  C   UNL     1       0.605  -0.707   1.468  1.00  0.00     0.171 C 
ATOM     18  C   UNL     1       0.963  -0.254   2.883  1.00  0.00     0.042 C 
BRANCH  17  19
ATOM     19  N   UNL     1       1.099   0.188   0.427  1.00  0.00    -0.310 N 
ATOM     20  C   UNL     1       2.377   0.577   0.191  1.00  0.00     0.408 C 
ATOM     21  H   UNL     1       0.418   0.557  -0.182  1.00  0.00     0.167 HD
ATOM     22  O   UNL     1       2.634   1.358  -0.716  1.00  0.00    -0.225 OA
BRANCH  20  23
ATOM     23  O   UNL     1       3.264   0.046   1.060  1.00  0.00    -0.445 OA
BRANCH  23  24
ATOM     24  C   UNL     1       4.596   0.567   0.958  1.00  0.00     0.270 C 
BRANCH  24  25
ATOM     25  C   UNL     1       5.410  -0.095  -0.126  1.00  0.00    -0.011 A 
ATOM     26  C   UNL     1       5.227  -1.444  -0.463  1.00  0.00     0.007 A 
ATOM     27  C   UNL     1       6.406   0.638  -0.787  1.00  0.00     0.007 A 
ATOM     28  C   UNL     1       6.003  -2.035  -1.461  1.00  0.00     0.000 A 
ATOM     29  C   UNL     1       7.184   0.044  -1.781  1.00  0.00     0.000 A 
ATOM     30  C   UNL     1       6.980  -1.291  -2.120  1.00  0.00     0.000 A 
ENDBRANCH  24  25
ENDBRANCH  23  24
ENDBRANCH  20  23
ENDBRANCH  17  19
ENDBRANCH  14  17
ENDBRANCH  12  13
ENDBRANCH  10  12
ENDBRANCH   6  10
ENDBRANCH   1   5
BRANCH   3  31
ATOM     31  C   UNL     1      -0.696   5.778  -1.418  1.00  0.00     0.116 C 
BRANCH  31  32
ATOM     32  C   UNL     1       0.040   7.032  -1.866  1.00  0.00     0.023 C 
BRANCH  32  33
ATOM     33  C   UNL     1      -0.862   8.223  -2.180  1.00  0.00     0.023 C 
BRANCH  33  34
ATOM     34  C   UNL     1      -1.845   8.610  -1.079  1.00  0.00     0.116 C 
BRANCH  34  35
ATOM     35  N   UNL     1      -1.191   8.965   0.172  1.00  0.00    -0.352 N 
ATOM     36  C   UNL     1      -1.346  10.096   0.939  1.00  0.00     0.251 C 
ATOM     37  H   UNL     1      -0.549   8.304   0.516  1.00  0.00     0.163 HD
ATOM     38  O   UNL     1      -0.599  10.297   1.892  1.00  0.00    -0.269 OA
BRANCH  36  39
ATOM     39  C   UNL     1      -2.392  11.082   0.586  1.00  0.00     0.039 A 
ATOM     40  C   UNL     1      -2.058  12.437   0.535  1.00  0.00     0.014 A 
ATOM     41  C   UNL     1      -3.690  10.666   0.276  1.00  0.00     0.014 A 
ATOM     42  C   UNL     1      -3.006  13.367   0.101  1.00  0.00     0.010 A 
ATOM     43  C   UNL     1      -4.606  11.582  -0.234  1.00  0.00     0.010 A 
ATOM     44  C   UNL     1      -4.275  12.943  -0.327  1.00  0.00    -0.014 A 
BRANCH  44  45
ATOM     45  C   UNL     1      -5.270  13.907  -0.870  1.00  0.00     0.031 A 
ATOM     46  C   UNL     1      -6.583  14.112  -0.162  1.00  0.00     0.074 A 
ATOM     47  C   UNL     1      -5.019  14.552  -2.027  1.00  0.00     0.049 A 
ATOM     48  N   UNL     1      -7.609  14.845  -0.513  1.00  0.00    -0.248 NA
ATOM     49  C   UNL     1      -6.779  13.368   1.091  1.00  0.00     0.031 C 
ATOM     50  C   UNL     1      -3.800  14.409  -2.826  1.00  0.00     0.029 A 
ATOM     51  N   UNL     1      -5.777  15.449  -2.739  1.00  0.00    -0.354 N 
ATOM     52  C   UNL     1      -8.574  14.642   0.467  1.00  0.00     0.074 A 
ATOM     53  C   UNL     1      -8.034  13.665   1.388  1.00  0.00     0.031 C 
ATOM     54  C   UNL     1      -3.882  15.211  -3.901  1.00  0.00     0.029 A 
ATOM     55  C   UNL     1      -5.176  15.886  -3.898  1.00  0.00     0.049 A 
ATOM     56  H   UNL     1      -6.667  15.753  -2.447  1.00  0.00     0.167 HD
ATOM     57  C   UNL     1      -9.788  15.233   0.601  1.00  0.00     0.034 A 
ATOM     58  C   UNL     1      -5.621  16.722  -4.857  1.00  0.00     0.034 A 
ATOM     59  C   UNL     1     -10.308  16.212  -0.323  1.00  0.00     0.049 A 
ATOM     60  C   UNL     1      -6.989  17.342  -4.706  1.00  0.00     0.074 A 
ATOM     61  C   UNL     1     -11.502  16.910  -0.257  1.00  0.00     0.029 A 
ATOM     62  N   UNL     1      -9.673  16.626  -1.488  1.00  0.00    -0.354 N 
ATOM     63  N   UNL     1      -7.870  17.176  -3.746  1.00  0.00    -0.248 NA
ATOM     64  C   UNL     1      -7.416  18.270  -5.761  1.00  0.00     0.031 C 
ATOM     65  C   UNL     1     -11.622  17.686  -1.415  1.00  0.00     0.029 A 
ATOM     66  C   UNL     1     -10.464  17.543  -2.163  1.00  0.00     0.049 A 
ATOM     67  H   UNL     1      -8.789  16.314  -1.790  1.00  0.00     0.167 HD
ATOM     68  C   UNL     1      -8.940  18.009  -4.066  1.00  0.00     0.074 A 
ATOM     69  C   UNL     1      -8.586  18.683  -5.298  1.00  0.00     0.031 C 
ATOM     70  C   UNL     1     -10.105  18.204  -3.397  1.00  0.00     0.034 A 
BRANCH  57  71
ATOM     71  C   UNL     1     -10.641  14.812   1.776  1.00  0.00     0.023 A 
ATOM     72  C   UNL     1     -10.220  15.009   3.103  1.00  0.00     0.031 A 
ATOM     73  C   UNL     1     -11.879  14.180   1.568  1.00  0.00     0.131 A 
ATOM     74  C   UNL     1     -10.988  14.506   4.165  1.00  0.00     0.055 A 
ATOM     75  C   UNL     1     -12.681  13.761   2.631  1.00  0.00     0.041 A 
ATOM     76  F   UNL     1     -12.326  13.943   0.324  1.00  0.00    -0.206 F 
ATOM     77  C   UNL     1     -12.229  13.908   3.939  1.00  0.00     0.022 A 
BRANCH  74  78
ATOM     78  S   UNL     1     -10.268  14.507   5.829  1.00  0.00     0.124 S 
ATOM     79  O   UNL     1      -9.053  13.720   5.625  1.00  0.00    -0.237 OA
ATOM     80  O   UNL     1     -10.072  15.928   6.089  1.00  0.00    -0.237 OA
ATOM     81  O   UNL     1     -11.291  13.857   6.646  1.00  0.00    -0.744 OA
ENDBRANCH  74  78
ENDBRANCH  57  71
BRANCH  58  82
ATOM     82  C   UNL     1      -4.780  17.020  -6.053  1.00  0.00     0.023 A 
ATOM     83  C   UNL     1      -4.317  18.321  -6.307  1.00  0.00     0.031 A 
ATOM     84  C   UNL     1      -4.467  16.017  -6.988  1.00  0.00     0.131 A 
ATOM     85  C   UNL     1      -3.610  18.595  -7.489  1.00  0.00     0.055 A 
ATOM     86  C   UNL     1      -3.714  16.282  -8.133  1.00  0.00     0.041 A 
ATOM     87  F   UNL     1      -4.883  14.755  -6.794  1.00  0.00    -0.206 F 
ATOM     88  C   UNL     1      -3.293  17.582  -8.396  1.00  0.00     0.022 A 
BRANCH  85  89
ATOM     89  S   UNL     1      -3.192  20.319  -7.872  1.00  0.00     0.124 S 
ATOM     90  O   UNL     1      -4.507  20.948  -7.880  1.00  0.00    -0.237 OA
ATOM     91  O   UNL     1      -2.317  20.672  -6.758  1.00  0.00    -0.237 OA
ATOM     92  O   UNL     1      -2.534  20.228  -9.174  1.00  0.00    -0.744 OA
ENDBRANCH  85  89
ENDBRANCH  58  82
BRANCH  70  93
ATOM     93  C   UNL     1     -11.059  19.232  -3.959  1.00  0.00     0.023 A 
ATOM     94  C   UNL     1     -11.697  19.057  -5.200  1.00  0.00     0.031 A 
ATOM     95  C   UNL     1     -11.326  20.412  -3.241  1.00  0.00     0.131 A 
ATOM     96  C   UNL     1     -12.523  20.070  -5.711  1.00  0.00     0.055 A 
ATOM     97  C   UNL     1     -12.200  21.386  -3.723  1.00  0.00     0.041 A 
ATOM     98  F   UNL     1     -10.743  20.635  -2.052  1.00  0.00    -0.206 F 
ATOM     99  C   UNL     1     -12.793  21.225  -4.971  1.00  0.00     0.022 A 
BRANCH  96 100
ATOM    100  S   UNL     1     -13.162  19.906  -7.400  1.00  0.00     0.124 S 
ATOM    101  O   UNL     1     -11.934  19.781  -8.178  1.00  0.00    -0.237 OA
ATOM    102  O   UNL     1     -13.984  18.704  -7.308  1.00  0.00    -0.237 OA
ATOM    103  O   UNL     1     -13.904  21.149  -7.609  1.00  0.00    -0.744 OA
ENDBRANCH  96 100
ENDBRANCH  70  93
ENDBRANCH  44  45
ENDBRANCH  36  39
ENDBRANCH  34  35
ENDBRANCH  33  34
ENDBRANCH  32  33
ENDBRANCH  31  32
ENDBRANCH   3  31
TORSDOF 22
