REMARK SMILES O=C(NCCCCNC(=O)c1cc(Cl)c2c(c1)[C@H]1C=CC[C@H]1[C@H](c1ccc(S(=O)(=O)N3CCOCC3)cc1)N2)c1ccc(-c2c3nc(c(-c4cc(S(=O)(=O)[O-])ccc4F)c4ccc([nH]4)c(-c4cc(S(=O)(=O)[O-])ccc4F)c4nc(c(-c5cc(S(=O)(=O)[O-])ccc5F)c5ccc2[nH]5)C=C4)C=C3)cc1
REMARK SMILES IDX 5 1 4 2 3 3 1 4 2 5 40 7 41 8 102 9 42 10 101 11 43 12 44 13
REMARK SMILES IDX 45 14 95 15 46 16 100 17 94 18 96 19 47 20 99 21 93 22 92 23
REMARK SMILES IDX 48 25 80 26 60 27 79 28 61 29 64 30 78 31 97 32 62 33 63 34
REMARK SMILES IDX 77 36 98 37 65 38 49 39 50 40 58 41 51 42 57 43 59 44 56 45
REMARK SMILES IDX 52 46 53 47 54 48 55 49 81 50 82 51 90 52 83 53 89 54 91 55
REMARK SMILES IDX 88 56 84 57 85 58 86 59 87 60 66 61 67 62 75 63 68 64 74 65
REMARK SMILES IDX 76 66 73 67 69 68 70 69 71 70 72 71 6 72 7 73 8 74 9 75
REMARK SMILES IDX 10 77 11 78 12 79 17 80 13 81 16 82 14 83 15 84 18 85 39 86
REMARK SMILES IDX 19 87 22 88 23 89 20 91 21 92 24 93 25 94 38 95 26 96 37 97
REMARK SMILES IDX 27 98 28 99 29 100 30 101 31 102 32 103 36 104 33 105 35 106
REMARK SMILES IDX 34 107
REMARK H PARENT 3 6 96 24 64 35 8 76 39 90
REMARK Flexibility Score: inf
ROOT
ATOM      1  C   UNL     1       5.017   2.427   0.548  1.00  0.00     0.023 C 
ENDROOT
BRANCH   1   2
ATOM      2  C   UNL     1       4.660   0.951   0.684  1.00  0.00     0.116 C 
BRANCH   2   3
ATOM      3  N   UNL     1       3.225   0.730   0.775  1.00  0.00    -0.352 N 
ATOM      4  O   UNL     1       1.193   0.051   0.070  1.00  0.00    -0.269 OA
ATOM      5  C   UNL     1       2.411   0.001  -0.060  1.00  0.00     0.251 C 
ATOM      6  H   UNL     1       2.776   1.160   1.537  1.00  0.00     0.163 HD
BRANCH   5   7
ATOM      7  C   UNL     1       3.022  -0.812  -1.131  1.00  0.00     0.039 A 
ATOM      8  C   UNL     1       4.061  -1.701  -0.837  1.00  0.00     0.014 A 
ATOM      9  C   UNL     1       2.572  -0.654  -2.443  1.00  0.00     0.014 A 
ATOM     10  C   UNL     1       4.741  -2.331  -1.875  1.00  0.00     0.010 A 
ATOM     11  C   UNL     1       3.219  -1.332  -3.477  1.00  0.00     0.010 A 
ATOM     12  C   UNL     1       4.331  -2.145  -3.204  1.00  0.00    -0.014 A 
BRANCH  12  13
ATOM     13  C   UNL     1       5.044  -2.842  -4.301  1.00  0.00     0.031 A 
ATOM     14  C   UNL     1       5.880  -2.075  -5.285  1.00  0.00     0.074 A 
ATOM     15  C   UNL     1       4.924  -4.178  -4.405  1.00  0.00     0.049 A 
ATOM     16  N   UNL     1       6.552  -2.524  -6.312  1.00  0.00    -0.248 NA
ATOM     17  C   UNL     1       5.978  -0.619  -5.094  1.00  0.00     0.031 C 
ATOM     18  C   UNL     1       4.131  -5.018  -3.506  1.00  0.00     0.029 A 
ATOM     19  N   UNL     1       5.453  -5.062  -5.311  1.00  0.00    -0.354 N 
ATOM     20  C   UNL     1       7.143  -1.412  -6.898  1.00  0.00     0.074 A 
ATOM     21  C   UNL     1       6.733  -0.260  -6.125  1.00  0.00     0.031 C 
ATOM     22  C   UNL     1       4.227  -6.294  -3.903  1.00  0.00     0.029 A 
ATOM     23  C   UNL     1       5.044  -6.359  -5.113  1.00  0.00     0.049 A 
ATOM     24  H   UNL     1       6.066  -4.793  -6.033  1.00  0.00     0.167 HD
ATOM     25  C   UNL     1       7.961  -1.365  -7.975  1.00  0.00     0.034 A 
ATOM     26  C   UNL     1       5.274  -7.474  -5.835  1.00  0.00     0.034 A 
ATOM     27  C   UNL     1       8.374  -2.524  -8.723  1.00  0.00     0.049 A 
ATOM     28  C   UNL     1       6.160  -7.390  -7.048  1.00  0.00     0.074 A 
ATOM     29  C   UNL     1       9.254  -2.579  -9.790  1.00  0.00     0.029 A 
ATOM     30  N   UNL     1       7.937  -3.820  -8.497  1.00  0.00    -0.354 N 
ATOM     31  N   UNL     1       6.779  -6.342  -7.538  1.00  0.00    -0.248 NA
ATOM     32  C   UNL     1       6.384  -8.628  -7.805  1.00  0.00     0.031 C 
ATOM     33  C   UNL     1       9.308  -3.897 -10.242  1.00  0.00     0.029 A 
ATOM     34  C   UNL     1       8.503  -4.676  -9.425  1.00  0.00     0.049 A 
ATOM     35  H   UNL     1       7.316  -4.091  -7.782  1.00  0.00     0.167 HD
ATOM     36  C   UNL     1       7.476  -6.797  -8.652  1.00  0.00     0.074 A 
ATOM     37  C   UNL     1       7.219  -8.218  -8.753  1.00  0.00     0.031 C 
ATOM     38  C   UNL     1       8.254  -6.095  -9.513  1.00  0.00     0.034 A 
BRANCH  25  39
ATOM     39  C   UNL     1       8.500  -0.033  -8.424  1.00  0.00     0.023 A 
ATOM     40  C   UNL     1       8.118   0.494  -9.672  1.00  0.00     0.031 A 
ATOM     41  C   UNL     1       9.506   0.626  -7.698  1.00  0.00     0.131 A 
ATOM     42  C   UNL     1       8.770   1.627 -10.175  1.00  0.00     0.055 A 
ATOM     43  C   UNL     1      10.132   1.771  -8.191  1.00  0.00     0.041 A 
ATOM     44  F   UNL     1       9.902   0.158  -6.503  1.00  0.00    -0.206 F 
ATOM     45  C   UNL     1       9.772   2.269  -9.440  1.00  0.00     0.022 A 
BRANCH  42  46
ATOM     46  S   UNL     1       8.371   2.283 -11.818  1.00  0.00     0.124 S 
ATOM     47  O   UNL     1       8.109   3.691 -11.525  1.00  0.00    -0.237 OA
ATOM     48  O   UNL     1       9.601   2.019 -12.557  1.00  0.00    -0.237 OA
ATOM     49  O   UNL     1       7.204   1.512 -12.229  1.00  0.00    -0.744 OA
ENDBRANCH  42  46
ENDBRANCH  25  39
BRANCH  26  50
ATOM     50  C   UNL     1       4.656  -8.753  -5.391  1.00  0.00     0.023 A 
ATOM     51  C   UNL     1       3.257  -8.903  -5.373  1.00  0.00     0.031 A 
ATOM     52  C   UNL     1       5.442  -9.789  -4.863  1.00  0.00     0.131 A 
ATOM     53  C   UNL     1       2.686 -10.033  -4.775  1.00  0.00     0.055 A 
ATOM     54  C   UNL     1       4.871 -10.943  -4.325  1.00  0.00     0.041 A 
ATOM     55  F   UNL     1       6.780  -9.681  -4.849  1.00  0.00    -0.206 F 
ATOM     56  C   UNL     1       3.485 -11.061  -4.264  1.00  0.00     0.022 A 
BRANCH  53  57
ATOM     57  S   UNL     1       0.892 -10.152  -4.536  1.00  0.00     0.124 S 
ATOM     58  O   UNL     1       0.581 -11.422  -5.183  1.00  0.00    -0.237 OA
ATOM     59  O   UNL     1       0.788 -10.144  -3.078  1.00  0.00    -0.237 OA
ATOM     60  O   UNL     1       0.376  -8.962  -5.204  1.00  0.00    -0.744 OA
ENDBRANCH  53  57
ENDBRANCH  26  50
BRANCH  38  61
ATOM     61  C   UNL     1       8.901  -6.822 -10.662  1.00  0.00     0.023 A 
ATOM     62  C   UNL     1      10.303  -6.935 -10.723  1.00  0.00     0.031 A 
ATOM     63  C   UNL     1       8.146  -7.235 -11.773  1.00  0.00     0.131 A 
ATOM     64  C   UNL     1      10.911  -7.400 -11.895  1.00  0.00     0.055 A 
ATOM     65  C   UNL     1       8.756  -7.738 -12.922  1.00  0.00     0.041 A 
ATOM     66  F   UNL     1       6.807  -7.138 -11.760  1.00  0.00    -0.206 F 
ATOM     67  C   UNL     1      10.145  -7.808 -12.992  1.00  0.00     0.022 A 
BRANCH  64  68
ATOM     68  S   UNL     1      12.717  -7.426 -12.061  1.00  0.00     0.124 S 
ATOM     69  O   UNL     1      12.966  -8.804 -12.479  1.00  0.00    -0.237 OA
ATOM     70  O   UNL     1      12.944  -6.412 -13.087  1.00  0.00    -0.237 OA
ATOM     71  O   UNL     1      13.197  -7.090 -10.725  1.00  0.00    -0.744 OA
ENDBRANCH  64  68
ENDBRANCH  38  61
ENDBRANCH  12  13
ENDBRANCH   5   7
ENDBRANCH   2   3
ENDBRANCH   1   2
BRANCH   1  72
ATOM     72  C   UNL     1       4.569   3.309   1.711  1.00  0.00     0.023 C 
BRANCH  72  73
ATOM     73  C   UNL     1       4.987   2.818   3.092  1.00  0.00     0.116 C 
BRANCH  73  74
ATOM     74  N   UNL     1       6.432   2.756   3.258  1.00  0.00    -0.352 N 
ATOM     75  C   UNL     1       7.194   3.297   4.264  1.00  0.00     0.251 C 
ATOM     76  H   UNL     1       6.925   2.264   2.562  1.00  0.00     0.163 HD
ATOM     77  O   UNL     1       8.418   3.264   4.238  1.00  0.00    -0.269 OA
BRANCH  75  78
ATOM     78  C   UNL     1       6.501   3.966   5.376  1.00  0.00     0.041 A 
ATOM     79  C   UNL     1       5.593   3.257   6.159  1.00  0.00     0.036 A 
ATOM     80  C   UNL     1       6.716   5.329   5.579  1.00  0.00     0.020 A 
ATOM     81  C   UNL     1       4.806   3.953   7.067  1.00  0.00     0.065 A 
ATOM     82  C   UNL     1       5.937   6.029   6.512  1.00  0.00    -0.015 A 
ATOM     83  Cl  UNL     1       3.615   3.069   7.960  1.00  0.00    -0.082 Cl
ATOM     84  C   UNL     1       4.928   5.350   7.219  1.00  0.00     0.057 A 
ATOM     85  C   UNL     1       6.216   7.488   6.770  1.00  0.00     0.049 C 
ATOM     86  N   UNL     1       4.100   6.041   8.094  1.00  0.00    -0.376 N 
ATOM     87  C   UNL     1       5.916   8.415   5.623  1.00  0.00    -0.023 C 
ATOM     88  C   UNL     1       5.388   8.118   7.913  1.00  0.00     0.031 C 
ATOM     89  C   UNL     1       3.981   7.483   7.971  1.00  0.00     0.114 C 
ATOM     90  H   UNL     1       3.598   5.559   8.790  1.00  0.00     0.161 HD
ATOM     91  C   UNL     1       5.451   9.592   6.058  1.00  0.00    -0.030 C 
ATOM     92  C   UNL     1       5.348   9.614   7.550  1.00  0.00     0.034 C 
BRANCH  89  93
ATOM     93  C   UNL     1       3.164   7.985   9.154  1.00  0.00    -0.025 A 
ATOM     94  C   UNL     1       3.475   7.584  10.465  1.00  0.00     0.007 A 
ATOM     95  C   UNL     1       2.087   8.863   8.949  1.00  0.00     0.007 A 
ATOM     96  C   UNL     1       2.765   8.090  11.551  1.00  0.00     0.022 A 
ATOM     97  C   UNL     1       1.364   9.363  10.033  1.00  0.00     0.022 A 
ATOM     98  C   UNL     1       1.736   9.007  11.330  1.00  0.00     0.082 A 
BRANCH  98  99
ATOM     99  S   UNL     1       0.960   9.801  12.720  1.00  0.00     0.243 S 
ATOM    100  O   UNL     1      -0.461   9.581  12.605  1.00  0.00    -0.207 OA
ATOM    101  O   UNL     1       1.699   9.407  13.905  1.00  0.00    -0.207 OA
BRANCH  99 102
ATOM    102  N   UNL     1       1.298  11.418  12.456  1.00  0.00    -0.193 NA
ATOM    103  C   UNL     1       0.274  12.382  12.013  1.00  0.00     0.131 C 
ATOM    104  C   UNL     1       2.685  11.918  12.391  1.00  0.00     0.131 C 
ATOM    105  C   UNL     1       0.661  13.021  10.677  1.00  0.00     0.177 C 
ATOM    106  C   UNL     1       2.951  12.538  11.013  1.00  0.00     0.177 C 
ATOM    107  O   UNL     1       1.991  13.561  10.707  1.00  0.00    -0.379 OA
ENDBRANCH  99 102
ENDBRANCH  98  99
ENDBRANCH  89  93
ENDBRANCH  75  78
ENDBRANCH  73  74
ENDBRANCH  72  73
ENDBRANCH   1  72
TORSDOF 17
