REMARK SMILES C[C@@H]1C[C@H](C)C[C@H]([N@@H+]2[C@@H](C(=O)NCCCCNC(=O)c3ccc(-c4c5nc(c(-c6cc(S(=O)(=O)[O-])ccc6F)c6ccc([nH]6)c(-c6cc(S(=O)(=O)[O-])ccc6F)c6nc(c(-c7cc(S(=O)(=O)[O-])ccc7F)c7ccc4[nH]7)C=C6)C=C5)cc3)CC[C@@H]3CCCC[C@@H]32)C1
REMARK SMILES IDX 15 1 14 2 13 3 12 4 10 5 11 6 9 8 8 9 90 10 83 12 85 13
REMARK SMILES IDX 89 14 84 15 86 16 88 17 87 18 7 19 5 20 4 21 6 22 3 23 2 24
REMARK SMILES IDX 91 25 1 26 16 27 17 28 18 29 19 31 20 32 21 33 82 34 22 35
REMARK SMILES IDX 81 36 23 37 24 38 25 39 75 40 26 41 80 42 74 43 76 44 27 45
REMARK SMILES IDX 79 46 73 47 72 48 28 50 60 51 40 52 59 53 41 54 44 55 58 56
REMARK SMILES IDX 77 57 42 58 43 59 57 61 78 62 45 63 29 64 30 65 38 66 31 67
REMARK SMILES IDX 37 68 39 69 36 70 32 71 33 72 34 73 35 74 61 75 62 76 70 77
REMARK SMILES IDX 63 78 69 79 71 80 68 81 64 82 65 83 66 84 67 85 46 86 47 87
REMARK SMILES IDX 55 88 48 89 54 90 56 91 53 92 49 93 50 94 51 95 52 96
REMARK H PARENT 12 7 8 11 17 30 76 49 44 60
REMARK Flexibility Score: inf
ROOT
ATOM      1  C   UNL     1       2.913   2.495  -4.897  1.00  0.00     0.023 C 
ENDROOT
BRANCH   1   2
ATOM      2  C   UNL     1       2.307   1.400  -4.020  1.00  0.00     0.023 C 
BRANCH   2   3
ATOM      3  C   UNL     1       2.641  -0.009  -4.508  1.00  0.00     0.116 C 
BRANCH   3   4
ATOM      4  N   UNL     1       3.913  -0.452  -3.998  1.00  0.00    -0.351 N 
ATOM      5  C   UNL     1       4.157  -1.306  -2.961  1.00  0.00     0.278 C 
ATOM      6  O   UNL     1       5.342  -1.541  -2.708  1.00  0.00    -0.268 OA
ATOM      7  H   UNL     1       4.708  -0.094  -4.455  1.00  0.00     0.163 HD
BRANCH   5   8
ATOM      8  C   UNL     1       2.986  -2.042  -2.231  1.00  0.00     0.274 C 
ATOM      9  N   UNL     1       1.900  -1.122  -1.707  1.00  0.00    -0.320 N 
ATOM     10  C   UNL     1       2.466  -0.295  -0.598  1.00  0.00     0.188 C 
ATOM     11  H   UNL     1       1.572  -0.312  -2.233  1.00  0.00     0.349 HD
ATOM     12  C   UNL     1       3.504  -2.941  -1.096  1.00  0.00     0.076 C 
ATOM     13  C   UNL     1       3.292  -0.975   0.520  1.00  0.00     0.048 C 
ATOM     14  C   UNL     1       1.717   0.931  -0.048  1.00  0.00     0.065 C 
ATOM     15  C   UNL     1       4.140  -2.151   0.038  1.00  0.00     0.016 C 
ATOM     16  C   UNL     1       2.460  -1.315   1.744  1.00  0.00     0.010 C 
ATOM     17  C   UNL     1       1.538   1.093   1.469  1.00  0.00     0.006 C 
ATOM     18  C   UNL     1       1.897  -0.063   2.399  1.00  0.00     0.001 C 
BRANCH   9  19
ATOM     19  C   UNL     1       0.548  -1.773  -1.829  1.00  0.00     0.185 C 
ATOM     20  C   UNL     1      -1.184  -0.759   0.921  1.00  0.00     0.008 C 
ATOM     21  C   UNL     1      -1.483  -1.778  -0.152  1.00  0.00    -0.008 C 
ATOM     22  C   UNL     1      -0.215  -2.454  -0.683  1.00  0.00     0.068 C 
ATOM     23  C   UNL     1      -2.385  -1.185  -1.238  1.00  0.00     0.007 C 
ATOM     24  C   UNL     1      -1.685  -0.443  -2.378  1.00  0.00    -0.008 C 
ATOM     25  C   UNL     1      -0.445  -1.181  -2.877  1.00  0.00     0.068 C 
ATOM     26  C   UNL     1      -1.409   1.039  -2.140  1.00  0.00     0.008 C 
ENDBRANCH   9  19
ENDBRANCH   5   8
ENDBRANCH   3   4
ENDBRANCH   2   3
ENDBRANCH   1   2
BRANCH   1  27
ATOM     27  C   UNL     1       2.335   2.553  -6.306  1.00  0.00     0.116 C 
BRANCH  27  28
ATOM     28  N   UNL     1       0.915   2.873  -6.334  1.00  0.00    -0.352 N 
ATOM     29  C   UNL     1       0.240   3.624  -7.274  1.00  0.00     0.251 C 
ATOM     30  H   UNL     1       0.373   2.512  -5.595  1.00  0.00     0.163 HD
ATOM     31  O   UNL     1      -0.937   3.906  -7.122  1.00  0.00    -0.269 OA
BRANCH  29  32
ATOM     32  C   UNL     1       1.000   4.114  -8.443  1.00  0.00     0.039 A 
ATOM     33  C   UNL     1       1.025   5.484  -8.712  1.00  0.00     0.014 A 
ATOM     34  C   UNL     1       1.768   3.225  -9.199  1.00  0.00     0.014 A 
ATOM     35  C   UNL     1       1.886   5.974  -9.696  1.00  0.00     0.010 A 
ATOM     36  C   UNL     1       2.680   3.723 -10.120  1.00  0.00     0.010 A 
ATOM     37  C   UNL     1       2.751   5.102 -10.377  1.00  0.00    -0.014 A 
BRANCH  37  38
ATOM     38  C   UNL     1       3.733   5.593 -11.379  1.00  0.00     0.031 A 
ATOM     39  C   UNL     1       3.630   5.122 -12.803  1.00  0.00     0.074 A 
ATOM     40  C   UNL     1       4.765   6.370 -10.993  1.00  0.00     0.049 A 
ATOM     41  N   UNL     1       4.463   5.289 -13.796  1.00  0.00    -0.248 NA
ATOM     42  C   UNL     1       2.446   4.317 -13.137  1.00  0.00     0.031 C 
ATOM     43  C   UNL     1       4.994   6.860  -9.632  1.00  0.00     0.029 A 
ATOM     44  N   UNL     1       5.828   6.865 -11.706  1.00  0.00    -0.354 N 
ATOM     45  C   UNL     1       3.921   4.582 -14.864  1.00  0.00     0.074 A 
ATOM     46  C   UNL     1       2.723   3.936 -14.373  1.00  0.00     0.031 C 
ATOM     47  C   UNL     1       6.118   7.594  -9.613  1.00  0.00     0.029 A 
ATOM     48  C   UNL     1       6.718   7.586 -10.943  1.00  0.00     0.049 A 
ATOM     49  H   UNL     1       5.944   6.718 -12.672  1.00  0.00     0.167 HD
ATOM     50  C   UNL     1       4.370   4.499 -16.142  1.00  0.00     0.034 A 
ATOM     51  C   UNL     1       7.895   8.157 -11.273  1.00  0.00     0.034 A 
ATOM     52  C   UNL     1       5.556   5.170 -16.613  1.00  0.00     0.049 A 
ATOM     53  C   UNL     1       8.385   8.045 -12.695  1.00  0.00     0.074 A 
ATOM     54  C   UNL     1       6.072   5.211 -17.897  1.00  0.00     0.029 A 
ATOM     55  N   UNL     1       6.418   5.915 -15.817  1.00  0.00    -0.354 N 
ATOM     56  N   UNL     1       7.841   7.410 -13.708  1.00  0.00    -0.248 NA
ATOM     57  C   UNL     1       9.641   8.733 -13.021  1.00  0.00     0.031 C 
ATOM     58  C   UNL     1       7.277   5.921 -17.863  1.00  0.00     0.029 A 
ATOM     59  C   UNL     1       7.474   6.394 -16.576  1.00  0.00     0.049 A 
ATOM     60  H   UNL     1       6.296   6.079 -14.854  1.00  0.00     0.167 HD
ATOM     61  C   UNL     1       8.671   7.653 -14.799  1.00  0.00     0.074 A 
ATOM     62  C   UNL     1       9.751   8.492 -14.320  1.00  0.00     0.031 C 
ATOM     63  C   UNL     1       8.545   7.230 -16.083  1.00  0.00     0.034 A 
BRANCH  50  64
ATOM     64  C   UNL     1       3.587   3.626 -17.095  1.00  0.00     0.023 A 
ATOM     65  C   UNL     1       2.237   3.883 -17.393  1.00  0.00     0.031 A 
ATOM     66  C   UNL     1       4.180   2.488 -17.670  1.00  0.00     0.131 A 
ATOM     67  C   UNL     1       1.500   2.964 -18.154  1.00  0.00     0.055 A 
ATOM     68  C   UNL     1       3.465   1.628 -18.507  1.00  0.00     0.041 A 
ATOM     69  F   UNL     1       5.459   2.176 -17.408  1.00  0.00    -0.206 F 
ATOM     70  C   UNL     1       2.111   1.852 -18.736  1.00  0.00     0.022 A 
BRANCH  67  71
ATOM     71  S   UNL     1      -0.303   3.150 -18.218  1.00  0.00     0.124 S 
ATOM     72  O   UNL     1      -0.654   3.103 -16.801  1.00  0.00    -0.237 OA
ATOM     73  O   UNL     1      -0.465   4.442 -18.875  1.00  0.00    -0.237 OA
ATOM     74  O   UNL     1      -0.739   1.993 -18.998  1.00  0.00    -0.744 OA
ENDBRANCH  67  71
ENDBRANCH  50  64
BRANCH  51  75
ATOM     75  C   UNL     1       8.697   8.873 -10.241  1.00  0.00     0.023 A 
ATOM     76  C   UNL     1       8.896  10.260 -10.311  1.00  0.00     0.031 A 
ATOM     77  C   UNL     1       9.291   8.174  -9.174  1.00  0.00     0.131 A 
ATOM     78  C   UNL     1       9.699  10.901  -9.354  1.00  0.00     0.055 A 
ATOM     79  C   UNL     1      10.049   8.823  -8.198  1.00  0.00     0.041 A 
ATOM     80  F   UNL     1       9.125   6.847  -9.056  1.00  0.00    -0.206 F 
ATOM     81  C   UNL     1      10.265  10.195  -8.290  1.00  0.00     0.022 A 
BRANCH  78  82
ATOM     82  S   UNL     1      10.045  12.671  -9.553  1.00  0.00     0.124 S 
ATOM     83  O   UNL     1      10.708  12.699 -10.852  1.00  0.00    -0.237 OA
ATOM     84  O   UNL     1       8.706  13.249  -9.504  1.00  0.00    -0.237 OA
ATOM     85  O   UNL     1      10.898  12.982  -8.409  1.00  0.00    -0.744 OA
ENDBRANCH  78  82
ENDBRANCH  51  75
BRANCH  63  86
ATOM     86  C   UNL     1       9.565   7.723 -17.078  1.00  0.00     0.023 A 
ATOM     87  C   UNL     1      10.904   7.298 -17.048  1.00  0.00     0.031 A 
ATOM     88  C   UNL     1       9.175   8.617 -18.093  1.00  0.00     0.131 A 
ATOM     89  C   UNL     1      11.814   7.795 -17.994  1.00  0.00     0.055 A 
ATOM     90  C   UNL     1      10.072   9.065 -19.062  1.00  0.00     0.041 A 
ATOM     91  F   UNL     1       7.908   9.056 -18.166  1.00  0.00    -0.206 F 
ATOM     92  C   UNL     1      11.402   8.661 -19.011  1.00  0.00     0.022 A 
BRANCH  89  93
ATOM     93  S   UNL     1      13.565   7.342 -17.845  1.00  0.00     0.124 S 
ATOM     94  O   UNL     1      13.905   7.875 -16.530  1.00  0.00    -0.237 OA
ATOM     95  O   UNL     1      13.523   5.888 -17.953  1.00  0.00    -0.237 OA
ATOM     96  O   UNL     1      14.194   8.028 -18.973  1.00  0.00    -0.744 OA
ENDBRANCH  89  93
ENDBRANCH  63  86
ENDBRANCH  37  38
ENDBRANCH  29  32
ENDBRANCH  27  28
ENDBRANCH   1  27
TORSDOF 15
