REMARK SMILES C[C@@H](C(=O)NCCCCNC(=O)c1ccc(-c2c3nc(c(-c4cc(S(=O)(=O)[O-])ccc4F)c4ccc([nH]4)c(-c4cc(S(=O)(=O)[O-])ccc4F)c4nc(c(-c5cc(S(=O)(=O)[O-])ccc5F)c5ccc2[nH]5)C=C4)C=C3)cc1)c1ccc(OC2CCCC2)cc1F
REMARK SMILES IDX 7 1 6 2 5 3 3 4 4 5 2 7 1 8 76 9 77 10 87 11 78 12 86 13
REMARK SMILES IDX 88 14 79 15 80 16 81 17 82 18 85 19 83 20 84 21 8 22 9 23
REMARK SMILES IDX 10 24 11 25 12 27 13 28 14 29 75 30 15 31 74 32 16 33 17 34
REMARK SMILES IDX 18 35 68 36 19 37 73 38 67 39 69 40 20 41 72 42 66 43 65 44
REMARK SMILES IDX 21 46 53 47 33 48 52 49 34 50 37 51 51 52 70 53 35 54 36 55
REMARK SMILES IDX 50 57 71 58 38 59 22 60 23 61 31 62 24 63 30 64 32 65 29 66
REMARK SMILES IDX 25 67 26 68 27 69 28 70 54 71 55 72 63 73 56 74 62 75 64 76
REMARK SMILES IDX 61 77 57 78 58 79 59 80 60 81 39 82 40 83 48 84 41 85 47 86
REMARK SMILES IDX 49 87 46 88 42 89 43 90 44 91 45 92
REMARK H PARENT 5 6 10 26 69 45 37 56
REMARK Flexibility Score: inf
ROOT
ATOM      1  C   UNL     1       4.355  -0.944   0.803  1.00  0.00     0.023 C 
ENDROOT
BRANCH   1   2
ATOM      2  C   UNL     1       3.524  -1.815  -0.144  1.00  0.00     0.116 C 
BRANCH   2   3
ATOM      3  N   UNL     1       2.450  -2.451   0.589  1.00  0.00    -0.356 N 
ATOM      4  C   UNL     1       1.171  -2.010   0.780  1.00  0.00     0.227 C 
ATOM      5  O   UNL     1       0.560  -2.454   1.754  1.00  0.00    -0.274 OA
ATOM      6  H   UNL     1       2.670  -3.315   1.005  1.00  0.00     0.163 HD
BRANCH   4   7
ATOM      7  C   UNL     1       0.550  -1.013  -0.220  1.00  0.00     0.108 C 
ATOM      8  C   UNL     1       1.027   0.406   0.108  1.00  0.00     0.023 C 
BRANCH   7   9
ATOM      9  C   UNL     1      -0.973  -1.140  -0.270  1.00  0.00     0.000 A 
ATOM     10  C   UNL     1      -1.841  -0.043  -0.193  1.00  0.00     0.011 A 
ATOM     11  C   UNL     1      -1.556  -2.407  -0.392  1.00  0.00     0.130 A 
ATOM     12  C   UNL     1      -3.227  -0.227  -0.184  1.00  0.00     0.047 A 
ATOM     13  C   UNL     1      -2.936  -2.596  -0.342  1.00  0.00     0.086 A 
ATOM     14  F   UNL     1      -0.781  -3.489  -0.562  1.00  0.00    -0.207 F 
ATOM     15  C   UNL     1      -3.787  -1.504  -0.244  1.00  0.00     0.122 A 
BRANCH  15  16
ATOM     16  O   UNL     1      -5.148  -1.511  -0.203  1.00  0.00    -0.490 OA
BRANCH  16  17
ATOM     17  C   UNL     1      -5.921  -2.697  -0.322  1.00  0.00     0.173 C 
ATOM     18  C   UNL     1      -5.750  -3.491  -1.611  1.00  0.00     0.045 C 
ATOM     19  C   UNL     1      -5.801  -3.687   0.831  1.00  0.00     0.045 C 
ATOM     20  C   UNL     1      -6.307  -4.864  -1.274  1.00  0.00     0.004 C 
ATOM     21  C   UNL     1      -6.162  -5.045   0.237  1.00  0.00     0.004 C 
ENDBRANCH  16  17
ENDBRANCH  15  16
ENDBRANCH   7   9
ENDBRANCH   4   7
ENDBRANCH   2   3
ENDBRANCH   1   2
BRANCH   1  22
ATOM     22  C   UNL     1       5.142  -1.730   1.856  1.00  0.00     0.023 C 
BRANCH  22  23
ATOM     23  C   UNL     1       6.123  -2.751   1.293  1.00  0.00     0.116 C 
BRANCH  23  24
ATOM     24  N   UNL     1       7.073  -2.153   0.371  1.00  0.00    -0.352 N 
ATOM     25  C   UNL     1       8.425  -2.350   0.265  1.00  0.00     0.251 C 
ATOM     26  H   UNL     1       6.690  -1.512  -0.270  1.00  0.00     0.163 HD
ATOM     27  O   UNL     1       9.081  -1.612  -0.470  1.00  0.00    -0.269 OA
BRANCH  25  28
ATOM     28  C   UNL     1       9.092  -3.413   1.047  1.00  0.00     0.039 A 
ATOM     29  C   UNL     1      10.330  -3.133   1.627  1.00  0.00     0.014 A 
ATOM     30  C   UNL     1       8.515  -4.678   1.205  1.00  0.00     0.014 A 
ATOM     31  C   UNL     1      10.962  -4.102   2.406  1.00  0.00     0.010 A 
ATOM     32  C   UNL     1       9.109  -5.614   2.049  1.00  0.00     0.010 A 
ATOM     33  C   UNL     1      10.342  -5.338   2.656  1.00  0.00    -0.014 A 
BRANCH  33  34
ATOM     34  C   UNL     1      10.983  -6.328   3.561  1.00  0.00     0.031 A 
ATOM     35  C   UNL     1      11.436  -7.665   3.041  1.00  0.00     0.074 A 
ATOM     36  C   UNL     1      11.148  -6.014   4.862  1.00  0.00     0.049 A 
ATOM     37  N   UNL     1      12.045  -8.634   3.676  1.00  0.00    -0.248 NA
ATOM     38  C   UNL     1      11.147  -7.963   1.630  1.00  0.00     0.031 C 
ATOM     39  C   UNL     1      10.693  -4.772   5.493  1.00  0.00     0.029 A 
ATOM     40  N   UNL     1      11.749  -6.702   5.885  1.00  0.00    -0.354 N 
ATOM     41  C   UNL     1      12.223  -9.650   2.743  1.00  0.00     0.074 A 
ATOM     42  C   UNL     1      11.586  -9.209   1.520  1.00  0.00     0.031 C 
ATOM     43  C   UNL     1      11.067  -4.770   6.781  1.00  0.00     0.029 A 
ATOM     44  C   UNL     1      11.748  -6.024   7.083  1.00  0.00     0.049 A 
ATOM     45  H   UNL     1      12.143  -7.597   5.774  1.00  0.00     0.167 HD
ATOM     46  C   UNL     1      12.885 -10.825   2.883  1.00  0.00     0.034 A 
ATOM     47  C   UNL     1      12.239  -6.372   8.289  1.00  0.00     0.034 A 
ATOM     48  C   UNL     1      13.508 -11.254   4.112  1.00  0.00     0.049 A 
ATOM     49  C   UNL     1      12.955  -7.693   8.421  1.00  0.00     0.074 A 
ATOM     50  C   UNL     1      14.225 -12.412   4.359  1.00  0.00     0.029 A 
ATOM     51  N   UNL     1      13.483 -10.545   5.308  1.00  0.00    -0.354 N 
ATOM     52  N   UNL     1      13.166  -8.615   7.509  1.00  0.00    -0.248 NA
ATOM     53  C   UNL     1      13.517  -8.008   9.739  1.00  0.00     0.031 C 
ATOM     54  C   UNL     1      14.574 -12.436   5.714  1.00  0.00     0.029 A 
ATOM     55  C   UNL     1      14.149 -11.254   6.298  1.00  0.00     0.049 A 
ATOM     56  H   UNL     1      13.056  -9.668   5.434  1.00  0.00     0.167 HD
ATOM     57  C   UNL     1      13.906  -9.610   8.143  1.00  0.00     0.074 A 
ATOM     58  C   UNL     1      14.136  -9.152   9.498  1.00  0.00     0.031 C 
ATOM     59  C   UNL     1      14.350 -10.797   7.654  1.00  0.00     0.034 A 
BRANCH  46  60
ATOM     60  C   UNL     1      12.956 -11.732   1.675  1.00  0.00     0.023 A 
ATOM     61  C   UNL     1      13.609 -11.333   0.495  1.00  0.00     0.031 A 
ATOM     62  C   UNL     1      12.360 -13.005   1.696  1.00  0.00     0.131 A 
ATOM     63  C   UNL     1      13.594 -12.167  -0.633  1.00  0.00     0.055 A 
ATOM     64  C   UNL     1      12.419 -13.864   0.596  1.00  0.00     0.041 A 
ATOM     65  F   UNL     1      11.702 -13.434   2.784  1.00  0.00    -0.206 F 
ATOM     66  C   UNL     1      13.027 -13.442  -0.582  1.00  0.00     0.022 A 
BRANCH  63  67
ATOM     67  S   UNL     1      14.210 -11.508  -2.207  1.00  0.00     0.124 S 
ATOM     68  O   UNL     1      13.330 -10.360  -2.411  1.00  0.00    -0.237 OA
ATOM     69  O   UNL     1      15.601 -11.199  -1.898  1.00  0.00    -0.237 OA
ATOM     70  O   UNL     1      14.009 -12.612  -3.143  1.00  0.00    -0.744 OA
ENDBRANCH  63  67
ENDBRANCH  46  60
BRANCH  47  71
ATOM     71  C   UNL     1      12.063  -5.475   9.468  1.00  0.00     0.023 A 
ATOM     72  C   UNL     1      13.167  -4.931  10.144  1.00  0.00     0.031 A 
ATOM     73  C   UNL     1      10.781  -5.195   9.974  1.00  0.00     0.131 A 
ATOM     74  C   UNL     1      12.973  -4.189  11.320  1.00  0.00     0.055 A 
ATOM     75  C   UNL     1      10.589  -4.402  11.106  1.00  0.00     0.041 A 
ATOM     76  F   UNL     1       9.688  -5.686   9.366  1.00  0.00    -0.206 F 
ATOM     77  C   UNL     1      11.691  -3.908  11.797  1.00  0.00     0.022 A 
BRANCH  74  78
ATOM     78  S   UNL     1      14.427  -3.689  12.283  1.00  0.00     0.124 S 
ATOM     79  O   UNL     1      15.083  -4.970  12.518  1.00  0.00    -0.237 OA
ATOM     80  O   UNL     1      15.102  -2.782  11.361  1.00  0.00    -0.237 OA
ATOM     81  O   UNL     1      13.850  -3.056  13.467  1.00  0.00    -0.744 OA
ENDBRANCH  74  78
ENDBRANCH  47  71
BRANCH  59  82
ATOM     82  C   UNL     1      15.151 -11.662   8.600  1.00  0.00     0.023 A 
ATOM     83  C   UNL     1      14.587 -12.181   9.779  1.00  0.00     0.031 A 
ATOM     84  C   UNL     1      16.509 -11.926   8.348  1.00  0.00     0.131 A 
ATOM     85  C   UNL     1      15.397 -12.855  10.704  1.00  0.00     0.055 A 
ATOM     86  C   UNL     1      17.291 -12.668   9.235  1.00  0.00     0.041 A 
ATOM     87  F   UNL     1      17.104 -11.457   7.239  1.00  0.00    -0.206 F 
ATOM     88  C   UNL     1      16.741 -13.119  10.432  1.00  0.00     0.022 A 
BRANCH  85  89
ATOM     89  S   UNL     1      14.704 -13.255  12.333  1.00  0.00     0.124 S 
ATOM     90  O   UNL     1      14.262 -11.945  12.803  1.00  0.00    -0.237 OA
ATOM     91  O   UNL     1      13.645 -14.201  11.997  1.00  0.00    -0.237 OA
ATOM     92  O   UNL     1      15.838 -13.824  13.057  1.00  0.00    -0.744 OA
ENDBRANCH  85  89
ENDBRANCH  59  82
ENDBRANCH  33  34
ENDBRANCH  25  28
ENDBRANCH  23  24
ENDBRANCH  22  23
ENDBRANCH   1  22
TORSDOF 17
