REMARK SMILES Cc1nn(C(C)C)cc1-c1cnccc1C(=O)NCCCCNC(=O)c1ccc(-c2c3nc(c(-c4cc(S(=O)(=O)[O-])ccc4F)c4ccc([nH]4)c(-c4cc(S(=O)(=O)[O-])ccc4F)c4nc(c(-c5cc(S(=O)(=O)[O-])ccc5F)c5ccc2[nH]5)C=C4)C=C3)cc1
REMARK SMILES IDX 21 1 20 2 19 3 18 4 16 5 17 6 15 8 10 9 11 10 12 11 14 12
REMARK SMILES IDX 13 13 9 14 1 15 2 16 3 17 4 18 8 19 5 20 6 21 7 22 22 23
REMARK SMILES IDX 23 24 24 25 25 27 26 28 27 29 88 30 28 31 87 32 29 33 30 34
REMARK SMILES IDX 31 35 81 36 32 37 86 38 80 39 82 40 33 41 85 42 79 43 78 44
REMARK SMILES IDX 34 46 66 47 46 48 65 49 47 50 50 51 64 52 83 53 48 54 49 55
REMARK SMILES IDX 63 57 84 58 51 59 35 60 36 61 44 62 37 63 43 64 45 65 42 66
REMARK SMILES IDX 38 67 39 68 40 69 41 70 67 71 68 72 76 73 69 74 75 75 77 76
REMARK SMILES IDX 74 77 70 78 71 79 72 80 73 81 52 82 53 83 61 84 54 85 60 86
REMARK SMILES IDX 62 87 59 88 55 89 56 90 57 91 58 92
REMARK H PARENT 18 7 23 26 82 45 50 56
REMARK Flexibility Score: inf
ROOT
ATOM      1  C   UNL     1       0.043   1.700   4.048  1.00  0.00     0.023 C 
ENDROOT
BRANCH   1   2
ATOM      2  C   UNL     1       1.280   1.296   3.227  1.00  0.00     0.023 C 
BRANCH   2   3
ATOM      3  C   UNL     1       1.608   2.141   1.999  1.00  0.00     0.116 C 
BRANCH   3   4
ATOM      4  N   UNL     1       2.580   3.191   2.149  1.00  0.00    -0.352 N 
ATOM      5  C   UNL     1       3.387   3.744   1.176  1.00  0.00     0.252 C 
ATOM      6  O   UNL     1       4.090   4.705   1.497  1.00  0.00    -0.269 OA
ATOM      7  H   UNL     1       2.682   3.559   3.057  1.00  0.00     0.163 HD
BRANCH   5   8
ATOM      8  C   UNL     1       3.579   3.162  -0.191  1.00  0.00     0.050 A 
ATOM      9  C   UNL     1       2.610   2.744  -1.117  1.00  0.00     0.016 A 
ATOM     10  C   UNL     1       3.068   2.220  -2.331  1.00  0.00     0.120 A 
ATOM     11  N   UNL     1       4.366   2.091  -2.688  1.00  0.00    -0.264 NA
ATOM     12  C   UNL     1       4.933   3.079  -0.573  1.00  0.00     0.034 A 
ATOM     13  C   UNL     1       5.270   2.546  -1.806  1.00  0.00     0.112 A 
BRANCH   9  14
ATOM     14  C   UNL     1       1.175   2.786  -0.955  1.00  0.00     0.025 A 
ATOM     15  C   UNL     1       0.478   0.257  -0.815  1.00  0.00     0.069 C 
ATOM     16  C   UNL     1       0.234   1.721  -0.863  1.00  0.00     0.067 A 
ATOM     17  N   UNL     1      -1.011   2.179  -0.712  1.00  0.00    -0.177 NA
ATOM     18  N   UNL     1      -0.887   3.519  -0.789  1.00  0.00    -0.269 N 
ATOM     19  C   UNL     1       0.414   3.931  -0.932  1.00  0.00     0.118 A 
BRANCH  18  20
ATOM     20  C   UNL     1      -2.039   4.389  -0.576  1.00  0.00     0.101 C 
ATOM     21  C   UNL     1      -3.394   3.703  -0.774  1.00  0.00     0.033 C 
ATOM     22  C   UNL     1      -1.989   4.937   0.834  1.00  0.00     0.033 C 
ENDBRANCH  18  20
ENDBRANCH   9  14
ENDBRANCH   5   8
ENDBRANCH   3   4
ENDBRANCH   2   3
ENDBRANCH   1   2
BRANCH   1  23
ATOM     23  C   UNL     1      -1.175   2.089   3.204  1.00  0.00     0.116 C 
BRANCH  23  24
ATOM     24  N   UNL     1      -2.449   1.820   3.870  1.00  0.00    -0.352 N 
ATOM     25  C   UNL     1      -3.543   2.630   4.093  1.00  0.00     0.251 C 
ATOM     26  H   UNL     1      -2.541   0.904   4.219  1.00  0.00     0.163 HD
ATOM     27  O   UNL     1      -4.626   2.113   4.372  1.00  0.00    -0.269 OA
BRANCH  25  28
ATOM     28  C   UNL     1      -3.433   4.101   3.982  1.00  0.00     0.039 A 
ATOM     29  C   UNL     1      -4.502   4.867   3.490  1.00  0.00     0.014 A 
ATOM     30  C   UNL     1      -2.239   4.723   4.334  1.00  0.00     0.014 A 
ATOM     31  C   UNL     1      -4.338   6.244   3.289  1.00  0.00     0.010 A 
ATOM     32  C   UNL     1      -2.028   6.045   3.993  1.00  0.00     0.010 A 
ATOM     33  C   UNL     1      -3.087   6.826   3.517  1.00  0.00    -0.014 A 
BRANCH  33  34
ATOM     34  C   UNL     1      -2.898   8.281   3.524  1.00  0.00     0.031 A 
ATOM     35  C   UNL     1      -3.027   8.902   4.882  1.00  0.00     0.074 A 
ATOM     36  C   UNL     1      -2.363   8.996   2.511  1.00  0.00     0.049 A 
ATOM     37  N   UNL     1      -3.821   9.853   5.256  1.00  0.00    -0.248 NA
ATOM     38  C   UNL     1      -2.243   8.330   5.994  1.00  0.00     0.031 C 
ATOM     39  C   UNL     1      -1.865   8.508   1.227  1.00  0.00     0.029 A 
ATOM     40  N   UNL     1      -2.017  10.320   2.482  1.00  0.00    -0.354 N 
ATOM     41  C   UNL     1      -3.495  10.117   6.585  1.00  0.00     0.074 A 
ATOM     42  C   UNL     1      -2.686   9.026   7.034  1.00  0.00     0.031 C 
ATOM     43  C   UNL     1      -1.085   9.448   0.652  1.00  0.00     0.029 A 
ATOM     44  C   UNL     1      -1.126  10.651   1.463  1.00  0.00     0.049 A 
ATOM     45  H   UNL     1      -2.367  10.980   3.124  1.00  0.00     0.167 HD
ATOM     46  C   UNL     1      -3.700  11.329   7.163  1.00  0.00     0.034 A 
ATOM     47  C   UNL     1      -0.422  11.803   1.312  1.00  0.00     0.034 A 
ATOM     48  C   UNL     1      -4.690  12.094   6.449  1.00  0.00     0.049 A 
ATOM     49  C   UNL     1      -1.104  12.847   2.109  1.00  0.00     0.074 A 
ATOM     50  C   UNL     1      -5.992  11.847   6.055  1.00  0.00     0.029 A 
ATOM     51  N   UNL     1      -4.283  13.174   5.701  1.00  0.00    -0.354 N 
ATOM     52  N   UNL     1      -2.292  13.306   1.833  1.00  0.00    -0.248 NA
ATOM     53  C   UNL     1      -0.647  13.090   3.469  1.00  0.00     0.031 C 
ATOM     54  C   UNL     1      -6.100  12.432   4.760  1.00  0.00     0.029 A 
ATOM     55  C   UNL     1      -4.881  13.048   4.472  1.00  0.00     0.049 A 
ATOM     56  H   UNL     1      -3.680  13.896   5.991  1.00  0.00     0.167 HD
ATOM     57  C   UNL     1      -2.894  13.503   3.064  1.00  0.00     0.074 A 
ATOM     58  C   UNL     1      -1.799  13.469   4.029  1.00  0.00     0.031 C 
ATOM     59  C   UNL     1      -4.247  13.394   3.216  1.00  0.00     0.034 A 
BRANCH  46  60
ATOM     60  C   UNL     1      -2.767  11.935   8.190  1.00  0.00     0.023 A 
ATOM     61  C   UNL     1      -3.143  13.164   8.758  1.00  0.00     0.031 A 
ATOM     62  C   UNL     1      -1.433  11.528   8.442  1.00  0.00     0.131 A 
ATOM     63  C   UNL     1      -2.211  13.955   9.451  1.00  0.00     0.055 A 
ATOM     64  C   UNL     1      -0.536  12.277   9.208  1.00  0.00     0.041 A 
ATOM     65  F   UNL     1      -0.885  10.441   7.885  1.00  0.00    -0.206 F 
ATOM     66  C   UNL     1      -0.912  13.515   9.692  1.00  0.00     0.022 A 
BRANCH  63  67
ATOM     67  S   UNL     1      -2.669  15.660   9.850  1.00  0.00     0.124 S 
ATOM     68  O   UNL     1      -3.176  16.136   8.567  1.00  0.00    -0.237 OA
ATOM     69  O   UNL     1      -3.659  15.463  10.903  1.00  0.00    -0.237 OA
ATOM     70  O   UNL     1      -1.407  16.256  10.280  1.00  0.00    -0.744 OA
ENDBRANCH  63  67
ENDBRANCH  46  60
BRANCH  47  71
ATOM     71  C   UNL     1       0.939  11.971   0.735  1.00  0.00     0.023 A 
ATOM     72  C   UNL     1       1.417  13.211   0.265  1.00  0.00     0.031 A 
ATOM     73  C   UNL     1       1.887  10.930   0.856  1.00  0.00     0.131 A 
ATOM     74  C   UNL     1       2.784  13.369  -0.064  1.00  0.00     0.055 A 
ATOM     75  C   UNL     1       3.233  11.087   0.518  1.00  0.00     0.041 A 
ATOM     76  F   UNL     1       1.553   9.745   1.390  1.00  0.00    -0.206 F 
ATOM     77  C   UNL     1       3.690  12.313   0.064  1.00  0.00     0.022 A 
BRANCH  74  78
ATOM     78  S   UNL     1       3.427  14.998  -0.564  1.00  0.00     0.124 S 
ATOM     79  O   UNL     1       2.847  15.167  -1.891  1.00  0.00    -0.237 OA
ATOM     80  O   UNL     1       2.914  15.873   0.485  1.00  0.00    -0.237 OA
ATOM     81  O   UNL     1       4.879  14.812  -0.547  1.00  0.00    -0.744 OA
ENDBRANCH  74  78
ENDBRANCH  47  71
BRANCH  59  82
ATOM     82  C   UNL     1      -5.120  13.369   1.977  1.00  0.00     0.023 A 
ATOM     83  C   UNL     1      -4.986  12.440   0.921  1.00  0.00     0.031 A 
ATOM     84  C   UNL     1      -6.218  14.247   1.936  1.00  0.00     0.131 A 
ATOM     85  C   UNL     1      -5.923  12.425  -0.130  1.00  0.00     0.055 A 
ATOM     86  C   UNL     1      -7.156  14.216   0.905  1.00  0.00     0.041 A 
ATOM     87  F   UNL     1      -6.420  15.132   2.927  1.00  0.00    -0.206 F 
ATOM     88  C   UNL     1      -7.008  13.308  -0.137  1.00  0.00     0.022 A 
BRANCH  85  89
ATOM     89  S   UNL     1      -5.741  11.253  -1.513  1.00  0.00     0.124 S 
ATOM     90  O   UNL     1      -4.352  11.421  -1.924  1.00  0.00    -0.237 OA
ATOM     91  O   UNL     1      -6.071   9.973  -0.891  1.00  0.00    -0.237 OA
ATOM     92  O   UNL     1      -6.725  11.723  -2.490  1.00  0.00    -0.744 OA
ENDBRANCH  85  89
ENDBRANCH  59  82
ENDBRANCH  33  34
ENDBRANCH  25  28
ENDBRANCH  23  24
ENDBRANCH   1  23
TORSDOF 16
