REMARK SMILES O=C(NCCCCNC(=O)c1cn(C2CN(C(=O)c3c[nH]nn3)C2)nn1)c1ccc(-c2c3nc(c(-c4cc(S(=O)(=O)[O-])ccc4F)c4ccc([nH]4)c(-c4cc(S(=O)(=O)[O-])ccc4F)c4nc(c(-c5cc(S(=O)(=O)[O-])ccc5F)c5ccc2[nH]5)C=C4)C=C3)cc1
REMARK SMILES IDX 5 1 4 2 3 3 1 4 2 5 27 7 28 8 89 9 29 10 88 11 30 12 31 13
REMARK SMILES IDX 32 14 82 15 33 16 87 17 81 18 83 19 34 20 86 21 80 22 79 23
REMARK SMILES IDX 35 25 67 26 47 27 66 28 48 29 51 30 65 31 84 32 49 33 50 34
REMARK SMILES IDX 64 36 85 37 52 38 36 39 37 40 45 41 38 42 44 43 46 44 43 45
REMARK SMILES IDX 39 46 40 47 41 48 42 49 68 50 69 51 77 52 70 53 76 54 78 55
REMARK SMILES IDX 75 56 71 57 72 58 73 59 74 60 53 61 54 62 62 63 55 64 61 65
REMARK SMILES IDX 63 66 60 67 56 68 57 69 58 70 59 71 6 72 7 73 8 74 9 75
REMARK SMILES IDX 10 77 11 78 12 79 26 80 13 81 25 82 14 83 15 84 24 85 16 86
REMARK SMILES IDX 17 87 18 88 19 89 20 90 23 91 21 92 22 93
REMARK H PARENT 3 6 83 24 51 35 8 76 21 94
REMARK Flexibility Score: inf
ROOT
ATOM      1  C   UNL     1       4.924  -0.269  -2.703  1.00  0.00     0.023 C 
ENDROOT
BRANCH   1   2
ATOM      2  C   UNL     1       4.601   0.250  -1.308  1.00  0.00     0.116 C 
BRANCH   2   3
ATOM      3  N   UNL     1       3.174   0.393  -1.054  1.00  0.00    -0.352 N 
ATOM      4  O   UNL     1       1.233   0.106   0.063  1.00  0.00    -0.269 OA
ATOM      5  C   UNL     1       2.456   0.002   0.055  1.00  0.00     0.251 C 
ATOM      6  H   UNL     1       2.655   0.826  -1.769  1.00  0.00     0.163 HD
BRANCH   5   7
ATOM      7  C   UNL     1       3.167  -0.573   1.218  1.00  0.00     0.039 A 
ATOM      8  C   UNL     1       4.330   0.028   1.701  1.00  0.00     0.014 A 
ATOM      9  C   UNL     1       2.687  -1.747   1.807  1.00  0.00     0.014 A 
ATOM     10  C   UNL     1       5.100  -0.631   2.651  1.00  0.00     0.010 A 
ATOM     11  C   UNL     1       3.416  -2.359   2.833  1.00  0.00     0.010 A 
ATOM     12  C   UNL     1       4.650  -1.827   3.237  1.00  0.00    -0.014 A 
BRANCH  12  13
ATOM     13  C   UNL     1       5.481  -2.457   4.297  1.00  0.00     0.031 A 
ATOM     14  C   UNL     1       6.114  -3.808   4.099  1.00  0.00     0.074 A 
ATOM     15  C   UNL     1       5.720  -1.754   5.423  1.00  0.00     0.049 A 
ATOM     16  N   UNL     1       6.923  -4.462   4.895  1.00  0.00    -0.248 NA
ATOM     17  C   UNL     1       5.794  -4.521   2.854  1.00  0.00     0.031 C 
ATOM     18  C   UNL     1       5.144  -0.441   5.728  1.00  0.00     0.029 A 
ATOM     19  N   UNL     1       6.527  -2.018   6.498  1.00  0.00    -0.354 N 
ATOM     20  C   UNL     1       7.204  -5.665   4.254  1.00  0.00     0.074 A 
ATOM     21  C   UNL     1       6.446  -5.664   3.020  1.00  0.00     0.031 C 
ATOM     22  C   UNL     1       5.662   0.011   6.878  1.00  0.00     0.029 A 
ATOM     23  C   UNL     1       6.553  -1.004   7.428  1.00  0.00     0.049 A 
ATOM     24  H   UNL     1       7.040  -2.853   6.596  1.00  0.00     0.167 HD
ATOM     25  C   UNL     1       8.027  -6.668   4.654  1.00  0.00     0.034 A 
ATOM     26  C   UNL     1       7.207  -0.904   8.600  1.00  0.00     0.034 A 
ATOM     27  C   UNL     1       8.773  -6.654   5.892  1.00  0.00     0.049 A 
ATOM     28  C   UNL     1       8.106  -2.033   9.021  1.00  0.00     0.074 A 
ATOM     29  C   UNL     1       9.631  -7.617   6.396  1.00  0.00     0.029 A 
ATOM     30  N   UNL     1       8.752  -5.622   6.823  1.00  0.00    -0.354 N 
ATOM     31  N   UNL     1       8.359  -3.162   8.399  1.00  0.00    -0.248 NA
ATOM     32  C   UNL     1       8.812  -1.873  10.297  1.00  0.00     0.031 C 
ATOM     33  C   UNL     1      10.083  -7.194   7.652  1.00  0.00     0.029 A 
ATOM     34  C   UNL     1       9.564  -5.935   7.904  1.00  0.00     0.049 A 
ATOM     35  H   UNL     1       8.235  -4.790   6.730  1.00  0.00     0.167 HD
ATOM     36  C   UNL     1       9.260  -3.844   9.209  1.00  0.00     0.074 A 
ATOM     37  C   UNL     1       9.534  -2.982  10.341  1.00  0.00     0.031 C 
ATOM     38  C   UNL     1       9.805  -5.076   9.039  1.00  0.00     0.034 A 
BRANCH  25  39
ATOM     39  C   UNL     1       8.133  -7.880   3.759  1.00  0.00     0.023 A 
ATOM     40  C   UNL     1       8.697  -7.803   2.473  1.00  0.00     0.031 A 
ATOM     41  C   UNL     1       7.657  -9.131   4.193  1.00  0.00     0.131 A 
ATOM     42  C   UNL     1       8.718  -8.937   1.646  1.00  0.00     0.055 A 
ATOM     43  C   UNL     1       7.745 -10.272   3.392  1.00  0.00     0.041 A 
ATOM     44  F   UNL     1       7.090  -9.264   5.402  1.00  0.00    -0.206 F 
ATOM     45  C   UNL     1       8.268 -10.177   2.106  1.00  0.00     0.022 A 
BRANCH  42  46
ATOM     46  S   UNL     1       9.233  -8.743  -0.082  1.00  0.00     0.124 S 
ATOM     47  O   UNL     1       8.254  -7.776  -0.575  1.00  0.00    -0.237 OA
ATOM     48  O   UNL     1      10.601  -8.257   0.048  1.00  0.00    -0.237 OA
ATOM     49  O   UNL     1       9.099 -10.090  -0.634  1.00  0.00    -0.744 OA
ENDBRANCH  42  46
ENDBRANCH  25  39
BRANCH  26  50
ATOM     50  C   UNL     1       7.009   0.291   9.468  1.00  0.00     0.023 A 
ATOM     51  C   UNL     1       8.067   1.162   9.766  1.00  0.00     0.031 A 
ATOM     52  C   UNL     1       5.750   0.561  10.037  1.00  0.00     0.131 A 
ATOM     53  C   UNL     1       7.858   2.239  10.642  1.00  0.00     0.055 A 
ATOM     54  C   UNL     1       5.534   1.665  10.861  1.00  0.00     0.041 A 
ATOM     55  F   UNL     1       4.703  -0.239   9.779  1.00  0.00    -0.206 F 
ATOM     56  C   UNL     1       6.596   2.504  11.179  1.00  0.00     0.022 A 
BRANCH  53  57
ATOM     57  S   UNL     1       9.284   3.241  11.141  1.00  0.00     0.124 S 
ATOM     58  O   UNL     1      10.193   2.228  11.666  1.00  0.00    -0.237 OA
ATOM     59  O   UNL     1       9.674   3.860   9.879  1.00  0.00    -0.237 OA
ATOM     60  O   UNL     1       8.726   4.155  12.135  1.00  0.00    -0.744 OA
ENDBRANCH  53  57
ENDBRANCH  26  50
BRANCH  38  61
ATOM     61  C   UNL     1      10.763  -5.538  10.108  1.00  0.00     0.023 A 
ATOM     62  C   UNL     1      10.326  -5.800  11.419  1.00  0.00     0.031 A 
ATOM     63  C   UNL     1      12.133  -5.667   9.827  1.00  0.00     0.131 A 
ATOM     64  C   UNL     1      11.261  -6.108  12.418  1.00  0.00     0.055 A 
ATOM     65  C   UNL     1      13.052  -6.034  10.812  1.00  0.00     0.041 A 
ATOM     66  F   UNL     1      12.604  -5.427   8.593  1.00  0.00    -0.206 F 
ATOM     67  C   UNL     1      12.620  -6.240  12.120  1.00  0.00     0.022 A 
BRANCH  64  68
ATOM     68  S   UNL     1      10.692  -6.223  14.136  1.00  0.00     0.124 S 
ATOM     69  O   UNL     1      10.084  -4.913  14.343  1.00  0.00    -0.237 OA
ATOM     70  O   UNL     1       9.769  -7.353  14.083  1.00  0.00    -0.237 OA
ATOM     71  O   UNL     1      11.921  -6.463  14.890  1.00  0.00    -0.744 OA
ENDBRANCH  64  68
ENDBRANCH  38  61
ENDBRANCH  12  13
ENDBRANCH   5   7
ENDBRANCH   2   3
ENDBRANCH   1   2
BRANCH   1  72
ATOM     72  C   UNL     1       4.441   0.606  -3.857  1.00  0.00     0.023 C 
BRANCH  72  73
ATOM     73  C   UNL     1       4.865   2.070  -3.782  1.00  0.00     0.116 C 
BRANCH  73  74
ATOM     74  N   UNL     1       6.307   2.243  -3.858  1.00  0.00    -0.351 N 
ATOM     75  C   UNL     1       7.070   2.775  -4.873  1.00  0.00     0.273 C 
ATOM     76  H   UNL     1       6.810   1.935  -3.069  1.00  0.00     0.163 HD
ATOM     77  O   UNL     1       8.295   2.695  -4.811  1.00  0.00    -0.267 OA
BRANCH  75  78
ATOM     78  C   UNL     1       6.389   3.417  -5.983  1.00  0.00     0.170 A 
ATOM     79  C   UNL     1       5.429   4.410  -5.933  1.00  0.00     0.145 A 
ATOM     80  N   UNL     1       6.618   3.091  -7.296  1.00  0.00    -0.125 NA
ATOM     81  N   UNL     1       5.002   4.513  -7.223  1.00  0.00    -0.245 N 
ATOM     82  N   UNL     1       5.754   3.765  -8.046  1.00  0.00    -0.066 NA
BRANCH  81  83
ATOM     83  C   UNL     1       3.854   5.213  -7.711  1.00  0.00     0.148 C 
ATOM     84  C   UNL     1       2.607   5.101  -6.803  1.00  0.00     0.149 C 
ATOM     85  C   UNL     1       3.853   6.717  -7.360  1.00  0.00     0.149 C 
ATOM     86  N   UNL     1       2.459   6.527  -7.021  1.00  0.00    -0.333 N 
ATOM     87  C   UNL     1       1.407   7.348  -6.704  1.00  0.00     0.276 C 
ATOM     88  O   UNL     1       0.404   6.910  -6.146  1.00  0.00    -0.267 OA
BRANCH  87  89
ATOM     89  C   UNL     1       1.536   8.748  -7.084  1.00  0.00     0.170 A 
ATOM     90  C   UNL     1       2.060   9.284  -8.245  1.00  0.00     0.141 A 
ATOM     91  N   UNL     1       1.045   9.778  -6.316  1.00  0.00    -0.125 NA
ATOM     92  N   UNL     1       1.879  10.626  -8.106  1.00  0.00    -0.265 N 
ATOM     93  N   UNL     1       1.285  10.922  -6.944  1.00  0.00    -0.069 NA
ATOM     94  H   UNL     1       2.152  11.294  -8.775  1.00  0.00     0.191 HD
ENDBRANCH  87  89
ENDBRANCH  81  83
ENDBRANCH  75  78
ENDBRANCH  73  74
ENDBRANCH  72  73
ENDBRANCH   1  72
TORSDOF 16
