REMARK SMILES COc1ccc([C@@H]2CC(c3ccc(Cl)cc3)=NN2C2=[NH+]C(=O)[C@@H](CC(=O)NCCCCNC(=O)c3ccc(-c4c5nc(c(-c6cc(S(=O)(=O)[O-])ccc6F)c6ccc([nH]6)c(-c6cc(S(=O)(=O)[O-])ccc6F)c6nc(c(-c7cc(S(=O)(=O)[O-])ccc7F)c7ccc4[nH]7)C=C6)C=C5)cc3)S2)cc1OC
REMARK SMILES IDX 29 1 28 2 27 3 25 4 26 5 24 7 23 8 19 9 20 10 98 11 21 12
REMARK SMILES IDX 22 14 18 15 7 16 8 17 9 18 17 19 6 20 3 21 4 22 100 23 5 24
REMARK SMILES IDX 99 25 2 26 1 27 101 28 102 29 10 30 11 31 16 32 12 33 15 34
REMARK SMILES IDX 13 35 14 36 30 37 31 38 32 39 33 40 34 42 35 43 36 44 97 45
REMARK SMILES IDX 37 46 96 47 38 48 39 49 40 50 90 51 41 52 95 53 89 54 91 55
REMARK SMILES IDX 42 56 94 57 88 58 87 59 43 61 75 62 55 63 74 64 56 65 59 66
REMARK SMILES IDX 73 67 92 68 57 69 58 70 72 72 93 73 60 74 44 75 45 76 53 77
REMARK SMILES IDX 46 78 52 79 54 80 51 81 47 82 48 83 49 84 50 85 76 86 77 87
REMARK SMILES IDX 85 88 78 89 84 90 86 91 83 92 79 93 80 94 81 95 82 96 61 97
REMARK SMILES IDX 62 98 70 99 63 100 69 101 71 102 68 103 64 104 65 105 66 106
REMARK SMILES IDX 67 107
REMARK H PARENT 27 6 20 13 32 41 91 60 59 71
REMARK Flexibility Score: inf
ROOT
ATOM      1  C   UNL     1      -0.735   8.717  -2.733  1.00  0.00     0.023 C 
ENDROOT
BRANCH   1   2
ATOM      2  C   UNL     1      -0.150   7.454  -3.375  1.00  0.00     0.116 C 
BRANCH   2   3
ATOM      3  N   UNL     1       0.445   7.774  -4.669  1.00  0.00    -0.356 N 
ATOM      4  C   UNL     1       1.748   7.765  -5.073  1.00  0.00     0.221 C 
ATOM      5  O   UNL     1       2.046   8.350  -6.117  1.00  0.00    -0.275 OA
ATOM      6  H   UNL     1      -0.200   8.040  -5.364  1.00  0.00     0.163 HD
BRANCH   4   7
ATOM      7  C   UNL     1       2.798   6.988  -4.309  1.00  0.00     0.127 C 
BRANCH   7   8
ATOM      8  C   UNL     1       3.798   7.857  -3.552  1.00  0.00     0.183 C 
ATOM      9  C   UNL     1       4.134   7.373  -1.074  1.00  0.00     0.340 C 
ATOM     10  N   UNL     1       4.964   6.665  -1.761  1.00  0.00    -0.202 N 
ATOM     11  S   UNL     1       3.158   8.518  -1.984  1.00  0.00    -0.020 SA
ATOM     12  C   UNL     1       4.961   6.973  -3.107  1.00  0.00     0.322 C 
ATOM     13  H   UNL     1       5.543   5.973  -1.366  1.00  0.00     0.316 HD
ATOM     14  O   UNL     1       5.772   6.520  -3.893  1.00  0.00    -0.246 OA
BRANCH   9  15
ATOM     15  N   UNL     1       3.921   7.269   0.280  1.00  0.00    -0.120 N 
ATOM     16  C   UNL     1       2.920   6.378   0.844  1.00  0.00     0.243 C 
ATOM     17  C   UNL     1       3.351   6.160   2.278  1.00  0.00     0.118 C 
ATOM     18  C   UNL     1       4.329   7.287   2.379  1.00  0.00     0.096 C 
ATOM     19  N   UNL     1       4.678   7.856   1.263  1.00  0.00    -0.086 NA
BRANCH  16  20
ATOM     20  C   UNL     1       1.573   7.038   0.848  1.00  0.00     0.003 A 
ATOM     21  C   UNL     1      -0.913   8.245   0.696  1.00  0.00     0.160 A 
ATOM     22  C   UNL     1       0.134   8.953   1.256  1.00  0.00     0.051 A 
ATOM     23  C   UNL     1      -0.708   6.902   0.231  1.00  0.00     0.161 A 
ATOM     24  C   UNL     1       1.380   8.362   1.298  1.00  0.00     0.012 A 
ATOM     25  C   UNL     1       0.515   6.294   0.359  1.00  0.00     0.058 A 
BRANCH  21  26
ATOM     26  O   UNL     1      -2.134   8.840   0.602  1.00  0.00    -0.493 OA
ATOM     27  C   UNL     1      -2.260  10.228   0.284  1.00  0.00     0.278 C 
ENDBRANCH  21  26
BRANCH  23  28
ATOM     28  O   UNL     1      -1.480   6.342  -0.762  1.00  0.00    -0.493 OA
ATOM     29  C   UNL     1      -2.022   5.027  -0.603  1.00  0.00     0.278 C 
ENDBRANCH  23  28
ENDBRANCH  16  20
BRANCH  18  30
ATOM     30  C   UNL     1       4.833   7.694   3.687  1.00  0.00     0.000 A 
ATOM     31  C   UNL     1       4.916   9.054   3.988  1.00  0.00     0.011 A 
ATOM     32  C   UNL     1       5.238   6.721   4.602  1.00  0.00     0.011 A 
ATOM     33  C   UNL     1       5.454   9.447   5.211  1.00  0.00     0.021 A 
ATOM     34  C   UNL     1       5.793   7.120   5.814  1.00  0.00     0.021 A 
ATOM     35  C   UNL     1       5.910   8.480   6.109  1.00  0.00     0.041 A 
ATOM     36  Cl  UNL     1       6.648   8.965   7.584  1.00  0.00    -0.084 Cl
ENDBRANCH  18  30
ENDBRANCH   9  15
ENDBRANCH   7   8
ENDBRANCH   4   7
ENDBRANCH   2   3
ENDBRANCH   1   2
BRANCH   1  37
ATOM     37  C   UNL     1      -2.225   9.065  -2.964  1.00  0.00     0.023 C 
BRANCH  37  38
ATOM     38  C   UNL     1      -3.427   8.158  -2.567  1.00  0.00     0.116 C 
BRANCH  38  39
ATOM     39  N   UNL     1      -3.479   7.619  -1.215  1.00  0.00    -0.352 N 
ATOM     40  C   UNL     1      -4.278   7.534  -0.102  1.00  0.00     0.251 C 
ATOM     41  H   UNL     1      -2.636   7.144  -1.034  1.00  0.00     0.163 HD
ATOM     42  O   UNL     1      -4.010   6.838   0.875  1.00  0.00    -0.269 OA
BRANCH  40  43
ATOM     43  C   UNL     1      -5.433   8.379  -0.035  1.00  0.00     0.039 A 
ATOM     44  C   UNL     1      -5.601   9.293   1.019  1.00  0.00     0.014 A 
ATOM     45  C   UNL     1      -6.264   8.286  -1.129  1.00  0.00     0.014 A 
ATOM     46  C   UNL     1      -6.633  10.204   0.925  1.00  0.00     0.010 A 
ATOM     47  C   UNL     1      -7.191   9.265  -1.282  1.00  0.00     0.010 A 
ATOM     48  C   UNL     1      -7.404  10.188  -0.240  1.00  0.00    -0.014 A 
BRANCH  48  49
ATOM     49  C   UNL     1      -8.590  11.014  -0.430  1.00  0.00     0.031 A 
ATOM     50  C   UNL     1      -9.872  10.263  -0.604  1.00  0.00     0.074 A 
ATOM     51  C   UNL     1      -8.418  12.309  -0.720  1.00  0.00     0.049 A 
ATOM     52  N   UNL     1     -10.952  10.624  -1.229  1.00  0.00    -0.248 NA
ATOM     53  C   UNL     1      -9.865   8.856  -0.151  1.00  0.00     0.031 C 
ATOM     54  C   UNL     1      -7.155  13.048  -0.637  1.00  0.00     0.029 A 
ATOM     55  N   UNL     1      -9.312  13.217  -1.197  1.00  0.00    -0.354 N 
ATOM     56  C   UNL     1     -11.725   9.472  -1.296  1.00  0.00     0.074 A 
ATOM     57  C   UNL     1     -10.934   8.386  -0.769  1.00  0.00     0.031 C 
ATOM     58  C   UNL     1      -7.368  14.315  -1.030  1.00  0.00     0.029 A 
ATOM     59  C   UNL     1      -8.759  14.447  -1.442  1.00  0.00     0.049 A 
ATOM     60  H   UNL     1     -10.263  13.010  -1.351  1.00  0.00     0.167 HD
ATOM     61  C   UNL     1     -13.002   9.363  -1.724  1.00  0.00     0.034 A 
ATOM     62  C   UNL     1      -9.344  15.541  -1.956  1.00  0.00     0.034 A 
ATOM     63  C   UNL     1     -13.742  10.512  -2.170  1.00  0.00     0.049 A 
ATOM     64  C   UNL     1     -10.797  15.422  -2.343  1.00  0.00     0.074 A 
ATOM     65  C   UNL     1     -15.071  10.604  -2.528  1.00  0.00     0.029 A 
ATOM     66  N   UNL     1     -13.200  11.790  -2.293  1.00  0.00    -0.354 N 
ATOM     67  N   UNL     1     -11.569  14.356  -2.342  1.00  0.00    -0.248 NA
ATOM     68  C   UNL     1     -11.461  16.650  -2.781  1.00  0.00     0.031 C 
ATOM     69  C   UNL     1     -15.318  11.925  -2.915  1.00  0.00     0.029 A 
ATOM     70  C   UNL     1     -14.164  12.676  -2.729  1.00  0.00     0.049 A 
ATOM     71  H   UNL     1     -12.264  12.026  -2.097  1.00  0.00     0.167 HD
ATOM     72  C   UNL     1     -12.825  14.794  -2.743  1.00  0.00     0.074 A 
ATOM     73  C   UNL     1     -12.703  16.225  -2.959  1.00  0.00     0.031 C 
ATOM     74  C   UNL     1     -13.977  14.096  -2.923  1.00  0.00     0.034 A 
BRANCH  61  75
ATOM     75  C   UNL     1     -13.633   7.994  -1.697  1.00  0.00     0.023 A 
ATOM     76  C   UNL     1     -13.702   7.239  -0.510  1.00  0.00     0.031 A 
ATOM     77  C   UNL     1     -14.110   7.399  -2.876  1.00  0.00     0.131 A 
ATOM     78  C   UNL     1     -14.129   5.904  -0.547  1.00  0.00     0.055 A 
ATOM     79  C   UNL     1     -14.633   6.103  -2.886  1.00  0.00     0.041 A 
ATOM     80  F   UNL     1     -14.047   8.051  -4.047  1.00  0.00    -0.206 F 
ATOM     81  C   UNL     1     -14.626   5.340  -1.721  1.00  0.00     0.022 A 
BRANCH  78  82
ATOM     82  S   UNL     1     -13.858   4.873   0.921  1.00  0.00     0.124 S 
ATOM     83  O   UNL     1     -12.403   4.912   1.043  1.00  0.00    -0.237 OA
ATOM     84  O   UNL     1     -14.603   5.588   1.952  1.00  0.00    -0.237 OA
ATOM     85  O   UNL     1     -14.411   3.577   0.536  1.00  0.00    -0.744 OA
ENDBRANCH  78  82
ENDBRANCH  61  75
BRANCH  62  86
ATOM     86  C   UNL     1      -8.595  16.819  -2.064  1.00  0.00     0.023 A 
ATOM     87  C   UNL     1      -8.977  17.922  -1.286  1.00  0.00     0.031 A 
ATOM     88  C   UNL     1      -7.501  16.971  -2.931  1.00  0.00     0.131 A 
ATOM     89  C   UNL     1      -8.315  19.148  -1.434  1.00  0.00     0.055 A 
ATOM     90  C   UNL     1      -6.807  18.179  -3.035  1.00  0.00     0.041 A 
ATOM     91  F   UNL     1      -7.076  15.939  -3.678  1.00  0.00    -0.206 F 
ATOM     92  C   UNL     1      -7.225  19.282  -2.295  1.00  0.00     0.022 A 
BRANCH  89  93
ATOM     93  S   UNL     1      -8.969  20.589  -0.551  1.00  0.00     0.124 S 
ATOM     94  O   UNL     1     -10.350  20.622  -1.019  1.00  0.00    -0.237 OA
ATOM     95  O   UNL     1      -8.772  20.204   0.843  1.00  0.00    -0.237 OA
ATOM     96  O   UNL     1      -8.124  21.685  -1.019  1.00  0.00    -0.744 OA
ENDBRANCH  89  93
ENDBRANCH  62  86
BRANCH  74  97
ATOM     97  C   UNL     1     -15.187  14.892  -3.327  1.00  0.00     0.023 A 
ATOM     98  C   UNL     1     -15.264  15.517  -4.582  1.00  0.00     0.031 A 
ATOM     99  C   UNL     1     -16.277  15.015  -2.449  1.00  0.00     0.131 A 
ATOM    100  C   UNL     1     -16.386  16.291  -4.900  1.00  0.00     0.055 A 
ATOM    101  C   UNL     1     -17.423  15.724  -2.802  1.00  0.00     0.041 A 
ATOM    102  F   UNL     1     -16.249  14.434  -1.238  1.00  0.00    -0.206 F 
ATOM    103  C   UNL     1     -17.476  16.380  -4.029  1.00  0.00     0.022 A 
BRANCH 100 104
ATOM    104  S   UNL     1     -16.353  17.265  -6.427  1.00  0.00     0.124 S 
ATOM    105  O   UNL     1     -15.175  18.103  -6.224  1.00  0.00    -0.237 OA
ATOM    106  O   UNL     1     -16.232  16.234  -7.452  1.00  0.00    -0.237 OA
ATOM    107  O   UNL     1     -17.631  17.974  -6.407  1.00  0.00    -0.744 OA
ENDBRANCH 100 104
ENDBRANCH  74  97
ENDBRANCH  48  49
ENDBRANCH  40  43
ENDBRANCH  38  39
ENDBRANCH  37  38
ENDBRANCH   1  37
TORSDOF 20
