REMARK SMILES O=C(NCCCCNC(=O)c1ccc(-c2c3nc(c(-c4cc(S(=O)(=O)[O-])ccc4F)c4ccc([nH]4)c(-c4cc(S(=O)(=O)[O-])ccc4F)c4nc(c(-c5cc(S(=O)(=O)[O-])ccc5F)c5ccc2[nH]5)C=C4)C=C3)cc1)C1=C([O-])N(c2ccc3c(c2)OCCO3)CC1
REMARK SMILES IDX 6 1 5 2 4 3 3 4 1 5 2 6 74 8 75 9 89 10 76 11 77 12 88 13
REMARK SMILES IDX 78 14 79 15 83 16 80 17 82 18 81 19 84 20 87 21 85 22 86 23
REMARK SMILES IDX 7 24 8 25 9 26 10 28 11 29 12 30 73 31 13 32 72 33 14 34
REMARK SMILES IDX 15 35 16 36 66 37 17 38 71 39 65 40 67 41 18 42 70 43 64 44
REMARK SMILES IDX 63 45 19 47 51 48 31 49 50 50 32 51 35 52 49 53 68 54 33 55
REMARK SMILES IDX 34 56 48 58 69 59 36 60 20 61 21 62 29 63 22 64 28 65 30 66
REMARK SMILES IDX 27 67 23 68 24 69 25 70 26 71 52 72 53 73 61 74 54 75 60 76
REMARK SMILES IDX 62 77 59 78 55 79 56 80 57 81 58 82 37 83 38 84 46 85 39 86
REMARK SMILES IDX 45 87 47 88 44 89 40 90 41 91 42 92 43 93
REMARK H PARENT 3 7 8 27 67 46 35 57
REMARK Flexibility Score: inf
ROOT
ATOM      1  C   UNL     1       4.331   3.609  -1.177  1.00  0.00     0.023 C 
ENDROOT
BRANCH   1   2
ATOM      2  C   UNL     1       4.785   2.164  -1.360  1.00  0.00     0.023 C 
BRANCH   2   3
ATOM      3  C   UNL     1       4.474   1.224  -0.203  1.00  0.00     0.116 C 
BRANCH   3   4
ATOM      4  N   UNL     1       3.058   1.133   0.116  1.00  0.00    -0.352 N 
ATOM      5  O   UNL     1       1.081   0.129   0.542  1.00  0.00    -0.270 OA
ATOM      6  C   UNL     1       2.261   0.028   0.205  1.00  0.00     0.248 C 
ATOM      7  H   UNL     1       2.610   1.991   0.294  1.00  0.00     0.163 HD
BRANCH   6   8
ATOM      8  C   UNL     1       2.875  -1.267  -0.065  1.00  0.00     0.027 C 
ATOM      9  C   UNL     1       2.571  -2.104  -1.067  1.00  0.00    -0.028 C 
ATOM     10  C   UNL     1       3.965  -1.855   0.779  1.00  0.00     0.064 C 
ATOM     11  O   UNL     1       1.603  -1.941  -1.999  1.00  0.00    -0.860 OA
ATOM     12  N   UNL     1       3.468  -3.149  -1.147  1.00  0.00    -0.354 N 
ATOM     13  C   UNL     1       4.560  -2.908  -0.171  1.00  0.00     0.126 C 
BRANCH  12  14
ATOM     14  C   UNL     1       3.155  -4.518  -1.269  1.00  0.00     0.044 A 
ATOM     15  C   UNL     1       3.660  -5.234  -2.364  1.00  0.00     0.030 A 
ATOM     16  C   UNL     1       2.640  -5.212  -0.166  1.00  0.00     0.076 A 
ATOM     17  C   UNL     1       3.791  -6.620  -2.296  1.00  0.00     0.052 A 
ATOM     18  C   UNL     1       2.870  -6.576  -0.052  1.00  0.00     0.163 A 
ATOM     19  C   UNL     1       3.480  -7.266  -1.103  1.00  0.00     0.161 A 
ATOM     20  O   UNL     1       2.616  -7.128   1.175  1.00  0.00    -0.486 OA
ATOM     21  O   UNL     1       3.917  -8.560  -0.956  1.00  0.00    -0.486 OA
ATOM     22  C   UNL     1       3.161  -8.443   1.335  1.00  0.00     0.271 C 
ATOM     23  C   UNL     1       4.335  -8.718   0.407  1.00  0.00     0.271 C 
ENDBRANCH  12  14
ENDBRANCH   6   8
ENDBRANCH   3   4
ENDBRANCH   2   3
ENDBRANCH   1   2
BRANCH   1  24
ATOM     24  C   UNL     1       4.734   4.271   0.136  1.00  0.00     0.116 C 
BRANCH  24  25
ATOM     25  N   UNL     1       6.173   4.314   0.345  1.00  0.00    -0.352 N 
ATOM     26  C   UNL     1       6.979   5.383   0.660  1.00  0.00     0.251 C 
ATOM     27  H   UNL     1       6.637   3.451   0.246  1.00  0.00     0.163 HD
ATOM     28  O   UNL     1       8.198   5.232   0.690  1.00  0.00    -0.269 OA
BRANCH  26  29
ATOM     29  C   UNL     1       6.385   6.714   0.917  1.00  0.00     0.039 A 
ATOM     30  C   UNL     1       6.947   7.833   0.297  1.00  0.00     0.014 A 
ATOM     31  C   UNL     1       5.265   6.860   1.740  1.00  0.00     0.014 A 
ATOM     32  C   UNL     1       6.336   9.083   0.433  1.00  0.00     0.010 A 
ATOM     33  C   UNL     1       4.616   8.091   1.814  1.00  0.00     0.010 A 
ATOM     34  C   UNL     1       5.139   9.214   1.154  1.00  0.00    -0.014 A 
BRANCH  34  35
ATOM     35  C   UNL     1       4.412  10.510   1.221  1.00  0.00     0.031 A 
ATOM     36  C   UNL     1       4.226  11.205   2.542  1.00  0.00     0.074 A 
ATOM     37  C   UNL     1       3.850  11.019   0.106  1.00  0.00     0.049 A 
ATOM     38  N   UNL     1       3.541  12.284   2.822  1.00  0.00    -0.248 NA
ATOM     39  C   UNL     1       4.874  10.584   3.706  1.00  0.00     0.031 C 
ATOM     40  C   UNL     1       3.919  10.416  -1.228  1.00  0.00     0.029 A 
ATOM     41  N   UNL     1       3.099  12.152  -0.084  1.00  0.00    -0.354 N 
ATOM     42  C   UNL     1       3.657  12.461   4.197  1.00  0.00     0.074 A 
ATOM     43  C   UNL     1       4.434  11.345   4.696  1.00  0.00     0.031 C 
ATOM     44  C   UNL     1       3.254  11.193  -2.098  1.00  0.00     0.029 A 
ATOM     45  C   UNL     1       2.675  12.325  -1.381  1.00  0.00     0.049 A 
ATOM     46  H   UNL     1       2.883  12.782   0.641  1.00  0.00     0.167 HD
ATOM     47  C   UNL     1       3.180  13.470   4.967  1.00  0.00     0.034 A 
ATOM     48  C   UNL     1       1.895  13.278  -1.930  1.00  0.00     0.034 A 
ATOM     49  C   UNL     1       2.421  14.585   4.453  1.00  0.00     0.049 A 
ATOM     50  C   UNL     1       1.369  14.385  -1.055  1.00  0.00     0.074 A 
ATOM     51  C   UNL     1       1.941  15.690   5.134  1.00  0.00     0.029 A 
ATOM     52  N   UNL     1       2.025  14.734   3.129  1.00  0.00    -0.354 N 
ATOM     53  N   UNL     1       1.529  14.564   0.236  1.00  0.00    -0.248 NA
ATOM     54  C   UNL     1       0.566  15.424  -1.712  1.00  0.00     0.031 C 
ATOM     55  C   UNL     1       1.208  16.476   4.237  1.00  0.00     0.029 A 
ATOM     56  C   UNL     1       1.286  15.898   2.980  1.00  0.00     0.049 A 
ATOM     57  H   UNL     1       2.238  14.105   2.403  1.00  0.00     0.167 HD
ATOM     58  C   UNL     1       0.870  15.753   0.538  1.00  0.00     0.074 A 
ATOM     59  C   UNL     1       0.322  16.252  -0.707  1.00  0.00     0.031 C 
ATOM     60  C   UNL     1       0.736  16.378   1.735  1.00  0.00     0.034 A 
BRANCH  47  61
ATOM     61  C   UNL     1       3.448  13.393   6.452  1.00  0.00     0.023 A 
ATOM     62  C   UNL     1       4.755  13.427   6.968  1.00  0.00     0.031 A 
ATOM     63  C   UNL     1       2.386  13.249   7.362  1.00  0.00     0.131 A 
ATOM     64  C   UNL     1       4.973  13.234   8.340  1.00  0.00     0.055 A 
ATOM     65  C   UNL     1       2.604  13.141   8.737  1.00  0.00     0.041 A 
ATOM     66  F   UNL     1       1.117  13.192   6.928  1.00  0.00    -0.206 F 
ATOM     67  C   UNL     1       3.905  13.117   9.232  1.00  0.00     0.022 A 
BRANCH  64  68
ATOM     68  S   UNL     1       6.674  12.992   8.920  1.00  0.00     0.124 S 
ATOM     69  O   UNL     1       7.079  11.811   8.160  1.00  0.00    -0.237 OA
ATOM     70  O   UNL     1       7.318  14.245   8.545  1.00  0.00    -0.237 OA
ATOM     71  O   UNL     1       6.519  12.775  10.357  1.00  0.00    -0.744 OA
ENDBRANCH  64  68
ENDBRANCH  47  61
BRANCH  48  72
ATOM     72  C   UNL     1       1.553  13.229  -3.380  1.00  0.00     0.023 A 
ATOM     73  C   UNL     1       2.025  14.210  -4.266  1.00  0.00     0.031 A 
ATOM     74  C   UNL     1       0.718  12.220  -3.893  1.00  0.00     0.131 A 
ATOM     75  C   UNL     1       1.624  14.187  -5.611  1.00  0.00     0.055 A 
ATOM     76  C   UNL     1       0.360  12.175  -5.241  1.00  0.00     0.041 A 
ATOM     77  F   UNL     1       0.247  11.255  -3.087  1.00  0.00    -0.206 F 
ATOM     78  C   UNL     1       0.804  13.170  -6.107  1.00  0.00     0.022 A 
BRANCH  75  79
ATOM     79  S   UNL     1       2.134  15.552  -6.692  1.00  0.00     0.124 S 
ATOM     80  O   UNL     1       1.570  16.706  -6.000  1.00  0.00    -0.237 OA
ATOM     81  O   UNL     1       3.588  15.433  -6.663  1.00  0.00    -0.237 OA
ATOM     82  O   UNL     1       1.509  15.224  -7.972  1.00  0.00    -0.744 OA
ENDBRANCH  75  79
ENDBRANCH  48  72
BRANCH  60  83
ATOM     83  C   UNL     1       0.004  17.697   1.737  1.00  0.00     0.023 A 
ATOM     84  C   UNL     1      -1.376  17.779   1.482  1.00  0.00     0.031 A 
ATOM     85  C   UNL     1       0.706  18.891   1.984  1.00  0.00     0.131 A 
ATOM     86  C   UNL     1      -2.002  19.034   1.429  1.00  0.00     0.055 A 
ATOM     87  C   UNL     1       0.067  20.131   1.983  1.00  0.00     0.041 A 
ATOM     88  F   UNL     1       2.025  18.869   2.231  1.00  0.00    -0.206 F 
ATOM     89  C   UNL     1      -1.292  20.209   1.693  1.00  0.00     0.022 A 
BRANCH  86  90
ATOM     90  S   UNL     1      -3.744  19.120   0.930  1.00  0.00     0.124 S 
ATOM     91  O   UNL     1      -3.709  18.516  -0.398  1.00  0.00    -0.237 OA
ATOM     92  O   UNL     1      -4.405  18.337   1.969  1.00  0.00    -0.237 OA
ATOM     93  O   UNL     1      -4.038  20.552   0.953  1.00  0.00    -0.744 OA
ENDBRANCH  86  90
ENDBRANCH  60  83
ENDBRANCH  34  35
ENDBRANCH  26  29
ENDBRANCH  24  25
ENDBRANCH   1  24
TORSDOF 15
