REMARK SMILES CCC[NH+](CCC)[C@@H]1[C@@H]2CC[C@@H](C2)[C@@H]1C(=O)NCCCCNC(=O)c1ccc(-c2c3nc(c(-c4cc(S(=O)(=O)[O-])ccc4F)c4ccc([nH]4)c(-c4cc(S(=O)(=O)[O-])ccc4F)c4nc(c(-c5cc(S(=O)(=O)[O-])ccc5F)c5ccc2[nH]5)C=C4)C=C3)cc1
REMARK SMILES IDX 19 1 18 2 17 3 15 4 16 5 14 7 8 8 9 9 10 10 13 11 12 12
REMARK SMILES IDX 11 13 4 14 3 16 2 17 1 18 5 19 6 20 7 21 20 22 21 23 22 24
REMARK SMILES IDX 23 25 24 27 25 28 26 29 87 30 27 31 86 32 28 33 29 34 30 35
REMARK SMILES IDX 80 36 31 37 85 38 79 39 81 40 32 41 84 42 78 43 77 44 33 46
REMARK SMILES IDX 65 47 45 48 64 49 46 50 49 51 63 52 82 53 47 54 48 55 62 57
REMARK SMILES IDX 83 58 50 59 34 60 35 61 43 62 36 63 42 64 44 65 41 66 37 67
REMARK SMILES IDX 38 68 39 69 40 70 66 71 67 72 75 73 68 74 74 75 76 76 73 77
REMARK SMILES IDX 69 78 70 79 71 80 72 81 51 82 52 83 60 84 53 85 59 86 61 87
REMARK SMILES IDX 58 88 54 89 55 90 56 91 57 92
REMARK H PARENT 17 6 4 15 22 26 81 45 49 56
REMARK Flexibility Score: inf
ROOT
ATOM      1  C   UNL     1      -1.898  -0.149  -1.247  1.00  0.00     0.023 C 
ENDROOT
BRANCH   1   2
ATOM      2  C   UNL     1      -0.555   0.524  -0.966  1.00  0.00     0.116 C 
BRANCH   2   3
ATOM      3  N   UNL     1      -0.092   0.403   0.410  1.00  0.00    -0.356 N 
ATOM      4  C   UNL     1       0.851  -0.409   0.985  1.00  0.00     0.229 C 
ATOM      5  O   UNL     1       1.105  -0.232   2.175  1.00  0.00    -0.275 OA
ATOM      6  H   UNL     1      -0.536   1.015   1.041  1.00  0.00     0.163 HD
BRANCH   4   7
ATOM      7  C   UNL     1       1.579  -1.426   0.124  1.00  0.00     0.140 C 
ATOM      8  C   UNL     1       1.055  -2.890  -0.135  1.00  0.00     0.200 C 
ATOM      9  C   UNL     1       2.428  -3.670  -0.102  1.00  0.00     0.049 C 
ATOM     10  C   UNL     1       2.914  -3.877   1.341  1.00  0.00     0.010 C 
ATOM     11  C   UNL     1       3.462  -2.635  -0.562  1.00  0.00     0.014 C 
ATOM     12  C   UNL     1       3.063  -1.629   0.518  1.00  0.00     0.008 C 
ATOM     13  C   UNL     1       3.224  -2.457   1.804  1.00  0.00     0.005 C 
BRANCH   8  14
ATOM     14  N   UNL     1      -0.010  -3.560   0.680  1.00  0.00    -0.332 N 
ATOM     15  H   UNL     1       0.345  -3.580   1.637  1.00  0.00     0.348 HD
BRANCH  14  16
ATOM     16  C   UNL     1      -0.284  -4.939   0.179  1.00  0.00     0.262 C 
BRANCH  16  17
ATOM     17  C   UNL     1       0.351  -6.068   0.995  1.00  0.00     0.058 C 
ATOM     18  C   UNL     1       0.051  -5.991   2.485  1.00  0.00     0.010 C 
ENDBRANCH  16  17
ENDBRANCH  14  16
BRANCH  14  19
ATOM     19  C   UNL     1      -1.289  -2.828   0.623  1.00  0.00     0.262 C 
BRANCH  19  20
ATOM     20  C   UNL     1      -2.349  -3.144   1.689  1.00  0.00     0.058 C 
ATOM     21  C   UNL     1      -2.052  -2.502   3.034  1.00  0.00     0.010 C 
ENDBRANCH  19  20
ENDBRANCH  14  19
ENDBRANCH   8  14
ENDBRANCH   4   7
ENDBRANCH   2   3
ENDBRANCH   1   2
BRANCH   1  22
ATOM     22  C   UNL     1      -2.999   0.164  -0.232  1.00  0.00     0.023 C 
BRANCH  22  23
ATOM     23  C   UNL     1      -3.640   1.515  -0.490  1.00  0.00     0.116 C 
BRANCH  23  24
ATOM     24  N   UNL     1      -4.412   1.489  -1.729  1.00  0.00    -0.352 N 
ATOM     25  C   UNL     1      -5.752   1.733  -1.914  1.00  0.00     0.251 C 
ATOM     26  H   UNL     1      -3.904   1.268  -2.542  1.00  0.00     0.163 HD
ATOM     27  O   UNL     1      -6.308   1.373  -2.941  1.00  0.00    -0.269 OA
BRANCH  25  28
ATOM     28  C   UNL     1      -6.495   2.426  -0.843  1.00  0.00     0.039 A 
ATOM     29  C   UNL     1      -7.777   2.000  -0.494  1.00  0.00     0.014 A 
ATOM     30  C   UNL     1      -5.885   3.482  -0.163  1.00  0.00     0.014 A 
ATOM     31  C   UNL     1      -8.423   2.599   0.588  1.00  0.00     0.010 A 
ATOM     32  C   UNL     1      -6.473   3.987   0.981  1.00  0.00     0.010 A 
ATOM     33  C   UNL     1      -7.759   3.570   1.355  1.00  0.00    -0.014 A 
BRANCH  33  34
ATOM     34  C   UNL     1      -8.383   4.225   2.530  1.00  0.00     0.031 A 
ATOM     35  C   UNL     1      -8.535   5.723   2.525  1.00  0.00     0.074 A 
ATOM     36  C   UNL     1      -8.696   3.500   3.620  1.00  0.00     0.049 A 
ATOM     37  N   UNL     1      -8.851   6.528   3.504  1.00  0.00    -0.248 NA
ATOM     38  C   UNL     1      -8.230   6.409   1.258  1.00  0.00     0.031 C 
ATOM     39  C   UNL     1      -8.554   2.047   3.743  1.00  0.00     0.029 A 
ATOM     40  N   UNL     1      -9.179   3.889   4.843  1.00  0.00    -0.354 N 
ATOM     41  C   UNL     1      -8.747   7.813   2.980  1.00  0.00     0.074 A 
ATOM     42  C   UNL     1      -8.263   7.680   1.625  1.00  0.00     0.031 C 
ATOM     43  C   UNL     1      -8.966   1.667   4.963  1.00  0.00     0.029 A 
ATOM     44  C   UNL     1      -9.338   2.849   5.731  1.00  0.00     0.049 A 
ATOM     45  H   UNL     1      -9.392   4.824   5.066  1.00  0.00     0.167 HD
ATOM     46  C   UNL     1      -9.057   8.992   3.570  1.00  0.00     0.034 A 
ATOM     47  C   UNL     1      -9.718   2.858   7.024  1.00  0.00     0.034 A 
ATOM     48  C   UNL     1      -9.568   9.088   4.913  1.00  0.00     0.049 A 
ATOM     49  C   UNL     1     -10.042   4.184   7.668  1.00  0.00     0.074 A 
ATOM     50  C   UNL     1      -9.973  10.216   5.603  1.00  0.00     0.029 A 
ATOM     51  N   UNL     1      -9.742   8.009   5.773  1.00  0.00    -0.354 N 
ATOM     52  N   UNL     1      -9.974   5.391   7.152  1.00  0.00    -0.248 NA
ATOM     53  C   UNL     1     -10.503   4.151   9.062  1.00  0.00     0.031 C 
ATOM     54  C   UNL     1     -10.321   9.830   6.901  1.00  0.00     0.029 A 
ATOM     55  C   UNL     1     -10.225   8.450   6.993  1.00  0.00     0.049 A 
ATOM     56  H   UNL     1      -9.551   7.071   5.547  1.00  0.00     0.167 HD
ATOM     57  C   UNL     1     -10.427   6.254   8.145  1.00  0.00     0.074 A 
ATOM     58  C   UNL     1     -10.765   5.430   9.288  1.00  0.00     0.031 C 
ATOM     59  C   UNL     1     -10.565   7.604   8.114  1.00  0.00     0.034 A 
BRANCH  46  60
ATOM     60  C   UNL     1      -8.831  10.255   2.772  1.00  0.00     0.023 A 
ATOM     61  C   UNL     1      -9.489  10.487   1.551  1.00  0.00     0.031 A 
ATOM     62  C   UNL     1      -7.916  11.225   3.217  1.00  0.00     0.131 A 
ATOM     63  C   UNL     1      -9.160  11.610   0.778  1.00  0.00     0.055 A 
ATOM     64  C   UNL     1      -7.664  12.390   2.489  1.00  0.00     0.041 A 
ATOM     65  F   UNL     1      -7.236  11.051   4.361  1.00  0.00    -0.206 F 
ATOM     66  C   UNL     1      -8.274  12.579   1.252  1.00  0.00     0.022 A 
BRANCH  63  67
ATOM     67  S   UNL     1      -9.782  11.700  -0.923  1.00  0.00     0.124 S 
ATOM     68  O   UNL     1      -9.225  10.481  -1.505  1.00  0.00    -0.237 OA
ATOM     69  O   UNL     1     -11.227  11.714  -0.732  1.00  0.00    -0.237 OA
ATOM     70  O   UNL     1      -9.207  12.943  -1.433  1.00  0.00    -0.744 OA
ENDBRANCH  63  67
ENDBRANCH  46  60
BRANCH  47  71
ATOM     71  C   UNL     1      -9.811   1.584   7.795  1.00  0.00     0.023 A 
ATOM     72  C   UNL     1     -11.042   1.137   8.299  1.00  0.00     0.031 A 
ATOM     73  C   UNL     1      -8.669   0.811   8.069  1.00  0.00     0.131 A 
ATOM     74  C   UNL     1     -11.097  -0.018   9.095  1.00  0.00     0.055 A 
ATOM     75  C   UNL     1      -8.737  -0.371   8.810  1.00  0.00     0.041 A 
ATOM     76  F   UNL     1      -7.466   1.188   7.607  1.00  0.00    -0.206 F 
ATOM     77  C   UNL     1      -9.955  -0.784   9.340  1.00  0.00     0.022 A 
BRANCH  74  78
ATOM     78  S   UNL     1     -12.669  -0.450   9.889  1.00  0.00     0.124 S 
ATOM     79  O   UNL     1     -12.955   0.758  10.654  1.00  0.00    -0.237 OA
ATOM     80  O   UNL     1     -13.530  -0.701   8.738  1.00  0.00    -0.237 OA
ATOM     81  O   UNL     1     -12.335  -1.629  10.685  1.00  0.00    -0.744 OA
ENDBRANCH  74  78
ENDBRANCH  47  71
BRANCH  59  82
ATOM     82  C   UNL     1     -11.180   8.267   9.320  1.00  0.00     0.023 A 
ATOM     83  C   UNL     1     -10.523   8.325  10.560  1.00  0.00     0.031 A 
ATOM     84  C   UNL     1     -12.440   8.884   9.206  1.00  0.00     0.131 A 
ATOM     85  C   UNL     1     -11.146   8.953  11.648  1.00  0.00     0.055 A 
ATOM     86  C   UNL     1     -13.026   9.561  10.274  1.00  0.00     0.041 A 
ATOM     87  F   UNL     1     -13.112   8.854   8.044  1.00  0.00    -0.206 F 
ATOM     88  C   UNL     1     -12.382   9.590  11.507  1.00  0.00     0.022 A 
BRANCH  85  89
ATOM     89  S   UNL     1     -10.352   8.867  13.276  1.00  0.00     0.124 S 
ATOM     90  O   UNL     1     -10.285   7.427  13.504  1.00  0.00    -0.237 OA
ATOM     91  O   UNL     1      -9.077   9.535  13.039  1.00  0.00    -0.237 OA
ATOM     92  O   UNL     1     -11.277   9.590  14.147  1.00  0.00    -0.744 OA
ENDBRANCH  85  89
ENDBRANCH  59  82
ENDBRANCH  33  34
ENDBRANCH  25  28
ENDBRANCH  23  24
ENDBRANCH  22  23
ENDBRANCH   1  22
TORSDOF 19
