REMARK SMILES O=C(NCCCCNC(=O)c1cc(Br)cc2c1OCC2)c1ccc(-c2c3nc(c(-c4cc(S(=O)(=O)[O-])ccc4F)c4ccc([nH]4)c(-c4cc(S(=O)(=O)[O-])ccc4F)c4nc(c(-c5cc(S(=O)(=O)[O-])ccc5F)c5ccc2[nH]5)C=C4)C=C3)cc1
REMARK SMILES IDX 4 1 3 2 1 3 2 4 21 6 22 7 83 8 23 9 82 10 24 11 25 12 26 13
REMARK SMILES IDX 76 14 27 15 81 16 75 17 77 18 28 19 80 20 74 21 73 22 29 24
REMARK SMILES IDX 61 25 41 26 60 27 42 28 45 29 59 30 78 31 43 32 44 33 58 35
REMARK SMILES IDX 79 36 46 37 30 38 31 39 39 40 32 41 38 42 40 43 37 44 33 45
REMARK SMILES IDX 34 46 35 47 36 48 62 49 63 50 71 51 64 52 70 53 72 54 69 55
REMARK SMILES IDX 65 56 66 57 67 58 68 59 47 60 48 61 56 62 49 63 55 64 57 65
REMARK SMILES IDX 54 66 50 67 51 68 52 69 53 70 5 71 6 72 7 73 8 74 9 75 10 77
REMARK SMILES IDX 11 78 12 79 17 80 13 81 16 82 18 83 14 84 15 85 20 86 19 87
REMARK H PARENT 3 5 77 23 45 34 8 76
REMARK Flexibility Score: inf
ROOT
ATOM      1  C   UNL     1       4.537   0.812  -1.213  1.00  0.00     0.116 C 
ENDROOT
BRANCH   1   2
ATOM      2  N   UNL     1       3.108   0.781  -0.932  1.00  0.00    -0.352 N 
ATOM      3  O   UNL     1       1.177  -0.043  -0.101  1.00  0.00    -0.269 OA
ATOM      4  C   UNL     1       2.402  -0.111  -0.155  1.00  0.00     0.251 C 
ATOM      5  H   UNL     1       2.575   1.493  -1.354  1.00  0.00     0.163 HD
BRANCH   4   6
ATOM      6  C   UNL     1       3.126  -1.169   0.586  1.00  0.00     0.039 A 
ATOM      7  C   UNL     1       4.280  -0.864   1.310  1.00  0.00     0.014 A 
ATOM      8  C   UNL     1       2.660  -2.486   0.533  1.00  0.00     0.014 A 
ATOM      9  C   UNL     1       5.052  -1.891   1.839  1.00  0.00     0.010 A 
ATOM     10  C   UNL     1       3.392  -3.510   1.147  1.00  0.00     0.010 A 
ATOM     11  C   UNL     1       4.614  -3.225   1.775  1.00  0.00    -0.014 A 
BRANCH  11  12
ATOM     12  C   UNL     1       5.439  -4.278   2.423  1.00  0.00     0.031 A 
ATOM     13  C   UNL     1       6.112  -5.356   1.616  1.00  0.00     0.074 A 
ATOM     14  C   UNL     1       5.633  -4.205   3.755  1.00  0.00     0.049 A 
ATOM     15  N   UNL     1       6.918  -6.305   2.022  1.00  0.00    -0.248 NA
ATOM     16  C   UNL     1       5.839  -5.380   0.172  1.00  0.00     0.031 C 
ATOM     17  C   UNL     1       5.017  -3.210   4.638  1.00  0.00     0.029 A 
ATOM     18  N   UNL     1       6.421  -4.948   4.595  1.00  0.00    -0.354 N 
ATOM     19  C   UNL     1       7.243  -7.045   0.889  1.00  0.00     0.074 A 
ATOM     20  C   UNL     1       6.519  -6.451  -0.216  1.00  0.00     0.031 C 
ATOM     21  C   UNL     1       5.497  -3.364   5.880  1.00  0.00     0.029 A 
ATOM     22  C   UNL     1       6.402  -4.507   5.899  1.00  0.00     0.049 A 
ATOM     23  H   UNL     1       6.949  -5.722   4.295  1.00  0.00     0.167 HD
ATOM     24  C   UNL     1       8.074  -8.112   0.784  1.00  0.00     0.034 A 
ATOM     25  C   UNL     1       7.032  -4.975   6.992  1.00  0.00     0.034 A 
ATOM     26  C   UNL     1       8.791  -8.690   1.898  1.00  0.00     0.049 A 
ATOM     27  C   UNL     1       7.946  -6.160   6.844  1.00  0.00     0.074 A 
ATOM     28  C   UNL     1       9.661  -9.768   1.900  1.00  0.00     0.029 A 
ATOM     29  N   UNL     1       8.722  -8.239   3.210  1.00  0.00    -0.354 N 
ATOM     30  N   UNL     1       8.239  -6.844   5.762  1.00  0.00    -0.248 NA
ATOM     31  C   UNL     1       8.615  -6.633   8.061  1.00  0.00     0.031 C 
ATOM     32  C   UNL     1      10.074 -10.000   3.218  1.00  0.00     0.029 A 
ATOM     33  C   UNL     1       9.515  -9.028   4.031  1.00  0.00     0.049 A 
ATOM     34  H   UNL     1       8.187  -7.470   3.514  1.00  0.00     0.167 HD
ATOM     35  C   UNL     1       9.130  -7.830   6.171  1.00  0.00     0.074 A 
ATOM     36  C   UNL     1       9.357  -7.622   7.588  1.00  0.00     0.031 C 
ATOM     37  C   UNL     1       9.703  -8.825   5.447  1.00  0.00     0.034 A 
BRANCH  24  38
ATOM     38  C   UNL     1       8.223  -8.751  -0.577  1.00  0.00     0.023 A 
ATOM     39  C   UNL     1       8.844  -8.082  -1.646  1.00  0.00     0.031 A 
ATOM     40  C   UNL     1       7.739 -10.051  -0.806  1.00  0.00     0.131 A 
ATOM     41  C   UNL     1       8.922  -8.695  -2.906  1.00  0.00     0.055 A 
ATOM     42  C   UNL     1       7.877 -10.682  -2.045  1.00  0.00     0.041 A 
ATOM     43  F   UNL     1       7.119 -10.732   0.171  1.00  0.00    -0.206 F 
ATOM     44  C   UNL     1       8.463 -10.000  -3.107  1.00  0.00     0.022 A 
BRANCH  41  45
ATOM     45  S   UNL     1       9.540  -7.728  -4.311  1.00  0.00     0.124 S 
ATOM     46  O   UNL     1       8.567  -6.639  -4.371  1.00  0.00    -0.237 OA
ATOM     47  O   UNL     1      10.883  -7.361  -3.876  1.00  0.00    -0.237 OA
ATOM     48  O   UNL     1       9.482  -8.668  -5.428  1.00  0.00    -0.744 OA
ENDBRANCH  41  45
ENDBRANCH  24  38
BRANCH  25  49
ATOM     49  C   UNL     1       6.794  -4.348   8.323  1.00  0.00     0.023 A 
ATOM     50  C   UNL     1       7.830  -3.719   9.029  1.00  0.00     0.031 A 
ATOM     51  C   UNL     1       5.522  -4.400   8.923  1.00  0.00     0.131 A 
ATOM     52  C   UNL     1       7.588  -3.204  10.312  1.00  0.00     0.055 A 
ATOM     53  C   UNL     1       5.273  -3.837  10.174  1.00  0.00     0.041 A 
ATOM     54  F   UNL     1       4.495  -4.986   8.287  1.00  0.00    -0.206 F 
ATOM     55  C   UNL     1       6.314  -3.247  10.883  1.00  0.00     0.022 A 
BRANCH  52  56
ATOM     56  S   UNL     1       8.987  -2.557  11.267  1.00  0.00     0.124 S 
ATOM     57  O   UNL     1       9.915  -3.682  11.240  1.00  0.00    -0.237 OA
ATOM     58  O   UNL     1       9.373  -1.389  10.482  1.00  0.00    -0.237 OA
ATOM     59  O   UNL     1       8.400  -2.263  12.573  1.00  0.00    -0.744 OA
ENDBRANCH  52  56
ENDBRANCH  25  49
BRANCH  37  60
ATOM     60  C   UNL     1      10.630  -9.747   6.197  1.00  0.00     0.023 A 
ATOM     61  C   UNL     1      10.148 -10.616   7.192  1.00  0.00     0.031 A 
ATOM     62  C   UNL     1      12.014  -9.717   5.955  1.00  0.00     0.131 A 
ATOM     63  C   UNL     1      11.049 -11.366   7.960  1.00  0.00     0.055 A 
ATOM     64  C   UNL     1      12.901 -10.510   6.683  1.00  0.00     0.041 A 
ATOM     65  F   UNL     1      12.526  -8.904   5.017  1.00  0.00    -0.206 F 
ATOM     66  C   UNL     1      12.422 -11.328   7.704  1.00  0.00     0.022 A 
BRANCH  63  67
ATOM     67  S   UNL     1      10.412 -12.307   9.374  1.00  0.00     0.124 S 
ATOM     68  O   UNL     1       9.758 -11.267  10.162  1.00  0.00    -0.237 OA
ATOM     69  O   UNL     1       9.526 -13.273   8.732  1.00  0.00    -0.237 OA
ATOM     70  O   UNL     1      11.616 -12.877   9.977  1.00  0.00    -0.744 OA
ENDBRANCH  63  67
ENDBRANCH  37  60
ENDBRANCH  11  12
ENDBRANCH   4   6
ENDBRANCH   1   2
BRANCH   1  71
ATOM     71  C   UNL     1       4.866   1.032  -2.684  1.00  0.00     0.023 C 
BRANCH  71  72
ATOM     72  C   UNL     1       4.361   2.340  -3.289  1.00  0.00     0.023 C 
BRANCH  72  73
ATOM     73  C   UNL     1       4.701   3.602  -2.503  1.00  0.00     0.116 C 
BRANCH  73  74
ATOM     74  N   UNL     1       6.130   3.810  -2.344  1.00  0.00    -0.352 N 
ATOM     75  C   UNL     1       6.931   4.805  -2.850  1.00  0.00     0.255 C 
ATOM     76  H   UNL     1       6.593   3.139  -1.792  1.00  0.00     0.163 HD
ATOM     77  O   UNL     1       8.135   4.820  -2.616  1.00  0.00    -0.269 OA
BRANCH  75  78
ATOM     78  C   UNL     1       6.325   5.883  -3.646  1.00  0.00     0.083 A 
ATOM     79  C   UNL     1       5.369   6.732  -3.073  1.00  0.00     0.033 A 
ATOM     80  C   UNL     1       6.694   6.086  -4.965  1.00  0.00     0.135 A 
ATOM     81  C   UNL     1       4.763   7.723  -3.855  1.00  0.00     0.019 A 
ATOM     82  C   UNL     1       6.101   7.083  -5.726  1.00  0.00    -0.001 A 
ATOM     83  O   UNL     1       7.639   5.372  -5.652  1.00  0.00    -0.492 OA
ATOM     84  Br  UNL     1       3.423   8.817  -3.090  1.00  0.00    -0.051 Br
ATOM     85  C   UNL     1       5.124   7.909  -5.192  1.00  0.00     0.023 A 
ATOM     86  C   UNL     1       6.719   7.116  -7.070  1.00  0.00     0.081 C 
ATOM     87  C   UNL     1       7.519   5.814  -7.020  1.00  0.00     0.234 C 
ENDBRANCH  75  78
ENDBRANCH  73  74
ENDBRANCH  72  73
ENDBRANCH  71  72
ENDBRANCH   1  71
TORSDOF 14
