REMARK SMILES CC(C)([NH2+]C[C@@H]1CCCO1)C(=O)NCCCCNC(=O)c1ccc(-c2c3nc(c(-c4cc(S(=O)(=O)[O-])ccc4F)c4ccc([nH]4)c(-c4cc(S(=O)(=O)[O-])ccc4F)c4nc(c(-c5cc(S(=O)(=O)[O-])ccc5F)c5ccc2[nH]5)C=C4)C=C3)cc1
REMARK SMILES IDX 15 1 14 2 13 3 11 4 12 5 2 7 1 8 3 9 4 10 5 13 6 14 7 15
REMARK SMILES IDX 10 16 8 17 9 18 16 19 17 20 18 21 19 22 20 24 21 25 22 26
REMARK SMILES IDX 83 27 23 28 82 29 24 30 25 31 26 32 76 33 27 34 81 35 75 36
REMARK SMILES IDX 77 37 28 38 80 39 74 40 73 41 29 43 61 44 41 45 60 46 42 47
REMARK SMILES IDX 45 48 59 49 78 50 43 51 44 52 58 54 79 55 46 56 30 57 31 58
REMARK SMILES IDX 39 59 32 60 38 61 40 62 37 63 33 64 34 65 35 66 36 67 62 68
REMARK SMILES IDX 63 69 71 70 64 71 70 72 72 73 69 74 65 75 66 76 67 77 68 78
REMARK SMILES IDX 47 79 48 80 56 81 49 82 55 83 57 84 54 85 50 86 51 87 52 88
REMARK SMILES IDX 53 89
REMARK H PARENT 13 6 4 11 4 12 18 23 77 42 45 53
REMARK Flexibility Score: inf
ROOT
ATOM      1  C   UNL     1      -1.120  -3.110   3.847  1.00  0.00     0.023 C 
ENDROOT
BRANCH   1   2
ATOM      2  C   UNL     1       0.264  -2.557   3.488  1.00  0.00     0.116 C 
BRANCH   2   3
ATOM      3  N   UNL     1       0.581  -2.843   2.106  1.00  0.00    -0.351 N 
ATOM      4  C   UNL     1       0.597  -2.080   0.979  1.00  0.00     0.280 C 
ATOM      5  O   UNL     1       0.731  -2.737  -0.066  1.00  0.00    -0.268 OA
ATOM      6  H   UNL     1       0.838  -3.781   1.948  1.00  0.00     0.163 HD
BRANCH   4   7
ATOM      7  C   UNL     1       0.546  -0.508   0.946  1.00  0.00     0.169 C 
ATOM      8  C   UNL     1       0.915  -0.124  -0.524  1.00  0.00     0.090 C 
ATOM      9  C   UNL     1       1.633   0.140   1.808  1.00  0.00     0.090 C 
BRANCH   7  10
ATOM     10  N   UNL     1      -0.807   0.097   1.065  1.00  0.00    -0.332 N 
ATOM     11  H   UNL     1      -1.352  -0.276   0.287  1.00  0.00     0.347 HD
ATOM     12  H   UNL     1      -0.585   1.092   1.096  1.00  0.00     0.347 HD
BRANCH  10  13
ATOM     13  C   UNL     1      -1.639  -0.055   2.248  1.00  0.00     0.293 C 
BRANCH  13  14
ATOM     14  C   UNL     1      -1.459   0.878   3.467  1.00  0.00     0.173 C 
ATOM     15  C   UNL     1      -1.645   2.360   3.189  1.00  0.00     0.040 C 
ATOM     16  O   UNL     1      -0.183   0.749   4.108  1.00  0.00    -0.372 OA
ATOM     17  C   UNL     1      -0.918   2.982   4.358  1.00  0.00     0.031 C 
ATOM     18  C   UNL     1       0.253   2.044   4.541  1.00  0.00     0.161 C 
ENDBRANCH  13  14
ENDBRANCH  10  13
ENDBRANCH   7  10
ENDBRANCH   4   7
ENDBRANCH   2   3
ENDBRANCH   1   2
BRANCH   1  19
ATOM     19  C   UNL     1      -1.111  -4.511   4.442  1.00  0.00     0.023 C 
BRANCH  19  20
ATOM     20  C   UNL     1      -0.473  -4.604   5.820  1.00  0.00     0.116 C 
BRANCH  20  21
ATOM     21  N   UNL     1      -1.138  -3.790   6.830  1.00  0.00    -0.352 N 
ATOM     22  C   UNL     1      -1.388  -4.105   8.149  1.00  0.00     0.251 C 
ATOM     23  H   UNL     1      -1.448  -2.904   6.533  1.00  0.00     0.163 HD
ATOM     24  O   UNL     1      -2.040  -3.351   8.856  1.00  0.00    -0.269 OA
BRANCH  22  25
ATOM     25  C   UNL     1      -0.894  -5.398   8.669  1.00  0.00     0.039 A 
ATOM     26  C   UNL     1      -1.791  -6.262   9.298  1.00  0.00     0.014 A 
ATOM     27  C   UNL     1       0.425  -5.792   8.431  1.00  0.00     0.014 A 
ATOM     28  C   UNL     1      -1.387  -7.563   9.605  1.00  0.00     0.010 A 
ATOM     29  C   UNL     1       0.794  -7.114   8.650  1.00  0.00     0.010 A 
ATOM     30  C   UNL     1      -0.109  -8.015   9.233  1.00  0.00    -0.014 A 
BRANCH  30  31
ATOM     31  C   UNL     1       0.299  -9.430   9.436  1.00  0.00     0.031 A 
ATOM     32  C   UNL     1       1.470  -9.753  10.323  1.00  0.00     0.074 A 
ATOM     33  C   UNL     1      -0.328 -10.409   8.755  1.00  0.00     0.049 A 
ATOM     34  N   UNL     1       2.030 -10.909  10.568  1.00  0.00    -0.248 NA
ATOM     35  C   UNL     1       2.122  -8.616  10.990  1.00  0.00     0.031 C 
ATOM     36  C   UNL     1      -1.429 -10.213   7.808  1.00  0.00     0.029 A 
ATOM     37  N   UNL     1      -0.125 -11.767   8.745  1.00  0.00    -0.354 N 
ATOM     38  C   UNL     1       3.112 -10.637  11.398  1.00  0.00     0.074 A 
ATOM     39  C   UNL     1       3.168  -9.199  11.553  1.00  0.00     0.031 C 
ATOM     40  C   UNL     1      -1.823 -11.406   7.335  1.00  0.00     0.029 A 
ATOM     41  C   UNL     1      -0.980 -12.449   7.910  1.00  0.00     0.049 A 
ATOM     42  H   UNL     1       0.567 -12.211   9.285  1.00  0.00     0.167 HD
ATOM     43  C   UNL     1       3.961 -11.507  11.999  1.00  0.00     0.034 A 
ATOM     44  C   UNL     1      -1.071 -13.765   7.635  1.00  0.00     0.034 A 
ATOM     45  C   UNL     1       3.873 -12.939  11.851  1.00  0.00     0.049 A 
ATOM     46  C   UNL     1      -0.129 -14.716   8.326  1.00  0.00     0.074 A 
ATOM     47  C   UNL     1       4.629 -13.919  12.470  1.00  0.00     0.029 A 
ATOM     48  N   UNL     1       2.977 -13.598  11.017  1.00  0.00    -0.354 N 
ATOM     49  N   UNL     1       0.845 -14.450   9.166  1.00  0.00    -0.248 NA
ATOM     50  C   UNL     1      -0.307 -16.146   8.043  1.00  0.00     0.031 C 
ATOM     51  C   UNL     1       4.232 -15.163  11.966  1.00  0.00     0.029 A 
ATOM     52  C   UNL     1       3.180 -14.968  11.085  1.00  0.00     0.049 A 
ATOM     53  H   UNL     1       2.297 -13.155  10.459  1.00  0.00     0.167 HD
ATOM     54  C   UNL     1       1.379 -15.683   9.530  1.00  0.00     0.074 A 
ATOM     55  C   UNL     1       0.606 -16.691   8.832  1.00  0.00     0.031 C 
ATOM     56  C   UNL     1       2.412 -15.958  10.367  1.00  0.00     0.034 A 
BRANCH  43  57
ATOM     57  C   UNL     1       5.062 -10.920  12.852  1.00  0.00     0.023 A 
ATOM     58  C   UNL     1       4.779 -10.142  13.989  1.00  0.00     0.031 A 
ATOM     59  C   UNL     1       6.411 -11.096  12.497  1.00  0.00     0.131 A 
ATOM     60  C   UNL     1       5.819  -9.494  14.673  1.00  0.00     0.055 A 
ATOM     61  C   UNL     1       7.448 -10.521  13.236  1.00  0.00     0.041 A 
ATOM     62  F   UNL     1       6.745 -11.811  11.411  1.00  0.00    -0.206 F 
ATOM     63  C   UNL     1       7.154  -9.699  14.320  1.00  0.00     0.022 A 
BRANCH  60  64
ATOM     64  S   UNL     1       5.388  -8.253  15.924  1.00  0.00     0.124 S 
ATOM     65  O   UNL     1       4.598  -7.307  15.140  1.00  0.00    -0.237 OA
ATOM     66  O   UNL     1       4.653  -9.039  16.908  1.00  0.00    -0.237 OA
ATOM     67  O   UNL     1       6.686  -7.750  16.369  1.00  0.00    -0.744 OA
ENDBRANCH  60  64
ENDBRANCH  43  57
BRANCH  44  68
ATOM     68  C   UNL     1      -2.088 -14.265   6.667  1.00  0.00     0.023 A 
ATOM     69  C   UNL     1      -3.153 -15.075   7.091  1.00  0.00     0.031 A 
ATOM     70  C   UNL     1      -1.993 -13.963   5.297  1.00  0.00     0.131 A 
ATOM     71  C   UNL     1      -4.059 -15.589   6.151  1.00  0.00     0.055 A 
ATOM     72  C   UNL     1      -2.924 -14.438   4.372  1.00  0.00     0.041 A 
ATOM     73  F   UNL     1      -0.999 -13.184   4.841  1.00  0.00    -0.206 F 
ATOM     74  C   UNL     1      -3.958 -15.267   4.795  1.00  0.00     0.022 A 
BRANCH  71  75
ATOM     75  S   UNL     1      -5.339 -16.744   6.717  1.00  0.00     0.124 S 
ATOM     76  O   UNL     1      -4.537 -17.818   7.291  1.00  0.00    -0.237 OA
ATOM     77  O   UNL     1      -6.088 -15.925   7.664  1.00  0.00    -0.237 OA
ATOM     78  O   UNL     1      -6.056 -17.086   5.490  1.00  0.00    -0.744 OA
ENDBRANCH  71  75
ENDBRANCH  44  68
BRANCH  56  79
ATOM     79  C   UNL     1       2.735 -17.414  10.594  1.00  0.00     0.023 A 
ATOM     80  C   UNL     1       3.251 -18.225   9.567  1.00  0.00     0.031 A 
ATOM     81  C   UNL     1       2.506 -18.002  11.850  1.00  0.00     0.131 A 
ATOM     82  C   UNL     1       3.466 -19.591   9.798  1.00  0.00     0.055 A 
ATOM     83  C   UNL     1       2.779 -19.349  12.091  1.00  0.00     0.041 A 
ATOM     84  F   UNL     1       2.013 -17.275  12.865  1.00  0.00    -0.206 F 
ATOM     85  C   UNL     1       3.249 -20.155  11.058  1.00  0.00     0.022 A 
BRANCH  82  86
ATOM     86  S   UNL     1       3.946 -20.645   8.402  1.00  0.00     0.124 S 
ATOM     87  O   UNL     1       2.841 -20.439   7.472  1.00  0.00    -0.237 OA
ATOM     88  O   UNL     1       5.229 -20.073   8.005  1.00  0.00    -0.237 OA
ATOM     89  O   UNL     1       4.020 -21.982   8.991  1.00  0.00    -0.744 OA
ENDBRANCH  82  86
ENDBRANCH  56  79
ENDBRANCH  30  31
ENDBRANCH  22  25
ENDBRANCH  20  21
ENDBRANCH  19  20
ENDBRANCH   1  19
TORSDOF 17
