REMARK SMILES O=C(NCCCCNC(=O)c1[nH]ncc1C[N@H+]1CCC[C@@H](c2nc3ccccc3o2)C1)c1ccc(-c2c3nc(c(-c4cc(S(=O)(=O)[O-])ccc4F)c4ccc([nH]4)c(-c4cc(S(=O)(=O)[O-])ccc4F)c4nc(c(-c5cc(S(=O)(=O)[O-])ccc5F)c5ccc2[nH]5)C=C4)C=C3)cc1
REMARK SMILES IDX 5 1 4 2 3 3 1 4 2 5 32 7 33 8 94 9 34 10 93 11 35 12 36 13
REMARK SMILES IDX 37 14 87 15 38 16 92 17 86 18 88 19 39 20 91 21 85 22 84 23
REMARK SMILES IDX 40 25 72 26 52 27 71 28 53 29 56 30 70 31 89 32 54 33 55 34
REMARK SMILES IDX 69 36 90 37 57 38 41 39 42 40 50 41 43 42 49 43 51 44 48 45
REMARK SMILES IDX 44 46 45 47 46 48 47 49 73 50 74 51 82 52 75 53 81 54 83 55
REMARK SMILES IDX 80 56 76 57 77 58 78 59 79 60 58 61 59 62 67 63 60 64 66 65
REMARK SMILES IDX 68 66 65 67 61 68 62 69 63 70 64 71 6 72 7 73 8 74 9 75
REMARK SMILES IDX 10 77 11 78 12 79 15 80 13 81 14 83 16 84 17 85 18 86 31 87
REMARK SMILES IDX 19 89 21 90 20 91 22 92 23 93 30 94 24 95 29 96 25 97 28 98
REMARK SMILES IDX 26 99 27 100
REMARK H PARENT 3 6 88 24 56 35 8 76 12 82 17 88
REMARK Flexibility Score: inf
ROOT
ATOM      1  C   UNL     1       4.979   0.990  -2.345  1.00  0.00     0.023 C 
ENDROOT
BRANCH   1   2
ATOM      2  C   UNL     1       4.614   0.982  -0.869  1.00  0.00     0.116 C 
BRANCH   2   3
ATOM      3  N   UNL     1       3.176   0.974  -0.626  1.00  0.00    -0.352 N 
ATOM      4  O   UNL     1       1.194   0.103   0.037  1.00  0.00    -0.269 OA
ATOM      5  C   UNL     1       2.418   0.026   0.027  1.00  0.00     0.251 C 
ATOM      6  H   UNL     1       2.680   1.749  -0.977  1.00  0.00     0.163 HD
BRANCH   5   7
ATOM      7  C   UNL     1       3.109  -1.100   0.690  1.00  0.00     0.039 A 
ATOM      8  C   UNL     1       4.224  -0.845   1.487  1.00  0.00     0.014 A 
ATOM      9  C   UNL     1       2.694  -2.413   0.453  1.00  0.00     0.014 A 
ATOM     10  C   UNL     1       5.042  -1.896   1.866  1.00  0.00     0.010 A 
ATOM     11  C   UNL     1       3.450  -3.477   0.959  1.00  0.00     0.010 A 
ATOM     12  C   UNL     1       4.652  -3.228   1.641  1.00  0.00    -0.014 A 
BRANCH  12  13
ATOM     13  C   UNL     1       5.489  -4.312   2.218  1.00  0.00     0.031 A 
ATOM     14  C   UNL     1       6.164  -5.343   1.355  1.00  0.00     0.074 A 
ATOM     15  C   UNL     1       5.690  -4.304   3.552  1.00  0.00     0.049 A 
ATOM     16  N   UNL     1       6.959  -6.320   1.715  1.00  0.00    -0.248 NA
ATOM     17  C   UNL     1       5.912  -5.281  -0.093  1.00  0.00     0.031 C 
ATOM     18  C   UNL     1       5.078  -3.350   4.485  1.00  0.00     0.029 A 
ATOM     19  N   UNL     1       6.481  -5.083   4.354  1.00  0.00    -0.354 N 
ATOM     20  C   UNL     1       7.300  -6.992   0.546  1.00  0.00     0.074 A 
ATOM     21  C   UNL     1       6.592  -6.333  -0.532  1.00  0.00     0.031 C 
ATOM     22  C   UNL     1       5.573  -3.552   5.712  1.00  0.00     0.029 A 
ATOM     23  C   UNL     1       6.452  -4.712   5.679  1.00  0.00     0.049 A 
ATOM     24  H   UNL     1       7.019  -5.835   4.016  1.00  0.00     0.167 HD
ATOM     25  C   UNL     1       8.132  -8.054   0.392  1.00  0.00     0.034 A 
ATOM     26  C   UNL     1       7.037  -5.261   6.760  1.00  0.00     0.034 A 
ATOM     27  C   UNL     1       8.824  -8.699   1.485  1.00  0.00     0.049 A 
ATOM     28  C   UNL     1       7.909  -6.470   6.560  1.00  0.00     0.074 A 
ATOM     29  C   UNL     1       9.695  -9.775   1.438  1.00  0.00     0.029 A 
ATOM     30  N   UNL     1       8.724  -8.335   2.823  1.00  0.00    -0.354 N 
ATOM     31  N   UNL     1       8.224  -7.085   5.443  1.00  0.00    -0.248 NA
ATOM     32  C   UNL     1       8.507  -7.055   7.764  1.00  0.00     0.031 C 
ATOM     33  C   UNL     1      10.061 -10.106   2.747  1.00  0.00     0.029 A 
ATOM     34  C   UNL     1       9.491  -9.184   3.609  1.00  0.00     0.049 A 
ATOM     35  H   UNL     1       8.187  -7.583   3.164  1.00  0.00     0.167 HD
ATOM     36  C   UNL     1       9.073  -8.122   5.813  1.00  0.00     0.074 A 
ATOM     37  C   UNL     1       9.253  -8.018   7.247  1.00  0.00     0.031 C 
ATOM     38  C   UNL     1       9.645  -9.081   5.041  1.00  0.00     0.034 A 
BRANCH  25  39
ATOM     39  C   UNL     1       8.316  -8.611  -1.000  1.00  0.00     0.023 A 
ATOM     40  C   UNL     1       8.935  -7.867  -2.020  1.00  0.00     0.031 A 
ATOM     41  C   UNL     1       7.891  -9.917  -1.307  1.00  0.00     0.131 A 
ATOM     42  C   UNL     1       9.070  -8.415  -3.306  1.00  0.00     0.055 A 
ATOM     43  C   UNL     1       8.093 -10.483  -2.567  1.00  0.00     0.041 A 
ATOM     44  F   UNL     1       7.275 -10.669  -0.381  1.00  0.00    -0.206 F 
ATOM     45  C   UNL     1       8.677  -9.728  -3.579  1.00  0.00     0.022 A 
BRANCH  42  46
ATOM     46  S   UNL     1       9.666  -7.350  -4.647  1.00  0.00     0.124 S 
ATOM     47  O   UNL     1       8.665  -6.286  -4.646  1.00  0.00    -0.237 OA
ATOM     48  O   UNL     1      10.997  -6.974  -4.185  1.00  0.00    -0.237 OA
ATOM     49  O   UNL     1       9.635  -8.223  -5.819  1.00  0.00    -0.744 OA
ENDBRANCH  42  46
ENDBRANCH  25  39
BRANCH  26  50
ATOM     50  C   UNL     1       6.771  -4.717   8.123  1.00  0.00     0.023 A 
ATOM     51  C   UNL     1       7.815  -4.252   8.936  1.00  0.00     0.031 A 
ATOM     52  C   UNL     1       5.469  -4.714   8.658  1.00  0.00     0.131 A 
ATOM     53  C   UNL     1       7.550  -3.868  10.259  1.00  0.00     0.055 A 
ATOM     54  C   UNL     1       5.200  -4.257   9.947  1.00  0.00     0.041 A 
ATOM     55  F   UNL     1       4.431  -5.150   7.926  1.00  0.00    -0.206 F 
ATOM     56  C   UNL     1       6.248  -3.849  10.764  1.00  0.00     0.022 A 
BRANCH  53  57
ATOM     57  S   UNL     1       8.953  -3.522  11.354  1.00  0.00     0.124 S 
ATOM     58  O   UNL     1       9.737  -4.745  11.226  1.00  0.00    -0.237 OA
ATOM     59  O   UNL     1       9.524  -2.326  10.744  1.00  0.00    -0.237 OA
ATOM     60  O   UNL     1       8.323  -3.316  12.657  1.00  0.00    -0.744 OA
ENDBRANCH  53  57
ENDBRANCH  26  50
BRANCH  38  61
ATOM     61  C   UNL     1      10.544 -10.066   5.749  1.00  0.00     0.023 A 
ATOM     62  C   UNL     1      10.045 -10.945   6.727  1.00  0.00     0.031 A 
ATOM     63  C   UNL     1      11.925 -10.088   5.485  1.00  0.00     0.131 A 
ATOM     64  C   UNL     1      10.930 -11.744   7.466  1.00  0.00     0.055 A 
ATOM     65  C   UNL     1      12.790 -10.943   6.169  1.00  0.00     0.041 A 
ATOM     66  F   UNL     1      12.458  -9.268   4.565  1.00  0.00    -0.206 F 
ATOM     67  C   UNL     1      12.297 -11.763   7.180  1.00  0.00     0.022 A 
BRANCH  64  68
ATOM     68  S   UNL     1      10.286 -12.655   8.896  1.00  0.00     0.124 S 
ATOM     69  O   UNL     1       9.709 -11.585   9.702  1.00  0.00    -0.237 OA
ATOM     70  O   UNL     1       9.334 -13.573   8.278  1.00  0.00    -0.237 OA
ATOM     71  O   UNL     1      11.476 -13.287   9.463  1.00  0.00    -0.744 OA
ENDBRANCH  64  68
ENDBRANCH  38  61
ENDBRANCH  12  13
ENDBRANCH   5   7
ENDBRANCH   2   3
ENDBRANCH   1   2
BRANCH   1  72
ATOM     72  C   UNL     1       4.543   2.234  -3.105  1.00  0.00     0.023 C 
BRANCH  72  73
ATOM     73  C   UNL     1       4.940   3.548  -2.451  1.00  0.00     0.116 C 
BRANCH  73  74
ATOM     74  N   UNL     1       6.378   3.716  -2.305  1.00  0.00    -0.351 N 
ATOM     75  C   UNL     1       7.142   4.806  -2.636  1.00  0.00     0.269 C 
ATOM     76  H   UNL     1       6.864   2.951  -1.921  1.00  0.00     0.163 HD
ATOM     77  O   UNL     1       8.369   4.714  -2.613  1.00  0.00    -0.268 OA
BRANCH  75  78
ATOM     78  C   UNL     1       6.471   5.992  -3.072  1.00  0.00     0.131 A 
ATOM     79  N   UNL     1       6.826   6.638  -4.222  1.00  0.00    -0.272 N 
ATOM     80  C   UNL     1       5.425   6.730  -2.529  1.00  0.00     0.057 A 
ATOM     81  N   UNL     1       5.961   7.596  -4.589  1.00  0.00    -0.183 NA
ATOM     82  H   UNL     1       7.639   6.421  -4.734  1.00  0.00     0.190 HD
ATOM     83  C   UNL     1       5.108   7.646  -3.564  1.00  0.00     0.145 A 
BRANCH  80  84
ATOM     84  C   UNL     1       4.737   6.516  -1.215  1.00  0.00     0.303 C 
BRANCH  84  85
ATOM     85  N   UNL     1       4.852   7.624  -0.261  1.00  0.00    -0.330 N 
ATOM     86  C   UNL     1       6.235   7.931   0.114  1.00  0.00     0.262 C 
ATOM     87  C   UNL     1       4.099   8.809  -0.669  1.00  0.00     0.275 C 
ATOM     88  H   UNL     1       4.407   7.289   0.593  1.00  0.00     0.348 HD
ATOM     89  C   UNL     1       6.278   8.989   1.220  1.00  0.00     0.062 C 
ATOM     90  C   UNL     1       4.082   9.900   0.411  1.00  0.00     0.131 C 
ATOM     91  C   UNL     1       5.515  10.252   0.821  1.00  0.00     0.025 C 
BRANCH  90  92
ATOM     92  C   UNL     1       3.356  11.077  -0.147  1.00  0.00     0.204 A 
ATOM     93  N   UNL     1       3.661  11.786  -1.219  1.00  0.00    -0.213 NA
ATOM     94  O   UNL     1       2.139  11.371   0.413  1.00  0.00    -0.440 OA
ATOM     95  C   UNL     1       2.563  12.582  -1.403  1.00  0.00     0.109 A 
ATOM     96  C   UNL     1       1.633  12.338  -0.405  1.00  0.00     0.154 A 
ATOM     97  C   UNL     1       2.265  13.521  -2.397  1.00  0.00     0.032 A 
ATOM     98  C   UNL     1       0.401  12.971  -0.302  1.00  0.00     0.049 A 
ATOM     99  C   UNL     1       1.029  14.180  -2.332  1.00  0.00     0.003 A 
ATOM    100  C   UNL     1       0.118  13.910  -1.302  1.00  0.00     0.004 A 
ENDBRANCH  90  92
ENDBRANCH  84  85
ENDBRANCH  80  84
ENDBRANCH  75  78
ENDBRANCH  73  74
ENDBRANCH  72  73
ENDBRANCH   1  72
TORSDOF 17
