REMARK SMILES O=C(NCCCCNC(=O)c1nn(-c2ccc(Br)cc2F)cc1CCCO)c1ccc(-c2c3nc(c(-c4cc(S(=O)(=O)[O-])ccc4F)c4ccc([nH]4)c(-c4cc(S(=O)(=O)[O-])ccc4F)c4nc(c(-c5cc(S(=O)(=O)[O-])ccc5F)c5ccc2[nH]5)C=C4)C=C3)cc1
REMARK SMILES IDX 6 1 5 2 4 3 3 4 1 5 2 6 28 8 29 9 90 10 30 11 89 12 31 13
REMARK SMILES IDX 32 14 33 15 83 16 34 17 88 18 82 19 84 20 35 21 87 22 81 23
REMARK SMILES IDX 80 24 36 26 68 27 48 28 67 29 49 30 52 31 66 32 85 33 50 34
REMARK SMILES IDX 51 35 65 37 86 38 53 39 37 40 38 41 46 42 39 43 45 44 47 45
REMARK SMILES IDX 44 46 40 47 41 48 42 49 43 50 69 51 70 52 78 53 71 54 77 55
REMARK SMILES IDX 79 56 76 57 72 58 73 59 74 60 75 61 54 62 55 63 63 64 56 65
REMARK SMILES IDX 62 66 64 67 61 68 57 69 58 70 59 71 60 72 7 73 8 74 9 75
REMARK SMILES IDX 10 77 11 78 12 79 23 80 13 81 22 82 24 83 25 84 26 85 27 86
REMARK SMILES IDX 14 88 15 89 20 90 16 91 19 92 21 93 17 94 18 95
REMARK H PARENT 3 7 84 25 52 36 8 76 27 87
REMARK Flexibility Score: inf
ROOT
ATOM      1  C   UNL     1       4.343   3.354   1.514  1.00  0.00     0.023 C 
ENDROOT
BRANCH   1   2
ATOM      2  C   UNL     1       4.879   2.338   0.496  1.00  0.00     0.023 C 
BRANCH   2   3
ATOM      3  C   UNL     1       4.665   0.866   0.839  1.00  0.00     0.116 C 
BRANCH   3   4
ATOM      4  N   UNL     1       3.283   0.464   0.975  1.00  0.00    -0.352 N 
ATOM      5  O   UNL     1       1.235  -0.262   0.589  1.00  0.00    -0.269 OA
ATOM      6  C   UNL     1       2.281   0.166   0.092  1.00  0.00     0.251 C 
ATOM      7  H   UNL     1       2.998   0.388   1.915  1.00  0.00     0.163 HD
BRANCH   6   8
ATOM      8  C   UNL     1       2.351   0.355  -1.385  1.00  0.00     0.039 A 
ATOM      9  C   UNL     1       3.520   0.457  -2.139  1.00  0.00     0.014 A 
ATOM     10  C   UNL     1       1.116   0.396  -2.060  1.00  0.00     0.014 A 
ATOM     11  C   UNL     1       3.458   0.645  -3.522  1.00  0.00     0.010 A 
ATOM     12  C   UNL     1       1.050   0.563  -3.443  1.00  0.00     0.010 A 
ATOM     13  C   UNL     1       2.225   0.702  -4.178  1.00  0.00    -0.014 A 
BRANCH  13  14
ATOM     14  C   UNL     1       2.223   0.741  -5.645  1.00  0.00     0.031 A 
ATOM     15  C   UNL     1       2.793  -0.460  -6.330  1.00  0.00     0.074 A 
ATOM     16  C   UNL     1       1.594   1.674  -6.388  1.00  0.00     0.049 A 
ATOM     17  N   UNL     1       3.738  -0.518  -7.213  1.00  0.00    -0.248 NA
ATOM     18  C   UNL     1       2.269  -1.778  -5.937  1.00  0.00     0.031 C 
ATOM     19  C   UNL     1       0.712   2.743  -5.920  1.00  0.00     0.029 A 
ATOM     20  N   UNL     1       1.528   1.786  -7.750  1.00  0.00    -0.354 N 
ATOM     21  C   UNL     1       3.809  -1.849  -7.627  1.00  0.00     0.074 A 
ATOM     22  C   UNL     1       2.966  -2.593  -6.728  1.00  0.00     0.031 C 
ATOM     23  C   UNL     1       0.035   3.252  -6.974  1.00  0.00     0.029 A 
ATOM     24  C   UNL     1       0.525   2.636  -8.198  1.00  0.00     0.049 A 
ATOM     25  H   UNL     1       2.136   1.307  -8.358  1.00  0.00     0.167 HD
ATOM     26  C   UNL     1       4.431  -2.227  -8.779  1.00  0.00     0.034 A 
ATOM     27  C   UNL     1       0.072   2.784  -9.470  1.00  0.00     0.034 A 
ATOM     28  C   UNL     1       5.366  -1.230  -9.234  1.00  0.00     0.049 A 
ATOM     29  C   UNL     1       1.129   2.303 -10.388  1.00  0.00     0.074 A 
ATOM     30  C   UNL     1       6.478  -0.623  -8.680  1.00  0.00     0.029 A 
ATOM     31  N   UNL     1       5.041  -0.459 -10.324  1.00  0.00    -0.354 N 
ATOM     32  N   UNL     1       2.285   2.888 -10.537  1.00  0.00    -0.248 NA
ATOM     33  C   UNL     1       1.066   0.931 -10.866  1.00  0.00     0.031 C 
ATOM     34  C   UNL     1       6.429   0.726  -9.140  1.00  0.00     0.029 A 
ATOM     35  C   UNL     1       5.320   0.842  -9.979  1.00  0.00     0.049 A 
ATOM     36  H   UNL     1       4.680  -0.776 -11.183  1.00  0.00     0.167 HD
ATOM     37  C   UNL     1       3.189   1.857 -10.725  1.00  0.00     0.074 A 
ATOM     38  C   UNL     1       2.368   0.691 -11.040  1.00  0.00     0.031 C 
ATOM     39  C   UNL     1       4.494   1.977 -10.342  1.00  0.00     0.034 A 
BRANCH  26  40
ATOM     40  C   UNL     1       4.013  -3.397  -9.643  1.00  0.00     0.023 A 
ATOM     41  C   UNL     1       4.817  -3.738 -10.750  1.00  0.00     0.031 A 
ATOM     42  C   UNL     1       2.743  -4.016  -9.595  1.00  0.00     0.131 A 
ATOM     43  C   UNL     1       4.339  -4.597 -11.758  1.00  0.00     0.055 A 
ATOM     44  C   UNL     1       2.300  -4.924 -10.561  1.00  0.00     0.041 A 
ATOM     45  F   UNL     1       1.829  -3.704  -8.668  1.00  0.00    -0.206 F 
ATOM     46  C   UNL     1       3.088  -5.201 -11.665  1.00  0.00     0.022 A 
BRANCH  43  47
ATOM     47  S   UNL     1       5.303  -4.771 -13.284  1.00  0.00     0.124 S 
ATOM     48  O   UNL     1       5.519  -3.378 -13.662  1.00  0.00    -0.237 OA
ATOM     49  O   UNL     1       6.476  -5.502 -12.818  1.00  0.00    -0.237 OA
ATOM     50  O   UNL     1       4.411  -5.523 -14.165  1.00  0.00    -0.744 OA
ENDBRANCH  43  47
ENDBRANCH  26  40
BRANCH  27  51
ATOM     51  C   UNL     1      -1.324   3.057  -9.901  1.00  0.00     0.023 A 
ATOM     52  C   UNL     1      -1.641   3.580 -11.171  1.00  0.00     0.031 A 
ATOM     53  C   UNL     1      -2.404   2.579  -9.124  1.00  0.00     0.131 A 
ATOM     54  C   UNL     1      -2.985   3.620 -11.608  1.00  0.00     0.055 A 
ATOM     55  C   UNL     1      -3.730   2.634  -9.553  1.00  0.00     0.041 A 
ATOM     56  F   UNL     1      -2.195   1.960  -7.951  1.00  0.00    -0.206 F 
ATOM     57  C   UNL     1      -4.026   3.151 -10.803  1.00  0.00     0.022 A 
BRANCH  54  58
ATOM     58  S   UNL     1      -3.388   4.188 -13.291  1.00  0.00     0.124 S 
ATOM     59  O   UNL     1      -3.134   5.621 -13.204  1.00  0.00    -0.237 OA
ATOM     60  O   UNL     1      -2.467   3.413 -14.114  1.00  0.00    -0.237 OA
ATOM     61  O   UNL     1      -4.797   3.822 -13.445  1.00  0.00    -0.744 OA
ENDBRANCH  54  58
ENDBRANCH  27  51
BRANCH  39  62
ATOM     62  C   UNL     1       5.033   3.355 -10.011  1.00  0.00     0.023 A 
ATOM     63  C   UNL     1       4.472   4.224  -9.049  1.00  0.00     0.031 A 
ATOM     64  C   UNL     1       6.241   3.748 -10.616  1.00  0.00     0.131 A 
ATOM     65  C   UNL     1       5.109   5.441  -8.738  1.00  0.00     0.055 A 
ATOM     66  C   UNL     1       6.881   4.944 -10.290  1.00  0.00     0.041 A 
ATOM     67  F   UNL     1       6.844   2.952 -11.515  1.00  0.00    -0.206 F 
ATOM     68  C   UNL     1       6.312   5.799  -9.353  1.00  0.00     0.022 A 
BRANCH  65  69
ATOM     69  S   UNL     1       4.374   6.585  -7.526  1.00  0.00     0.124 S 
ATOM     70  O   UNL     1       2.981   6.680  -7.945  1.00  0.00    -0.237 OA
ATOM     71  O   UNL     1       4.617   5.901  -6.258  1.00  0.00    -0.237 OA
ATOM     72  O   UNL     1       5.148   7.814  -7.707  1.00  0.00    -0.744 OA
ENDBRANCH  65  69
ENDBRANCH  39  62
ENDBRANCH  13  14
ENDBRANCH   6   8
ENDBRANCH   3   4
ENDBRANCH   2   3
ENDBRANCH   1   2
BRANCH   1  73
ATOM     73  C   UNL     1       4.682   3.105   2.986  1.00  0.00     0.116 C 
BRANCH  73  74
ATOM     74  N   UNL     1       6.086   2.822   3.208  1.00  0.00    -0.351 N 
ATOM     75  C   UNL     1       6.916   3.268   4.205  1.00  0.00     0.272 C 
ATOM     76  H   UNL     1       6.505   2.223   2.548  1.00  0.00     0.163 HD
ATOM     77  O   UNL     1       8.058   2.819   4.242  1.00  0.00    -0.267 OA
BRANCH  75  78
ATOM     78  C   UNL     1       6.434   4.300   5.128  1.00  0.00     0.153 A 
ATOM     79  N   UNL     1       5.504   4.025   6.064  1.00  0.00    -0.162 NA
ATOM     80  C   UNL     1       6.850   5.662   5.195  1.00  0.00     0.004 A 
ATOM     81  N   UNL     1       5.177   5.228   6.591  1.00  0.00    -0.237 N 
ATOM     82  C   UNL     1       5.975   6.230   6.100  1.00  0.00     0.119 A 
BRANCH  80  83
ATOM     83  C   UNL     1       7.889   6.387   4.399  1.00  0.00     0.042 C 
BRANCH  83  84
ATOM     84  C   UNL     1       9.334   6.209   4.883  1.00  0.00     0.033 C 
BRANCH  84  85
ATOM     85  C   UNL     1      10.090   5.009   4.324  1.00  0.00     0.156 C 
BRANCH  85  86
ATOM     86  O   UNL     1       9.839   4.843   2.938  1.00  0.00    -0.396 OA
ATOM     87  H   UNL     1       8.892   4.690   2.797  1.00  0.00     0.210 HD
ENDBRANCH  85  86
ENDBRANCH  84  85
ENDBRANCH  83  84
ENDBRANCH  80  83
BRANCH  81  88
ATOM     88  C   UNL     1       4.133   5.338   7.538  1.00  0.00     0.100 A 
ATOM     89  C   UNL     1       3.863   4.261   8.395  1.00  0.00     0.032 A 
ATOM     90  C   UNL     1       3.361   6.497   7.624  1.00  0.00     0.149 A 
ATOM     91  C   UNL     1       2.847   4.369   9.349  1.00  0.00     0.018 A 
ATOM     92  C   UNL     1       2.317   6.589   8.543  1.00  0.00     0.057 A 
ATOM     93  F   UNL     1       3.546   7.524   6.783  1.00  0.00    -0.205 F 
ATOM     94  C   UNL     1       2.073   5.528   9.411  1.00  0.00     0.021 A 
ATOM     95  Br  UNL     1       0.677   5.656  10.679  1.00  0.00    -0.051 Br
ENDBRANCH  81  88
ENDBRANCH  75  78
ENDBRANCH  73  74
ENDBRANCH   1  73
TORSDOF 19
