REMARK SMILES C[NH+]1CCN(c2nc3c(cc2F)c(=O)c(C(=O)NCCCCNC(=O)c2ccc(-c4c5nc(c(-c6cc(S(=O)(=O)[O-])ccc6F)c6ccc([nH]6)c(-c6cc(S(=O)(=O)[O-])ccc6F)c6nc(c(-c7cc(S(=O)(=O)[O-])ccc7F)c7ccc4[nH]7)C=C6)C=C5)cc2)cn3-c2ccc(F)cc2F)CC1
REMARK SMILES IDX 21 1 20 2 19 3 18 4 16 5 17 6 15 8 6 9 7 10 11 11 8 12 10 13
REMARK SMILES IDX 12 14 9 15 90 16 13 17 89 18 14 19 5 20 1 21 2 22 3 23
REMARK SMILES IDX 100 24 4 26 99 27 91 28 92 29 97 30 93 31 96 32 98 33 94 34
REMARK SMILES IDX 95 35 22 36 23 37 24 38 25 40 26 41 27 42 88 43 28 44 87 45
REMARK SMILES IDX 29 46 30 47 31 48 81 49 32 50 86 51 80 52 82 53 33 54 85 55
REMARK SMILES IDX 79 56 78 57 34 59 66 60 46 61 65 62 47 63 50 64 64 65 83 66
REMARK SMILES IDX 48 67 49 68 63 70 84 71 51 72 35 73 36 74 44 75 37 76 43 77
REMARK SMILES IDX 45 78 42 79 38 80 39 81 40 82 41 83 67 84 68 85 76 86 69 87
REMARK SMILES IDX 75 88 77 89 74 90 70 91 71 92 72 93 73 94 52 95 53 96 61 97
REMARK SMILES IDX 54 98 60 99 62 100 59 101 55 102 56 103 57 104 58 105
REMARK H PARENT 18 7 2 25 23 39 82 58 50 69
REMARK Flexibility Score: inf
ROOT
ATOM      1  C   UNL     1      -9.359  -0.096   6.907  1.00  0.00     0.023 C 
ENDROOT
BRANCH   1   2
ATOM      2  C   UNL     1      -8.335  -0.226   5.784  1.00  0.00     0.023 C 
BRANCH   2   3
ATOM      3  C   UNL     1      -8.854  -0.902   4.512  1.00  0.00     0.116 C 
BRANCH   3   4
ATOM      4  N   UNL     1      -9.507   0.054   3.640  1.00  0.00    -0.352 N 
ATOM      5  C   UNL     1      -9.047   0.803   2.604  1.00  0.00     0.256 C 
ATOM      6  O   UNL     1      -9.878   1.518   2.034  1.00  0.00    -0.269 OA
ATOM      7  H   UNL     1     -10.463   0.185   3.835  1.00  0.00     0.163 HD
BRANCH   5   8
ATOM      8  C   UNL     1      -7.648   0.743   2.092  1.00  0.00     0.104 A 
ATOM      9  C   UNL     1      -2.876  -0.126   0.558  1.00  0.00     0.167 A 
ATOM     10  N   UNL     1      -3.931   0.536   0.020  1.00  0.00    -0.209 NA
ATOM     11  C   UNL     1      -2.971  -0.731   1.815  1.00  0.00     0.166 A 
ATOM     12  C   UNL     1      -5.105   0.605   0.701  1.00  0.00     0.151 A 
ATOM     13  C   UNL     1      -4.131  -0.609   2.551  1.00  0.00     0.059 A 
ATOM     14  F   UNL     1      -1.925  -1.373   2.358  1.00  0.00    -0.203 F 
ATOM     15  C   UNL     1      -5.204   0.079   1.987  1.00  0.00     0.069 A 
ATOM     16  N   UNL     1      -6.259   1.225   0.121  1.00  0.00    -0.297 N 
ATOM     17  C   UNL     1      -6.413   0.317   2.785  1.00  0.00     0.203 A 
ATOM     18  C   UNL     1      -7.454   1.196   0.839  1.00  0.00     0.111 A 
ATOM     19  O   UNL     1      -6.302   0.198   3.997  1.00  0.00    -0.288 OA
BRANCH   9  20
ATOM     20  N   UNL     1      -1.713  -0.144  -0.166  1.00  0.00    -0.343 N 
ATOM     21  C   UNL     1       2.511   0.134   0.137  1.00  0.00     0.332 C 
ATOM     22  N   UNL     1       1.160   0.017  -0.407  1.00  0.00    -0.334 N 
ATOM     23  C   UNL     1       0.343   1.204  -0.052  1.00  0.00     0.283 C 
ATOM     24  C   UNL     1       0.499  -1.204   0.114  1.00  0.00     0.283 C 
ATOM     25  H   UNL     1       1.236  -0.042  -1.422  1.00  0.00     0.347 HD
ATOM     26  C   UNL     1      -1.111   1.117  -0.585  1.00  0.00     0.179 C 
ATOM     27  C   UNL     1      -0.947  -1.361  -0.401  1.00  0.00     0.179 C 
ENDBRANCH   9  20
BRANCH  16  28
ATOM     28  C   UNL     1      -6.241   1.806  -1.184  1.00  0.00     0.083 A 
ATOM     29  C   UNL     1      -5.824   1.060  -2.300  1.00  0.00     0.033 A 
ATOM     30  C   UNL     1      -6.649   3.136  -1.395  1.00  0.00     0.150 A 
ATOM     31  C   UNL     1      -5.823   1.628  -3.576  1.00  0.00     0.041 A 
ATOM     32  C   UNL     1      -6.639   3.712  -2.661  1.00  0.00     0.080 A 
ATOM     33  F   UNL     1      -7.034   3.893  -0.357  1.00  0.00    -0.205 F 
ATOM     34  C   UNL     1      -6.226   2.948  -3.742  1.00  0.00     0.126 A 
ATOM     35  F   UNL     1      -6.213   3.491  -4.967  1.00  0.00    -0.207 F 
ENDBRANCH  16  28
ENDBRANCH   5   8
ENDBRANCH   3   4
ENDBRANCH   2   3
ENDBRANCH   1   2
BRANCH   1  36
ATOM     36  C   UNL     1      -9.832  -1.419   7.490  1.00  0.00     0.116 C 
BRANCH  36  37
ATOM     37  N   UNL     1      -8.753  -2.237   8.028  1.00  0.00    -0.352 N 
ATOM     38  C   UNL     1      -8.806  -3.076   9.116  1.00  0.00     0.251 C 
ATOM     39  H   UNL     1      -7.888  -2.184   7.560  1.00  0.00     0.163 HD
ATOM     40  O   UNL     1      -7.809  -3.665   9.516  1.00  0.00    -0.269 OA
BRANCH  38  41
ATOM     41  C   UNL     1     -10.096  -3.213   9.815  1.00  0.00     0.039 A 
ATOM     42  C   UNL     1     -10.182  -2.826  11.154  1.00  0.00     0.014 A 
ATOM     43  C   UNL     1     -11.231  -3.612   9.104  1.00  0.00     0.014 A 
ATOM     44  C   UNL     1     -11.432  -2.784  11.771  1.00  0.00     0.010 A 
ATOM     45  C   UNL     1     -12.480  -3.514   9.704  1.00  0.00     0.010 A 
ATOM     46  C   UNL     1     -12.588  -3.103  11.041  1.00  0.00    -0.014 A 
BRANCH  46  47
ATOM     47  C   UNL     1     -13.928  -3.034  11.667  1.00  0.00     0.031 A 
ATOM     48  C   UNL     1     -14.679  -4.305  11.938  1.00  0.00     0.074 A 
ATOM     49  C   UNL     1     -14.488  -1.837  11.926  1.00  0.00     0.049 A 
ATOM     50  N   UNL     1     -15.864  -4.463  12.463  1.00  0.00    -0.248 NA
ATOM     51  C   UNL     1     -14.021  -5.562  11.546  1.00  0.00     0.031 C 
ATOM     52  C   UNL     1     -13.866  -0.539  11.657  1.00  0.00     0.029 A 
ATOM     53  N   UNL     1     -15.709  -1.516  12.464  1.00  0.00    -0.354 N 
ATOM     54  C   UNL     1     -16.100  -5.831  12.452  1.00  0.00     0.074 A 
ATOM     55  C   UNL     1     -14.959  -6.456  11.824  1.00  0.00     0.031 C 
ATOM     56  C   UNL     1     -14.701   0.436  12.051  1.00  0.00     0.029 A 
ATOM     57  C   UNL     1     -15.925  -0.163  12.577  1.00  0.00     0.049 A 
ATOM     58  H   UNL     1     -16.368  -2.192  12.743  1.00  0.00     0.167 HD
ATOM     59  C   UNL     1     -17.163  -6.505  12.946  1.00  0.00     0.034 A 
ATOM     60  C   UNL     1     -16.988   0.513  13.059  1.00  0.00     0.034 A 
ATOM     61  C   UNL     1     -18.274  -5.873  13.602  1.00  0.00     0.049 A 
ATOM     62  C   UNL     1     -18.160  -0.263  13.606  1.00  0.00     0.074 A 
ATOM     63  C   UNL     1     -19.351  -6.473  14.227  1.00  0.00     0.029 A 
ATOM     64  N   UNL     1     -18.454  -4.502  13.714  1.00  0.00    -0.354 N 
ATOM     65  N   UNL     1     -18.311  -1.562  13.709  1.00  0.00    -0.248 NA
ATOM     66  C   UNL     1     -19.302   0.514  14.109  1.00  0.00     0.031 C 
ATOM     67  C   UNL     1     -20.206  -5.466  14.679  1.00  0.00     0.029 A 
ATOM     68  C   UNL     1     -19.640  -4.237  14.374  1.00  0.00     0.049 A 
ATOM     69  H   UNL     1     -17.830  -3.820  13.376  1.00  0.00     0.167 HD
ATOM     70  C   UNL     1     -19.546  -1.757  14.321  1.00  0.00     0.074 A 
ATOM     71  C   UNL     1     -20.098  -0.442  14.571  1.00  0.00     0.031 C 
ATOM     72  C   UNL     1     -20.164  -2.920  14.646  1.00  0.00     0.034 A 
BRANCH  59  73
ATOM     73  C   UNL     1     -17.173  -8.004  12.826  1.00  0.00     0.023 A 
ATOM     74  C   UNL     1     -18.129  -8.639  12.013  1.00  0.00     0.031 A 
ATOM     75  C   UNL     1     -16.296  -8.804  13.580  1.00  0.00     0.131 A 
ATOM     76  C   UNL     1     -18.194 -10.036  11.984  1.00  0.00     0.055 A 
ATOM     77  C   UNL     1     -16.346 -10.196  13.525  1.00  0.00     0.041 A 
ATOM     78  F   UNL     1     -15.364  -8.239  14.365  1.00  0.00    -0.206 F 
ATOM     79  C   UNL     1     -17.303 -10.818  12.729  1.00  0.00     0.022 A 
BRANCH  76  80
ATOM     80  S   UNL     1     -19.448 -10.896  10.998  1.00  0.00     0.124 S 
ATOM     81  O   UNL     1     -18.628 -11.776  10.168  1.00  0.00    -0.237 OA
ATOM     82  O   UNL     1     -20.238 -11.565  12.027  1.00  0.00    -0.237 OA
ATOM     83  O   UNL     1     -20.125  -9.822  10.278  1.00  0.00    -0.744 OA
ENDBRANCH  76  80
ENDBRANCH  59  73
BRANCH  60  84
ATOM     84  C   UNL     1     -16.946   2.002  13.124  1.00  0.00     0.023 A 
ATOM     85  C   UNL     1     -16.923   2.788  11.959  1.00  0.00     0.031 A 
ATOM     86  C   UNL     1     -16.860   2.653  14.366  1.00  0.00     0.131 A 
ATOM     87  C   UNL     1     -16.778   4.179  12.063  1.00  0.00     0.055 A 
ATOM     88  C   UNL     1     -16.766   4.042  14.466  1.00  0.00     0.041 A 
ATOM     89  F   UNL     1     -16.868   1.940  15.503  1.00  0.00    -0.206 F 
ATOM     90  C   UNL     1     -16.715   4.811  13.309  1.00  0.00     0.022 A 
BRANCH  87  91
ATOM     91  S   UNL     1     -16.587   5.211  10.583  1.00  0.00     0.124 S 
ATOM     92  O   UNL     1     -17.678   6.169  10.736  1.00  0.00    -0.237 OA
ATOM     93  O   UNL     1     -15.243   5.752  10.771  1.00  0.00    -0.237 OA
ATOM     94  O   UNL     1     -16.729   4.264   9.482  1.00  0.00    -0.744 OA
ENDBRANCH  87  91
ENDBRANCH  60  84
BRANCH  72  95
ATOM     95  C   UNL     1     -21.503  -2.857  15.333  1.00  0.00     0.023 A 
ATOM     96  C   UNL     1     -21.634  -3.328  16.653  1.00  0.00     0.031 A 
ATOM     97  C   UNL     1     -22.665  -2.493  14.633  1.00  0.00     0.131 A 
ATOM     98  C   UNL     1     -22.907  -3.465  17.218  1.00  0.00     0.055 A 
ATOM     99  C   UNL     1     -23.928  -2.592  15.217  1.00  0.00     0.041 A 
ATOM    100  F   UNL     1     -22.587  -2.047  13.370  1.00  0.00    -0.206 F 
ATOM    101  C   UNL     1     -24.054  -3.093  16.510  1.00  0.00     0.022 A 
BRANCH  98 102
ATOM    102  S   UNL     1     -23.125  -4.200  18.862  1.00  0.00     0.124 S 
ATOM    103  O   UNL     1     -23.868  -3.157  19.566  1.00  0.00    -0.237 OA
ATOM    104  O   UNL     1     -23.883  -5.410  18.558  1.00  0.00    -0.237 OA
ATOM    105  O   UNL     1     -21.761  -4.415  19.336  1.00  0.00    -0.744 OA
ENDBRANCH  98 102
ENDBRANCH  72  95
ENDBRANCH  46  47
ENDBRANCH  38  41
ENDBRANCH  36  37
ENDBRANCH   1  36
TORSDOF 16
