REMARK SMILES C=C(C)COc1ccc2c(C)c(CC(=O)NCCCCNC(=O)c3ccc(-c4c5nc(c(-c6cc(S(=O)(=O)[O-])ccc6F)c6ccc([nH]6)c(-c6cc(S(=O)(=O)[O-])ccc6F)c6nc(c(-c7cc(S(=O)(=O)[O-])ccc7F)c7ccc4[nH]7)C=C6)C=C5)cc3)c(=O)oc2c1
REMARK SMILES IDX 18 1 17 2 16 3 14 4 15 5 13 7 12 8 6 9 7 10 91 11 8 12 90 13
REMARK SMILES IDX 9 14 89 15 10 16 87 17 11 18 88 19 5 20 4 21 2 22 1 23 3 24
REMARK SMILES IDX 19 25 20 26 21 27 22 28 23 30 24 31 25 32 86 33 26 34 85 35
REMARK SMILES IDX 27 36 28 37 29 38 79 39 30 40 84 41 78 42 80 43 31 44 83 45
REMARK SMILES IDX 77 46 76 47 32 49 64 50 44 51 63 52 45 53 48 54 62 55 81 56
REMARK SMILES IDX 46 57 47 58 61 60 82 61 49 62 33 63 34 64 42 65 35 66 41 67
REMARK SMILES IDX 43 68 40 69 36 70 37 71 38 72 39 73 65 74 66 75 74 76 67 77
REMARK SMILES IDX 73 78 75 79 72 80 68 81 69 82 70 83 71 84 50 85 51 86 59 87
REMARK SMILES IDX 52 88 58 89 60 90 57 91 53 92 54 93 55 94 56 95
REMARK H PARENT 16 6 21 29 80 48 48 59
REMARK Flexibility Score: inf
ROOT
ATOM      1  C   UNL     1       0.673   3.468  -5.649  1.00  0.00     0.023 C 
ENDROOT
BRANCH   1   2
ATOM      2  C   UNL     1      -0.471   3.888  -6.574  1.00  0.00     0.116 C 
BRANCH   2   3
ATOM      3  N   UNL     1      -0.299   3.370  -7.919  1.00  0.00    -0.356 N 
ATOM      4  C   UNL     1      -0.897   2.312  -8.536  1.00  0.00     0.224 C 
ATOM      5  O   UNL     1      -0.569   2.055  -9.697  1.00  0.00    -0.275 OA
ATOM      6  H   UNL     1       0.352   3.860  -8.472  1.00  0.00     0.163 HD
BRANCH   4   7
ATOM      7  C   UNL     1      -1.964   1.484  -7.827  1.00  0.00     0.143 C 
BRANCH   7   8
ATOM      8  C   UNL     1      -1.413   0.696  -6.663  1.00  0.00     0.051 A 
ATOM      9  C   UNL     1       1.250  -1.546  -3.002  1.00  0.00     0.123 A 
ATOM     10  C   UNL     1       1.718  -2.106  -4.187  1.00  0.00     0.047 A 
ATOM     11  C   UNL     1       0.246  -0.589  -3.055  1.00  0.00     0.094 A 
ATOM     12  C   UNL     1       1.159  -1.728  -5.420  1.00  0.00     0.016 A 
ATOM     13  C   UNL     1      -0.315  -0.246  -4.280  1.00  0.00     0.142 A 
ATOM     14  C   UNL     1       0.124  -0.782  -5.485  1.00  0.00     0.021 A 
ATOM     15  O   UNL     1      -1.361   0.680  -4.217  1.00  0.00    -0.422 OA
ATOM     16  C   UNL     1      -0.451  -0.252  -6.738  1.00  0.00    -0.029 A 
ATOM     17  C   UNL     1      -2.027   1.065  -5.359  1.00  0.00     0.340 A 
ATOM     18  C   UNL     1       0.128  -0.754  -8.036  1.00  0.00     0.046 C 
ATOM     19  O   UNL     1      -3.057   1.726  -5.286  1.00  0.00    -0.246 OA
BRANCH   9  20
ATOM     20  O   UNL     1       1.861  -1.906  -1.831  1.00  0.00    -0.489 OA
BRANCH  20  21
ATOM     21  C   UNL     1       0.948  -2.394  -0.833  1.00  0.00     0.260 C 
BRANCH  21  22
ATOM     22  C   UNL     1       0.359  -1.294   0.028  1.00  0.00    -0.043 C 
ATOM     23  C   UNL     1       1.087  -0.264   0.493  1.00  0.00     0.011 C 
ATOM     24  C   UNL     1      -1.123  -1.381   0.266  1.00  0.00     0.042 C 
ENDBRANCH  21  22
ENDBRANCH  20  21
ENDBRANCH   9  20
ENDBRANCH   7   8
ENDBRANCH   4   7
ENDBRANCH   2   3
ENDBRANCH   1   2
BRANCH   1  25
ATOM     25  C   UNL     1       2.041   4.061  -6.002  1.00  0.00     0.023 C 
BRANCH  25  26
ATOM     26  C   UNL     1       2.105   5.584  -6.040  1.00  0.00     0.116 C 
BRANCH  26  27
ATOM     27  N   UNL     1       1.761   6.204  -4.770  1.00  0.00    -0.352 N 
ATOM     28  C   UNL     1       2.317   7.317  -4.182  1.00  0.00     0.251 C 
ATOM     29  H   UNL     1       1.036   5.771  -4.265  1.00  0.00     0.163 HD
ATOM     30  O   UNL     1       1.985   7.638  -3.044  1.00  0.00    -0.269 OA
BRANCH  28  31
ATOM     31  C   UNL     1       3.343   8.095  -4.912  1.00  0.00     0.039 A 
ATOM     32  C   UNL     1       4.530   8.432  -4.255  1.00  0.00     0.014 A 
ATOM     33  C   UNL     1       3.148   8.463  -6.245  1.00  0.00     0.014 A 
ATOM     34  C   UNL     1       5.553   9.073  -4.959  1.00  0.00     0.010 A 
ATOM     35  C   UNL     1       4.192   9.044  -6.961  1.00  0.00     0.010 A 
ATOM     36  C   UNL     1       5.408   9.349  -6.328  1.00  0.00    -0.014 A 
BRANCH  36  37
ATOM     37  C   UNL     1       6.508   9.956  -7.123  1.00  0.00     0.031 A 
ATOM     38  C   UNL     1       6.322  11.315  -7.740  1.00  0.00     0.074 A 
ATOM     39  C   UNL     1       7.633   9.253  -7.360  1.00  0.00     0.049 A 
ATOM     40  N   UNL     1       7.096  11.960  -8.575  1.00  0.00    -0.248 NA
ATOM     41  C   UNL     1       5.083  12.027  -7.395  1.00  0.00     0.031 C 
ATOM     42  C   UNL     1       7.918   7.913  -6.841  1.00  0.00     0.029 A 
ATOM     43  N   UNL     1       8.740   9.559  -8.113  1.00  0.00    -0.354 N 
ATOM     44  C   UNL     1       6.429  13.144  -8.872  1.00  0.00     0.074 A 
ATOM     45  C   UNL     1       5.164  13.098  -8.168  1.00  0.00     0.031 C 
ATOM     46  C   UNL     1       9.124   7.519  -7.282  1.00  0.00     0.029 A 
ATOM     47  C   UNL     1       9.678   8.552  -8.151  1.00  0.00     0.049 A 
ATOM     48  H   UNL     1       8.852  10.417  -8.581  1.00  0.00     0.167 HD
ATOM     49  C   UNL     1       6.841  14.180  -9.645  1.00  0.00     0.034 A 
ATOM     50  C   UNL     1      10.842   8.463  -8.826  1.00  0.00     0.034 A 
ATOM     51  C   UNL     1       8.113  14.216 -10.326  1.00  0.00     0.049 A 
ATOM     52  C   UNL     1      11.271   9.617  -9.698  1.00  0.00     0.074 A 
ATOM     53  C   UNL     1       8.653  15.235 -11.091  1.00  0.00     0.029 A 
ATOM     54  N   UNL     1       9.043  13.184 -10.329  1.00  0.00    -0.354 N 
ATOM     55  N   UNL     1      10.645  10.746  -9.940  1.00  0.00    -0.248 NA
ATOM     56  C   UNL     1      12.566   9.489 -10.380  1.00  0.00     0.031 C 
ATOM     57  C   UNL     1       9.879  14.798 -11.604  1.00  0.00     0.029 A 
ATOM     58  C   UNL     1      10.139  13.533 -11.102  1.00  0.00     0.049 A 
ATOM     59  H   UNL     1       8.938  12.329  -9.852  1.00  0.00     0.167 HD
ATOM     60  C   UNL     1      11.488  11.475 -10.774  1.00  0.00     0.074 A 
ATOM     61  C   UNL     1      12.667  10.661 -10.989  1.00  0.00     0.031 C 
ATOM     62  C   UNL     1      11.308  12.710 -11.308  1.00  0.00     0.034 A 
BRANCH  49  63
ATOM     63  C   UNL     1       5.891  15.341  -9.811  1.00  0.00     0.023 A 
ATOM     64  C   UNL     1       5.490  16.129  -8.717  1.00  0.00     0.031 A 
ATOM     65  C   UNL     1       5.352  15.647 -11.073  1.00  0.00     0.131 A 
ATOM     66  C   UNL     1       4.518  17.125  -8.890  1.00  0.00     0.055 A 
ATOM     67  C   UNL     1       4.448  16.696 -11.254  1.00  0.00     0.041 A 
ATOM     68  F   UNL     1       5.682  14.919 -12.152  1.00  0.00    -0.206 F 
ATOM     69  C   UNL     1       4.013  17.431 -10.156  1.00  0.00     0.022 A 
BRANCH  66  70
ATOM     70  S   UNL     1       3.814  17.911  -7.415  1.00  0.00     0.124 S 
ATOM     71  O   UNL     1       3.261  16.761  -6.705  1.00  0.00    -0.237 OA
ATOM     72  O   UNL     1       4.981  18.538  -6.805  1.00  0.00    -0.237 OA
ATOM     73  O   UNL     1       2.821  18.835  -7.959  1.00  0.00    -0.744 OA
ENDBRANCH  66  70
ENDBRANCH  49  63
BRANCH  50  74
ATOM     74  C   UNL     1      11.683   7.237  -8.724  1.00  0.00     0.023 A 
ATOM     75  C   UNL     1      12.956   7.281  -8.134  1.00  0.00     0.031 A 
ATOM     76  C   UNL     1      11.242   6.010  -9.251  1.00  0.00     0.131 A 
ATOM     77  C   UNL     1      13.763   6.133  -8.126  1.00  0.00     0.055 A 
ATOM     78  C   UNL     1      12.029   4.858  -9.195  1.00  0.00     0.041 A 
ATOM     79  F   UNL     1      10.030   5.911  -9.820  1.00  0.00    -0.206 F 
ATOM     80  C   UNL     1      13.304   4.919  -8.642  1.00  0.00     0.022 A 
BRANCH  77  81
ATOM     81  S   UNL     1      15.461   6.271  -7.503  1.00  0.00     0.124 S 
ATOM     82  O   UNL     1      16.016   7.299  -8.375  1.00  0.00    -0.237 OA
ATOM     83  O   UNL     1      15.242   6.657  -6.113  1.00  0.00    -0.237 OA
ATOM     84  O   UNL     1      16.004   4.928  -7.696  1.00  0.00    -0.744 OA
ENDBRANCH  77  81
ENDBRANCH  50  74
BRANCH  62  85
ATOM     85  C   UNL     1      12.440  13.278 -12.126  1.00  0.00     0.023 A 
ATOM     86  C   UNL     1      12.787  12.752 -13.382  1.00  0.00     0.031 A 
ATOM     87  C   UNL     1      13.180  14.369 -11.635  1.00  0.00     0.131 A 
ATOM     88  C   UNL     1      13.874  13.292 -14.087  1.00  0.00     0.055 A 
ATOM     89  C   UNL     1      14.226  14.935 -12.364  1.00  0.00     0.041 A 
ATOM     90  F   UNL     1      12.890  14.908 -10.440  1.00  0.00    -0.206 F 
ATOM     91  C   UNL     1      14.584  14.390 -13.594  1.00  0.00     0.022 A 
BRANCH  88  92
ATOM     92  S   UNL     1      14.393  12.498 -15.633  1.00  0.00     0.124 S 
ATOM     93  O   UNL     1      14.734  11.152 -15.183  1.00  0.00    -0.237 OA
ATOM     94  O   UNL     1      13.197  12.609 -16.460  1.00  0.00    -0.237 OA
ATOM     95  O   UNL     1      15.527  13.310 -16.073  1.00  0.00    -0.744 OA
ENDBRANCH  88  92
ENDBRANCH  62  85
ENDBRANCH  36  37
ENDBRANCH  28  31
ENDBRANCH  26  27
ENDBRANCH  25  26
ENDBRANCH   1  25
TORSDOF 18
