REMARK SMILES CC1=C2C(=O)N(C[C@H]3CCCO3)C(=O)N=C2S[C@@H]1C(=O)NCCCCNC(=O)c1ccc(-c2c3nc(c(-c4cc(S(=O)(=O)[O-])ccc4F)c4ccc([nH]4)c(-c4cc(S(=O)(=O)[O-])ccc4F)c4nc(c(-c5cc(S(=O)(=O)[O-])ccc5F)c5ccc2[nH]5)C=C4)C=C3)cc1
REMARK SMILES IDX 24 1 23 2 22 3 21 4 19 5 20 6 18 8 1 9 2 10 3 11 4 12 16 13
REMARK SMILES IDX 17 14 5 15 6 16 15 17 13 18 14 19 7 20 8 21 9 22 12 23 10 24
REMARK SMILES IDX 11 25 25 26 26 27 27 28 28 30 29 31 30 32 91 33 31 34 90 35
REMARK SMILES IDX 32 36 33 37 34 38 84 39 35 40 89 41 83 42 85 43 36 44 88 45
REMARK SMILES IDX 82 46 81 47 37 49 69 50 49 51 68 52 50 53 53 54 67 55 86 56
REMARK SMILES IDX 51 57 52 58 66 60 87 61 54 62 38 63 39 64 47 65 40 66 46 67
REMARK SMILES IDX 48 68 45 69 41 70 42 71 43 72 44 73 70 74 71 75 79 76 72 77
REMARK SMILES IDX 78 78 80 79 77 80 73 81 74 82 75 83 76 84 55 85 56 86 64 87
REMARK SMILES IDX 57 88 63 89 65 90 62 91 58 92 59 93 60 94 61 95
REMARK H PARENT 21 7 26 29 85 48 53 59
REMARK Flexibility Score: inf
ROOT
ATOM      1  C   UNL     1      -7.936  -1.238   4.261  1.00  0.00     0.023 C 
ENDROOT
BRANCH   1   2
ATOM      2  C   UNL     1      -7.219  -2.394   3.564  1.00  0.00     0.023 C 
BRANCH   2   3
ATOM      3  C   UNL     1      -5.764  -2.567   3.982  1.00  0.00     0.116 C 
BRANCH   3   4
ATOM      4  N   UNL     1      -5.647  -3.150   5.306  1.00  0.00    -0.355 N 
ATOM      5  C   UNL     1      -5.235  -4.385   5.710  1.00  0.00     0.237 C 
ATOM      6  O   UNL     1      -5.243  -4.614   6.925  1.00  0.00    -0.273 OA
ATOM      7  H   UNL     1      -5.911  -2.549   6.039  1.00  0.00     0.163 HD
BRANCH   5   8
ATOM      8  C   UNL     1      -4.712  -5.454   4.740  1.00  0.00     0.169 C 
ATOM      9  C   UNL     1      -2.331  -4.486   4.561  1.00  0.00     0.042 C 
ATOM     10  C   UNL     1      -3.559  -5.008   3.884  1.00  0.00    -0.035 C 
ATOM     11  C   UNL     1      -3.740  -5.145   2.562  1.00  0.00     0.073 C 
ATOM     12  C   UNL     1      -2.882  -4.748   1.453  1.00  0.00     0.264 C 
ATOM     13  C   UNL     1      -4.997  -5.770   2.200  1.00  0.00     0.116 C 
ATOM     14  S   UNL     1      -6.009  -6.029   3.590  1.00  0.00    -0.087 SA
ATOM     15  O   UNL     1      -2.115  -3.802   1.558  1.00  0.00    -0.268 OA
ATOM     16  N   UNL     1      -3.115  -5.489   0.319  1.00  0.00    -0.256 N 
ATOM     17  N   UNL     1      -5.334  -6.103   1.011  1.00  0.00    -0.186 NA
ATOM     18  C   UNL     1      -4.398  -5.968   0.009  1.00  0.00     0.351 C 
ATOM     19  O   UNL     1      -4.687  -6.298  -1.139  1.00  0.00    -0.246 OA
BRANCH  16  20
ATOM     20  C   UNL     1      -2.015  -5.846  -0.578  1.00  0.00     0.163 C 
BRANCH  20  21
ATOM     21  C   UNL     1      -0.902  -4.832  -0.916  1.00  0.00     0.138 C 
ATOM     22  C   UNL     1       0.197  -4.622   0.120  1.00  0.00     0.036 C 
ATOM     23  O   UNL     1      -0.183  -5.391  -2.053  1.00  0.00    -0.376 OA
ATOM     24  C   UNL     1       1.125  -5.783  -0.106  1.00  0.00     0.031 C 
ATOM     25  C   UNL     1       1.063  -5.950  -1.604  1.00  0.00     0.160 C 
ENDBRANCH  20  21
ENDBRANCH  16  20
ENDBRANCH   5   8
ENDBRANCH   3   4
ENDBRANCH   2   3
ENDBRANCH   1   2
BRANCH   1  26
ATOM     26  C   UNL     1      -7.281   0.128   4.089  1.00  0.00     0.116 C 
BRANCH  26  27
ATOM     27  N   UNL     1      -7.093   0.507   2.696  1.00  0.00    -0.352 N 
ATOM     28  C   UNL     1      -7.215   1.754   2.129  1.00  0.00     0.251 C 
ATOM     29  H   UNL     1      -6.846  -0.222   2.083  1.00  0.00     0.163 HD
ATOM     30  O   UNL     1      -7.130   1.888   0.913  1.00  0.00    -0.269 OA
BRANCH  28  31
ATOM     31  C   UNL     1      -7.495   2.913   3.000  1.00  0.00     0.039 A 
ATOM     32  C   UNL     1      -8.569   3.748   2.688  1.00  0.00     0.014 A 
ATOM     33  C   UNL     1      -6.734   3.135   4.151  1.00  0.00     0.014 A 
ATOM     34  C   UNL     1      -8.929   4.766   3.574  1.00  0.00     0.010 A 
ATOM     35  C   UNL     1      -7.134   4.104   5.064  1.00  0.00     0.010 A 
ATOM     36  C   UNL     1      -8.238   4.926   4.786  1.00  0.00    -0.014 A 
BRANCH  36  37
ATOM     37  C   UNL     1      -8.652   5.947   5.779  1.00  0.00     0.031 A 
ATOM     38  C   UNL     1      -7.734   7.090   6.107  1.00  0.00     0.074 A 
ATOM     39  C   UNL     1      -9.817   5.803   6.439  1.00  0.00     0.049 A 
ATOM     40  N   UNL     1      -7.871   8.037   6.999  1.00  0.00    -0.248 NA
ATOM     41  C   UNL     1      -6.475   7.150   5.351  1.00  0.00     0.031 C 
ATOM     42  C   UNL     1     -10.773   4.712   6.239  1.00  0.00     0.029 A 
ATOM     43  N   UNL     1     -10.392   6.574   7.416  1.00  0.00    -0.354 N 
ATOM     44  C   UNL     1      -6.711   8.800   6.921  1.00  0.00     0.074 A 
ATOM     45  C   UNL     1      -5.855   8.156   5.946  1.00  0.00     0.031 C 
ATOM     46  C   UNL     1     -11.829   4.901   7.047  1.00  0.00     0.029 A 
ATOM     47  C   UNL     1     -11.608   6.100   7.848  1.00  0.00     0.049 A 
ATOM     48  H   UNL     1      -9.973   7.390   7.775  1.00  0.00     0.167 HD
ATOM     49  C   UNL     1      -6.400   9.944   7.581  1.00  0.00     0.034 A 
ATOM     50  C   UNL     1     -12.447   6.578   8.787  1.00  0.00     0.034 A 
ATOM     51  C   UNL     1      -7.270  10.573   8.546  1.00  0.00     0.049 A 
ATOM     52  C   UNL     1     -12.072   7.831   9.532  1.00  0.00     0.074 A 
ATOM     53  C   UNL     1      -7.086  11.761   9.233  1.00  0.00     0.029 A 
ATOM     54  N   UNL     1      -8.489  10.057   8.969  1.00  0.00    -0.354 N 
ATOM     55  N   UNL     1     -10.992   8.567   9.419  1.00  0.00    -0.248 NA
ATOM     56  C   UNL     1     -13.035   8.317  10.528  1.00  0.00     0.031 C 
ATOM     57  C   UNL     1      -8.164  11.932  10.112  1.00  0.00     0.029 A 
ATOM     58  C   UNL     1      -9.053  10.886   9.928  1.00  0.00     0.049 A 
ATOM     59  H   UNL     1      -8.894   9.224   8.636  1.00  0.00     0.167 HD
ATOM     60  C   UNL     1     -11.158   9.621  10.312  1.00  0.00     0.074 A 
ATOM     61  C   UNL     1     -12.444   9.425  10.950  1.00  0.00     0.031 C 
ATOM     62  C   UNL     1     -10.326  10.663  10.573  1.00  0.00     0.034 A 
BRANCH  49  63
ATOM     63  C   UNL     1      -5.050  10.555   7.287  1.00  0.00     0.023 A 
ATOM     64  C   UNL     1      -4.702  10.979   5.990  1.00  0.00     0.031 A 
ATOM     65  C   UNL     1      -4.068  10.642   8.289  1.00  0.00     0.131 A 
ATOM     66  C   UNL     1      -3.383  11.359   5.706  1.00  0.00     0.055 A 
ATOM     67  C   UNL     1      -2.781  11.114   8.020  1.00  0.00     0.041 A 
ATOM     68  F   UNL     1      -4.331  10.237   9.541  1.00  0.00    -0.206 F 
ATOM     69  C   UNL     1      -2.425  11.453   6.717  1.00  0.00     0.022 A 
BRANCH  66  70
ATOM     70  S   UNL     1      -2.893  11.535   3.968  1.00  0.00     0.124 S 
ATOM     71  O   UNL     1      -3.247  10.224   3.428  1.00  0.00    -0.237 OA
ATOM     72  O   UNL     1      -3.714  12.654   3.522  1.00  0.00    -0.237 OA
ATOM     73  O   UNL     1      -1.458  11.802   4.042  1.00  0.00    -0.744 OA
ENDBRANCH  66  70
ENDBRANCH  49  63
BRANCH  50  74
ATOM     74  C   UNL     1     -13.730   5.879   9.068  1.00  0.00     0.023 A 
ATOM     75  C   UNL     1     -14.955   6.460   8.708  1.00  0.00     0.031 A 
ATOM     76  C   UNL     1     -13.750   4.628   9.709  1.00  0.00     0.131 A 
ATOM     77  C   UNL     1     -16.156   5.804   9.017  1.00  0.00     0.055 A 
ATOM     78  C   UNL     1     -14.946   3.962   9.981  1.00  0.00     0.041 A 
ATOM     79  F   UNL     1     -12.602   4.028  10.061  1.00  0.00    -0.206 F 
ATOM     80  C   UNL     1     -16.159   4.555   9.642  1.00  0.00     0.022 A 
BRANCH  77  81
ATOM     81  S   UNL     1     -17.722   6.629   8.622  1.00  0.00     0.124 S 
ATOM     82  O   UNL     1     -17.642   7.829   9.447  1.00  0.00    -0.237 OA
ATOM     83  O   UNL     1     -17.604   6.831   7.182  1.00  0.00    -0.237 OA
ATOM     84  O   UNL     1     -18.731   5.655   9.031  1.00  0.00    -0.744 OA
ENDBRANCH  77  81
ENDBRANCH  50  74
BRANCH  62  85
ATOM     85  C   UNL     1     -10.813  11.684  11.569  1.00  0.00     0.023 A 
ATOM     86  C   UNL     1     -10.934  11.382  12.937  1.00  0.00     0.031 A 
ATOM     87  C   UNL     1     -11.184  12.970  11.137  1.00  0.00     0.131 A 
ATOM     88  C   UNL     1     -11.461  12.339  13.818  1.00  0.00     0.055 A 
ATOM     89  C   UNL     1     -11.659  13.934  12.027  1.00  0.00     0.041 A 
ATOM     90  F   UNL     1     -11.090  13.307   9.841  1.00  0.00    -0.206 F 
ATOM     91  C   UNL     1     -11.811  13.617  13.374  1.00  0.00     0.022 A 
BRANCH  88  92
ATOM     92  S   UNL     1     -11.762  11.864  15.543  1.00  0.00     0.124 S 
ATOM     93  O   UNL     1     -12.697  10.754  15.394  1.00  0.00    -0.237 OA
ATOM     94  O   UNL     1     -10.424  11.512  16.008  1.00  0.00    -0.237 OA
ATOM     95  O   UNL     1     -12.326  13.074  16.139  1.00  0.00    -0.744 OA
ENDBRANCH  88  92
ENDBRANCH  62  85
ENDBRANCH  36  37
ENDBRANCH  28  31
ENDBRANCH  26  27
ENDBRANCH   1  26
TORSDOF 16
