REMARK SMILES C[C@@H]1[C@@H](C(=O)NCCCCNC(=O)c2ccc(-c3c4nc(c(-c5cc(S(=O)(=O)[O-])ccc5F)c5ccc([nH]5)c(-c5cc(S(=O)(=O)[O-])ccc5F)c5nc(c(-c6cc(S(=O)(=O)[O-])ccc6F)c6ccc3[nH]6)C=C5)C=C4)cc2)CCN1C(=O)CCCC1CCCCC1
REMARK SMILES IDX 7 1 6 2 4 3 5 4 3 6 1 7 2 8 79 9 77 10 78 11 80 12 81 13
REMARK SMILES IDX 82 14 83 15 84 16 85 17 86 18 90 19 87 20 89 21 88 22 8 23
REMARK SMILES IDX 9 24 10 25 11 26 12 27 13 29 14 30 15 31 76 32 16 33 75 34
REMARK SMILES IDX 17 35 18 36 19 37 69 38 20 39 74 40 68 41 70 42 21 43 73 44
REMARK SMILES IDX 67 45 66 46 22 48 54 49 34 50 53 51 35 52 38 53 52 54 71 55
REMARK SMILES IDX 36 56 37 57 51 59 72 60 39 61 23 62 24 63 32 64 25 65 31 66
REMARK SMILES IDX 33 67 30 68 26 69 27 70 28 71 29 72 55 73 56 74 64 75 57 76
REMARK SMILES IDX 63 77 65 78 62 79 58 80 59 81 60 82 61 83 40 84 41 85 49 86
REMARK SMILES IDX 42 87 48 88 50 89 47 90 43 91 44 92 45 93 46 94
REMARK H PARENT 6 5 11 28 70 47 38 58
REMARK Flexibility Score: inf
ROOT
ATOM      1  C   UNL     1      -2.666   3.090  -0.689  1.00  0.00     0.116 C 
ENDROOT
BRANCH   1   2
ATOM      2  N   UNL     1      -1.907   2.301  -1.635  1.00  0.00    -0.356 N 
ATOM      3  C   UNL     1      -1.104   1.226  -1.378  1.00  0.00     0.225 C 
ATOM      4  O   UNL     1      -0.571   0.663  -2.331  1.00  0.00    -0.275 OA
ATOM      5  H   UNL     1      -1.977   2.571  -2.579  1.00  0.00     0.163 HD
BRANCH   3   6
ATOM      6  C   UNL     1      -0.886   0.811   0.075  1.00  0.00     0.102 C 
ATOM      7  C   UNL     1       0.750  -0.316   1.624  1.00  0.00     0.032 C 
ATOM      8  C   UNL     1       0.133  -0.328   0.222  1.00  0.00     0.094 C 
ATOM      9  N   UNL     1      -0.654  -1.527  -0.025  1.00  0.00    -0.339 N 
ATOM     10  C   UNL     1      -2.143   0.185   0.683  1.00  0.00     0.037 C 
ATOM     11  C   UNL     1      -2.055  -1.283   0.277  1.00  0.00     0.120 C 
BRANCH   9  12
ATOM     12  C   UNL     1      -0.298  -2.652  -0.741  1.00  0.00     0.222 C 
ATOM     13  O   UNL     1      -1.149  -3.481  -1.081  1.00  0.00    -0.275 OA
BRANCH  12  14
ATOM     14  C   UNL     1       1.174  -2.954  -1.003  1.00  0.00     0.100 C 
BRANCH  14  15
ATOM     15  C   UNL     1       1.847  -2.438  -2.285  1.00  0.00     0.010 C 
BRANCH  15  16
ATOM     16  C   UNL     1       2.469  -1.030  -2.378  1.00  0.00     0.004 C 
BRANCH  16  17
ATOM     17  C   UNL     1       3.645  -0.581  -1.457  1.00  0.00    -0.011 C 
ATOM     18  C   UNL     1       3.499   0.925  -1.126  1.00  0.00     0.003 C 
ATOM     19  C   UNL     1       3.857  -1.414  -0.194  1.00  0.00     0.003 C 
ATOM     20  C   UNL     1       4.500   1.454  -0.099  1.00  0.00     0.000 C 
ATOM     21  C   UNL     1       4.933  -0.868   0.734  1.00  0.00     0.000 C 
ATOM     22  C   UNL     1       4.611   0.565   1.132  1.00  0.00     0.000 C 
ENDBRANCH  16  17
ENDBRANCH  15  16
ENDBRANCH  14  15
ENDBRANCH  12  14
ENDBRANCH   9  12
ENDBRANCH   3   6
ENDBRANCH   1   2
BRANCH   1  23
ATOM     23  C   UNL     1      -2.915   4.515  -1.164  1.00  0.00     0.023 C 
BRANCH  23  24
ATOM     24  C   UNL     1      -3.740   4.639  -2.444  1.00  0.00     0.023 C 
BRANCH  24  25
ATOM     25  C   UNL     1      -5.011   3.798  -2.492  1.00  0.00     0.116 C 
BRANCH  25  26
ATOM     26  N   UNL     1      -5.907   4.059  -1.376  1.00  0.00    -0.352 N 
ATOM     27  C   UNL     1      -7.222   4.470  -1.379  1.00  0.00     0.251 C 
ATOM     28  H   UNL     1      -5.514   3.920  -0.484  1.00  0.00     0.163 HD
ATOM     29  O   UNL     1      -7.765   4.773  -0.331  1.00  0.00    -0.269 OA
BRANCH  27  30
ATOM     30  C   UNL     1      -7.944   4.577  -2.667  1.00  0.00     0.039 A 
ATOM     31  C   UNL     1      -8.676   5.736  -2.934  1.00  0.00     0.014 A 
ATOM     32  C   UNL     1      -7.872   3.554  -3.614  1.00  0.00     0.014 A 
ATOM     33  C   UNL     1      -9.273   5.900  -4.186  1.00  0.00     0.010 A 
ATOM     34  C   UNL     1      -8.390   3.759  -4.889  1.00  0.00     0.010 A 
ATOM     35  C   UNL     1      -9.100   4.932  -5.189  1.00  0.00    -0.014 A 
BRANCH  35  36
ATOM     36  C   UNL     1      -9.669   5.114  -6.550  1.00  0.00     0.031 A 
ATOM     37  C   UNL     1     -10.696   4.143  -7.066  1.00  0.00     0.074 A 
ATOM     38  C   UNL     1      -9.218   6.108  -7.341  1.00  0.00     0.049 A 
ATOM     39  N   UNL     1     -11.248   4.069  -8.249  1.00  0.00    -0.248 NA
ATOM     40  C   UNL     1     -11.131   3.091  -6.134  1.00  0.00     0.031 C 
ATOM     41  C   UNL     1      -8.196   7.089  -6.969  1.00  0.00     0.029 A 
ATOM     42  N   UNL     1      -9.555   6.455  -8.626  1.00  0.00    -0.354 N 
ATOM     43  C   UNL     1     -12.082   2.956  -8.210  1.00  0.00     0.074 A 
ATOM     44  C   UNL     1     -11.903   2.347  -6.910  1.00  0.00     0.031 C 
ATOM     45  C   UNL     1      -8.011   7.941  -7.990  1.00  0.00     0.029 A 
ATOM     46  C   UNL     1      -8.863   7.543  -9.106  1.00  0.00     0.049 A 
ATOM     47  H   UNL     1     -10.229   5.970  -9.155  1.00  0.00     0.167 HD
ATOM     48  C   UNL     1     -12.938   2.501  -9.158  1.00  0.00     0.034 A 
ATOM     49  C   UNL     1      -8.903   8.144 -10.312  1.00  0.00     0.034 A 
ATOM     50  C   UNL     1     -13.112   3.129 -10.445  1.00  0.00     0.049 A 
ATOM     51  C   UNL     1      -9.846   7.609 -11.361  1.00  0.00     0.074 A 
ATOM     52  C   UNL     1     -13.981   2.782 -11.465  1.00  0.00     0.029 A 
ATOM     53  N   UNL     1     -12.399   4.235 -10.893  1.00  0.00    -0.354 N 
ATOM     54  N   UNL     1     -10.660   6.580 -11.293  1.00  0.00    -0.248 NA
ATOM     55  C   UNL     1      -9.884   8.324 -12.642  1.00  0.00     0.031 C 
ATOM     56  C   UNL     1     -13.747   3.632 -12.551  1.00  0.00     0.029 A 
ATOM     57  C   UNL     1     -12.791   4.566 -12.182  1.00  0.00     0.049 A 
ATOM     58  H   UNL     1     -11.716   4.714 -10.371  1.00  0.00     0.167 HD
ATOM     59  C   UNL     1     -11.335   6.551 -12.511  1.00  0.00     0.074 A 
ATOM     60  C   UNL     1     -10.839   7.669 -13.286  1.00  0.00     0.031 C 
ATOM     61  C   UNL     1     -12.284   5.683 -12.945  1.00  0.00     0.034 A 
BRANCH  48  62
ATOM     62  C   UNL     1     -13.725   1.251  -8.837  1.00  0.00     0.023 A 
ATOM     63  C   UNL     1     -14.622   1.202  -7.754  1.00  0.00     0.031 A 
ATOM     64  C   UNL     1     -13.545   0.078  -9.592  1.00  0.00     0.131 A 
ATOM     65  C   UNL     1     -15.231  -0.012  -7.402  1.00  0.00     0.055 A 
ATOM     66  C   UNL     1     -14.226  -1.103  -9.291  1.00  0.00     0.041 A 
ATOM     67  F   UNL     1     -12.687   0.054 -10.624  1.00  0.00    -0.206 F 
ATOM     68  C   UNL     1     -15.061  -1.159  -8.179  1.00  0.00     0.022 A 
BRANCH  65  69
ATOM     69  S   UNL     1     -16.113  -0.107  -5.819  1.00  0.00     0.124 S 
ATOM     70  O   UNL     1     -15.062   0.259  -4.874  1.00  0.00    -0.237 OA
ATOM     71  O   UNL     1     -17.183   0.868  -5.995  1.00  0.00    -0.237 OA
ATOM     72  O   UNL     1     -16.544  -1.502  -5.751  1.00  0.00    -0.744 OA
ENDBRANCH  65  69
ENDBRANCH  48  62
BRANCH  49  73
ATOM     73  C   UNL     1      -8.030   9.319 -10.601  1.00  0.00     0.023 A 
ATOM     74  C   UNL     1      -8.583  10.583 -10.862  1.00  0.00     0.031 A 
ATOM     75  C   UNL     1      -6.631   9.187 -10.662  1.00  0.00     0.131 A 
ATOM     76  C   UNL     1      -7.748  11.653 -11.219  1.00  0.00     0.055 A 
ATOM     77  C   UNL     1      -5.801  10.267 -10.964  1.00  0.00     0.041 A 
ATOM     78  F   UNL     1      -6.050   8.002 -10.415  1.00  0.00    -0.206 F 
ATOM     79  C   UNL     1      -6.359  11.507 -11.258  1.00  0.00     0.022 A 
BRANCH  76  80
ATOM     80  S   UNL     1      -8.510  13.223 -11.713  1.00  0.00     0.124 S 
ATOM     81  O   UNL     1      -9.338  12.809 -12.840  1.00  0.00    -0.237 OA
ATOM     82  O   UNL     1      -9.223  13.609 -10.500  1.00  0.00    -0.237 OA
ATOM     83  O   UNL     1      -7.365  14.065 -12.054  1.00  0.00    -0.744 OA
ENDBRANCH  76  80
ENDBRANCH  49  73
BRANCH  61  84
ATOM     84  C   UNL     1     -12.892   5.951 -14.302  1.00  0.00     0.023 A 
ATOM     85  C   UNL     1     -12.142   5.855 -15.487  1.00  0.00     0.031 A 
ATOM     86  C   UNL     1     -14.245   6.321 -14.404  1.00  0.00     0.131 A 
ATOM     87  C   UNL     1     -12.734   6.182 -16.717  1.00  0.00     0.055 A 
ATOM     88  C   UNL     1     -14.846   6.582 -15.636  1.00  0.00     0.041 A 
ATOM     89  F   UNL     1     -15.009   6.431 -13.305  1.00  0.00    -0.206 F 
ATOM     90  C   UNL     1     -14.085   6.527 -16.800  1.00  0.00     0.022 A 
BRANCH  87  91
ATOM     91  S   UNL     1     -11.688   6.249 -18.197  1.00  0.00     0.124 S 
ATOM     92  O   UNL     1     -10.676   7.227 -17.810  1.00  0.00    -0.237 OA
ATOM     93  O   UNL     1     -11.228   4.869 -18.317  1.00  0.00    -0.237 OA
ATOM     94  O   UNL     1     -12.606   6.689 -19.246  1.00  0.00    -0.744 OA
ENDBRANCH  87  91
ENDBRANCH  61  84
ENDBRANCH  35  36
ENDBRANCH  27  30
ENDBRANCH  25  26
ENDBRANCH  24  25
ENDBRANCH  23  24
ENDBRANCH   1  23
TORSDOF 19
