REMARK SMILES O=C(NCCCCNC(=O)c1[nH]ncc1C[NH+]1CCC([N@H+]2CCC[C@@H](C(=O)N3CCCC3)C2)CC1)c1ccc(-c2c3nc(c(-c4cc(S(=O)(=O)[O-])ccc4F)c4ccc([nH]4)c(-c4cc(S(=O)(=O)[O-])ccc4F)c4nc(c(-c5cc(S(=O)(=O)[O-])ccc5F)c5ccc2[nH]5)C=C4)C=C3)cc1
REMARK SMILES IDX 6 1 5 2 4 3 3 4 1 5 2 6 36 8 37 9 98 10 38 11 97 12 39 13
REMARK SMILES IDX 40 14 41 15 91 16 42 17 96 18 90 19 92 20 43 21 95 22 89 23
REMARK SMILES IDX 88 24 44 26 76 27 56 28 75 29 57 30 60 31 74 32 93 33 58 34
REMARK SMILES IDX 59 35 73 37 94 38 61 39 45 40 46 41 54 42 47 43 53 44 55 45
REMARK SMILES IDX 52 46 48 47 49 48 50 49 51 50 77 51 78 52 86 53 79 54 85 55
REMARK SMILES IDX 87 56 84 57 80 58 81 59 82 60 83 61 62 62 63 63 71 64 64 65
REMARK SMILES IDX 70 66 72 67 69 68 65 69 66 70 67 71 68 72 7 73 8 74 9 75
REMARK SMILES IDX 10 77 11 78 12 79 15 80 13 81 14 83 16 84 17 85 18 86 35 87
REMARK SMILES IDX 19 89 34 90 20 91 21 92 22 93 33 94 23 96 25 97 24 98 26 99
REMARK SMILES IDX 27 100 28 101 29 102 32 103 30 104 31 105
REMARK H PARENT 3 7 92 25 60 36 8 76 12 82 17 88 21 95
REMARK Flexibility Score: inf
ROOT
ATOM      1  C   UNL     1       4.524   2.247  -3.290  1.00  0.00     0.023 C 
ENDROOT
BRANCH   1   2
ATOM      2  C   UNL     1       4.995   0.993  -2.561  1.00  0.00     0.023 C 
BRANCH   2   3
ATOM      3  C   UNL     1       4.652   0.934  -1.079  1.00  0.00     0.116 C 
BRANCH   3   4
ATOM      4  N   UNL     1       3.218   0.922  -0.818  1.00  0.00    -0.352 N 
ATOM      5  O   UNL     1       1.243   0.062  -0.132  1.00  0.00    -0.269 OA
ATOM      6  C   UNL     1       2.467  -0.024  -0.157  1.00  0.00     0.251 C 
ATOM      7  H   UNL     1       2.717   1.698  -1.162  1.00  0.00     0.163 HD
BRANCH   6   8
ATOM      8  C   UNL     1       3.153  -1.160   0.495  1.00  0.00     0.039 A 
ATOM      9  C   UNL     1       4.272  -0.929   1.295  1.00  0.00     0.014 A 
ATOM     10  C   UNL     1       2.711  -2.465   0.259  1.00  0.00     0.014 A 
ATOM     11  C   UNL     1       5.054  -2.000   1.702  1.00  0.00     0.010 A 
ATOM     12  C   UNL     1       3.441  -3.545   0.768  1.00  0.00     0.010 A 
ATOM     13  C   UNL     1       4.640  -3.322   1.462  1.00  0.00    -0.014 A 
BRANCH  13  14
ATOM     14  C   UNL     1       5.461  -4.433   2.013  1.00  0.00     0.031 A 
ATOM     15  C   UNL     1       6.145  -5.429   1.116  1.00  0.00     0.074 A 
ATOM     16  C   UNL     1       5.636  -4.486   3.349  1.00  0.00     0.049 A 
ATOM     17  N   UNL     1       6.932  -6.423   1.443  1.00  0.00    -0.248 NA
ATOM     18  C   UNL     1       5.912  -5.303  -0.330  1.00  0.00     0.031 C 
ATOM     19  C   UNL     1       5.012  -3.572   4.312  1.00  0.00     0.029 A 
ATOM     20  N   UNL     1       6.409  -5.306   4.128  1.00  0.00    -0.354 N 
ATOM     21  C   UNL     1       7.281  -7.048   0.250  1.00  0.00     0.074 A 
ATOM     22  C   UNL     1       6.592  -6.338  -0.807  1.00  0.00     0.031 C 
ATOM     23  C   UNL     1       5.478  -3.839   5.539  1.00  0.00     0.029 A 
ATOM     24  C   UNL     1       6.365  -4.992   5.467  1.00  0.00     0.049 A 
ATOM     25  H   UNL     1       6.943  -6.049   3.765  1.00  0.00     0.167 HD
ATOM     26  C   UNL     1       8.105  -8.109   0.059  1.00  0.00     0.034 A 
ATOM     27  C   UNL     1       6.953  -5.579   6.526  1.00  0.00     0.034 A 
ATOM     28  C   UNL     1       8.786  -8.803   1.129  1.00  0.00     0.049 A 
ATOM     29  C   UNL     1       7.841  -6.768   6.284  1.00  0.00     0.074 A 
ATOM     30  C   UNL     1       9.648  -9.884   1.046  1.00  0.00     0.029 A 
ATOM     31  N   UNL     1       8.682  -8.487   2.478  1.00  0.00    -0.354 N 
ATOM     32  N   UNL     1       8.157  -7.342   5.145  1.00  0.00    -0.248 NA
ATOM     33  C   UNL     1       8.452  -7.385   7.465  1.00  0.00     0.031 C 
ATOM     34  C   UNL     1      10.016 -10.257   2.344  1.00  0.00     0.029 A 
ATOM     35  C   UNL     1       9.442  -9.367   3.236  1.00  0.00     0.049 A 
ATOM     36  H   UNL     1       8.146  -7.747   2.844  1.00  0.00     0.167 HD
ATOM     37  C   UNL     1       9.012  -8.387   5.477  1.00  0.00     0.074 A 
ATOM     38  C   UNL     1       9.193  -8.333   6.914  1.00  0.00     0.031 C 
ATOM     39  C   UNL     1       9.588  -9.315   4.672  1.00  0.00     0.034 A 
BRANCH  26  40
ATOM     40  C   UNL     1       8.287  -8.613  -1.354  1.00  0.00     0.023 A 
ATOM     41  C   UNL     1       8.935  -7.845  -2.338  1.00  0.00     0.031 A 
ATOM     42  C   UNL     1       7.818  -9.888  -1.718  1.00  0.00     0.131 A 
ATOM     43  C   UNL     1       9.053  -8.339  -3.647  1.00  0.00     0.055 A 
ATOM     44  C   UNL     1       7.998 -10.401  -3.005  1.00  0.00     0.041 A 
ATOM     45  F   UNL     1       7.175 -10.659  -0.827  1.00  0.00    -0.206 F 
ATOM     46  C   UNL     1       8.610  -9.621  -3.981  1.00  0.00     0.022 A 
BRANCH  43  47
ATOM     47  S   UNL     1       9.701  -7.241  -4.937  1.00  0.00     0.124 S 
ATOM     48  O   UNL     1       8.731  -6.148  -4.910  1.00  0.00    -0.237 OA
ATOM     49  O   UNL     1      11.035  -6.922  -4.441  1.00  0.00    -0.237 OA
ATOM     50  O   UNL     1       9.665  -8.067  -6.142  1.00  0.00    -0.744 OA
ENDBRANCH  43  47
ENDBRANCH  26  40
BRANCH  27  51
ATOM     51  C   UNL     1       6.686  -5.083   7.907  1.00  0.00     0.023 A 
ATOM     52  C   UNL     1       7.720  -4.590   8.716  1.00  0.00     0.031 A 
ATOM     53  C   UNL     1       5.390  -5.138   8.452  1.00  0.00     0.131 A 
ATOM     54  C   UNL     1       7.450  -4.217  10.042  1.00  0.00     0.055 A 
ATOM     55  C   UNL     1       5.115  -4.706   9.749  1.00  0.00     0.041 A 
ATOM     56  F   UNL     1       4.363  -5.600   7.721  1.00  0.00    -0.206 F 
ATOM     57  C   UNL     1       6.153  -4.257  10.559  1.00  0.00     0.022 A 
BRANCH  54  58
ATOM     58  S   UNL     1       8.842  -3.781  11.120  1.00  0.00     0.124 S 
ATOM     59  O   UNL     1       9.701  -4.952  10.986  1.00  0.00    -0.237 OA
ATOM     60  O   UNL     1       9.329  -2.554  10.500  1.00  0.00    -0.237 OA
ATOM     61  O   UNL     1       8.216  -3.612  12.430  1.00  0.00    -0.744 OA
ENDBRANCH  54  58
ENDBRANCH  27  51
BRANCH  39  62
ATOM     62  C   UNL     1      10.478 -10.327   5.349  1.00  0.00     0.023 A 
ATOM     63  C   UNL     1       9.957 -11.269   6.255  1.00  0.00     0.031 A 
ATOM     64  C   UNL     1      11.866 -10.313   5.132  1.00  0.00     0.131 A 
ATOM     65  C   UNL     1      10.827 -12.106   6.968  1.00  0.00     0.055 A 
ATOM     66  C   UNL     1      12.721 -11.194   5.797  1.00  0.00     0.041 A 
ATOM     67  F   UNL     1      12.416  -9.433   4.279  1.00  0.00    -0.206 F 
ATOM     68  C   UNL     1      12.204 -12.084   6.734  1.00  0.00     0.022 A 
BRANCH  65  69
ATOM     69  S   UNL     1      10.144 -13.139   8.293  1.00  0.00     0.124 S 
ATOM     70  O   UNL     1       9.515 -12.146   9.159  1.00  0.00    -0.237 OA
ATOM     71  O   UNL     1       9.235 -14.018   7.566  1.00  0.00    -0.237 OA
ATOM     72  O   UNL     1      11.322 -13.796   8.857  1.00  0.00    -0.744 OA
ENDBRANCH  65  69
ENDBRANCH  39  62
ENDBRANCH  13  14
ENDBRANCH   6   8
ENDBRANCH   3   4
ENDBRANCH   2   3
ENDBRANCH   1   2
BRANCH   1  73
ATOM     73  C   UNL     1       4.871   3.563  -2.606  1.00  0.00     0.116 C 
BRANCH  73  74
ATOM     74  N   UNL     1       6.300   3.767  -2.433  1.00  0.00    -0.351 N 
ATOM     75  C   UNL     1       7.049   4.873  -2.731  1.00  0.00     0.269 C 
ATOM     76  H   UNL     1       6.795   3.008  -2.048  1.00  0.00     0.163 HD
ATOM     77  O   UNL     1       8.279   4.791  -2.677  1.00  0.00    -0.268 OA
BRANCH  75  78
ATOM     78  C   UNL     1       6.390   6.066  -3.174  1.00  0.00     0.131 A 
ATOM     79  N   UNL     1       6.815   6.743  -4.283  1.00  0.00    -0.272 N 
ATOM     80  C   UNL     1       5.328   6.809  -2.667  1.00  0.00     0.057 A 
ATOM     81  N   UNL     1       6.007   7.752  -4.646  1.00  0.00    -0.183 NA
ATOM     82  H   UNL     1       7.639   6.512  -4.770  1.00  0.00     0.190 HD
ATOM     83  C   UNL     1       5.106   7.790  -3.663  1.00  0.00     0.145 A 
BRANCH  80  84
ATOM     84  C   UNL     1       4.558   6.587  -1.407  1.00  0.00     0.303 C 
BRANCH  84  85
ATOM     85  N   UNL     1       4.713   7.633  -0.400  1.00  0.00    -0.331 N 
ATOM     86  C   UNL     1       6.096   7.837   0.029  1.00  0.00     0.268 C 
ATOM     87  C   UNL     1       4.026   8.885  -0.701  1.00  0.00     0.268 C 
ATOM     88  H   UNL     1       4.218   7.257   0.408  1.00  0.00     0.348 HD
ATOM     89  C   UNL     1       6.135   8.696   1.293  1.00  0.00     0.126 C 
ATOM     90  C   UNL     1       3.972   9.763   0.549  1.00  0.00     0.126 C 
ATOM     91  C   UNL     1       5.389  10.029   1.084  1.00  0.00     0.195 C 
BRANCH  91  92
ATOM     92  N   UNL     1       5.380  10.954   2.246  1.00  0.00    -0.331 N 
ATOM     93  C   UNL     1       4.735  10.415   3.454  1.00  0.00     0.262 C 
ATOM     94  C   UNL     1       6.753  11.389   2.556  1.00  0.00     0.275 C 
ATOM     95  H   UNL     1       4.807  11.748   1.960  1.00  0.00     0.348 HD
ATOM     96  C   UNL     1       4.708  11.459   4.580  1.00  0.00     0.062 C 
ATOM     97  C   UNL     1       6.781  12.477   3.637  1.00  0.00     0.134 C 
ATOM     98  C   UNL     1       6.107  11.980   4.910  1.00  0.00     0.025 C 
BRANCH  97  99
ATOM     99  C   UNL     1       8.248  12.829   3.836  1.00  0.00     0.231 C 
ATOM    100  O   UNL     1       9.103  11.956   3.993  1.00  0.00    -0.274 OA
ATOM    101  N   UNL     1       8.599  14.146   3.666  1.00  0.00    -0.342 N 
ATOM    102  C   UNL     1       7.819  15.334   3.947  1.00  0.00     0.119 C 
ATOM    103  C   UNL     1       9.906  14.486   3.139  1.00  0.00     0.119 C 
ATOM    104  C   UNL     1       8.382  16.351   2.973  1.00  0.00     0.023 C 
ATOM    105  C   UNL     1       9.865  15.993   2.912  1.00  0.00     0.023 C 
ENDBRANCH  97  99
ENDBRANCH  91  92
ENDBRANCH  84  85
ENDBRANCH  80  84
ENDBRANCH  75  78
ENDBRANCH  73  74
ENDBRANCH   1  73
TORSDOF 18
