REMARK SMILES Cc1ccc(N)c(SCCOc2ccccc2C(=O)NCCCCNC(=O)c2ccc(-c3c4nc(c(-c5cc(S(=O)(=O)[O-])ccc5F)c5ccc([nH]5)c(-c5cc(S(=O)(=O)[O-])ccc5F)c5nc(c(-c6cc(S(=O)(=O)[O-])ccc6F)c6ccc3[nH]6)C=C5)C=C4)cc2)c1
REMARK SMILES IDX 21 1 20 2 18 3 19 4 17 6 12 7 13 8 14 9 16 10 15 11 11 12
REMARK SMILES IDX 10 13 9 14 8 15 7 16 1 17 2 18 3 19 91 20 4 21 5 22 6 23
REMARK SMILES IDX 22 26 23 27 24 28 25 29 26 30 27 32 28 33 29 34 90 35 30 36
REMARK SMILES IDX 89 37 31 38 32 39 33 40 83 41 34 42 88 43 82 44 84 45 35 46
REMARK SMILES IDX 87 47 81 48 80 49 36 51 68 52 48 53 67 54 49 55 52 56 66 57
REMARK SMILES IDX 85 58 50 59 51 60 65 62 86 63 53 64 37 65 38 66 46 67 39 68
REMARK SMILES IDX 45 69 47 70 44 71 40 72 41 73 42 74 43 75 69 76 70 77 78 78
REMARK SMILES IDX 71 79 77 80 79 81 76 82 72 83 73 84 74 85 75 86 54 87 55 88
REMARK SMILES IDX 63 89 56 90 62 91 64 92 61 93 57 94 58 95 59 96 60 97
REMARK H PARENT 20 5 6 24 6 25 25 31 84 50 52 61
REMARK Flexibility Score: inf
ROOT
ATOM      1  C   UNL     1      -2.900   3.993  -0.351  1.00  0.00     0.116 C 
ENDROOT
BRANCH   1   2
ATOM      2  N   UNL     1      -1.762   3.518   0.383  1.00  0.00    -0.352 N 
ATOM      3  C   UNL     1      -0.758   2.695   0.055  1.00  0.00     0.255 C 
ATOM      4  O   UNL     1       0.160   2.808   0.897  1.00  0.00    -0.269 OA
ATOM      5  H   UNL     1      -1.709   3.864   1.303  1.00  0.00     0.163 HD
BRANCH   3   6
ATOM      6  C   UNL     1      -0.721   1.856  -1.169  1.00  0.00     0.081 A 
ATOM      7  C   UNL     1      -0.780   2.540  -2.344  1.00  0.00     0.132 A 
ATOM      8  C   UNL     1      -1.163   1.887  -3.522  1.00  0.00     0.047 A 
ATOM      9  C   UNL     1      -1.034   0.499  -3.595  1.00  0.00     0.004 A 
ATOM     10  C   UNL     1      -0.195   0.589  -1.381  1.00  0.00     0.018 A 
ATOM     11  C   UNL     1      -0.369  -0.123  -2.564  1.00  0.00     0.001 A 
BRANCH   7  12
ATOM     12  O   UNL     1      -0.003   3.685  -2.362  1.00  0.00    -0.492 OA
BRANCH  12  13
ATOM     13  C   UNL     1       1.429   3.343  -2.145  1.00  0.00     0.241 C 
BRANCH  13  14
ATOM     14  C   UNL     1       2.084   3.298  -0.684  1.00  0.00     0.116 C 
BRANCH  14  15
ATOM     15  S   UNL     1       2.894   1.814   0.472  1.00  0.00    -0.120 SA
BRANCH  15  16
ATOM     16  C   UNL     1       1.858   0.383   1.063  1.00  0.00     0.031 A 
ATOM     17  C   UNL     1      -1.827  -0.439   1.486  1.00  0.00     0.044 C 
ATOM     18  C   UNL     1      -0.330  -0.672   1.494  1.00  0.00    -0.050 A 
ATOM     19  C   UNL     1       0.158  -1.897   1.046  1.00  0.00     0.005 A 
ATOM     20  C   UNL     1       0.584   0.398   1.680  1.00  0.00     0.020 A 
ATOM     21  C   UNL     1       1.518  -2.026   0.769  1.00  0.00     0.027 A 
ATOM     22  C   UNL     1       2.377  -0.908   0.787  1.00  0.00     0.045 A 
BRANCH  22  23
ATOM     23  N   UNL     1       3.692  -1.078   0.338  1.00  0.00    -0.398 N 
ATOM     24  H   UNL     1       4.035  -1.982   0.151  1.00  0.00     0.156 HD
ATOM     25  H   UNL     1       4.274  -0.295   0.208  1.00  0.00     0.156 HD
ENDBRANCH  22  23
ENDBRANCH  15  16
ENDBRANCH  14  15
ENDBRANCH  13  14
ENDBRANCH  12  13
ENDBRANCH   7  12
ENDBRANCH   3   6
ENDBRANCH   1   2
BRANCH   1  26
ATOM     26  C   UNL     1      -3.639   5.019   0.508  1.00  0.00     0.023 C 
BRANCH  26  27
ATOM     27  C   UNL     1      -2.781   6.200   1.010  1.00  0.00     0.023 C 
BRANCH  27  28
ATOM     28  C   UNL     1      -1.889   6.854  -0.042  1.00  0.00     0.116 C 
BRANCH  28  29
ATOM     29  N   UNL     1      -2.660   7.254  -1.209  1.00  0.00    -0.352 N 
ATOM     30  C   UNL     1      -3.220   8.461  -1.497  1.00  0.00     0.251 C 
ATOM     31  H   UNL     1      -2.796   6.552  -1.886  1.00  0.00     0.163 HD
ATOM     32  O   UNL     1      -4.145   8.517  -2.327  1.00  0.00    -0.269 OA
BRANCH  30  33
ATOM     33  C   UNL     1      -2.740   9.689  -0.841  1.00  0.00     0.039 A 
ATOM     34  C   UNL     1      -3.660  10.661  -0.446  1.00  0.00     0.014 A 
ATOM     35  C   UNL     1      -1.369   9.911  -0.674  1.00  0.00     0.014 A 
ATOM     36  C   UNL     1      -3.207  11.846   0.135  1.00  0.00     0.010 A 
ATOM     37  C   UNL     1      -0.924  11.055  -0.018  1.00  0.00     0.010 A 
ATOM     38  C   UNL     1      -1.836  12.049   0.364  1.00  0.00    -0.014 A 
BRANCH  38  39
ATOM     39  C   UNL     1      -1.339  13.326   0.937  1.00  0.00     0.031 A 
ATOM     40  C   UNL     1      -0.453  14.220   0.109  1.00  0.00     0.074 A 
ATOM     41  C   UNL     1      -1.662  13.667   2.200  1.00  0.00     0.049 A 
ATOM     42  N   UNL     1       0.115  15.354   0.431  1.00  0.00    -0.248 NA
ATOM     43  C   UNL     1      -0.137  13.761  -1.253  1.00  0.00     0.031 C 
ATOM     44  C   UNL     1      -2.482  12.862   3.107  1.00  0.00     0.029 A 
ATOM     45  N   UNL     1      -1.342  14.776   2.940  1.00  0.00    -0.354 N 
ATOM     46  C   UNL     1       0.862  15.735  -0.680  1.00  0.00     0.074 A 
ATOM     47  C   UNL     1       0.733  14.674  -1.655  1.00  0.00     0.031 C 
ATOM     48  C   UNL     1      -2.628  13.520   4.269  1.00  0.00     0.029 A 
ATOM     49  C   UNL     1      -1.878  14.770   4.207  1.00  0.00     0.049 A 
ATOM     50  H   UNL     1      -0.781  15.509   2.596  1.00  0.00     0.167 HD
ATOM     51  C   UNL     1       1.566  16.876  -0.881  1.00  0.00     0.034 A 
ATOM     52  C   UNL     1      -1.770  15.669   5.206  1.00  0.00     0.034 A 
ATOM     53  C   UNL     1       1.667  17.931   0.098  1.00  0.00     0.049 A 
ATOM     54  C   UNL     1      -0.971  16.926   4.964  1.00  0.00     0.074 A 
ATOM     55  C   UNL     1       2.317  19.148  -0.009  1.00  0.00     0.029 A 
ATOM     56  N   UNL     1       1.105  17.892   1.369  1.00  0.00    -0.354 N 
ATOM     57  N   UNL     1      -0.308  17.293   3.890  1.00  0.00    -0.248 NA
ATOM     58  C   UNL     1      -0.923  17.900   6.061  1.00  0.00     0.031 C 
ATOM     59  C   UNL     1       2.208  19.813   1.217  1.00  0.00     0.029 A 
ATOM     60  C   UNL     1       1.414  19.053   2.062  1.00  0.00     0.049 A 
ATOM     61  H   UNL     1       0.567  17.149   1.725  1.00  0.00     0.167 HD
ATOM     62  C   UNL     1       0.198  18.559   4.170  1.00  0.00     0.074 A 
ATOM     63  C   UNL     1      -0.249  18.896   5.506  1.00  0.00     0.031 C 
ATOM     64  C   UNL     1       0.959  19.374   3.394  1.00  0.00     0.034 A 
BRANCH  51  65
ATOM     65  C   UNL     1       2.294  17.024  -2.197  1.00  0.00     0.023 A 
ATOM     66  C   UNL     1       1.609  17.046  -3.425  1.00  0.00     0.031 A 
ATOM     67  C   UNL     1       3.697  17.119  -2.228  1.00  0.00     0.131 A 
ATOM     68  C   UNL     1       2.328  17.078  -4.630  1.00  0.00     0.055 A 
ATOM     69  C   UNL     1       4.402  17.240  -3.428  1.00  0.00     0.041 A 
ATOM     70  F   UNL     1       4.411  17.080  -1.092  1.00  0.00    -0.206 F 
ATOM     71  C   UNL     1       3.718  17.204  -4.639  1.00  0.00     0.022 A 
BRANCH  68  72
ATOM     72  S   UNL     1       1.430  16.802  -6.182  1.00  0.00     0.124 S 
ATOM     73  O   UNL     1       0.857  15.477  -5.959  1.00  0.00    -0.237 OA
ATOM     74  O   UNL     1       0.484  17.912  -6.202  1.00  0.00    -0.237 OA
ATOM     75  O   UNL     1       2.479  16.857  -7.199  1.00  0.00    -0.744 OA
ENDBRANCH  68  72
ENDBRANCH  51  65
BRANCH  52  76
ATOM     76  C   UNL     1      -2.430  15.427   6.522  1.00  0.00     0.023 A 
ATOM     77  C   UNL     1      -3.433  16.286   7.000  1.00  0.00     0.031 A 
ATOM     78  C   UNL     1      -2.027  14.363   7.349  1.00  0.00     0.131 A 
ATOM     79  C   UNL     1      -3.954  16.105   8.291  1.00  0.00     0.055 A 
ATOM     80  C   UNL     1      -2.593  14.150   8.608  1.00  0.00     0.041 A 
ATOM     81  F   UNL     1      -1.076  13.507   6.941  1.00  0.00    -0.206 F 
ATOM     82  C   UNL     1      -3.551  15.034   9.092  1.00  0.00     0.022 A 
BRANCH  79  83
ATOM     83  S   UNL     1      -5.092  17.355   8.951  1.00  0.00     0.124 S 
ATOM     84  O   UNL     1      -4.293  18.570   8.841  1.00  0.00    -0.237 OA
ATOM     85  O   UNL     1      -6.224  17.245   8.037  1.00  0.00    -0.237 OA
ATOM     86  O   UNL     1      -5.347  16.895  10.315  1.00  0.00    -0.744 OA
ENDBRANCH  79  83
ENDBRANCH  52  76
BRANCH  64  87
ATOM     87  C   UNL     1       1.296  20.737   3.952  1.00  0.00     0.023 A 
ATOM     88  C   UNL     1       2.096  20.898   5.097  1.00  0.00     0.031 A 
ATOM     89  C   UNL     1       0.786  21.894   3.335  1.00  0.00     0.131 A 
ATOM     90  C   UNL     1       2.304  22.179   5.630  1.00  0.00     0.055 A 
ATOM     91  C   UNL     1       1.058  23.171   3.827  1.00  0.00     0.041 A 
ATOM     92  F   UNL     1       0.014  21.802   2.240  1.00  0.00    -0.206 F 
ATOM     93  C   UNL     1       1.806  23.318   4.991  1.00  0.00     0.022 A 
BRANCH  90  94
ATOM     94  S   UNL     1       3.133  22.329   7.236  1.00  0.00     0.124 S 
ATOM     95  O   UNL     1       2.296  21.492   8.089  1.00  0.00    -0.237 OA
ATOM     96  O   UNL     1       4.467  21.812   6.947  1.00  0.00    -0.237 OA
ATOM     97  O   UNL     1       3.073  23.762   7.520  1.00  0.00    -0.744 OA
ENDBRANCH  90  94
ENDBRANCH  64  87
ENDBRANCH  38  39
ENDBRANCH  30  33
ENDBRANCH  28  29
ENDBRANCH  27  28
ENDBRANCH  26  27
ENDBRANCH   1  26
TORSDOF 20
