REMARK SMILES C[C@H](c1ccoc1)[NH+]1CC[NH+]([C@@H](C)C(=O)NCCCCNC(=O)c2ccc(-c3c4nc(c(-c5cc(S(=O)(=O)[O-])ccc5F)c5ccc([nH]5)c(-c5cc(S(=O)(=O)[O-])ccc5F)c5nc(c(-c6cc(S(=O)(=O)[O-])ccc6F)c6ccc3[nH]6)C=C5)C=C4)cc2)CC1
REMARK SMILES IDX 18 1 17 2 16 3 14 4 15 5 12 7 13 8 11 9 8 10 9 11 88 12
REMARK SMILES IDX 10 14 87 15 2 17 1 18 3 19 4 20 7 21 5 22 6 23 19 24 20 25
REMARK SMILES IDX 21 26 22 27 23 29 24 30 25 31 86 32 26 33 85 34 27 35 28 36
REMARK SMILES IDX 29 37 79 38 30 39 84 40 78 41 80 42 31 43 83 44 77 45 76 46
REMARK SMILES IDX 32 48 64 49 44 50 63 51 45 52 48 53 62 54 81 55 46 56 47 57
REMARK SMILES IDX 61 59 82 60 49 61 33 62 34 63 42 64 35 65 41 66 43 67 40 68
REMARK SMILES IDX 36 69 37 70 38 71 39 72 65 73 66 74 74 75 67 76 73 77 75 78
REMARK SMILES IDX 72 79 68 80 69 81 70 82 71 83 50 84 51 85 59 86 52 87 58 88
REMARK SMILES IDX 60 89 57 90 53 91 54 92 55 93 56 94
REMARK H PARENT 16 6 8 13 11 16 21 28 80 47 48 58
REMARK Flexibility Score: inf
ROOT
ATOM      1  C   UNL     1      -1.585  -2.469   2.019  1.00  0.00     0.023 C 
ENDROOT
BRANCH   1   2
ATOM      2  C   UNL     1      -2.962  -1.857   1.699  1.00  0.00     0.116 C 
BRANCH   2   3
ATOM      3  N   UNL     1      -3.389  -0.914   2.726  1.00  0.00    -0.351 N 
ATOM      4  C   UNL     1      -3.440   0.448   2.822  1.00  0.00     0.278 C 
ATOM      5  O   UNL     1      -3.786   0.880   3.932  1.00  0.00    -0.268 OA
ATOM      6  H   UNL     1      -3.717  -1.363   3.539  1.00  0.00     0.163 HD
BRANCH   4   7
ATOM      7  C   UNL     1      -3.144   1.463   1.666  1.00  0.00     0.271 C 
ATOM      8  C   UNL     1      -4.043   1.259   0.449  1.00  0.00     0.086 C 
BRANCH   7   9
ATOM      9  N   UNL     1      -1.698   1.755   1.495  1.00  0.00    -0.316 N 
ATOM     10  N   UNL     1      -0.308   1.201  -1.149  1.00  0.00    -0.320 N 
ATOM     11  C   UNL     1      -0.902   0.198  -0.276  1.00  0.00     0.325 C 
ATOM     12  C   UNL     1      -0.915   2.522  -0.875  1.00  0.00     0.325 C 
ATOM     13  H   UNL     1      -0.559   0.938  -2.102  1.00  0.00     0.348 HD
ATOM     14  C   UNL     1      -0.836   0.630   1.196  1.00  0.00     0.325 C 
ATOM     15  C   UNL     1      -1.326   2.867   0.602  1.00  0.00     0.325 C 
ATOM     16  H   UNL     1      -1.525   2.057   2.454  1.00  0.00     0.349 HD
BRANCH  10  17
ATOM     17  C   UNL     1       1.159   1.169  -1.331  1.00  0.00     0.215 C 
ATOM     18  C   UNL     1       1.409   0.811  -2.803  1.00  0.00     0.081 C 
BRANCH  17  19
ATOM     19  C   UNL     1       1.900   0.214  -0.418  1.00  0.00     0.047 A 
ATOM     20  C   UNL     1       1.986  -1.216  -0.488  1.00  0.00     0.052 A 
ATOM     21  C   UNL     1       2.655   0.550   0.692  1.00  0.00     0.204 A 
ATOM     22  C   UNL     1       2.688  -1.629   0.619  1.00  0.00     0.195 A 
ATOM     23  O   UNL     1       3.110  -0.557   1.333  1.00  0.00    -0.472 OA
ENDBRANCH  17  19
ENDBRANCH  10  17
ENDBRANCH   7   9
ENDBRANCH   4   7
ENDBRANCH   2   3
ENDBRANCH   1   2
BRANCH   1  24
ATOM     24  C   UNL     1      -1.576  -3.889   2.557  1.00  0.00     0.023 C 
BRANCH  24  25
ATOM     25  C   UNL     1      -2.063  -4.943   1.583  1.00  0.00     0.116 C 
BRANCH  25  26
ATOM     26  N   UNL     1      -1.260  -5.067   0.375  1.00  0.00    -0.352 N 
ATOM     27  C   UNL     1      -0.965  -6.217  -0.331  1.00  0.00     0.251 C 
ATOM     28  H   UNL     1      -0.883  -4.230   0.018  1.00  0.00     0.163 HD
ATOM     29  O   UNL     1      -0.212  -6.174  -1.292  1.00  0.00    -0.269 OA
BRANCH  27  30
ATOM     30  C   UNL     1      -1.533  -7.504   0.138  1.00  0.00     0.039 A 
ATOM     31  C   UNL     1      -0.697  -8.613   0.273  1.00  0.00     0.014 A 
ATOM     32  C   UNL     1      -2.871  -7.581   0.529  1.00  0.00     0.014 A 
ATOM     33  C   UNL     1      -1.188  -9.777   0.873  1.00  0.00     0.010 A 
ATOM     34  C   UNL     1      -3.320  -8.690   1.233  1.00  0.00     0.010 A 
ATOM     35  C   UNL     1      -2.492  -9.811   1.392  1.00  0.00    -0.014 A 
BRANCH  35  36
ATOM     36  C   UNL     1      -3.048 -11.027   2.040  1.00  0.00     0.031 A 
ATOM     37  C   UNL     1      -4.265 -11.685   1.441  1.00  0.00     0.074 A 
ATOM     38  C   UNL     1      -2.520 -11.490   3.190  1.00  0.00     0.049 A 
ATOM     39  N   UNL     1      -4.982 -12.681   1.895  1.00  0.00    -0.248 NA
ATOM     40  C   UNL     1      -4.775 -11.105   0.189  1.00  0.00     0.031 C 
ATOM     41  C   UNL     1      -1.384 -10.899   3.903  1.00  0.00     0.029 A 
ATOM     42  N   UNL     1      -2.873 -12.564   3.968  1.00  0.00    -0.354 N 
ATOM     43  C   UNL     1      -6.041 -12.819   1.003  1.00  0.00     0.074 A 
ATOM     44  C   UNL     1      -5.919 -11.750   0.037  1.00  0.00     0.031 C 
ATOM     45  C   UNL     1      -1.114 -11.639   4.991  1.00  0.00     0.029 A 
ATOM     46  C   UNL     1      -2.075 -12.733   5.076  1.00  0.00     0.049 A 
ATOM     47  H   UNL     1      -3.628 -13.158   3.753  1.00  0.00     0.167 HD
ATOM     48  C   UNL     1      -7.006 -13.771   0.968  1.00  0.00     0.034 A 
ATOM     49  C   UNL     1      -2.115 -13.670   6.044  1.00  0.00     0.034 A 
ATOM     50  C   UNL     1      -7.082 -14.856   1.913  1.00  0.00     0.049 A 
ATOM     51  C   UNL     1      -3.165 -14.751   5.961  1.00  0.00     0.074 A 
ATOM     52  C   UNL     1      -7.976 -15.911   1.951  1.00  0.00     0.029 A 
ATOM     53  N   UNL     1      -6.216 -15.030   2.987  1.00  0.00    -0.354 N 
ATOM     54  N   UNL     1      -4.132 -14.898   5.084  1.00  0.00    -0.248 NA
ATOM     55  C   UNL     1      -3.114 -15.803   6.983  1.00  0.00     0.031 C 
ATOM     56  C   UNL     1      -7.679 -16.696   3.071  1.00  0.00     0.029 A 
ATOM     57  C   UNL     1      -6.559 -16.169   3.696  1.00  0.00     0.049 A 
ATOM     58  H   UNL     1      -5.468 -14.431   3.211  1.00  0.00     0.167 HD
ATOM     59  C   UNL     1      -4.779 -16.082   5.428  1.00  0.00     0.074 A 
ATOM     60  C   UNL     1      -4.084 -16.612   6.584  1.00  0.00     0.031 C 
ATOM     61  C   UNL     1      -5.847 -16.682   4.842  1.00  0.00     0.034 A 
BRANCH  48  62
ATOM     62  C   UNL     1      -8.046 -13.660  -0.123  1.00  0.00     0.023 A 
ATOM     63  C   UNL     1      -7.694 -13.704  -1.484  1.00  0.00     0.031 A 
ATOM     64  C   UNL     1      -9.398 -13.444   0.197  1.00  0.00     0.131 A 
ATOM     65  C   UNL     1      -8.655 -13.431  -2.468  1.00  0.00     0.055 A 
ATOM     66  C   UNL     1     -10.369 -13.269  -0.792  1.00  0.00     0.041 A 
ATOM     67  F   UNL     1      -9.795 -13.371   1.477  1.00  0.00    -0.206 F 
ATOM     68  C   UNL     1      -9.997 -13.241  -2.133  1.00  0.00     0.022 A 
BRANCH  65  69
ATOM     69  S   UNL     1      -8.093 -13.156  -4.171  1.00  0.00     0.124 S 
ATOM     70  O   UNL     1      -7.207 -12.006  -4.004  1.00  0.00    -0.237 OA
ATOM     71  O   UNL     1      -7.445 -14.420  -4.498  1.00  0.00    -0.237 OA
ATOM     72  O   UNL     1      -9.329 -12.879  -4.899  1.00  0.00    -0.744 OA
ENDBRANCH  65  69
ENDBRANCH  48  62
BRANCH  49  73
ATOM     73  C   UNL     1      -1.125 -13.654   7.159  1.00  0.00     0.023 A 
ATOM     74  C   UNL     1      -0.176 -14.680   7.296  1.00  0.00     0.031 A 
ATOM     75  C   UNL     1      -1.138 -12.636   8.128  1.00  0.00     0.131 A 
ATOM     76  C   UNL     1       0.687 -14.695   8.403  1.00  0.00     0.055 A 
ATOM     77  C   UNL     1      -0.244 -12.628   9.201  1.00  0.00     0.041 A 
ATOM     78  F   UNL     1      -2.017 -11.625   8.038  1.00  0.00    -0.206 F 
ATOM     79  C   UNL     1       0.666 -13.670   9.351  1.00  0.00     0.022 A 
BRANCH  76  80
ATOM     80  S   UNL     1       1.786 -16.121   8.628  1.00  0.00     0.124 S 
ATOM     81  O   UNL     1       0.834 -17.225   8.675  1.00  0.00    -0.237 OA
ATOM     82  O   UNL     1       2.625 -16.046   7.437  1.00  0.00    -0.237 OA
ATOM     83  O   UNL     1       2.467 -15.829   9.888  1.00  0.00    -0.744 OA
ENDBRANCH  76  80
ENDBRANCH  49  73
BRANCH  61  84
ATOM     84  C   UNL     1      -6.279 -18.011   5.407  1.00  0.00     0.023 A 
ATOM     85  C   UNL     1      -6.837 -18.124   6.691  1.00  0.00     0.031 A 
ATOM     86  C   UNL     1      -6.117 -19.183   4.647  1.00  0.00     0.131 A 
ATOM     87  C   UNL     1      -7.158 -19.390   7.202  1.00  0.00     0.055 A 
ATOM     88  C   UNL     1      -6.493 -20.433   5.138  1.00  0.00     0.041 A 
ATOM     89  F   UNL     1      -5.590 -19.130   3.413  1.00  0.00    -0.206 F 
ATOM     90  C   UNL     1      -7.003 -20.544   6.428  1.00  0.00     0.022 A 
BRANCH  87  91
ATOM     91  S   UNL     1      -7.691 -19.521   8.931  1.00  0.00     0.124 S 
ATOM     92  O   UNL     1      -6.573 -18.908   9.641  1.00  0.00    -0.237 OA
ATOM     93  O   UNL     1      -8.938 -18.764   8.930  1.00  0.00    -0.237 OA
ATOM     94  O   UNL     1      -7.840 -20.961   9.136  1.00  0.00    -0.744 OA
ENDBRANCH  87  91
ENDBRANCH  61  84
ENDBRANCH  35  36
ENDBRANCH  27  30
ENDBRANCH  25  26
ENDBRANCH  24  25
ENDBRANCH   1  24
TORSDOF 17
