REMARK SMILES C/C(=N\NC(N)=S)c1nnn(-c2ccc(C(=O)NCCCCNC(=O)c3ccc(-c4c5nc(c(-c6cc(S(=O)(=O)[O-])ccc6F)c6ccc([nH]6)c(-c6cc(S(=O)(=O)[O-])ccc6F)c6nc(c(-c7cc(S(=O)(=O)[O-])ccc7F)c7ccc4[nH]7)C=C6)C=C5)cc3)cc2)c1C
REMARK SMILES IDX 19 1 18 2 16 3 17 4 15 6 12 7 13 8 90 9 14 10 89 11 11 12
REMARK SMILES IDX 8 13 9 14 91 15 10 16 92 17 2 18 1 19 3 20 4 21 5 23 7 24
REMARK SMILES IDX 6 25 20 28 21 29 22 30 23 31 24 32 25 34 26 35 27 36 88 37
REMARK SMILES IDX 28 38 87 39 29 40 30 41 31 42 81 43 32 44 86 45 80 46 82 47
REMARK SMILES IDX 33 48 85 49 79 50 78 51 34 53 66 54 46 55 65 56 47 57 50 58
REMARK SMILES IDX 64 59 83 60 48 61 49 62 63 64 84 65 51 66 35 67 36 68 44 69
REMARK SMILES IDX 37 70 43 71 45 72 42 73 38 74 39 75 40 76 41 77 67 78 68 79
REMARK SMILES IDX 76 80 69 81 75 82 77 83 74 84 70 85 71 86 72 87 73 88 52 89
REMARK SMILES IDX 53 90 61 91 54 92 60 93 62 94 59 95 55 96 56 97 57 98 58 99
REMARK H PARENT 18 5 4 22 6 26 6 27 23 33 82 52 50 63
REMARK Flexibility Score: inf
ROOT
ATOM      1  C   UNL     1       8.592  -4.098  -4.127  1.00  0.00     0.116 C 
ENDROOT
BRANCH   1   2
ATOM      2  N   UNL     1       8.209  -3.943  -5.522  1.00  0.00    -0.352 N 
ATOM      3  C   UNL     1       7.000  -3.748  -6.147  1.00  0.00     0.251 C 
ATOM      4  O   UNL     1       7.007  -3.588  -7.368  1.00  0.00    -0.269 OA
ATOM      5  H   UNL     1       8.971  -3.985  -6.144  1.00  0.00     0.163 HD
BRANCH   3   6
ATOM      6  C   UNL     1       5.699  -3.669  -5.422  1.00  0.00     0.039 A 
ATOM      7  C   UNL     1       3.310  -3.207  -4.053  1.00  0.00     0.067 A 
ATOM      8  C   UNL     1       3.439  -2.732  -5.356  1.00  0.00     0.029 A 
ATOM      9  C   UNL     1       4.299  -4.003  -3.476  1.00  0.00     0.029 A 
ATOM     10  C   UNL     1       4.651  -2.944  -6.026  1.00  0.00     0.016 A 
ATOM     11  C   UNL     1       5.467  -4.268  -4.184  1.00  0.00     0.016 A 
BRANCH   7  12
ATOM     12  N   UNL     1       2.250  -2.778  -3.241  1.00  0.00    -0.217 N 
ATOM     13  C   UNL     1       1.048  -1.964  -1.627  1.00  0.00     0.132 A 
ATOM     14  N   UNL     1       0.225  -2.627  -2.504  1.00  0.00    -0.128 NA
ATOM     15  C   UNL     1       2.347  -2.019  -2.091  1.00  0.00     0.071 A 
ATOM     16  N   UNL     1       0.962  -3.057  -3.523  1.00  0.00    -0.061 NA
ATOM     17  C   UNL     1       3.591  -1.355  -1.635  1.00  0.00     0.069 C 
BRANCH  13  18
ATOM     18  C   UNL     1       0.537  -1.177  -0.519  1.00  0.00     0.087 C 
ATOM     19  C   UNL     1       0.478   0.310  -0.744  1.00  0.00     0.071 C 
ATOM     20  N   UNL     1       0.145  -1.853   0.521  1.00  0.00    -0.176 NA
BRANCH  20  21
ATOM     21  N   UNL     1      -0.422  -1.254   1.609  1.00  0.00    -0.254 N 
ATOM     22  H   UNL     1      -1.351  -1.518   1.803  1.00  0.00     0.193 HD
BRANCH  21  23
ATOM     23  C   UNL     1       0.124  -0.329   2.477  1.00  0.00     0.184 C 
ATOM     24  S   UNL     1       1.613   0.409   2.451  1.00  0.00    -0.040 S 
BRANCH  23  25
ATOM     25  N   UNL     1      -0.735  -0.010   3.495  1.00  0.00    -0.375 N 
ATOM     26  H   UNL     1      -1.625  -0.430   3.538  1.00  0.00     0.159 HD
ATOM     27  H   UNL     1      -0.463   0.639   4.183  1.00  0.00     0.159 HD
ENDBRANCH  23  25
ENDBRANCH  21  23
ENDBRANCH  20  21
ENDBRANCH  13  18
ENDBRANCH   7  12
ENDBRANCH   3   6
ENDBRANCH   1   2
BRANCH   1  28
ATOM     28  C   UNL     1       8.789  -5.573  -3.753  1.00  0.00     0.023 C 
BRANCH  28  29
ATOM     29  C   UNL     1      10.059  -6.230  -4.313  1.00  0.00     0.023 C 
BRANCH  29  30
ATOM     30  C   UNL     1      11.371  -5.641  -3.805  1.00  0.00     0.116 C 
BRANCH  30  31
ATOM     31  N   UNL     1      11.521  -5.758  -2.360  1.00  0.00    -0.352 N 
ATOM     32  C   UNL     1      12.462  -5.147  -1.551  1.00  0.00     0.251 C 
ATOM     33  H   UNL     1      10.874  -6.344  -1.904  1.00  0.00     0.163 HD
ATOM     34  O   UNL     1      12.765  -5.653  -0.480  1.00  0.00    -0.269 OA
BRANCH  32  35
ATOM     35  C   UNL     1      13.098  -3.890  -2.001  1.00  0.00     0.039 A 
ATOM     36  C   UNL     1      14.460  -3.677  -1.795  1.00  0.00     0.014 A 
ATOM     37  C   UNL     1      12.325  -2.918  -2.640  1.00  0.00     0.014 A 
ATOM     38  C   UNL     1      15.049  -2.531  -2.327  1.00  0.00     0.010 A 
ATOM     39  C   UNL     1      12.924  -1.831  -3.252  1.00  0.00     0.010 A 
ATOM     40  C   UNL     1      14.289  -1.625  -3.098  1.00  0.00    -0.014 A 
BRANCH  40  41
ATOM     41  C   UNL     1      14.981  -0.602  -3.895  1.00  0.00     0.031 A 
ATOM     42  C   UNL     1      16.147  -1.138  -4.644  1.00  0.00     0.074 A 
ATOM     43  C   UNL     1      14.598   0.679  -4.101  1.00  0.00     0.049 A 
ATOM     44  N   UNL     1      17.388  -0.982  -4.327  1.00  0.00    -0.248 NA
ATOM     45  C   UNL     1      15.931  -2.104  -5.731  1.00  0.00     0.031 C 
ATOM     46  C   UNL     1      13.373   1.345  -3.660  1.00  0.00     0.029 A 
ATOM     47  N   UNL     1      15.220   1.657  -4.832  1.00  0.00    -0.354 N 
ATOM     48  C   UNL     1      18.119  -1.592  -5.334  1.00  0.00     0.074 A 
ATOM     49  C   UNL     1      17.189  -2.440  -6.032  1.00  0.00     0.031 C 
ATOM     50  C   UNL     1      13.241   2.530  -4.301  1.00  0.00     0.029 A 
ATOM     51  C   UNL     1      14.438   2.785  -5.086  1.00  0.00     0.049 A 
ATOM     52  H   UNL     1      16.147   1.571  -5.152  1.00  0.00     0.167 HD
ATOM     53  C   UNL     1      19.359  -1.130  -5.655  1.00  0.00     0.034 A 
ATOM     54  C   UNL     1      14.740   3.859  -5.871  1.00  0.00     0.034 A 
ATOM     55  C   UNL     1      19.889  -0.287  -4.598  1.00  0.00     0.049 A 
ATOM     56  C   UNL     1      16.220   3.953  -5.909  1.00  0.00     0.074 A 
ATOM     57  C   UNL     1      20.053  -0.450  -3.232  1.00  0.00     0.029 A 
ATOM     58  N   UNL     1      19.945   1.075  -4.805  1.00  0.00    -0.354 N 
ATOM     59  N   UNL     1      16.938   4.243  -4.859  1.00  0.00    -0.248 NA
ATOM     60  C   UNL     1      16.927   3.246  -6.964  1.00  0.00     0.031 C 
ATOM     61  C   UNL     1      19.639   0.793  -2.666  1.00  0.00     0.029 A 
ATOM     62  C   UNL     1      19.367   1.677  -3.712  1.00  0.00     0.049 A 
ATOM     63  H   UNL     1      20.328   1.532  -5.588  1.00  0.00     0.167 HD
ATOM     64  C   UNL     1      18.008   3.365  -4.909  1.00  0.00     0.074 A 
ATOM     65  C   UNL     1      18.002   2.845  -6.277  1.00  0.00     0.031 C 
ATOM     66  C   UNL     1      18.624   2.923  -3.771  1.00  0.00     0.034 A 
BRANCH  53  67
ATOM     67  C   UNL     1      19.915  -1.098  -7.062  1.00  0.00     0.023 A 
ATOM     68  C   UNL     1      21.207  -0.567  -7.224  1.00  0.00     0.031 A 
ATOM     69  C   UNL     1      19.162  -1.253  -8.249  1.00  0.00     0.131 A 
ATOM     70  C   UNL     1      21.642  -0.096  -8.474  1.00  0.00     0.055 A 
ATOM     71  C   UNL     1      19.630  -0.855  -9.504  1.00  0.00     0.041 A 
ATOM     72  F   UNL     1      17.903  -1.704  -8.260  1.00  0.00    -0.206 F 
ATOM     73  C   UNL     1      20.862  -0.236  -9.618  1.00  0.00     0.022 A 
BRANCH  70  74
ATOM     74  S   UNL     1      23.160   0.886  -8.530  1.00  0.00     0.124 S 
ATOM     75  O   UNL     1      22.840   1.958  -7.592  1.00  0.00    -0.237 OA
ATOM     76  O   UNL     1      24.159  -0.080  -8.087  1.00  0.00    -0.237 OA
ATOM     77  O   UNL     1      23.255   1.285  -9.931  1.00  0.00    -0.744 OA
ENDBRANCH  70  74
ENDBRANCH  53  67
BRANCH  54  78
ATOM     78  C   UNL     1      13.839   4.632  -6.782  1.00  0.00     0.023 A 
ATOM     79  C   UNL     1      14.197   5.870  -7.373  1.00  0.00     0.031 A 
ATOM     80  C   UNL     1      12.678   4.011  -7.294  1.00  0.00     0.131 A 
ATOM     81  C   UNL     1      13.415   6.420  -8.423  1.00  0.00     0.055 A 
ATOM     82  C   UNL     1      11.913   4.557  -8.329  1.00  0.00     0.041 A 
ATOM     83  F   UNL     1      12.290   2.800  -6.866  1.00  0.00    -0.206 F 
ATOM     84  C   UNL     1      12.285   5.758  -8.906  1.00  0.00     0.022 A 
BRANCH  81  85
ATOM     85  S   UNL     1      13.904   7.970  -9.259  1.00  0.00     0.124 S 
ATOM     86  O   UNL     1      13.647   8.974  -8.233  1.00  0.00    -0.237 OA
ATOM     87  O   UNL     1      15.302   7.723  -9.593  1.00  0.00    -0.237 OA
ATOM     88  O   UNL     1      13.006   8.034 -10.414  1.00  0.00    -0.744 OA
ENDBRANCH  81  85
ENDBRANCH  54  78
BRANCH  66  89
ATOM     89  C   UNL     1      18.365   3.643  -2.457  1.00  0.00     0.023 A 
ATOM     90  C   UNL     1      17.092   3.942  -1.918  1.00  0.00     0.031 A 
ATOM     91  C   UNL     1      19.488   3.956  -1.666  1.00  0.00     0.131 A 
ATOM     92  C   UNL     1      16.984   4.545  -0.647  1.00  0.00     0.055 A 
ATOM     93  C   UNL     1      19.376   4.525  -0.398  1.00  0.00     0.041 A 
ATOM     94  F   UNL     1      20.729   3.687  -2.104  1.00  0.00    -0.206 F 
ATOM     95  C   UNL     1      18.122   4.831   0.113  1.00  0.00     0.022 A 
BRANCH  92  96
ATOM     96  S   UNL     1      15.357   5.008   0.035  1.00  0.00     0.124 S 
ATOM     97  O   UNL     1      14.680   5.642  -1.090  1.00  0.00    -0.237 OA
ATOM     98  O   UNL     1      14.817   3.721   0.464  1.00  0.00    -0.237 OA
ATOM     99  O   UNL     1      15.697   5.918   1.131  1.00  0.00    -0.744 OA
ENDBRANCH  92  96
ENDBRANCH  66  89
ENDBRANCH  40  41
ENDBRANCH  32  35
ENDBRANCH  30  31
ENDBRANCH  29  30
ENDBRANCH  28  29
ENDBRANCH   1  28
TORSDOF 19
