REMARK SMILES O=CN[C@@H](CCS[C@@H]1CCO[C@]2(CCOC2)C1)C(=O)NCCCCNC(=O)c1ccc(-c2c3nc(c(-c4cc(S(=O)(=O)[O-])ccc4F)c4ccc([nH]4)c(-c4cc(S(=O)(=O)[O-])ccc4F)c4nc(c(-c5cc(S(=O)(=O)[O-])ccc5F)c5ccc2[nH]5)C=C4)C=C3)cc1
REMARK SMILES IDX 22 1 21 2 20 3 18 4 19 5 4 7 3 8 1 9 2 10 5 12 6 13 7 14
REMARK SMILES IDX 8 15 9 16 17 17 10 18 12 19 11 20 13 21 16 22 14 23 15 24
REMARK SMILES IDX 23 25 24 26 25 27 26 28 27 30 28 31 29 32 90 33 30 34 89 35
REMARK SMILES IDX 31 36 32 37 33 38 83 39 34 40 88 41 82 42 84 43 35 44 87 45
REMARK SMILES IDX 81 46 80 47 36 49 68 50 48 51 67 52 49 53 52 54 66 55 85 56
REMARK SMILES IDX 50 57 51 58 65 60 86 61 53 62 37 63 38 64 46 65 39 66 45 67
REMARK SMILES IDX 47 68 44 69 40 70 41 71 42 72 43 73 69 74 70 75 78 76 71 77
REMARK SMILES IDX 77 78 79 79 76 80 72 81 73 82 74 83 75 84 54 85 55 86 63 87
REMARK SMILES IDX 56 88 62 89 64 90 61 91 57 92 58 93 59 94 60 95
REMARK H PARENT 20 6 3 11 25 29 84 48 52 59
REMARK Flexibility Score: inf
ROOT
ATOM      1  C   UNL     1       2.525   1.758   4.512  1.00  0.00     0.023 C 
ENDROOT
BRANCH   1   2
ATOM      2  C   UNL     1       3.687   1.655   2.752  1.00  0.00     0.116 C 
BRANCH   2   3
ATOM      3  N   UNL     1       4.106   0.303   1.903  1.00  0.00    -0.354 N 
ATOM      4  C   UNL     1       4.741  -0.043   0.765  1.00  0.00     0.242 C 
ATOM      5  O   UNL     1       4.904  -1.234   0.501  1.00  0.00    -0.273 OA
ATOM      6  H   UNL     1       3.794  -0.502   2.375  1.00  0.00     0.163 HD
BRANCH   4   7
ATOM      7  C   UNL     1       5.295   1.026  -0.098  1.00  0.00     0.171 C 
BRANCH   7   8
ATOM      8  N   UNL     1       4.112   1.548  -0.776  1.00  0.00    -0.347 N 
ATOM      9  O   UNL     1       2.268   1.002  -2.011  1.00  0.00    -0.279 OA
ATOM     10  C   UNL     1       3.425   0.771  -1.679  1.00  0.00     0.337 C 
ATOM     11  H   UNL     1       3.804   2.463  -0.586  1.00  0.00     0.164 HD
ENDBRANCH   7   8
BRANCH   7  12
ATOM     12  C   UNL     1       6.083   1.993   0.792  1.00  0.00     0.046 C 
BRANCH  12  13
ATOM     13  C   UNL     1       6.783   1.508   2.146  1.00  0.00     0.072 C 
BRANCH  13  14
ATOM     14  S   UNL     1       6.288   0.161   3.518  1.00  0.00    -0.158 SA
BRANCH  14  15
ATOM     15  C   UNL     1       4.485   0.655   4.402  1.00  0.00     0.052 C 
ATOM     16  C   UNL     1       2.808  -0.109   3.659  1.00  0.00     0.043 C 
ATOM     17  C   UNL     1       4.551   2.548   4.658  1.00  0.00     0.052 C 
ATOM     18  C   UNL     1       1.699   1.107   2.584  1.00  0.00     0.162 C 
ATOM     19  C   UNL     1       3.365   3.672   3.653  1.00  0.00     0.095 C 
ATOM     20  O   UNL     1       1.974   2.920   2.794  1.00  0.00    -0.372 OA
ATOM     21  C   UNL     1       4.259   4.642   2.847  1.00  0.00     0.066 C 
ATOM     22  C   UNL     1       2.719   4.841   4.490  1.00  0.00     0.195 C 
ATOM     23  C   UNL     1       4.811   5.560   3.949  1.00  0.00     0.163 C 
ATOM     24  O   UNL     1       3.793   5.661   4.940  1.00  0.00    -0.378 OA
ENDBRANCH  14  15
ENDBRANCH  13  14
ENDBRANCH  12  13
ENDBRANCH   7  12
ENDBRANCH   4   7
ENDBRANCH   2   3
ENDBRANCH   1   2
BRANCH   1  25
ATOM     25  C   UNL     1       2.462   1.039   6.053  1.00  0.00     0.023 C 
BRANCH  25  26
ATOM     26  C   UNL     1       2.632   1.919   7.305  1.00  0.00     0.116 C 
BRANCH  26  27
ATOM     27  N   UNL     1       1.860   3.147   7.299  1.00  0.00    -0.352 N 
ATOM     28  C   UNL     1       1.853   4.185   8.207  1.00  0.00     0.251 C 
ATOM     29  H   UNL     1       1.250   3.255   6.533  1.00  0.00     0.163 HD
ATOM     30  O   UNL     1       1.085   5.128   8.041  1.00  0.00    -0.269 OA
BRANCH  28  31
ATOM     31  C   UNL     1       2.655   4.082   9.446  1.00  0.00     0.039 A 
ATOM     32  C   UNL     1       1.990   4.287  10.657  1.00  0.00     0.014 A 
ATOM     33  C   UNL     1       3.992   3.682   9.442  1.00  0.00     0.014 A 
ATOM     34  C   UNL     1       2.620   3.955  11.854  1.00  0.00     0.010 A 
ATOM     35  C   UNL     1       4.590   3.264  10.630  1.00  0.00     0.010 A 
ATOM     36  C   UNL     1       3.896   3.368  11.843  1.00  0.00    -0.014 A 
BRANCH  36  37
ATOM     37  C   UNL     1       4.454   2.808  13.100  1.00  0.00     0.031 A 
ATOM     38  C   UNL     1       5.670   3.412  13.737  1.00  0.00     0.074 A 
ATOM     39  C   UNL     1       3.845   1.742  13.659  1.00  0.00     0.049 A 
ATOM     40  N   UNL     1       6.220   3.131  14.890  1.00  0.00    -0.248 NA
ATOM     41  C   UNL     1       6.376   4.447  12.968  1.00  0.00     0.031 C 
ATOM     42  C   UNL     1       2.703   1.026  13.082  1.00  0.00     0.029 A 
ATOM     43  N   UNL     1       4.078   1.087  14.841  1.00  0.00    -0.354 N 
ATOM     44  C   UNL     1       7.327   3.966  14.995  1.00  0.00     0.074 A 
ATOM     45  C   UNL     1       7.413   4.703  13.752  1.00  0.00     0.031 C 
ATOM     46  C   UNL     1       2.301   0.072  13.937  1.00  0.00     0.029 A 
ATOM     47  C   UNL     1       3.167   0.090  15.110  1.00  0.00     0.049 A 
ATOM     48  H   UNL     1       4.826   1.309  15.442  1.00  0.00     0.167 HD
ATOM     49  C   UNL     1       8.173   4.123  16.043  1.00  0.00     0.034 A 
ATOM     50  C   UNL     1       3.032  -0.704  16.190  1.00  0.00     0.034 A 
ATOM     51  C   UNL     1       8.074   3.364  17.267  1.00  0.00     0.049 A 
ATOM     52  C   UNL     1       3.974  -0.502  17.349  1.00  0.00     0.074 A 
ATOM     53  C   UNL     1       8.853   3.454  18.407  1.00  0.00     0.029 A 
ATOM     54  N   UNL     1       7.139   2.363  17.506  1.00  0.00    -0.354 N 
ATOM     55  N   UNL     1       4.967   0.350  17.467  1.00  0.00    -0.248 NA
ATOM     56  C   UNL     1       3.763  -1.351  18.527  1.00  0.00     0.031 C 
ATOM     57  C   UNL     1       8.429   2.470  19.309  1.00  0.00     0.029 A 
ATOM     58  C   UNL     1       7.339   1.810  18.762  1.00  0.00     0.049 A 
ATOM     59  H   UNL     1       6.437   2.086  16.874  1.00  0.00     0.167 HD
ATOM     60  C   UNL     1       5.484   0.154  18.744  1.00  0.00     0.074 A 
ATOM     61  C   UNL     1       4.674  -0.877  19.363  1.00  0.00     0.031 C 
ATOM     62  C   UNL     1       6.532   0.767  19.352  1.00  0.00     0.034 A 
BRANCH  49  63
ATOM     63  C   UNL     1       9.281   5.137  15.886  1.00  0.00     0.023 A 
ATOM     64  C   UNL     1       9.005   6.503  15.693  1.00  0.00     0.031 A 
ATOM     65  C   UNL     1      10.627   4.732  15.877  1.00  0.00     0.131 A 
ATOM     66  C   UNL     1      10.050   7.399  15.417  1.00  0.00     0.055 A 
ATOM     67  C   UNL     1      11.669   5.643  15.684  1.00  0.00     0.041 A 
ATOM     68  F   UNL     1      10.954   3.440  16.034  1.00  0.00    -0.206 F 
ATOM     69  C   UNL     1      11.382   6.983  15.435  1.00  0.00     0.022 A 
BRANCH  66  70
ATOM     70  S   UNL     1       9.630   9.082  14.883  1.00  0.00     0.124 S 
ATOM     71  O   UNL     1       8.847   8.821  13.678  1.00  0.00    -0.237 OA
ATOM     72  O   UNL     1       8.890   9.601  16.027  1.00  0.00    -0.237 OA
ATOM     73  O   UNL     1      10.933   9.701  14.649  1.00  0.00    -0.744 OA
ENDBRANCH  66  70
ENDBRANCH  49  63
BRANCH  50  74
ATOM     74  C   UNL     1       1.956  -1.737  16.244  1.00  0.00     0.023 A 
ATOM     75  C   UNL     1       0.912  -1.653  17.180  1.00  0.00     0.031 A 
ATOM     76  C   UNL     1       1.975  -2.844  15.377  1.00  0.00     0.131 A 
ATOM     77  C   UNL     1      -0.044  -2.678  17.257  1.00  0.00     0.055 A 
ATOM     78  C   UNL     1       0.994  -3.836  15.425  1.00  0.00     0.041 A 
ATOM     79  F   UNL     1       2.944  -2.968  14.456  1.00  0.00    -0.206 F 
ATOM     80  C   UNL     1      -0.017  -3.764  16.378  1.00  0.00     0.022 A 
BRANCH  77  81
ATOM     81  S   UNL     1      -1.288  -2.614  18.577  1.00  0.00     0.124 S 
ATOM     82  O   UNL     1      -0.453  -2.553  19.771  1.00  0.00    -0.237 OA
ATOM     83  O   UNL     1      -2.020  -1.397  18.242  1.00  0.00    -0.237 OA
ATOM     84  O   UNL     1      -2.036  -3.857  18.401  1.00  0.00    -0.744 OA
ENDBRANCH  77  81
ENDBRANCH  50  74
BRANCH  62  85
ATOM     85  C   UNL     1       6.833   0.341  20.767  1.00  0.00     0.023 A 
ATOM     86  C   UNL     1       7.289  -0.955  21.064  1.00  0.00     0.031 A 
ATOM     87  C   UNL     1       6.630   1.233  21.835  1.00  0.00     0.131 A 
ATOM     88  C   UNL     1       7.460  -1.347  22.399  1.00  0.00     0.055 A 
ATOM     89  C   UNL     1       6.862   0.857  23.158  1.00  0.00     0.041 A 
ATOM     90  F   UNL     1       6.195   2.483  21.608  1.00  0.00    -0.206 F 
ATOM     91  C   UNL     1       7.264  -0.444  23.448  1.00  0.00     0.022 A 
BRANCH  88  92
ATOM     92  S   UNL     1       7.837  -3.085  22.753  1.00  0.00     0.124 S 
ATOM     93  O   UNL     1       6.717  -3.774  22.119  1.00  0.00    -0.237 OA
ATOM     94  O   UNL     1       9.136  -3.259  22.113  1.00  0.00    -0.237 OA
ATOM     95  O   UNL     1       7.853  -3.142  24.214  1.00  0.00    -0.744 OA
ENDBRANCH  88  92
ENDBRANCH  62  85
ENDBRANCH  36  37
ENDBRANCH  28  31
ENDBRANCH  26  27
ENDBRANCH  25  26
ENDBRANCH   1  25
TORSDOF 19
