REMARK SMILES O=C(/C=C/[C@@]12C=C(O)C(=O)C=C1C(=O)C1=Cc3cc(O)c(O)cc3O[C@@H](c3ccc(O)c(O)c3)[C@@H]12)NCCCCNC(=O)c1ccc(-c2c3nc(c(-c4cc(S(=O)(=O)[O-])ccc4F)c4ccc([nH]4)c(-c4cc(S(=O)(=O)[O-])ccc4F)c4nc(c(-c5cc(S(=O)(=O)[O-])ccc5F)c5ccc2[nH]5)C=C4)C=C3)cc1
REMARK SMILES IDX 37 1 36 2 1 3 2 4 3 6 4 7 5 8 6 9 12 10 35 11 7 12 11 13
REMARK SMILES IDX 13 14 15 15 9 17 14 18 16 19 10 20 8 21 17 23 18 24 24 25
REMARK SMILES IDX 19 26 23 27 21 28 25 29 26 30 27 32 28 33 34 34 29 35 32 36
REMARK SMILES IDX 30 37 33 38 31 40 20 42 22 44 38 46 39 47 40 48 41 49 42 50
REMARK SMILES IDX 43 52 44 53 45 54 106 55 46 56 105 57 47 58 48 59 49 60
REMARK SMILES IDX 99 61 50 62 104 63 98 64 100 65 51 66 103 67 97 68 96 69
REMARK SMILES IDX 52 71 84 72 64 73 83 74 65 75 68 76 82 77 101 78 66 79 67 80
REMARK SMILES IDX 81 82 102 83 69 84 53 85 54 86 62 87 55 88 61 89 63 90 60 91
REMARK SMILES IDX 56 92 57 93 58 94 59 95 85 96 86 97 94 98 87 99 93 100
REMARK SMILES IDX 95 101 92 102 88 103 89 104 90 105 91 106 70 107 71 108
REMARK SMILES IDX 79 109 72 110 78 111 80 112 77 113 73 114 74 115 75 116
REMARK SMILES IDX 76 117
REMARK H PARENT 36 5 8 22 33 39 31 41 20 43 22 45 41 51 100 70 68 81
REMARK Flexibility Score: 90.00
ROOT
ATOM      1  C   UNL     1       2.021   2.046  -1.462  1.00  0.00     0.116 C 
ENDROOT
BRANCH   1   2
ATOM      2  N   UNL     1       2.692   1.085  -0.609  1.00  0.00    -0.353 N 
ATOM      3  O   UNL     1       0.924   0.811   0.839  1.00  0.00    -0.270 OA
ATOM      4  C   UNL     1       2.060   0.536   0.475  1.00  0.00     0.243 C 
ATOM      5  H   UNL     1       3.619   0.822  -0.813  1.00  0.00     0.163 HD
BRANCH   4   6
ATOM      6  C   UNL     1       2.788  -0.584   1.116  1.00  0.00     0.068 C 
ATOM      7  C   UNL     1       4.095  -0.606   1.450  1.00  0.00    -0.005 C 
BRANCH   7   8
ATOM      8  C   UNL     1       4.850  -1.861   1.981  1.00  0.00     0.051 C 
ATOM      9  C   UNL     1       3.856  -2.764   2.667  1.00  0.00     0.040 C 
ATOM     10  C   UNL     1       5.450  -2.535   0.769  1.00  0.00     0.018 C 
ATOM     11  C   UNL     1       6.154  -1.508   2.792  1.00  0.00     0.087 CG0
ATOM     12  C   UNL     1       3.397  -3.900   2.125  1.00  0.00     0.160 C 
ATOM     13  C   UNL     1       5.048  -3.670   0.191  1.00  0.00     0.065 C 
ATOM     14  C   UNL     1       6.694  -1.809   0.418  1.00  0.00     0.186 C 
ATOM     15  C   UNL     1       7.115  -1.129   1.673  1.00  0.00     0.009 C 
ATOM     16  G   UNL     1       6.894  -2.648   3.577  1.00  0.00     0.000 G0
ATOM     17  C   UNL     1       3.921  -4.400   0.814  1.00  0.00     0.220 C 
ATOM     18  O   UNL     1       7.254  -1.817  -0.650  1.00  0.00    -0.289 OA
ATOM     19  C   UNL     1       8.250  -0.442   1.828  1.00  0.00     0.020 C 
ATOM     20  O   UNL     1       3.455  -5.426   0.329  1.00  0.00    -0.286 OA
BRANCH  12  21
ATOM     21  O   UNL     1       2.423  -4.646   2.760  1.00  0.00    -0.504 OA
ATOM     22  H   UNL     1       2.075  -4.359   3.581  1.00  0.00     0.293 HD
ENDBRANCH  12  21
BRANCH  19  23
ATOM     23  C   UNL     1       8.673  -0.097   3.191  1.00  0.00     0.021 A 
ATOM     24  C   UNL     1       9.182   1.185   3.454  1.00  0.00     0.062 A 
ATOM     25  C   UNL     1       8.628  -1.052   4.232  1.00  0.00     0.131 A 
ATOM     26  C   UNL     1       9.623   1.495   4.739  1.00  0.00     0.158 A 
ATOM     27  C   UNL     1       9.125  -0.742   5.499  1.00  0.00     0.097 A 
ATOM     28  C   UNL     1       9.592   0.537   5.749  1.00  0.00     0.161 A 
BRANCH  25  29
ATOM     29  O   UNL     1       8.227  -2.352   4.067  1.00  0.00    -0.484 OA
BRANCH  29  30
ATOM     30  C   UNL     1       6.894  -2.648   3.577  1.00  0.00     0.213 CG0
ATOM     31  G   UNL     1       6.154  -1.508   2.792  1.00  0.00     0.000 G0
BRANCH  30  32
ATOM     32  C   UNL     1       6.117  -3.232   4.748  1.00  0.00    -0.003 A 
ATOM     33  C   UNL     1       5.504  -4.492   4.622  1.00  0.00     0.011 A 
ATOM     34  C   UNL     1       5.972  -2.538   5.959  1.00  0.00     0.057 A 
ATOM     35  C   UNL     1       4.650  -4.978   5.614  1.00  0.00     0.050 A 
ATOM     36  C   UNL     1       5.182  -3.066   6.980  1.00  0.00     0.157 A 
ATOM     37  C   UNL     1       4.476  -4.247   6.783  1.00  0.00     0.157 A 
BRANCH  36  38
ATOM     38  O   UNL     1       5.077  -2.406   8.172  1.00  0.00    -0.504 OA
ATOM     39  H   UNL     1       4.546  -2.760   8.858  1.00  0.00     0.293 HD
ENDBRANCH  36  38
BRANCH  37  40
ATOM     40  O   UNL     1       3.606  -4.690   7.737  1.00  0.00    -0.504 OA
ATOM     41  H   UNL     1       3.130  -5.487   7.604  1.00  0.00     0.293 HD
ENDBRANCH  37  40
ENDBRANCH  30  32
ENDBRANCH  29  30
ENDBRANCH  25  29
BRANCH  26  42
ATOM     42  O   UNL     1      10.107   2.731   5.064  1.00  0.00    -0.504 OA
ATOM     43  H   UNL     1      10.145   3.405   4.414  1.00  0.00     0.293 HD
ENDBRANCH  26  42
BRANCH  28  44
ATOM     44  O   UNL     1      10.037   0.848   7.002  1.00  0.00    -0.504 OA
ATOM     45  H   UNL     1      10.357   1.709   7.186  1.00  0.00     0.293 HD
ENDBRANCH  28  44
ENDBRANCH  19  23
ENDBRANCH   7   8
ENDBRANCH   4   6
ENDBRANCH   1   2
BRANCH   1  46
ATOM     46  C   UNL     1       2.277   3.489  -1.036  1.00  0.00     0.023 C 
BRANCH  46  47
ATOM     47  C   UNL     1       3.747   3.907  -1.067  1.00  0.00     0.023 C 
BRANCH  47  48
ATOM     48  C   UNL     1       4.450   3.726  -2.408  1.00  0.00     0.116 C 
BRANCH  48  49
ATOM     49  N   UNL     1       3.881   4.535  -3.475  1.00  0.00    -0.352 N 
ATOM     50  C   UNL     1       4.529   5.317  -4.405  1.00  0.00     0.251 C 
ATOM     51  H   UNL     1       2.898   4.521  -3.541  1.00  0.00     0.163 HD
ATOM     52  O   UNL     1       3.884   6.027  -5.170  1.00  0.00    -0.269 OA
BRANCH  50  53
ATOM     53  C   UNL     1       6.009   5.332  -4.436  1.00  0.00     0.039 A 
ATOM     54  C   UNL     1       6.732   4.139  -4.387  1.00  0.00     0.014 A 
ATOM     55  C   UNL     1       6.678   6.559  -4.449  1.00  0.00     0.014 A 
ATOM     56  C   UNL     1       8.103   4.176  -4.159  1.00  0.00     0.010 A 
ATOM     57  C   UNL     1       8.069   6.591  -4.308  1.00  0.00     0.010 A 
ATOM     58  C   UNL     1       8.786   5.403  -4.099  1.00  0.00    -0.014 A 
BRANCH  58  59
ATOM     59  C   UNL     1      10.244   5.414  -3.807  1.00  0.00     0.031 A 
ATOM     60  C   UNL     1      10.774   6.023  -2.537  1.00  0.00     0.074 A 
ATOM     61  C   UNL     1      11.089   4.810  -4.665  1.00  0.00     0.049 A 
ATOM     62  N   UNL     1      12.004   6.058  -2.092  1.00  0.00    -0.248 NA
ATOM     63  C   UNL     1       9.800   6.677  -1.648  1.00  0.00     0.031 C 
ATOM     64  C   UNL     1      10.686   4.182  -5.922  1.00  0.00     0.029 A 
ATOM     65  N   UNL     1      12.444   4.602  -4.604  1.00  0.00    -0.354 N 
ATOM     66  C   UNL     1      11.956   6.739  -0.881  1.00  0.00     0.074 A 
ATOM     67  C   UNL     1      10.581   7.139  -0.680  1.00  0.00     0.031 C 
ATOM     68  C   UNL     1      11.757   3.611  -6.487  1.00  0.00     0.029 A 
ATOM     69  C   UNL     1      12.937   3.889  -5.672  1.00  0.00     0.049 A 
ATOM     70  H   UNL     1      13.008   4.930  -3.868  1.00  0.00     0.167 HD
ATOM     71  C   UNL     1      12.962   6.993  -0.010  1.00  0.00     0.034 A 
ATOM     72  C   UNL     1      14.195   3.507  -5.973  1.00  0.00     0.034 A 
ATOM     73  C   UNL     1      14.332   6.599  -0.228  1.00  0.00     0.049 A 
ATOM     74  C   UNL     1      15.306   3.836  -5.012  1.00  0.00     0.074 A 
ATOM     75  C   UNL     1      15.424   6.811   0.596  1.00  0.00     0.029 A 
ATOM     76  N   UNL     1      14.802   5.921  -1.345  1.00  0.00    -0.354 N 
ATOM     77  N   UNL     1      15.235   4.449  -3.853  1.00  0.00    -0.248 NA
ATOM     78  C   UNL     1      16.663   3.424  -5.391  1.00  0.00     0.031 C 
ATOM     79  C   UNL     1      16.559   6.311  -0.045  1.00  0.00     0.029 A 
ATOM     80  C   UNL     1      16.170   5.725  -1.239  1.00  0.00     0.049 A 
ATOM     81  H   UNL     1      14.246   5.624  -2.100  1.00  0.00     0.167 HD
ATOM     82  C   UNL     1      16.537   4.491  -3.362  1.00  0.00     0.074 A 
ATOM     83  C   UNL     1      17.368   3.812  -4.335  1.00  0.00     0.031 C 
ATOM     84  C   UNL     1      16.997   5.049  -2.213  1.00  0.00     0.034 A 
BRANCH  71  85
ATOM     85  C   UNL     1      12.633   7.724   1.269  1.00  0.00     0.023 A 
ATOM     86  C   UNL     1      13.189   8.992   1.524  1.00  0.00     0.031 A 
ATOM     87  C   UNL     1      11.850   7.128   2.275  1.00  0.00     0.131 A 
ATOM     88  C   UNL     1      12.971   9.613   2.761  1.00  0.00     0.055 A 
ATOM     89  C   UNL     1      11.604   7.768   3.491  1.00  0.00     0.041 A 
ATOM     90  F   UNL     1      11.297   5.917   2.085  1.00  0.00    -0.206 F 
ATOM     91  C   UNL     1      12.175   9.011   3.742  1.00  0.00     0.022 A 
BRANCH  88  92
ATOM     92  S   UNL     1      13.757  11.195   3.172  1.00  0.00     0.124 S 
ATOM     93  O   UNL     1      12.596  12.065   3.349  1.00  0.00    -0.237 OA
ATOM     94  O   UNL     1      14.482  10.866   4.397  1.00  0.00    -0.237 OA
ATOM     95  O   UNL     1      14.585  11.488   2.008  1.00  0.00    -0.744 OA
ENDBRANCH  88  92
ENDBRANCH  71  85
BRANCH  72  96
ATOM     96  C   UNL     1      14.423   2.727  -7.223  1.00  0.00     0.023 A 
ATOM     97  C   UNL     1      14.109   3.279  -8.479  1.00  0.00     0.031 A 
ATOM     98  C   UNL     1      14.803   1.377  -7.170  1.00  0.00     0.131 A 
ATOM     99  C   UNL     1      14.086   2.459  -9.614  1.00  0.00     0.055 A 
ATOM    100  C   UNL     1      14.856   0.583  -8.317  1.00  0.00     0.041 A 
ATOM    101  F   UNL     1      15.100   0.804  -5.993  1.00  0.00    -0.206 F 
ATOM    102  C   UNL     1      14.473   1.118  -9.544  1.00  0.00     0.022 A 
BRANCH  99 103
ATOM    103  S   UNL     1      13.399   3.065 -11.180  1.00  0.00     0.124 S 
ATOM    104  O   UNL     1      14.511   2.857 -12.103  1.00  0.00    -0.237 OA
ATOM    105  O   UNL     1      12.252   2.178 -11.362  1.00  0.00    -0.237 OA
ATOM    106  O   UNL     1      13.067   4.457 -10.896  1.00  0.00    -0.744 OA
ENDBRANCH  99 103
ENDBRANCH  72  96
BRANCH  84 107
ATOM    107  C   UNL     1      18.476   4.977  -1.921  1.00  0.00     0.023 A 
ATOM    108  C   UNL     1      18.938   4.278  -0.788  1.00  0.00     0.031 A 
ATOM    109  C   UNL     1      19.405   5.721  -2.668  1.00  0.00     0.131 A 
ATOM    110  C   UNL     1      20.283   4.374  -0.411  1.00  0.00     0.055 A 
ATOM    111  C   UNL     1      20.754   5.776  -2.314  1.00  0.00     0.041 A 
ATOM    112  F   UNL     1      19.012   6.412  -3.750  1.00  0.00    -0.206 F 
ATOM    113  C   UNL     1      21.195   5.113  -1.172  1.00  0.00     0.022 A 
BRANCH 110 114
ATOM    114  S   UNL     1      20.880   3.620   1.128  1.00  0.00     0.124 S 
ATOM    115  O   UNL     1      21.889   2.686   0.634  1.00  0.00    -0.237 OA
ATOM    116  O   UNL     1      21.400   4.776   1.854  1.00  0.00    -0.237 OA
ATOM    117  O   UNL     1      19.689   3.003   1.702  1.00  0.00    -0.744 OA
ENDBRANCH 110 114
ENDBRANCH  84 107
ENDBRANCH  58  59
ENDBRANCH  50  53
ENDBRANCH  48  49
ENDBRANCH  47  48
ENDBRANCH  46  47
ENDBRANCH   1  46
TORSDOF 21
