REMARK SMILES O=C(CO/N=C\c1ccccc1)Nc1ccccc1C(=O)NCCCCNC(=O)c1ccc(-c2c3nc(c(-c4cc(S(=O)(=O)[O-])ccc4F)c4ccc([nH]4)c(-c4cc(S(=O)(=O)[O-])ccc4F)c4nc(c(-c5cc(S(=O)(=O)[O-])ccc5F)c5ccc2[nH]5)C=C4)C=C3)cc1
REMARK SMILES IDX 23 1 22 2 20 3 21 4 19 6 14 7 15 8 16 9 18 10 17 11 13 12
REMARK SMILES IDX 1 13 2 14 3 16 4 17 5 18 6 19 7 20 8 21 12 22 9 23 11 24
REMARK SMILES IDX 10 25 24 26 25 27 26 28 27 29 28 30 29 32 30 33 31 34 92 35
REMARK SMILES IDX 32 36 91 37 33 38 34 39 35 40 85 41 36 42 90 43 84 44 86 45
REMARK SMILES IDX 37 46 89 47 83 48 82 49 38 51 70 52 50 53 69 54 51 55 54 56
REMARK SMILES IDX 68 57 87 58 52 59 53 60 67 62 88 63 55 64 39 65 40 66 48 67
REMARK SMILES IDX 41 68 47 69 49 70 46 71 42 72 43 73 44 74 45 75 71 76 72 77
REMARK SMILES IDX 80 78 73 79 79 80 81 81 78 82 74 83 75 84 76 85 77 86 56 87
REMARK SMILES IDX 57 88 65 89 58 90 64 91 66 92 63 93 59 94 60 95 61 96 62 97
REMARK H PARENT 22 5 13 15 27 31 86 50 54 61
REMARK Flexibility Score: inf
ROOT
ATOM      1  C   UNL     1       3.171   1.740   0.958  1.00  0.00     0.116 C 
ENDROOT
BRANCH   1   2
ATOM      2  N   UNL     1       1.789   2.160   1.017  1.00  0.00    -0.352 N 
ATOM      3  C   UNL     1       0.884   2.350  -0.009  1.00  0.00     0.253 C 
ATOM      4  O   UNL     1      -0.248   2.742   0.279  1.00  0.00    -0.269 OA
ATOM      5  H   UNL     1       1.442   2.336   1.921  1.00  0.00     0.163 HD
BRANCH   3   6
ATOM      6  C   UNL     1       1.277   2.267  -1.447  1.00  0.00     0.063 A 
ATOM      7  C   UNL     1       2.058   1.274  -2.072  1.00  0.00     0.054 A 
ATOM      8  C   UNL     1       2.533   1.514  -3.376  1.00  0.00     0.027 A 
ATOM      9  C   UNL     1       2.138   2.643  -4.100  1.00  0.00     0.002 A 
ATOM     10  C   UNL     1       0.859   3.383  -2.207  1.00  0.00     0.016 A 
ATOM     11  C   UNL     1       1.272   3.563  -3.526  1.00  0.00     0.001 A 
BRANCH   7  12
ATOM     12  N   UNL     1       2.413   0.014  -1.538  1.00  0.00    -0.322 N 
ATOM     13  O   UNL     1       0.532  -0.460  -0.269  1.00  0.00    -0.271 OA
ATOM     14  C   UNL     1       1.672  -0.728  -0.635  1.00  0.00     0.265 C 
ATOM     15  H   UNL     1       3.268  -0.371  -1.836  1.00  0.00     0.170 HD
BRANCH  14  16
ATOM     16  C   UNL     1       2.431  -1.922  -0.055  1.00  0.00     0.363 C 
BRANCH  16  17
ATOM     17  O   UNL     1       3.613  -2.272  -0.766  1.00  0.00    -0.386 OA
BRANCH  17  18
ATOM     18  N   UNL     1       3.322  -3.332  -1.631  1.00  0.00    -0.094 NA
ATOM     19  C   UNL     1       4.374  -4.026  -1.950  1.00  0.00     0.162 C 
BRANCH  19  20
ATOM     20  C   UNL     1       5.768  -3.858  -1.500  1.00  0.00    -0.004 A 
ATOM     21  C   UNL     1       6.772  -3.943  -2.469  1.00  0.00     0.010 A 
ATOM     22  C   UNL     1       6.099  -3.697  -0.153  1.00  0.00     0.010 A 
ATOM     23  C   UNL     1       8.111  -3.829  -2.093  1.00  0.00     0.001 A 
ATOM     24  C   UNL     1       7.441  -3.594   0.218  1.00  0.00     0.001 A 
ATOM     25  C   UNL     1       8.444  -3.654  -0.750  1.00  0.00     0.000 A 
ENDBRANCH  19  20
ENDBRANCH  17  18
ENDBRANCH  16  17
ENDBRANCH  14  16
ENDBRANCH   7  12
ENDBRANCH   3   6
ENDBRANCH   1   2
BRANCH   1  26
ATOM     26  C   UNL     1       4.024   2.162   2.149  1.00  0.00     0.023 C 
BRANCH  26  27
ATOM     27  C   UNL     1       3.629   1.600   3.518  1.00  0.00     0.023 C 
BRANCH  27  28
ATOM     28  C   UNL     1       3.348   0.101   3.622  1.00  0.00     0.116 C 
BRANCH  28  29
ATOM     29  N   UNL     1       4.434  -0.759   3.171  1.00  0.00    -0.352 N 
ATOM     30  C   UNL     1       4.964  -1.889   3.756  1.00  0.00     0.251 C 
ATOM     31  H   UNL     1       4.853  -0.493   2.321  1.00  0.00     0.163 HD
ATOM     32  O   UNL     1       5.886  -2.482   3.199  1.00  0.00    -0.269 OA
BRANCH  30  33
ATOM     33  C   UNL     1       4.481  -2.353   5.079  1.00  0.00     0.039 A 
ATOM     34  C   UNL     1       5.427  -2.624   6.074  1.00  0.00     0.014 A 
ATOM     35  C   UNL     1       3.119  -2.473   5.364  1.00  0.00     0.014 A 
ATOM     36  C   UNL     1       5.007  -2.890   7.381  1.00  0.00     0.010 A 
ATOM     37  C   UNL     1       2.703  -2.674   6.681  1.00  0.00     0.010 A 
ATOM     38  C   UNL     1       3.642  -2.850   7.710  1.00  0.00    -0.014 A 
BRANCH  38  39
ATOM     39  C   UNL     1       3.190  -2.916   9.127  1.00  0.00     0.031 A 
ATOM     40  C   UNL     1       2.329  -4.050   9.609  1.00  0.00     0.074 A 
ATOM     41  C   UNL     1       3.487  -1.897   9.962  1.00  0.00     0.049 A 
ATOM     42  N   UNL     1       1.773  -4.228  10.780  1.00  0.00    -0.248 NA
ATOM     43  C   UNL     1       2.032  -5.108   8.633  1.00  0.00     0.031 C 
ATOM     44  C   UNL     1       4.268  -0.710   9.601  1.00  0.00     0.029 A 
ATOM     45  N   UNL     1       3.157  -1.684  11.278  1.00  0.00    -0.354 N 
ATOM     46  C   UNL     1       1.046  -5.410  10.681  1.00  0.00     0.074 A 
ATOM     47  C   UNL     1       1.196  -5.875   9.317  1.00  0.00     0.031 C 
ATOM     48  C   UNL     1       4.369   0.094  10.671  1.00  0.00     0.029 A 
ATOM     49  C   UNL     1       3.627  -0.493  11.782  1.00  0.00     0.049 A 
ATOM     50  H   UNL     1       2.633  -2.325  11.811  1.00  0.00     0.167 HD
ATOM     51  C   UNL     1       0.335  -6.054  11.641  1.00  0.00     0.034 A 
ATOM     52  C   UNL     1       3.470   0.073  12.996  1.00  0.00     0.034 A 
ATOM     53  C   UNL     1       0.202  -5.582  12.999  1.00  0.00     0.049 A 
ATOM     54  C   UNL     1       2.675  -0.660  14.045  1.00  0.00     0.074 A 
ATOM     55  C   UNL     1      -0.441  -6.190  14.065  1.00  0.00     0.029 A 
ATOM     56  N   UNL     1       0.712  -4.382  13.480  1.00  0.00    -0.354 N 
ATOM     57  N   UNL     1       2.046  -1.809  13.952  1.00  0.00    -0.248 NA
ATOM     58  C   UNL     1       2.578  -0.026  15.367  1.00  0.00     0.031 C 
ATOM     59  C   UNL     1      -0.372  -5.333  15.169  1.00  0.00     0.029 A 
ATOM     60  C   UNL     1       0.374  -4.220  14.816  1.00  0.00     0.049 A 
ATOM     61  H   UNL     1       1.236  -3.740  12.949  1.00  0.00     0.167 HD
ATOM     62  C   UNL     1       1.504  -2.047  15.211  1.00  0.00     0.074 A 
ATOM     63  C   UNL     1       1.891  -0.930  16.049  1.00  0.00     0.031 C 
ATOM     64  C   UNL     1       0.756  -3.096  15.638  1.00  0.00     0.034 A 
BRANCH  51  65
ATOM     65  C   UNL     1      -0.373  -7.326  11.240  1.00  0.00     0.023 A 
ATOM     66  C   UNL     1       0.338  -8.461  10.812  1.00  0.00     0.031 A 
ATOM     67  C   UNL     1      -1.777  -7.397  11.257  1.00  0.00     0.131 A 
ATOM     68  C   UNL     1      -0.356  -9.587  10.343  1.00  0.00     0.055 A 
ATOM     69  C   UNL     1      -2.461  -8.550  10.865  1.00  0.00     0.041 A 
ATOM     70  F   UNL     1      -2.510  -6.340  11.640  1.00  0.00    -0.206 F 
ATOM     71  C   UNL     1      -1.750  -9.648  10.389  1.00  0.00     0.022 A 
BRANCH  68  72
ATOM     72  S   UNL     1       0.588 -10.911   9.540  1.00  0.00     0.124 S 
ATOM     73  O   UNL     1       1.220 -10.195   8.435  1.00  0.00    -0.237 OA
ATOM     74  O   UNL     1       1.479 -11.355  10.606  1.00  0.00    -0.237 OA
ATOM     75  O   UNL     1      -0.439 -11.873   9.144  1.00  0.00    -0.744 OA
ENDBRANCH  68  72
ENDBRANCH  51  65
BRANCH  52  76
ATOM     76  C   UNL     1       4.062   1.409  13.290  1.00  0.00     0.023 A 
ATOM     77  C   UNL     1       5.090   1.553  14.235  1.00  0.00     0.031 A 
ATOM     78  C   UNL     1       3.580   2.568  12.657  1.00  0.00     0.131 A 
ATOM     79  C   UNL     1       5.572   2.831  14.555  1.00  0.00     0.055 A 
ATOM     80  C   UNL     1       4.096   3.833  12.944  1.00  0.00     0.041 A 
ATOM     81  F   UNL     1       2.604   2.485  11.739  1.00  0.00    -0.206 F 
ATOM     82  C   UNL     1       5.090   3.971  13.908  1.00  0.00     0.022 A 
BRANCH  79  83
ATOM     83  S   UNL     1       6.790   2.991  15.890  1.00  0.00     0.124 S 
ATOM     84  O   UNL     1       6.079   2.394  17.015  1.00  0.00    -0.237 OA
ATOM     85  O   UNL     1       7.917   2.228  15.364  1.00  0.00    -0.237 OA
ATOM     86  O   UNL     1       7.006   4.434  15.982  1.00  0.00    -0.744 OA
ENDBRANCH  79  83
ENDBRANCH  52  76
BRANCH  64  87
ATOM     87  C   UNL     1       0.351  -3.100  17.091  1.00  0.00     0.023 A 
ATOM     88  C   UNL     1      -0.563  -2.166  17.608  1.00  0.00     0.031 A 
ATOM     89  C   UNL     1       0.905  -4.044  17.974  1.00  0.00     0.131 A 
ATOM     90  C   UNL     1      -0.858  -2.163  18.980  1.00  0.00     0.055 A 
ATOM     91  C   UNL     1       0.566  -4.071  19.328  1.00  0.00     0.041 A 
ATOM     92  F   UNL     1       1.786  -4.957  17.534  1.00  0.00    -0.206 F 
ATOM     93  C   UNL     1      -0.311  -3.119  19.840  1.00  0.00     0.022 A 
BRANCH  90  94
ATOM     94  S   UNL     1      -1.904  -0.838  19.645  1.00  0.00     0.124 S 
ATOM     95  O   UNL     1      -1.146   0.356  19.286  1.00  0.00    -0.237 OA
ATOM     96  O   UNL     1      -3.157  -1.038  18.925  1.00  0.00    -0.237 OA
ATOM     97  O   UNL     1      -1.959  -1.130  21.076  1.00  0.00    -0.744 OA
ENDBRANCH  90  94
ENDBRANCH  64  87
ENDBRANCH  38  39
ENDBRANCH  30  33
ENDBRANCH  28  29
ENDBRANCH  27  28
ENDBRANCH  26  27
ENDBRANCH   1  26
TORSDOF 19
