REMARK SMILES C[C@@H](C(=O)NCCCCNC(=O)c1ccc(-c2c3nc(c(-c4cc(S(=O)(=O)[O-])ccc4F)c4ccc([nH]4)c(-c4cc(S(=O)(=O)[O-])ccc4F)c4nc(c(-c5cc(S(=O)(=O)[O-])ccc5F)c5ccc2[nH]5)C=C4)C=C3)cc1)c1ccc(Cc2ccco2)cc1F
REMARK SMILES IDX 7 1 6 2 5 3 3 4 4 5 2 7 1 8 76 9 77 10 87 11 78 12 86 13
REMARK SMILES IDX 88 14 79 15 80 16 81 17 82 18 85 19 83 20 84 21 8 22 9 23
REMARK SMILES IDX 10 24 11 25 12 27 13 28 14 29 75 30 15 31 74 32 16 33 17 34
REMARK SMILES IDX 18 35 68 36 19 37 73 38 67 39 69 40 20 41 72 42 66 43 65 44
REMARK SMILES IDX 21 46 53 47 33 48 52 49 34 50 37 51 51 52 70 53 35 54 36 55
REMARK SMILES IDX 50 57 71 58 38 59 22 60 23 61 31 62 24 63 30 64 32 65 29 66
REMARK SMILES IDX 25 67 26 68 27 69 28 70 54 71 55 72 63 73 56 74 62 75 64 76
REMARK SMILES IDX 61 77 57 78 58 79 59 80 60 81 39 82 40 83 48 84 41 85 47 86
REMARK SMILES IDX 49 87 46 88 42 89 43 90 44 91 45 92
REMARK H PARENT 5 6 10 26 69 45 37 56
REMARK Flexibility Score: inf
ROOT
ATOM      1  C   UNL     1       4.361   1.029  -0.059  1.00  0.00     0.023 C 
ENDROOT
BRANCH   1   2
ATOM      2  C   UNL     1       3.537   1.154   1.227  1.00  0.00     0.116 C 
BRANCH   2   3
ATOM      3  N   UNL     1       2.551   2.208   1.107  1.00  0.00    -0.356 N 
ATOM      4  C   UNL     1       1.231   2.147   0.769  1.00  0.00     0.227 C 
ATOM      5  O   UNL     1       0.736   3.211   0.396  1.00  0.00    -0.274 OA
ATOM      6  H   UNL     1       2.888   3.113   1.299  1.00  0.00     0.163 HD
BRANCH   4   7
ATOM      7  C   UNL     1       0.470   0.810   0.848  1.00  0.00     0.108 C 
ATOM      8  C   UNL     1       0.749  -0.008  -0.419  1.00  0.00     0.023 C 
BRANCH   7   9
ATOM      9  C   UNL     1      -1.043   0.875   1.082  1.00  0.00    -0.000 A 
ATOM     10  C   UNL     1      -1.822   2.026   0.918  1.00  0.00     0.008 A 
ATOM     11  C   UNL     1      -1.726  -0.302   1.429  1.00  0.00     0.127 A 
ATOM     12  C   UNL     1      -3.213   1.992   1.057  1.00  0.00     0.005 A 
ATOM     13  C   UNL     1      -3.115  -0.347   1.574  1.00  0.00     0.043 A 
ATOM     14  F   UNL     1      -1.038  -1.441   1.606  1.00  0.00    -0.207 F 
ATOM     15  C   UNL     1      -3.880   0.806   1.381  1.00  0.00    -0.038 A 
BRANCH  15  16
ATOM     16  C   UNL     1      -5.387   0.780   1.488  1.00  0.00     0.111 C 
BRANCH  16  17
ATOM     17  C   UNL     1      -5.924   1.495   2.681  1.00  0.00     0.108 A 
ATOM     18  C   UNL     1      -5.812   2.788   3.157  1.00  0.00     0.046 A 
ATOM     19  O   UNL     1      -6.750   0.776   3.497  1.00  0.00    -0.469 OA
ATOM     20  C   UNL     1      -6.596   2.855   4.332  1.00  0.00     0.042 A 
ATOM     21  C   UNL     1      -7.148   1.607   4.494  1.00  0.00     0.195 A 
ENDBRANCH  16  17
ENDBRANCH  15  16
ENDBRANCH   7   9
ENDBRANCH   4   7
ENDBRANCH   2   3
ENDBRANCH   1   2
BRANCH   1  22
ATOM     22  C   UNL     1       5.119   2.295  -0.472  1.00  0.00     0.023 C 
BRANCH  22  23
ATOM     23  C   UNL     1       6.076   2.851   0.575  1.00  0.00     0.116 C 
BRANCH  23  24
ATOM     24  N   UNL     1       7.094   1.890   0.963  1.00  0.00    -0.352 N 
ATOM     25  C   UNL     1       8.449   2.073   1.101  1.00  0.00     0.251 C 
ATOM     26  H   UNL     1       6.768   0.981   1.154  1.00  0.00     0.163 HD
ATOM     27  O   UNL     1       9.175   1.099   1.284  1.00  0.00    -0.269 OA
BRANCH  25  28
ATOM     28  C   UNL     1       9.025   3.430   0.993  1.00  0.00     0.039 A 
ATOM     29  C   UNL     1      10.173   3.616   0.219  1.00  0.00     0.014 A 
ATOM     30  C   UNL     1       8.434   4.516   1.645  1.00  0.00     0.014 A 
ATOM     31  C   UNL     1      10.692   4.902   0.048  1.00  0.00     0.010 A 
ATOM     32  C   UNL     1       8.910   5.804   1.415  1.00  0.00     0.010 A 
ATOM     33  C   UNL     1      10.045   6.011   0.617  1.00  0.00    -0.014 A 
BRANCH  33  34
ATOM     34  C   UNL     1      10.546   7.393   0.400  1.00  0.00     0.031 A 
ATOM     35  C   UNL     1      11.045   8.202   1.566  1.00  0.00     0.074 A 
ATOM     36  C   UNL     1      10.490   7.941  -0.830  1.00  0.00     0.049 A 
ATOM     37  N   UNL     1      11.433   9.451   1.605  1.00  0.00    -0.248 NA
ATOM     38  C   UNL     1      11.081   7.521   2.869  1.00  0.00     0.031 C 
ATOM     39  C   UNL     1       9.993   7.269  -2.033  1.00  0.00     0.029 A 
ATOM     40  N   UNL     1      10.842   9.191  -1.273  1.00  0.00    -0.354 N 
ATOM     41  C   UNL     1      11.743   9.711   2.935  1.00  0.00     0.074 A 
ATOM     42  C   UNL     1      11.438   8.507   3.678  1.00  0.00     0.031 C 
ATOM     43  C   UNL     1      10.091   8.107  -3.078  1.00  0.00     0.029 A 
ATOM     44  C   UNL     1      10.612   9.389  -2.615  1.00  0.00     0.049 A 
ATOM     45  H   UNL     1      11.225   9.883  -0.685  1.00  0.00     0.167 HD
ATOM     46  C   UNL     1      12.257  10.841   3.482  1.00  0.00     0.034 A 
ATOM     47  C   UNL     1      10.786  10.484  -3.382  1.00  0.00     0.034 A 
ATOM     48  C   UNL     1      12.567  12.029   2.723  1.00  0.00     0.049 A 
ATOM     49  C   UNL     1      11.336  11.737  -2.748  1.00  0.00     0.074 A 
ATOM     50  C   UNL     1      13.139  13.210   3.164  1.00  0.00     0.029 A 
ATOM     51  N   UNL     1      12.325  12.191   1.365  1.00  0.00    -0.354 N 
ATOM     52  N   UNL     1      11.668  11.953  -1.496  1.00  0.00    -0.248 NA
ATOM     53  C   UNL     1      11.543  12.890  -3.634  1.00  0.00     0.031 C 
ATOM     54  C   UNL     1      13.181  14.106   2.091  1.00  0.00     0.029 A 
ATOM     55  C   UNL     1      12.707  13.461   0.959  1.00  0.00     0.049 A 
ATOM     56  H   UNL     1      11.937  11.504   0.775  1.00  0.00     0.167 HD
ATOM     57  C   UNL     1      12.154  13.257  -1.453  1.00  0.00     0.074 A 
ATOM     58  C   UNL     1      12.083  13.771  -2.805  1.00  0.00     0.031 C 
ATOM     59  C   UNL     1      12.621  13.964  -0.392  1.00  0.00     0.034 A 
BRANCH  46  60
ATOM     60  C   UNL     1      12.485  10.847   4.976  1.00  0.00     0.023 A 
ATOM     61  C   UNL     1      13.385   9.957   5.589  1.00  0.00     0.031 A 
ATOM     62  C   UNL     1      11.769  11.729   5.804  1.00  0.00     0.131 A 
ATOM     63  C   UNL     1      13.483   9.910   6.987  1.00  0.00     0.055 A 
ATOM     64  C   UNL     1      11.935  11.737   7.191  1.00  0.00     0.041 A 
ATOM     65  F   UNL     1      10.880  12.589   5.281  1.00  0.00    -0.206 F 
ATOM     66  C   UNL     1      12.784  10.812   7.792  1.00  0.00     0.022 A 
BRANCH  63  67
ATOM     67  S   UNL     1      14.418   8.553   7.744  1.00  0.00     0.124 S 
ATOM     68  O   UNL     1      13.712   7.384   7.224  1.00  0.00    -0.237 OA
ATOM     69  O   UNL     1      15.764   8.769   7.226  1.00  0.00    -0.237 OA
ATOM     70  O   UNL     1      14.256   8.782   9.178  1.00  0.00    -0.744 OA
ENDBRANCH  63  67
ENDBRANCH  46  60
BRANCH  47  71
ATOM     71  C   UNL     1      10.430  10.457  -4.830  1.00  0.00     0.023 A 
ATOM     72  C   UNL     1      11.414  10.603  -5.819  1.00  0.00     0.031 A 
ATOM     73  C   UNL     1       9.092  10.324  -5.244  1.00  0.00     0.131 A 
ATOM     74  C   UNL     1      11.044  10.661  -7.172  1.00  0.00     0.055 A 
ATOM     75  C   UNL     1       8.735  10.329  -6.593  1.00  0.00     0.041 A 
ATOM     76  F   UNL     1       8.112  10.175  -4.339  1.00  0.00    -0.206 F 
ATOM     77  C   UNL     1       9.712  10.512  -7.566  1.00  0.00     0.022 A 
BRANCH  74  78
ATOM     78  S   UNL     1      12.323  11.017  -8.408  1.00  0.00     0.124 S 
ATOM     79  O   UNL     1      12.831  12.304  -7.947  1.00  0.00    -0.237 OA
ATOM     80  O   UNL     1      13.221   9.878  -8.251  1.00  0.00    -0.237 OA
ATOM     81  O   UNL     1      11.580  11.052  -9.666  1.00  0.00    -0.744 OA
ENDBRANCH  74  78
ENDBRANCH  47  71
BRANCH  59  82
ATOM     82  C   UNL     1      13.136  15.356  -0.669  1.00  0.00     0.023 A 
ATOM     83  C   UNL     1      12.281  16.395  -1.078  1.00  0.00     0.031 A 
ATOM     84  C   UNL     1      14.506  15.641  -0.532  1.00  0.00     0.131 A 
ATOM     85  C   UNL     1      12.814  17.655  -1.389  1.00  0.00     0.055 A 
ATOM     86  C   UNL     1      15.021  16.913  -0.784  1.00  0.00     0.041 A 
ATOM     87  F   UNL     1      15.367  14.685  -0.147  1.00  0.00    -0.206 F 
ATOM     88  C   UNL     1      14.176  17.925  -1.228  1.00  0.00     0.022 A 
BRANCH  85  89
ATOM     89  S   UNL     1      11.717  18.916  -2.093  1.00  0.00     0.124 S 
ATOM     90  O   UNL     1      11.226  18.253  -3.297  1.00  0.00    -0.237 OA
ATOM     91  O   UNL     1      10.738  19.109  -1.028  1.00  0.00    -0.237 OA
ATOM     92  O   UNL     1      12.606  20.052  -2.330  1.00  0.00    -0.744 OA
ENDBRANCH  85  89
ENDBRANCH  59  82
ENDBRANCH  33  34
ENDBRANCH  25  28
ENDBRANCH  23  24
ENDBRANCH  22  23
ENDBRANCH   1  22
TORSDOF 17
