REMARK SMILES C[C@H]1[C@@H](C(=O)NCCCCNC(=O)c2ccc(-c3c4nc(c(-c5cc(S(=O)(=O)[O-])ccc5F)c5ccc([nH]5)c(-c5cc(S(=O)(=O)[O-])ccc5F)c5nc(c(-c6cc(S(=O)(=O)[O-])ccc6F)c6ccc3[nH]6)C=C5)C=C4)cc2)CC[N@@H+]1CC(=O)NNc1ccccn1
REMARK SMILES IDX 8 1 7 2 6 3 4 4 5 5 3 7 1 8 2 9 79 10 77 11 78 12 80 14
REMARK SMILES IDX 81 15 82 16 83 17 84 19 85 21 86 22 90 23 87 24 89 25 88 26
REMARK SMILES IDX 9 27 10 28 11 29 12 30 13 32 14 33 15 34 76 35 16 36 75 37
REMARK SMILES IDX 17 38 18 39 19 40 69 41 20 42 74 43 68 44 70 45 21 46 73 47
REMARK SMILES IDX 67 48 66 49 22 51 54 52 34 53 53 54 35 55 38 56 52 57 71 58
REMARK SMILES IDX 36 59 37 60 51 62 72 63 39 64 23 65 24 66 32 67 25 68 31 69
REMARK SMILES IDX 33 70 30 71 26 72 27 73 28 74 29 75 55 76 56 77 64 78 57 79
REMARK SMILES IDX 63 80 65 81 62 82 58 83 59 84 60 85 61 86 40 87 41 88 49 89
REMARK SMILES IDX 42 90 48 91 50 92 47 93 43 94 44 95 45 96 46 97
REMARK H PARENT 6 6 79 13 83 18 84 20 11 31 70 50 38 61
REMARK Flexibility Score: inf
ROOT
ATOM      1  C   UNL     1       3.516   0.271  -1.926  1.00  0.00     0.023 C 
ENDROOT
BRANCH   1   2
ATOM      2  C   UNL     1       2.763   1.374  -1.179  1.00  0.00     0.116 C 
BRANCH   2   3
ATOM      3  N   UNL     1       1.546   1.688  -1.893  1.00  0.00    -0.356 N 
ATOM      4  C   UNL     1       0.269   1.284  -1.643  1.00  0.00     0.229 C 
ATOM      5  O   UNL     1      -0.550   1.459  -2.548  1.00  0.00    -0.275 OA
ATOM      6  H   UNL     1       1.655   2.279  -2.673  1.00  0.00     0.163 HD
BRANCH   4   7
ATOM      7  C   UNL     1      -0.132   0.760  -0.263  1.00  0.00     0.142 C 
ATOM      8  C   UNL     1       1.034  -1.553  -0.776  1.00  0.00     0.076 C 
ATOM      9  C   UNL     1       0.390  -0.607   0.233  1.00  0.00     0.194 C 
ATOM     10  N   UNL     1      -0.772  -1.345   0.755  1.00  0.00    -0.324 N 
ATOM     11  C   UNL     1      -1.661   0.662  -0.124  1.00  0.00     0.081 C 
ATOM     12  C   UNL     1      -1.944  -0.814   0.070  1.00  0.00     0.263 C 
ATOM     13  H   UNL     1      -0.691  -2.340   0.542  1.00  0.00     0.348 HD
BRANCH  10  14
ATOM     14  C   UNL     1      -0.846  -1.438   2.221  1.00  0.00     0.365 C 
BRANCH  14  15
ATOM     15  C   UNL     1      -1.415  -0.215   2.936  1.00  0.00     0.293 C 
ATOM     16  O   UNL     1      -2.632  -0.061   3.083  1.00  0.00    -0.267 OA
ATOM     17  N   UNL     1      -0.571   0.731   3.455  1.00  0.00    -0.264 N 
ATOM     18  H   UNL     1      -0.970   1.496   3.928  1.00  0.00     0.191 HD
BRANCH  17  19
ATOM     19  N   UNL     1       0.820   0.679   3.354  1.00  0.00    -0.282 N 
ATOM     20  H   UNL     1       1.323  -0.163   3.269  1.00  0.00     0.190 HD
BRANCH  19  21
ATOM     21  C   UNL     1       1.435   1.946   3.385  1.00  0.00     0.144 A 
ATOM     22  C   UNL     1       1.459   2.671   4.578  1.00  0.00     0.048 A 
ATOM     23  N   UNL     1       1.980   2.427   2.251  1.00  0.00    -0.238 NA
ATOM     24  C   UNL     1       2.046   3.933   4.600  1.00  0.00     0.005 A 
ATOM     25  C   UNL     1       2.548   3.654   2.296  1.00  0.00     0.113 A 
ATOM     26  C   UNL     1       2.604   4.438   3.434  1.00  0.00     0.020 A 
ENDBRANCH  19  21
ENDBRANCH  17  19
ENDBRANCH  14  15
ENDBRANCH  10  14
ENDBRANCH   4   7
ENDBRANCH   2   3
ENDBRANCH   1   2
BRANCH   1  27
ATOM     27  C   UNL     1       4.318   0.738  -3.130  1.00  0.00     0.023 C 
BRANCH  27  28
ATOM     28  C   UNL     1       5.506   1.611  -2.782  1.00  0.00     0.116 C 
BRANCH  28  29
ATOM     29  N   UNL     1       6.453   0.962  -1.882  1.00  0.00    -0.352 N 
ATOM     30  C   UNL     1       7.814   0.798  -2.029  1.00  0.00     0.251 C 
ATOM     31  H   UNL     1       6.066   0.588  -1.057  1.00  0.00     0.163 HD
ATOM     32  O   UNL     1       8.447   0.115  -1.242  1.00  0.00    -0.269 OA
BRANCH  30  33
ATOM     33  C   UNL     1       8.472   1.438  -3.187  1.00  0.00     0.039 A 
ATOM     34  C   UNL     1       9.297   0.674  -4.013  1.00  0.00     0.014 A 
ATOM     35  C   UNL     1       8.171   2.763  -3.508  1.00  0.00     0.014 A 
ATOM     36  C   UNL     1       9.747   1.217  -5.217  1.00  0.00     0.010 A 
ATOM     37  C   UNL     1       8.518   3.254  -4.757  1.00  0.00     0.010 A 
ATOM     38  C   UNL     1       9.316   2.491  -5.623  1.00  0.00    -0.014 A 
BRANCH  38  39
ATOM     39  C   UNL     1       9.706   3.071  -6.934  1.00  0.00     0.031 A 
ATOM     40  C   UNL     1      10.459   4.374  -6.967  1.00  0.00     0.074 A 
ATOM     41  C   UNL     1       9.306   2.482  -8.079  1.00  0.00     0.049 A 
ATOM     42  N   UNL     1      10.778   5.123  -7.990  1.00  0.00    -0.248 NA
ATOM     43  C   UNL     1      10.854   4.936  -5.666  1.00  0.00     0.031 C 
ATOM     44  C   UNL     1       8.514   1.253  -8.173  1.00  0.00     0.029 A 
ATOM     45  N   UNL     1       9.503   2.846  -9.388  1.00  0.00    -0.354 N 
ATOM     46  C   UNL     1      11.378   6.258  -7.452  1.00  0.00     0.074 A 
ATOM     47  C   UNL     1      11.302   6.131  -6.013  1.00  0.00     0.031 C 
ATOM     48  C   UNL     1       8.324   0.948  -9.467  1.00  0.00     0.029 A 
ATOM     49  C   UNL     1       8.939   1.978 -10.295  1.00  0.00     0.049 A 
ATOM     50  H   UNL     1      10.001   3.652  -9.653  1.00  0.00     0.167 HD
ATOM     51  C   UNL     1      11.969   7.292  -8.098  1.00  0.00     0.034 A 
ATOM     52  C   UNL     1       8.919   2.017 -11.642  1.00  0.00     0.034 A 
ATOM     53  C   UNL     1      12.075   7.374  -9.533  1.00  0.00     0.049 A 
ATOM     54  C   UNL     1       9.610   3.160 -12.342  1.00  0.00     0.074 A 
ATOM     55  C   UNL     1      12.713   8.332 -10.299  1.00  0.00     0.029 A 
ATOM     56  N   UNL     1      11.529   6.454 -10.420  1.00  0.00    -0.354 N 
ATOM     57  N   UNL     1      10.222   4.199 -11.820  1.00  0.00    -0.248 NA
ATOM     58  C   UNL     1       9.618   3.129 -13.810  1.00  0.00     0.031 C 
ATOM     59  C   UNL     1      12.510   8.021 -11.648  1.00  0.00     0.029 A 
ATOM     60  C   UNL     1      11.800   6.832 -11.725  1.00  0.00     0.049 A 
ATOM     61  H   UNL     1      11.023   5.651 -10.159  1.00  0.00     0.167 HD
ATOM     62  C   UNL     1      10.713   4.929 -12.898  1.00  0.00     0.074 A 
ATOM     63  C   UNL     1      10.338   4.204 -14.096  1.00  0.00     0.031 C 
ATOM     64  C   UNL     1      11.411   6.093 -12.902  1.00  0.00     0.034 A 
BRANCH  51  65
ATOM     65  C   UNL     1      12.530   8.408  -7.248  1.00  0.00     0.023 A 
ATOM     66  C   UNL     1      13.553   8.178  -6.311  1.00  0.00     0.031 A 
ATOM     67  C   UNL     1      11.998   9.706  -7.332  1.00  0.00     0.131 A 
ATOM     68  C   UNL     1      13.942   9.199  -5.431  1.00  0.00     0.055 A 
ATOM     69  C   UNL     1      12.455  10.744  -6.516  1.00  0.00     0.041 A 
ATOM     70  F   UNL     1      11.005   9.985  -8.192  1.00  0.00    -0.206 F 
ATOM     71  C   UNL     1      13.419  10.489  -5.545  1.00  0.00     0.022 A 
BRANCH  68  72
ATOM     72  S   UNL     1      15.016   8.772  -4.034  1.00  0.00     0.124 S 
ATOM     73  O   UNL     1      14.200   7.786  -3.328  1.00  0.00    -0.237 OA
ATOM     74  O   UNL     1      16.209   8.258  -4.696  1.00  0.00    -0.237 OA
ATOM     75  O   UNL     1      15.188  10.043  -3.333  1.00  0.00    -0.744 OA
ENDBRANCH  68  72
ENDBRANCH  51  65
BRANCH  52  76
ATOM     76  C   UNL     1       8.235   0.946 -12.422  1.00  0.00     0.023 A 
ATOM     77  C   UNL     1       8.967   0.076 -13.247  1.00  0.00     0.031 A 
ATOM     78  C   UNL     1       6.838   0.799 -12.386  1.00  0.00     0.131 A 
ATOM     79  C   UNL     1       8.297  -0.871 -14.037  1.00  0.00     0.055 A 
ATOM     80  C   UNL     1       6.179  -0.176 -13.138  1.00  0.00     0.041 A 
ATOM     81  F   UNL     1       6.091   1.598 -11.608  1.00  0.00    -0.206 F 
ATOM     82  C   UNL     1       6.909  -1.010 -13.980  1.00  0.00     0.022 A 
BRANCH  79  83
ATOM     83  S   UNL     1       9.264  -1.868 -15.204  1.00  0.00     0.124 S 
ATOM     84  O   UNL     1       9.896  -0.839 -16.023  1.00  0.00    -0.237 OA
ATOM     85  O   UNL     1      10.148  -2.608 -14.310  1.00  0.00    -0.237 OA
ATOM     86  O   UNL     1       8.252  -2.673 -15.884  1.00  0.00    -0.744 OA
ENDBRANCH  79  83
ENDBRANCH  52  76
BRANCH  64  87
ATOM     87  C   UNL     1      11.851   6.620 -14.244  1.00  0.00     0.023 A 
ATOM     88  C   UNL     1      10.927   7.107 -15.184  1.00  0.00     0.031 A 
ATOM     89  C   UNL     1      13.214   6.625 -14.587  1.00  0.00     0.131 A 
ATOM     90  C   UNL     1      11.373   7.532 -16.444  1.00  0.00     0.055 A 
ATOM     91  C   UNL     1      13.658   7.102 -15.820  1.00  0.00     0.041 A 
ATOM     92  F   UNL     1      14.137   6.170 -13.724  1.00  0.00    -0.206 F 
ATOM     93  C   UNL     1      12.734   7.548 -16.762  1.00  0.00     0.022 A 
BRANCH  90  94
ATOM     94  S   UNL     1      10.143   7.988 -17.695  1.00  0.00     0.124 S 
ATOM     95  O   UNL     1       9.367   6.758 -17.819  1.00  0.00    -0.237 OA
ATOM     96  O   UNL     1       9.458   9.112 -17.064  1.00  0.00    -0.237 OA
ATOM     97  O   UNL     1      10.951   8.332 -18.862  1.00  0.00    -0.744 OA
ENDBRANCH  90  94
ENDBRANCH  64  87
ENDBRANCH  38  39
ENDBRANCH  30  33
ENDBRANCH  28  29
ENDBRANCH  27  28
ENDBRANCH   1  27
TORSDOF 18
