REMARK SMILES CC[C@@](C)(NC(=O)c1sc2cc(F)ccc2c1Cl)C(=O)NCCCCNC(=O)c1ccc(-c2c3nc(c(-c4cc(S(=O)(=O)[O-])ccc4F)c4ccc([nH]4)c(-c4cc(S(=O)(=O)[O-])ccc4F)c4nc(c(-c5cc(S(=O)(=O)[O-])ccc5F)c5ccc2[nH]5)C=C4)C=C3)cc1
REMARK SMILES IDX 24 1 23 2 22 3 21 4 19 5 20 6 3 8 4 9 2 10 1 11 5 12 6 13
REMARK SMILES IDX 7 15 8 16 9 17 17 18 10 19 16 20 18 21 11 22 15 23 12 24
REMARK SMILES IDX 14 25 13 26 25 27 26 28 27 29 28 31 29 32 30 33 91 34 31 35
REMARK SMILES IDX 90 36 32 37 33 38 34 39 84 40 35 41 89 42 83 43 85 44 36 45
REMARK SMILES IDX 88 46 82 47 81 48 37 50 69 51 49 52 68 53 50 54 53 55 67 56
REMARK SMILES IDX 86 57 51 58 52 59 66 61 87 62 54 63 38 64 39 65 47 66 40 67
REMARK SMILES IDX 46 68 48 69 45 70 41 71 42 72 43 73 44 74 70 75 71 76 79 77
REMARK SMILES IDX 72 78 78 79 80 80 77 81 73 82 74 83 75 84 76 85 55 86 56 87
REMARK SMILES IDX 64 88 57 89 63 90 65 91 62 92 58 93 59 94 60 95 61 96
REMARK H PARENT 21 7 5 14 26 30 85 49 53 60
REMARK Flexibility Score: inf
ROOT
ATOM      1  C   UNL     1       3.845   6.199  -2.413  1.00  0.00     0.023 C 
ENDROOT
BRANCH   1   2
ATOM      2  C   UNL     1       2.334   5.950  -2.307  1.00  0.00     0.023 C 
BRANCH   2   3
ATOM      3  C   UNL     1       1.643   4.727  -2.941  1.00  0.00     0.116 C 
BRANCH   3   4
ATOM      4  N   UNL     1       2.159   3.375  -2.740  1.00  0.00    -0.354 N 
ATOM      5  C   UNL     1       1.798   2.302  -1.946  1.00  0.00     0.245 C 
ATOM      6  O   UNL     1       2.163   1.178  -2.309  1.00  0.00    -0.272 OA
ATOM      7  H   UNL     1       2.946   3.183  -3.300  1.00  0.00     0.163 HD
BRANCH   5   8
ATOM      8  C   UNL     1       0.847   2.465  -0.757  1.00  0.00     0.116 C 
ATOM      9  C   UNL     1      -0.552   2.443  -1.436  1.00  0.00     0.045 C 
BRANCH   8  10
ATOM     10  C   UNL     1       0.812   1.393   0.369  1.00  0.00     0.035 C 
ATOM     11  C   UNL     1       0.845  -0.078  -0.015  1.00  0.00     0.007 C 
ENDBRANCH   8  10
BRANCH   8  12
ATOM     12  N   UNL     1       1.121   3.754  -0.114  1.00  0.00    -0.337 N 
ATOM     13  C   UNL     1       2.164   4.284   0.620  1.00  0.00     0.263 C 
ATOM     14  H   UNL     1       0.385   4.396  -0.235  1.00  0.00     0.164 HD
ATOM     15  O   UNL     1       1.725   5.229   1.298  1.00  0.00    -0.268 OA
BRANCH  13  16
ATOM     16  C   UNL     1       3.605   3.930   0.673  1.00  0.00     0.112 A 
ATOM     17  S   UNL     1       4.358   4.532   2.146  1.00  0.00    -0.128 S 
ATOM     18  C   UNL     1       4.624   3.365  -0.098  1.00  0.00     0.072 A 
ATOM     19  C   UNL     1       5.957   4.277   1.612  1.00  0.00     0.040 A 
ATOM     20  C   UNL     1       5.971   3.590   0.410  1.00  0.00     0.012 A 
ATOM     21  Cl  UNL     1       4.641   2.591  -1.624  1.00  0.00    -0.082 Cl
ATOM     22  C   UNL     1       7.150   4.669   2.250  1.00  0.00     0.059 A 
ATOM     23  C   UNL     1       7.244   3.266  -0.157  1.00  0.00     0.014 A 
ATOM     24  C   UNL     1       8.367   4.347   1.653  1.00  0.00     0.124 A 
ATOM     25  C   UNL     1       8.429   3.649   0.465  1.00  0.00     0.040 A 
ATOM     26  F   UNL     1       9.509   4.715   2.247  1.00  0.00    -0.207 F 
ENDBRANCH  13  16
ENDBRANCH   8  12
ENDBRANCH   5   8
ENDBRANCH   3   4
ENDBRANCH   2   3
ENDBRANCH   1   2
BRANCH   1  27
ATOM     27  C   UNL     1       4.527   5.860  -3.728  1.00  0.00     0.116 C 
BRANCH  27  28
ATOM     28  N   UNL     1       4.022   6.601  -4.861  1.00  0.00    -0.352 N 
ATOM     29  C   UNL     1       4.369   7.759  -5.502  1.00  0.00     0.251 C 
ATOM     30  H   UNL     1       3.240   6.168  -5.272  1.00  0.00     0.163 HD
ATOM     31  O   UNL     1       3.785   7.949  -6.574  1.00  0.00    -0.269 OA
BRANCH  29  32
ATOM     32  C   UNL     1       5.307   8.804  -4.998  1.00  0.00     0.039 A 
ATOM     33  C   UNL     1       6.139   8.707  -3.881  1.00  0.00     0.014 A 
ATOM     34  C   UNL     1       5.286  10.021  -5.711  1.00  0.00     0.014 A 
ATOM     35  C   UNL     1       6.845   9.825  -3.430  1.00  0.00     0.010 A 
ATOM     36  C   UNL     1       5.995  11.133  -5.271  1.00  0.00     0.010 A 
ATOM     37  C   UNL     1       6.728  11.051  -4.093  1.00  0.00    -0.014 A 
BRANCH  37  38
ATOM     38  C   UNL     1       7.415  12.219  -3.541  1.00  0.00     0.031 A 
ATOM     39  C   UNL     1       8.906  12.168  -3.545  1.00  0.00     0.074 A 
ATOM     40  C   UNL     1       6.763  13.345  -3.180  1.00  0.00     0.049 A 
ATOM     41  N   UNL     1       9.719  12.235  -2.539  1.00  0.00    -0.248 NA
ATOM     42  C   UNL     1       9.570  11.918  -4.831  1.00  0.00     0.031 C 
ATOM     43  C   UNL     1       5.359  13.687  -3.424  1.00  0.00     0.029 A 
ATOM     44  N   UNL     1       7.263  14.487  -2.629  1.00  0.00    -0.354 N 
ATOM     45  C   UNL     1      11.009  12.202  -3.075  1.00  0.00     0.074 A 
ATOM     46  C   UNL     1      10.852  11.866  -4.468  1.00  0.00     0.031 C 
ATOM     47  C   UNL     1       5.194  15.019  -3.267  1.00  0.00     0.029 A 
ATOM     48  C   UNL     1       6.438  15.592  -2.778  1.00  0.00     0.049 A 
ATOM     49  H   UNL     1       8.131  14.524  -2.167  1.00  0.00     0.167 HD
ATOM     50  C   UNL     1      12.107  12.617  -2.375  1.00  0.00     0.034 A 
ATOM     51  C   UNL     1       6.787  16.895  -2.630  1.00  0.00     0.034 A 
ATOM     52  C   UNL     1      11.822  12.739  -0.973  1.00  0.00     0.049 A 
ATOM     53  C   UNL     1       8.041  16.955  -1.838  1.00  0.00     0.074 A 
ATOM     54  C   UNL     1      11.425  11.858   0.013  1.00  0.00     0.029 A 
ATOM     55  N   UNL     1      11.598  13.995  -0.462  1.00  0.00    -0.354 N 
ATOM     56  N   UNL     1       8.126  16.646  -0.573  1.00  0.00    -0.248 NA
ATOM     57  C   UNL     1       9.297  16.926  -2.573  1.00  0.00     0.031 C 
ATOM     58  C   UNL     1      10.528  12.603   0.828  1.00  0.00     0.029 A 
ATOM     59  C   UNL     1      10.482  13.907   0.329  1.00  0.00     0.049 A 
ATOM     60  H   UNL     1      12.135  14.802  -0.632  1.00  0.00     0.167 HD
ATOM     61  C   UNL     1       9.317  15.944  -0.468  1.00  0.00     0.074 A 
ATOM     62  C   UNL     1      10.042  16.237  -1.705  1.00  0.00     0.031 C 
ATOM     63  C   UNL     1       9.495  14.960   0.463  1.00  0.00     0.034 A 
BRANCH  50  64
ATOM     64  C   UNL     1      13.361  13.192  -2.995  1.00  0.00     0.023 A 
ATOM     65  C   UNL     1      13.431  13.590  -4.342  1.00  0.00     0.031 A 
ATOM     66  C   UNL     1      14.456  13.569  -2.188  1.00  0.00     0.131 A 
ATOM     67  C   UNL     1      14.527  14.306  -4.844  1.00  0.00     0.055 A 
ATOM     68  C   UNL     1      15.520  14.344  -2.672  1.00  0.00     0.041 A 
ATOM     69  F   UNL     1      14.501  13.250  -0.885  1.00  0.00    -0.206 F 
ATOM     70  C   UNL     1      15.559  14.717  -4.009  1.00  0.00     0.022 A 
BRANCH  67  71
ATOM     71  S   UNL     1      14.610  14.720  -6.607  1.00  0.00     0.124 S 
ATOM     72  O   UNL     1      14.603  16.184  -6.569  1.00  0.00    -0.237 OA
ATOM     73  O   UNL     1      15.884  14.111  -6.994  1.00  0.00    -0.237 OA
ATOM     74  O   UNL     1      13.429  14.091  -7.165  1.00  0.00    -0.744 OA
ENDBRANCH  67  71
ENDBRANCH  50  64
BRANCH  51  75
ATOM     75  C   UNL     1       6.386  17.986  -3.555  1.00  0.00     0.023 A 
ATOM     76  C   UNL     1       6.057  17.681  -4.891  1.00  0.00     0.031 A 
ATOM     77  C   UNL     1       6.590  19.339  -3.240  1.00  0.00     0.131 A 
ATOM     78  C   UNL     1       5.972  18.685  -5.861  1.00  0.00     0.055 A 
ATOM     79  C   UNL     1       6.493  20.348  -4.210  1.00  0.00     0.041 A 
ATOM     80  F   UNL     1       6.947  19.703  -1.999  1.00  0.00    -0.206 F 
ATOM     81  C   UNL     1       6.192  20.021  -5.530  1.00  0.00     0.022 A 
BRANCH  78  82
ATOM     82  S   UNL     1       5.636  18.250  -7.589  1.00  0.00     0.124 S 
ATOM     83  O   UNL     1       4.615  19.226  -7.963  1.00  0.00    -0.237 OA
ATOM     84  O   UNL     1       6.945  18.441  -8.204  1.00  0.00    -0.237 OA
ATOM     85  O   UNL     1       5.167  16.869  -7.509  1.00  0.00    -0.744 OA
ENDBRANCH  78  82
ENDBRANCH  51  75
BRANCH  63  86
ATOM     86  C   UNL     1       8.458  14.751   1.547  1.00  0.00     0.023 A 
ATOM     87  C   UNL     1       8.930  14.537   2.856  1.00  0.00     0.031 A 
ATOM     88  C   UNL     1       7.095  14.495   1.304  1.00  0.00     0.131 A 
ATOM     89  C   UNL     1       8.077  14.034   3.846  1.00  0.00     0.055 A 
ATOM     90  C   UNL     1       6.229  14.064   2.314  1.00  0.00     0.041 A 
ATOM     91  F   UNL     1       6.576  14.557   0.071  1.00  0.00    -0.206 F 
ATOM     92  C   UNL     1       6.723  13.811   3.588  1.00  0.00     0.022 A 
BRANCH  89  93
ATOM     93  S   UNL     1       8.746  13.489   5.439  1.00  0.00     0.124 S 
ATOM     94  O   UNL     1       8.114  14.418   6.372  1.00  0.00    -0.237 OA
ATOM     95  O   UNL     1       8.276  12.107   5.517  1.00  0.00    -0.237 OA
ATOM     96  O   UNL     1      10.190  13.640   5.288  1.00  0.00    -0.744 OA
ENDBRANCH  89  93
ENDBRANCH  63  86
ENDBRANCH  37  38
ENDBRANCH  29  32
ENDBRANCH  27  28
ENDBRANCH   1  27
TORSDOF 17
