REMARK SMILES CNC(=O)NC(=O)CCSc1csc(C(=O)NCCCCNC(=O)c2ccc(-c3c4nc(c(-c5cc(S(=O)(=O)[O-])ccc5F)c5ccc([nH]5)c(-c5cc(S(=O)(=O)[O-])ccc5F)c5nc(c(-c6cc(S(=O)(=O)[O-])ccc6F)c6ccc3[nH]6)C=C5)C=C4)cc2)c1
REMARK SMILES IDX 19 1 18 2 17 3 15 4 16 5 14 7 11 8 12 9 88 10 13 11 10 12
REMARK SMILES IDX 9 13 8 14 6 15 1 16 2 17 3 18 4 20 5 21 7 23 20 24 21 25
REMARK SMILES IDX 22 26 23 27 24 29 25 30 26 31 87 32 27 33 86 34 28 35 29 36
REMARK SMILES IDX 30 37 80 38 31 39 85 40 79 41 81 42 32 43 84 44 78 45 77 46
REMARK SMILES IDX 33 48 65 49 45 50 64 51 46 52 49 53 63 54 82 55 47 56 48 57
REMARK SMILES IDX 62 59 83 60 50 61 34 62 35 63 43 64 36 65 42 66 44 67 41 68
REMARK SMILES IDX 37 69 38 70 39 71 40 72 66 73 67 74 75 75 68 76 74 77 76 78
REMARK SMILES IDX 73 79 69 80 70 81 71 82 72 83 51 84 52 85 60 86 53 87 59 88
REMARK SMILES IDX 61 89 58 90 54 91 55 92 56 93 57 94
REMARK H PARENT 17 6 2 19 5 22 22 28 81 47 49 58
REMARK Flexibility Score: inf
ROOT
ATOM      1  C   UNL     1      -1.242  -2.081   5.912  1.00  0.00     0.023 C 
ENDROOT
BRANCH   1   2
ATOM      2  C   UNL     1      -1.942  -1.044   5.037  1.00  0.00     0.116 C 
BRANCH   2   3
ATOM      3  N   UNL     1      -2.183   0.184   5.765  1.00  0.00    -0.351 N 
ATOM      4  C   UNL     1      -1.652   1.446   5.663  1.00  0.00     0.261 C 
ATOM      5  O   UNL     1      -2.169   2.285   6.408  1.00  0.00    -0.268 OA
ATOM      6  H   UNL     1      -2.861   0.097   6.473  1.00  0.00     0.163 HD
BRANCH   4   7
ATOM      7  C   UNL     1      -0.582   1.772   4.727  1.00  0.00     0.093 A 
ATOM      8  C   UNL     1       1.171   1.764   3.170  1.00  0.00     0.019 A 
ATOM      9  C   UNL     1       0.878   3.104   3.222  1.00  0.00     0.080 A 
ATOM     10  C   UNL     1       0.397   1.014   4.106  1.00  0.00     0.040 A 
ATOM     11  S   UNL     1      -0.408   3.434   4.290  1.00  0.00    -0.137 S 
BRANCH   8  12
ATOM     12  S   UNL     1       2.364   0.998   2.131  1.00  0.00    -0.125 SA
BRANCH  12  13
ATOM     13  C   UNL     1       2.323   2.018   0.624  1.00  0.00     0.085 C 
BRANCH  13  14
ATOM     14  C   UNL     1       1.190   1.758  -0.359  1.00  0.00     0.112 C 
BRANCH  14  15
ATOM     15  C   UNL     1      -0.193   2.040   0.147  1.00  0.00     0.228 C 
ATOM     16  C   UNL     1       0.641  -1.443  -0.313  1.00  0.00     0.144 C 
ATOM     17  N   UNL     1      -0.216  -1.174   0.810  1.00  0.00    -0.341 N 
ATOM     18  C   UNL     1      -1.101  -0.206   1.065  1.00  0.00     0.321 C 
ATOM     19  H   UNL     1      -0.134  -1.835   1.536  1.00  0.00     0.165 HD
ATOM     20  O   UNL     1      -1.997  -0.463   1.874  1.00  0.00    -0.248 OA
ATOM     21  N   UNL     1      -1.075   1.049   0.534  1.00  0.00    -0.278 N 
ATOM     22  H   UNL     1      -1.997   1.353   0.371  1.00  0.00     0.174 HD
ATOM     23  O   UNL     1      -0.572   3.214   0.231  1.00  0.00    -0.275 OA
ENDBRANCH  14  15
ENDBRANCH  13  14
ENDBRANCH  12  13
ENDBRANCH   8  12
ENDBRANCH   4   7
ENDBRANCH   2   3
ENDBRANCH   1   2
BRANCH   1  24
ATOM     24  C   UNL     1      -2.111  -2.643   7.043  1.00  0.00     0.023 C 
BRANCH  24  25
ATOM     25  C   UNL     1      -3.377  -3.374   6.597  1.00  0.00     0.116 C 
BRANCH  25  26
ATOM     26  N   UNL     1      -3.101  -4.516   5.741  1.00  0.00    -0.352 N 
ATOM     27  C   UNL     1      -3.633  -5.786   5.776  1.00  0.00     0.251 C 
ATOM     28  H   UNL     1      -2.436  -4.359   5.032  1.00  0.00     0.163 HD
ATOM     29  O   UNL     1      -3.168  -6.654   5.051  1.00  0.00    -0.269 OA
BRANCH  27  30
ATOM     30  C   UNL     1      -4.737  -6.102   6.713  1.00  0.00     0.039 A 
ATOM     31  C   UNL     1      -4.670  -7.286   7.454  1.00  0.00     0.014 A 
ATOM     32  C   UNL     1      -5.830  -5.245   6.863  1.00  0.00     0.014 A 
ATOM     33  C   UNL     1      -5.662  -7.572   8.397  1.00  0.00     0.010 A 
ATOM     34  C   UNL     1      -6.783  -5.500   7.849  1.00  0.00     0.010 A 
ATOM     35  C   UNL     1      -6.706  -6.663   8.630  1.00  0.00    -0.014 A 
BRANCH  35  36
ATOM     36  C   UNL     1      -7.719  -6.907   9.693  1.00  0.00     0.031 A 
ATOM     37  C   UNL     1      -9.166  -7.108   9.330  1.00  0.00     0.074 A 
ATOM     38  C   UNL     1      -7.346  -6.881  10.988  1.00  0.00     0.049 A 
ATOM     39  N   UNL     1     -10.205  -7.250  10.112  1.00  0.00    -0.248 NA
ATOM     40  C   UNL     1      -9.487  -7.121   7.895  1.00  0.00     0.031 C 
ATOM     41  C   UNL     1      -5.982  -6.655  11.470  1.00  0.00     0.029 A 
ATOM     42  N   UNL     1      -8.081  -7.032  12.138  1.00  0.00    -0.354 N 
ATOM     43  C   UNL     1     -11.305  -7.356   9.268  1.00  0.00     0.074 A 
ATOM     44  C   UNL     1     -10.809  -7.203   7.916  1.00  0.00     0.031 C 
ATOM     45  C   UNL     1      -5.975  -6.701  12.812  1.00  0.00     0.029 A 
ATOM     46  C   UNL     1      -7.337  -6.915  13.290  1.00  0.00     0.049 A 
ATOM     47  H   UNL     1      -9.050  -7.207  12.138  1.00  0.00     0.167 HD
ATOM     48  C   UNL     1     -12.604  -7.580   9.589  1.00  0.00     0.034 A 
ATOM     49  C   UNL     1      -7.711  -6.961  14.584  1.00  0.00     0.034 A 
ATOM     50  C   UNL     1     -13.082  -7.741  10.942  1.00  0.00     0.049 A 
ATOM     51  C   UNL     1      -9.163  -7.192  14.918  1.00  0.00     0.074 A 
ATOM     52  C   UNL     1     -14.367  -8.024  11.375  1.00  0.00     0.029 A 
ATOM     53  N   UNL     1     -12.298  -7.624  12.083  1.00  0.00    -0.354 N 
ATOM     54  N   UNL     1     -10.184  -7.340  14.105  1.00  0.00    -0.248 NA
ATOM     55  C   UNL     1      -9.510  -7.276  16.342  1.00  0.00     0.031 C 
ATOM     56  C   UNL     1     -14.371  -8.016  12.774  1.00  0.00     0.029 A 
ATOM     57  C   UNL     1     -13.076  -7.802  13.217  1.00  0.00     0.049 A 
ATOM     58  H   UNL     1     -11.331  -7.442  12.085  1.00  0.00     0.167 HD
ATOM     59  C   UNL     1     -11.289  -7.564  14.922  1.00  0.00     0.074 A 
ATOM     60  C   UNL     1     -10.805  -7.547  16.288  1.00  0.00     0.031 C 
ATOM     61  C   UNL     1     -12.585  -7.772  14.575  1.00  0.00     0.034 A 
BRANCH  48  62
ATOM     62  C   UNL     1     -13.599  -7.638   8.453  1.00  0.00     0.023 A 
ATOM     63  C   UNL     1     -13.525  -8.626   7.456  1.00  0.00     0.031 A 
ATOM     64  C   UNL     1     -14.620  -6.676   8.349  1.00  0.00     0.131 A 
ATOM     65  C   UNL     1     -14.400  -8.585   6.360  1.00  0.00     0.055 A 
ATOM     66  C   UNL     1     -15.541  -6.689   7.299  1.00  0.00     0.041 A 
ATOM     67  F   UNL     1     -14.732  -5.696   9.260  1.00  0.00    -0.206 F 
ATOM     68  C   UNL     1     -15.424  -7.638   6.287  1.00  0.00     0.022 A 
BRANCH  65  69
ATOM     69  S   UNL     1     -14.087  -9.695   4.960  1.00  0.00     0.124 S 
ATOM     70  O   UNL     1     -12.737  -9.299   4.566  1.00  0.00    -0.237 OA
ATOM     71  O   UNL     1     -14.214 -11.014   5.569  1.00  0.00    -0.237 OA
ATOM     72  O   UNL     1     -15.135  -9.345   4.004  1.00  0.00    -0.744 OA
ENDBRANCH  65  69
ENDBRANCH  48  62
BRANCH  49  73
ATOM     73  C   UNL     1      -6.704  -6.775  15.668  1.00  0.00     0.023 A 
ATOM     74  C   UNL     1      -6.400  -7.817  16.559  1.00  0.00     0.031 A 
ATOM     75  C   UNL     1      -6.062  -5.538  15.856  1.00  0.00     0.131 A 
ATOM     76  C   UNL     1      -5.517  -7.590  17.626  1.00  0.00     0.055 A 
ATOM     77  C   UNL     1      -5.144  -5.333  16.888  1.00  0.00     0.041 A 
ATOM     78  F   UNL     1      -6.312  -4.511  15.029  1.00  0.00    -0.206 F 
ATOM     79  C   UNL     1      -4.877  -6.359  17.789  1.00  0.00     0.022 A 
BRANCH  76  80
ATOM     80  S   UNL     1      -5.278  -8.907  18.850  1.00  0.00     0.124 S 
ATOM     81  O   UNL     1      -6.639  -9.121  19.326  1.00  0.00    -0.237 OA
ATOM     82  O   UNL     1      -4.707  -9.976  18.037  1.00  0.00    -0.237 OA
ATOM     83  O   UNL     1      -4.363  -8.309  19.819  1.00  0.00    -0.744 OA
ENDBRANCH  76  80
ENDBRANCH  49  73
BRANCH  61  84
ATOM     84  C   UNL     1     -13.558  -8.046  15.696  1.00  0.00     0.023 A 
ATOM     85  C   UNL     1     -13.894  -7.063  16.644  1.00  0.00     0.031 A 
ATOM     86  C   UNL     1     -14.145  -9.317  15.824  1.00  0.00     0.131 A 
ATOM     87  C   UNL     1     -14.748  -7.384  17.710  1.00  0.00     0.055 A 
ATOM     88  C   UNL     1     -15.040  -9.613  16.853  1.00  0.00     0.041 A 
ATOM     89  F   UNL     1     -13.859 -10.294  14.949  1.00  0.00    -0.206 F 
ATOM     90  C   UNL     1     -15.335  -8.648  17.812  1.00  0.00     0.022 A 
BRANCH  87  91
ATOM     91  S   UNL     1     -15.010  -6.155  19.018  1.00  0.00     0.124 S 
ATOM     92  O   UNL     1     -13.650  -5.922  19.493  1.00  0.00    -0.237 OA
ATOM     93  O   UNL     1     -15.629  -5.052  18.291  1.00  0.00    -0.237 OA
ATOM     94  O   UNL     1     -15.888  -6.842  19.964  1.00  0.00    -0.744 OA
ENDBRANCH  87  91
ENDBRANCH  61  84
ENDBRANCH  35  36
ENDBRANCH  27  30
ENDBRANCH  25  26
ENDBRANCH  24  25
ENDBRANCH   1  24
TORSDOF 18
