REMARK SMILES COc1cccc(CSc2nc3ccccc3c(=O)n2CCC(=O)NCCCCNC(=O)c2ccc(-c3c4nc(c(-c5cc(S(=O)(=O)[O-])ccc5F)c5ccc([nH]5)c(-c5cc(S(=O)(=O)[O-])ccc5F)c5nc(c(-c6cc(S(=O)(=O)[O-])ccc6F)c6ccc3[nH]6)C=C5)C=C4)cc2)c1
REMARK SMILES IDX 26 1 25 2 23 3 24 4 22 6 21 7 20 8 10 9 11 10 12 11 18 12
REMARK SMILES IDX 13 13 17 14 19 15 14 16 16 17 15 18 9 19 8 20 7 21 3 22 4 23
REMARK SMILES IDX 96 24 5 25 6 26 2 27 1 28 27 29 28 30 29 31 30 32 31 33
REMARK SMILES IDX 32 35 33 36 34 37 95 38 35 39 94 40 36 41 37 42 38 43 88 44
REMARK SMILES IDX 39 45 93 46 87 47 89 48 40 49 92 50 86 51 85 52 41 54 73 55
REMARK SMILES IDX 53 56 72 57 54 58 57 59 71 60 90 61 55 62 56 63 70 65 91 66
REMARK SMILES IDX 58 67 42 68 43 69 51 70 44 71 50 72 52 73 49 74 45 75 46 76
REMARK SMILES IDX 47 77 48 78 74 79 75 80 83 81 76 82 82 83 84 84 81 85 77 86
REMARK SMILES IDX 78 87 79 88 80 89 59 90 60 91 68 92 61 93 67 94 69 95 66 96
REMARK SMILES IDX 62 97 63 98 64 99 65 100
REMARK H PARENT 25 5 30 34 89 53 57 64
REMARK Flexibility Score: inf
ROOT
ATOM      1  C   UNL     1       7.472   3.912  -2.220  1.00  0.00     0.116 C 
ENDROOT
BRANCH   1   2
ATOM      2  N   UNL     1       6.954   3.509  -0.919  1.00  0.00    -0.356 N 
ATOM      3  C   UNL     1       5.920   2.659  -0.645  1.00  0.00     0.221 C 
ATOM      4  O   UNL     1       5.555   2.520   0.523  1.00  0.00    -0.275 OA
ATOM      5  H   UNL     1       7.407   3.899  -0.137  1.00  0.00     0.163 HD
BRANCH   3   6
ATOM      6  C   UNL     1       5.238   1.896  -1.770  1.00  0.00     0.122 C 
BRANCH   6   7
ATOM      7  C   UNL     1       3.709   2.035  -1.669  1.00  0.00     0.138 C 
BRANCH   7   8
ATOM      8  N   UNL     1       3.130   2.709  -2.833  1.00  0.00    -0.287 N 
ATOM      9  C   UNL     1       3.134   4.072  -3.078  1.00  0.00     0.171 A 
ATOM     10  N   UNL     1       3.283   4.540  -4.282  1.00  0.00    -0.224 NA
ATOM     11  C   UNL     1       3.429   3.646  -5.348  1.00  0.00     0.079 A 
ATOM     12  C   UNL     1       2.756   1.844  -3.868  1.00  0.00     0.262 A 
ATOM     13  C   UNL     1       4.003   4.064  -6.551  1.00  0.00     0.029 A 
ATOM     14  C   UNL     1       3.031   2.322  -5.230  1.00  0.00     0.066 A 
ATOM     15  O   UNL     1       2.330   0.704  -3.700  1.00  0.00    -0.269 OA
ATOM     16  C   UNL     1       4.136   3.172  -7.622  1.00  0.00     0.002 A 
ATOM     17  C   UNL     1       3.091   1.437  -6.313  1.00  0.00     0.016 A 
ATOM     18  C   UNL     1       3.647   1.869  -7.515  1.00  0.00     0.001 A 
BRANCH   9  19
ATOM     19  S   UNL     1       3.074   5.346  -1.875  1.00  0.00    -0.083 SA
BRANCH  19  20
ATOM     20  C   UNL     1       2.521   4.810  -0.263  1.00  0.00     0.113 C 
BRANCH  20  21
ATOM     21  C   UNL     1       1.139   4.225  -0.228  1.00  0.00    -0.034 A 
ATOM     22  C   UNL     1      -0.330   2.310   0.065  1.00  0.00     0.119 A 
ATOM     23  C   UNL     1      -1.417   3.101  -0.305  1.00  0.00     0.046 A 
ATOM     24  C   UNL     1       0.933   2.891   0.155  1.00  0.00     0.051 A 
ATOM     25  C   UNL     1      -1.242   4.452  -0.607  1.00  0.00     0.004 A 
ATOM     26  C   UNL     1       0.032   5.009  -0.578  1.00  0.00     0.005 A 
BRANCH  22  27
ATOM     27  O   UNL     1      -0.614   0.995   0.315  1.00  0.00    -0.497 OA
ATOM     28  C   UNL     1       0.498   0.105   0.345  1.00  0.00     0.278 C 
ENDBRANCH  22  27
ENDBRANCH  20  21
ENDBRANCH  19  20
ENDBRANCH   9  19
ENDBRANCH   7   8
ENDBRANCH   6   7
ENDBRANCH   3   6
ENDBRANCH   1   2
BRANCH   1  29
ATOM     29  C   UNL     1       6.420   4.701  -2.982  1.00  0.00     0.023 C 
BRANCH  29  30
ATOM     30  C   UNL     1       6.601   6.211  -3.050  1.00  0.00     0.023 C 
BRANCH  30  31
ATOM     31  C   UNL     1       7.550   6.647  -4.146  1.00  0.00     0.116 C 
BRANCH  31  32
ATOM     32  N   UNL     1       7.184   6.154  -5.476  1.00  0.00    -0.352 N 
ATOM     33  C   UNL     1       7.594   6.586  -6.711  1.00  0.00     0.251 C 
ATOM     34  H   UNL     1       6.551   5.400  -5.484  1.00  0.00     0.163 HD
ATOM     35  O   UNL     1       7.171   6.047  -7.720  1.00  0.00    -0.269 OA
BRANCH  33  36
ATOM     36  C   UNL     1       8.454   7.791  -6.794  1.00  0.00     0.039 A 
ATOM     37  C   UNL     1       8.100   8.796  -7.697  1.00  0.00     0.014 A 
ATOM     38  C   UNL     1       9.486   7.998  -5.881  1.00  0.00     0.014 A 
ATOM     39  C   UNL     1       8.692  10.053  -7.588  1.00  0.00     0.010 A 
ATOM     40  C   UNL     1       9.964   9.282  -5.682  1.00  0.00     0.010 A 
ATOM     41  C   UNL     1       9.568  10.328  -6.528  1.00  0.00    -0.014 A 
BRANCH  41  42
ATOM     42  C   UNL     1      10.091  11.694  -6.271  1.00  0.00     0.031 A 
ATOM     43  C   UNL     1      11.579  11.909  -6.204  1.00  0.00     0.074 A 
ATOM     44  C   UNL     1       9.238  12.696  -5.982  1.00  0.00     0.049 A 
ATOM     45  N   UNL     1      12.250  12.957  -5.805  1.00  0.00    -0.248 NA
ATOM     46  C   UNL     1      12.422  10.758  -6.563  1.00  0.00     0.031 C 
ATOM     47  C   UNL     1       7.776  12.585  -5.931  1.00  0.00     0.029 A 
ATOM     48  N   UNL     1       9.475  14.009  -5.665  1.00  0.00    -0.354 N 
ATOM     49  C   UNL     1      13.586  12.570  -5.811  1.00  0.00     0.074 A 
ATOM     50  C   UNL     1      13.616  11.170  -6.171  1.00  0.00     0.031 C 
ATOM     51  C   UNL     1       7.250  13.788  -5.650  1.00  0.00     0.029 A 
ATOM     52  C   UNL     1       8.331  14.745  -5.452  1.00  0.00     0.049 A 
ATOM     53  H   UNL     1      10.380  14.391  -5.597  1.00  0.00     0.167 HD
ATOM     54  C   UNL     1      14.688  13.324  -5.573  1.00  0.00     0.034 A 
ATOM     55  C   UNL     1       8.179  16.044  -5.133  1.00  0.00     0.034 A 
ATOM     56  C   UNL     1      14.629  14.735  -5.289  1.00  0.00     0.049 A 
ATOM     57  C   UNL     1       9.416  16.887  -4.963  1.00  0.00     0.074 A 
ATOM     58  C   UNL     1      15.670  15.627  -5.104  1.00  0.00     0.029 A 
ATOM     59  N   UNL     1      13.452  15.465  -5.169  1.00  0.00    -0.354 N 
ATOM     60  N   UNL     1      10.677  16.520  -5.013  1.00  0.00    -0.248 NA
ATOM     61  C   UNL     1       9.213  18.319  -4.711  1.00  0.00     0.031 C 
ATOM     62  C   UNL     1      15.123  16.888  -4.841  1.00  0.00     0.029 A 
ATOM     63  C   UNL     1      13.741  16.795  -4.914  1.00  0.00     0.049 A 
ATOM     64  H   UNL     1      12.546  15.091  -5.254  1.00  0.00     0.167 HD
ATOM     65  C   UNL     1      11.417  17.682  -4.825  1.00  0.00     0.074 A 
ATOM     66  C   UNL     1      10.461  18.762  -4.676  1.00  0.00     0.031 C 
ATOM     67  C   UNL     1      12.763  17.848  -4.777  1.00  0.00     0.034 A 
BRANCH  54  68
ATOM     68  C   UNL     1      16.025  12.620  -5.611  1.00  0.00     0.023 A 
ATOM     69  C   UNL     1      16.478  11.965  -6.770  1.00  0.00     0.031 A 
ATOM     70  C   UNL     1      16.819  12.528  -4.455  1.00  0.00     0.131 A 
ATOM     71  C   UNL     1      17.618  11.150  -6.715  1.00  0.00     0.055 A 
ATOM     72  C   UNL     1      18.011  11.799  -4.436  1.00  0.00     0.041 A 
ATOM     73  F   UNL     1      16.434  13.117  -3.311  1.00  0.00    -0.206 F 
ATOM     74  C   UNL     1      18.404  11.084  -5.564  1.00  0.00     0.022 A 
BRANCH  71  75
ATOM     75  S   UNL     1      17.945  10.035  -8.108  1.00  0.00     0.124 S 
ATOM     76  O   UNL     1      16.749   9.195  -8.096  1.00  0.00    -0.237 OA
ATOM     77  O   UNL     1      18.065  10.957  -9.231  1.00  0.00    -0.237 OA
ATOM     78  O   UNL     1      19.180   9.356  -7.721  1.00  0.00    -0.744 OA
ENDBRANCH  71  75
ENDBRANCH  54  68
BRANCH  55  79
ATOM     79  C   UNL     1       6.820  16.636  -4.976  1.00  0.00     0.023 A 
ATOM     80  C   UNL     1       6.346  17.596  -5.884  1.00  0.00     0.031 A 
ATOM     81  C   UNL     1       5.987  16.277  -3.902  1.00  0.00     0.131 A 
ATOM     82  C   UNL     1       5.097  18.202  -5.677  1.00  0.00     0.055 A 
ATOM     83  C   UNL     1       4.725  16.849  -3.725  1.00  0.00     0.041 A 
ATOM     84  F   UNL     1       6.386  15.354  -3.013  1.00  0.00    -0.206 F 
ATOM     85  C   UNL     1       4.279  17.828  -4.609  1.00  0.00     0.022 A 
BRANCH  82  86
ATOM     86  S   UNL     1       4.589  19.545  -6.786  1.00  0.00     0.124 S 
ATOM     87  O   UNL     1       5.686  20.494  -6.627  1.00  0.00    -0.237 OA
ATOM     88  O   UNL     1       4.514  18.862  -8.073  1.00  0.00    -0.237 OA
ATOM     89  O   UNL     1       3.306  19.975  -6.234  1.00  0.00    -0.744 OA
ENDBRANCH  82  86
ENDBRANCH  55  79
BRANCH  67  90
ATOM     90  C   UNL     1      13.267  19.256  -4.611  1.00  0.00     0.023 A 
ATOM     91  C   UNL     1      13.110  19.955  -3.402  1.00  0.00     0.031 A 
ATOM     92  C   UNL     1      13.909  19.904  -5.680  1.00  0.00     0.131 A 
ATOM     93  C   UNL     1      13.549  21.283  -3.307  1.00  0.00     0.055 A 
ATOM     94  C   UNL     1      14.389  21.208  -5.562  1.00  0.00     0.041 A 
ATOM     95  F   UNL     1      14.083  19.276  -6.854  1.00  0.00    -0.206 F 
ATOM     96  C   UNL     1      14.200  21.909  -4.374  1.00  0.00     0.022 A 
BRANCH  93  97
ATOM     97  S   UNL     1      13.193  22.208  -1.789  1.00  0.00     0.124 S 
ATOM     98  O   UNL     1      11.735  22.162  -1.741  1.00  0.00    -0.237 OA
ATOM     99  O   UNL     1      13.889  21.423  -0.774  1.00  0.00    -0.237 OA
ATOM    100  O   UNL     1      13.764  23.528  -2.050  1.00  0.00    -0.744 OA
ENDBRANCH  93  97
ENDBRANCH  67  90
ENDBRANCH  41  42
ENDBRANCH  33  36
ENDBRANCH  31  32
ENDBRANCH  30  31
ENDBRANCH  29  30
ENDBRANCH   1  29
TORSDOF 20
