REMARK SMILES CC1=C([C@H](NC(=O)c2cccc3ccccc23)C(=O)NCCCCNC(=O)c2ccc(-c3c4nc(c(-c5cc(S(=O)(=O)[O-])ccc5F)c5ccc([nH]5)c(-c5cc(S(=O)(=O)[O-])ccc5F)c5nc(c(-c6cc(S(=O)(=O)[O-])ccc6F)c6ccc3[nH]6)C=C5)C=C4)cc2)[C@H](C)N=N1
REMARK SMILES IDX 23 1 22 2 21 3 20 4 18 5 19 6 4 8 3 9 1 10 2 11 94 12 91 13
REMARK SMILES IDX 93 14 92 15 5 16 6 17 7 19 8 20 9 21 17 22 10 23 12 24 16 25
REMARK SMILES IDX 11 26 13 27 15 28 14 29 24 30 25 31 26 32 27 34 28 35 29 36
REMARK SMILES IDX 90 37 30 38 89 39 31 40 32 41 33 42 83 43 34 44 88 45 82 46
REMARK SMILES IDX 84 47 35 48 87 49 81 50 80 51 36 53 68 54 48 55 67 56 49 57
REMARK SMILES IDX 52 58 66 59 85 60 50 61 51 62 65 64 86 65 53 66 37 67 38 68
REMARK SMILES IDX 46 69 39 70 45 71 47 72 44 73 40 74 41 75 42 76 43 77 69 78
REMARK SMILES IDX 70 79 78 80 71 81 77 82 79 83 76 84 72 85 73 86 74 87 75 88
REMARK SMILES IDX 54 89 55 90 63 91 56 92 62 93 64 94 61 95 57 96 58 97 59 98
REMARK SMILES IDX 60 99
REMARK H PARENT 20 7 5 18 25 33 84 52 52 63
REMARK Flexibility Score: inf
ROOT
ATOM      1  C   UNL     1       1.139  -1.567   6.883  1.00  0.00     0.023 C 
ENDROOT
BRANCH   1   2
ATOM      2  C   UNL     1       0.178  -1.666   5.691  1.00  0.00     0.023 C 
BRANCH   2   3
ATOM      3  C   UNL     1      -0.932  -0.620   5.527  1.00  0.00     0.116 C 
BRANCH   3   4
ATOM      4  N   UNL     1      -0.533   0.776   5.591  1.00  0.00    -0.354 N 
ATOM      5  C   UNL     1      -0.359   1.695   4.581  1.00  0.00     0.247 C 
ATOM      6  O   UNL     1      -0.206   2.878   4.899  1.00  0.00    -0.272 OA
ATOM      7  H   UNL     1      -0.361   1.118   6.498  1.00  0.00     0.163 HD
BRANCH   5   8
ATOM      8  C   UNL     1      -0.458   1.290   3.100  1.00  0.00     0.202 C 
BRANCH   8   9
ATOM      9  C   UNL     1      -1.957   1.284   2.788  1.00  0.00     0.011 C 
ATOM     10  C   UNL     1      -2.301   0.078   0.529  1.00  0.00     0.069 C 
ATOM     11  C   UNL     1      -2.688   0.815   1.762  1.00  0.00     0.064 C 
ATOM     12  N   UNL     1      -4.003   1.210   1.810  1.00  0.00    -0.160 NA
ATOM     13  C   UNL     1      -2.968   2.112   3.589  1.00  0.00     0.156 C 
ATOM     14  N   UNL     1      -4.198   2.000   2.762  1.00  0.00    -0.181 NA
ATOM     15  C   UNL     1      -3.389   1.636   4.985  1.00  0.00     0.040 C 
ENDBRANCH   8   9
BRANCH   8  16
ATOM     16  N   UNL     1       0.256   0.032   2.760  1.00  0.00    -0.337 N 
ATOM     17  C   UNL     1       1.614  -0.326   2.701  1.00  0.00     0.252 C 
ATOM     18  H   UNL     1      -0.351  -0.708   2.527  1.00  0.00     0.165 HD
ATOM     19  O   UNL     1       1.859  -1.342   2.045  1.00  0.00    -0.269 OA
BRANCH  17  20
ATOM     20  C   UNL     1       2.753   0.373   3.439  1.00  0.00     0.047 A 
ATOM     21  C   UNL     1       2.456   1.006   4.638  1.00  0.00     0.014 A 
ATOM     22  C   UNL     1       4.149   0.251   3.159  1.00  0.00    -0.006 A 
ATOM     23  C   UNL     1       3.334   1.767   5.395  1.00  0.00     0.001 A 
ATOM     24  C   UNL     1       5.080   0.984   3.978  1.00  0.00    -0.018 A 
ATOM     25  C   UNL     1       4.730  -0.603   2.192  1.00  0.00     0.009 A 
ATOM     26  C   UNL     1       4.652   1.796   5.025  1.00  0.00     0.009 A 
ATOM     27  C   UNL     1       6.461   0.855   3.818  1.00  0.00     0.009 A 
ATOM     28  C   UNL     1       6.120  -0.764   2.085  1.00  0.00     0.001 A 
ATOM     29  C   UNL     1       6.983  -0.036   2.894  1.00  0.00     0.001 A 
ENDBRANCH  17  20
ENDBRANCH   8  16
ENDBRANCH   5   8
ENDBRANCH   3   4
ENDBRANCH   2   3
ENDBRANCH   1   2
BRANCH   1  30
ATOM     30  C   UNL     1       0.495  -1.333   8.234  1.00  0.00     0.116 C 
BRANCH  30  31
ATOM     31  N   UNL     1      -0.436  -2.391   8.607  1.00  0.00    -0.352 N 
ATOM     32  C   UNL     1      -1.312  -2.407   9.681  1.00  0.00     0.251 C 
ATOM     33  H   UNL     1      -0.443  -3.188   8.028  1.00  0.00     0.163 HD
ATOM     34  O   UNL     1      -1.726  -3.458  10.132  1.00  0.00    -0.269 OA
BRANCH  32  35
ATOM     35  C   UNL     1      -1.729  -1.111  10.252  1.00  0.00     0.039 A 
ATOM     36  C   UNL     1      -1.819  -0.905  11.630  1.00  0.00     0.014 A 
ATOM     37  C   UNL     1      -1.986  -0.076   9.360  1.00  0.00     0.014 A 
ATOM     38  C   UNL     1      -2.091   0.381  12.096  1.00  0.00     0.010 A 
ATOM     39  C   UNL     1      -2.078   1.210   9.815  1.00  0.00     0.010 A 
ATOM     40  C   UNL     1      -2.201   1.438  11.179  1.00  0.00    -0.014 A 
BRANCH  40  41
ATOM     41  C   UNL     1      -2.326   2.824  11.613  1.00  0.00     0.031 A 
ATOM     42  C   UNL     1      -1.231   3.292  12.501  1.00  0.00     0.074 A 
ATOM     43  C   UNL     1      -3.204   3.680  11.042  1.00  0.00     0.049 A 
ATOM     44  N   UNL     1      -1.315   3.595  13.752  1.00  0.00    -0.248 NA
ATOM     45  C   UNL     1       0.153   3.260  11.997  1.00  0.00     0.031 C 
ATOM     46  C   UNL     1      -4.135   3.418   9.937  1.00  0.00     0.029 A 
ATOM     47  N   UNL     1      -3.351   5.017  11.235  1.00  0.00    -0.354 N 
ATOM     48  C   UNL     1      -0.054   4.053  14.121  1.00  0.00     0.074 A 
ATOM     49  C   UNL     1       0.839   3.596  13.092  1.00  0.00     0.031 C 
ATOM     50  C   UNL     1      -4.539   4.589   9.398  1.00  0.00     0.029 A 
ATOM     51  C   UNL     1      -4.033   5.678  10.214  1.00  0.00     0.049 A 
ATOM     52  H   UNL     1      -3.004   5.481  12.030  1.00  0.00     0.167 HD
ATOM     53  C   UNL     1       0.091   4.991  15.100  1.00  0.00     0.034 A 
ATOM     54  C   UNL     1      -4.140   7.023  10.030  1.00  0.00     0.034 A 
ATOM     55  C   UNL     1      -1.142   5.144  15.847  1.00  0.00     0.049 A 
ATOM     56  C   UNL     1      -3.895   7.642  11.360  1.00  0.00     0.074 A 
ATOM     57  C   UNL     1      -1.956   4.277  16.552  1.00  0.00     0.029 A 
ATOM     58  N   UNL     1      -1.926   6.249  15.584  1.00  0.00    -0.354 N 
ATOM     59  N   UNL     1      -4.679   7.451  12.388  1.00  0.00    -0.248 NA
ATOM     60  C   UNL     1      -2.530   8.028  11.693  1.00  0.00     0.031 C 
ATOM     61  C   UNL     1      -3.284   4.661  16.199  1.00  0.00     0.029 A 
ATOM     62  C   UNL     1      -3.212   5.803  15.398  1.00  0.00     0.049 A 
ATOM     63  H   UNL     1      -1.620   7.184  15.539  1.00  0.00     0.167 HD
ATOM     64  C   UNL     1      -3.822   7.239  13.459  1.00  0.00     0.074 A 
ATOM     65  C   UNL     1      -2.517   7.709  12.993  1.00  0.00     0.031 C 
ATOM     66  C   UNL     1      -4.172   6.430  14.505  1.00  0.00     0.034 A 
BRANCH  53  67
ATOM     67  C   UNL     1       1.186   6.037  15.159  1.00  0.00     0.023 A 
ATOM     68  C   UNL     1       1.151   6.931  16.247  1.00  0.00     0.031 A 
ATOM     69  C   UNL     1       2.058   6.393  14.107  1.00  0.00     0.131 A 
ATOM     70  C   UNL     1       1.841   8.154  16.205  1.00  0.00     0.055 A 
ATOM     71  C   UNL     1       2.802   7.577  14.102  1.00  0.00     0.041 A 
ATOM     72  F   UNL     1       2.179   5.674  12.986  1.00  0.00    -0.206 F 
ATOM     73  C   UNL     1       2.667   8.485  15.137  1.00  0.00     0.022 A 
BRANCH  70  74
ATOM     74  S   UNL     1       1.477   9.383  17.483  1.00  0.00     0.124 S 
ATOM     75  O   UNL     1       0.025   9.484  17.384  1.00  0.00    -0.237 OA
ATOM     76  O   UNL     1       1.998   8.733  18.680  1.00  0.00    -0.237 OA
ATOM     77  O   UNL     1       2.217  10.562  17.039  1.00  0.00    -0.744 OA
ENDBRANCH  70  74
ENDBRANCH  53  67
BRANCH  54  78
ATOM     78  C   UNL     1      -4.124   7.768   8.734  1.00  0.00     0.023 A 
ATOM     79  C   UNL     1      -4.508   9.123   8.618  1.00  0.00     0.031 A 
ATOM     80  C   UNL     1      -3.493   7.199   7.602  1.00  0.00     0.131 A 
ATOM     81  C   UNL     1      -4.257   9.841   7.420  1.00  0.00     0.055 A 
ATOM     82  C   UNL     1      -3.251   7.911   6.423  1.00  0.00     0.041 A 
ATOM     83  F   UNL     1      -3.005   5.949   7.628  1.00  0.00    -0.206 F 
ATOM     84  C   UNL     1      -3.623   9.240   6.331  1.00  0.00     0.022 A 
BRANCH  81  85
ATOM     85  S   UNL     1      -4.660  11.617   7.290  1.00  0.00     0.124 S 
ATOM     86  O   UNL     1      -6.115  11.597   7.193  1.00  0.00    -0.237 OA
ATOM     87  O   UNL     1      -4.098  12.160   8.521  1.00  0.00    -0.237 OA
ATOM     88  O   UNL     1      -3.970  12.035   6.069  1.00  0.00    -0.744 OA
ENDBRANCH  81  85
ENDBRANCH  54  78
BRANCH  66  89
ATOM     89  C   UNL     1      -5.616   5.974  14.633  1.00  0.00     0.023 A 
ATOM     90  C   UNL     1      -6.340   5.271  13.642  1.00  0.00     0.031 A 
ATOM     91  C   UNL     1      -6.233   6.145  15.886  1.00  0.00     0.131 A 
ATOM     92  C   UNL     1      -7.632   4.778  13.926  1.00  0.00     0.055 A 
ATOM     93  C   UNL     1      -7.499   5.634  16.171  1.00  0.00     0.041 A 
ATOM     94  F   UNL     1      -5.591   6.780  16.881  1.00  0.00    -0.206 F 
ATOM     95  C   UNL     1      -8.206   4.953  15.188  1.00  0.00     0.022 A 
BRANCH  92  96
ATOM     96  S   UNL     1      -8.603   3.911  12.649  1.00  0.00     0.124 S 
ATOM     97  O   UNL     1      -8.475   4.771  11.479  1.00  0.00    -0.237 OA
ATOM     98  O   UNL     1      -7.935   2.615  12.567  1.00  0.00    -0.237 OA
ATOM     99  O   UNL     1      -9.950   3.862  13.222  1.00  0.00    -0.744 OA
ENDBRANCH  92  96
ENDBRANCH  66  89
ENDBRANCH  40  41
ENDBRANCH  32  35
ENDBRANCH  30  31
ENDBRANCH   1  30
TORSDOF 17
