REMARK SMILES [NH3+][C@H](Cc1cc(F)c(F)c(F)c1)C(=O)NCCCCNC(=O)c1ccc(-c2c3nc(c(-c4cc(S(=O)(=O)[O-])ccc4F)c4ccc([nH]4)c(-c4cc(S(=O)(=O)[O-])ccc4F)c4nc(c(-c5cc(S(=O)(=O)[O-])ccc5F)c5ccc2[nH]5)C=C4)C=C3)cc1
REMARK SMILES IDX 18 1 17 2 16 3 15 4 13 5 14 6 2 8 1 9 3 13 4 14 5 15 12 16
REMARK SMILES IDX 6 17 10 18 7 19 8 20 11 21 9 22 19 23 20 24 21 25 22 27
REMARK SMILES IDX 23 28 24 29 85 30 25 31 84 32 26 33 27 34 28 35 78 36 29 37
REMARK SMILES IDX 83 38 77 39 79 40 30 41 82 42 76 43 75 44 31 46 63 47 43 48
REMARK SMILES IDX 62 49 44 50 47 51 61 52 80 53 45 54 46 55 60 57 81 58 48 59
REMARK SMILES IDX 32 60 33 61 41 62 34 63 40 64 42 65 39 66 35 67 36 68 37 69
REMARK SMILES IDX 38 70 64 71 65 72 73 73 66 74 72 75 74 76 71 77 67 78 68 79
REMARK SMILES IDX 69 80 70 81 49 82 50 83 58 84 51 85 57 86 59 87 56 88 52 89
REMARK SMILES IDX 53 90 54 91 55 92
REMARK H PARENT 15 7 1 10 1 11 1 12 20 26 79 45 47 56
REMARK Flexibility Score: inf
ROOT
ATOM      1  C   UNL     1      -3.102   1.342   2.631  1.00  0.00     0.023 C 
ENDROOT
BRANCH   1   2
ATOM      2  C   UNL     1      -1.663   0.977   2.276  1.00  0.00     0.023 C 
BRANCH   2   3
ATOM      3  C   UNL     1      -1.465  -0.497   1.927  1.00  0.00     0.116 C 
BRANCH   3   4
ATOM      4  N   UNL     1      -1.720  -0.764   0.529  1.00  0.00    -0.351 N 
ATOM      5  C   UNL     1      -0.876  -1.199  -0.455  1.00  0.00     0.278 C 
ATOM      6  O   UNL     1      -1.333  -1.292  -1.598  1.00  0.00    -0.268 OA
ATOM      7  H   UNL     1      -2.648  -0.607   0.240  1.00  0.00     0.163 HD
BRANCH   5   8
ATOM      8  C   UNL     1       0.600  -1.577  -0.155  1.00  0.00     0.275 C 
BRANCH   8   9
ATOM      9  N   UNL     1       0.642  -2.822   0.636  1.00  0.00    -0.347 N 
ATOM     10  H   UNL     1       0.052  -3.526   0.192  1.00  0.00     0.345 HD
ATOM     11  H   UNL     1       0.300  -2.638   1.579  1.00  0.00     0.345 HD
ATOM     12  H   UNL     1       1.602  -3.163   0.682  1.00  0.00     0.345 HD
ENDBRANCH   8   9
BRANCH   8  13
ATOM     13  C   UNL     1       1.430  -0.363   0.340  1.00  0.00     0.111 C 
BRANCH  13  14
ATOM     14  C   UNL     1       2.551  -0.600   1.339  1.00  0.00    -0.036 A 
ATOM     15  C   UNL     1       3.882  -0.330   0.983  1.00  0.00     0.046 A 
ATOM     16  C   UNL     1       2.296  -1.001   2.662  1.00  0.00     0.046 A 
ATOM     17  C   UNL     1       4.909  -0.462   1.922  1.00  0.00     0.162 A 
ATOM     18  C   UNL     1       3.332  -1.134   3.586  1.00  0.00     0.162 A 
ATOM     19  F   UNL     1       6.167  -0.184   1.555  1.00  0.00    -0.204 F 
ATOM     20  C   UNL     1       4.638  -0.863   3.222  1.00  0.00     0.194 A 
ATOM     21  F   UNL     1       3.041  -1.520   4.835  1.00  0.00    -0.204 F 
ATOM     22  F   UNL     1       5.628  -0.980   4.118  1.00  0.00    -0.200 F 
ENDBRANCH  13  14
ENDBRANCH   8  13
ENDBRANCH   5   8
ENDBRANCH   3   4
ENDBRANCH   2   3
ENDBRANCH   1   2
BRANCH   1  23
ATOM     23  C   UNL     1      -3.675   0.608   3.840  1.00  0.00     0.116 C 
BRANCH  23  24
ATOM     24  N   UNL     1      -2.904   0.803   5.059  1.00  0.00    -0.352 N 
ATOM     25  C   UNL     1      -3.370   0.983   6.343  1.00  0.00     0.251 C 
ATOM     26  H   UNL     1      -1.925   0.805   4.953  1.00  0.00     0.163 HD
ATOM     27  O   UNL     1      -2.590   1.237   7.252  1.00  0.00    -0.269 OA
BRANCH  25  28
ATOM     28  C   UNL     1      -4.826   0.914   6.588  1.00  0.00     0.039 A 
ATOM     29  C   UNL     1      -5.451   1.973   7.250  1.00  0.00     0.014 A 
ATOM     30  C   UNL     1      -5.576  -0.154   6.090  1.00  0.00     0.014 A 
ATOM     31  C   UNL     1      -6.844   2.002   7.336  1.00  0.00     0.010 A 
ATOM     32  C   UNL     1      -6.965  -0.084   6.109  1.00  0.00     0.010 A 
ATOM     33  C   UNL     1      -7.614   0.999   6.724  1.00  0.00    -0.014 A 
BRANCH  33  34
ATOM     34  C   UNL     1      -9.098   1.062   6.707  1.00  0.00     0.031 A 
ATOM     35  C   UNL     1      -9.901  -0.012   7.389  1.00  0.00     0.074 A 
ATOM     36  C   UNL     1      -9.719   2.034   6.009  1.00  0.00     0.049 A 
ATOM     37  N   UNL     1     -11.195  -0.201   7.396  1.00  0.00    -0.248 NA
ATOM     38  C   UNL     1      -9.139  -1.029   8.127  1.00  0.00     0.031 C 
ATOM     39  C   UNL     1      -9.048   3.100   5.261  1.00  0.00     0.029 A 
ATOM     40  N   UNL     1     -11.054   2.275   5.801  1.00  0.00    -0.354 N 
ATOM     41  C   UNL     1     -11.402  -1.367   8.125  1.00  0.00     0.074 A 
ATOM     42  C   UNL     1     -10.094  -1.874   8.482  1.00  0.00     0.031 C 
ATOM     43  C   UNL     1      -9.975   3.889   4.693  1.00  0.00     0.029 A 
ATOM     44  C   UNL     1     -11.302   3.365   4.999  1.00  0.00     0.049 A 
ATOM     45  H   UNL     1     -11.768   1.719   6.189  1.00  0.00     0.167 HD
ATOM     46  C   UNL     1     -12.574  -1.947   8.485  1.00  0.00     0.034 A 
ATOM     47  C   UNL     1     -12.465   3.877   4.551  1.00  0.00     0.034 A 
ATOM     48  C   UNL     1     -13.870  -1.418   8.135  1.00  0.00     0.049 A 
ATOM     49  C   UNL     1     -13.757   3.218   4.963  1.00  0.00     0.074 A 
ATOM     50  C   UNL     1     -15.121  -1.892   8.489  1.00  0.00     0.029 A 
ATOM     51  N   UNL     1     -14.082  -0.295   7.345  1.00  0.00    -0.354 N 
ATOM     52  N   UNL     1     -13.938   2.141   5.693  1.00  0.00    -0.248 NA
ATOM     53  C   UNL     1     -14.999   3.850   4.502  1.00  0.00     0.031 C 
ATOM     54  C   UNL     1     -16.087  -1.091   7.869  1.00  0.00     0.029 A 
ATOM     55  C   UNL     1     -15.441  -0.075   7.183  1.00  0.00     0.049 A 
ATOM     56  H   UNL     1     -13.370   0.263   6.956  1.00  0.00     0.167 HD
ATOM     57  C   UNL     1     -15.316   1.984   5.800  1.00  0.00     0.074 A 
ATOM     58  C   UNL     1     -15.917   3.083   5.072  1.00  0.00     0.031 C 
ATOM     59  C   UNL     1     -16.023   1.021   6.444  1.00  0.00     0.034 A 
BRANCH  46  60
ATOM     60  C   UNL     1     -12.493  -3.227   9.282  1.00  0.00     0.023 A 
ATOM     61  C   UNL     1     -11.899  -3.264  10.556  1.00  0.00     0.031 A 
ATOM     62  C   UNL     1     -12.972  -4.435   8.746  1.00  0.00     0.131 A 
ATOM     63  C   UNL     1     -11.718  -4.491  11.211  1.00  0.00     0.055 A 
ATOM     64  C   UNL     1     -12.868  -5.642   9.442  1.00  0.00     0.041 A 
ATOM     65  F   UNL     1     -13.532  -4.468   7.526  1.00  0.00    -0.206 F 
ATOM     66  C   UNL     1     -12.222  -5.677  10.674  1.00  0.00     0.022 A 
BRANCH  63  67
ATOM     67  S   UNL     1     -10.678  -4.531  12.695  1.00  0.00     0.124 S 
ATOM     68  O   UNL     1      -9.407  -4.031  12.177  1.00  0.00    -0.237 OA
ATOM     69  O   UNL     1     -11.391  -3.643  13.605  1.00  0.00    -0.237 OA
ATOM     70  O   UNL     1     -10.675  -5.943  13.074  1.00  0.00    -0.744 OA
ENDBRANCH  63  67
ENDBRANCH  46  60
BRANCH  47  71
ATOM     71  C   UNL     1     -12.470   5.069   3.657  1.00  0.00     0.023 A 
ATOM     72  C   UNL     1     -13.005   6.293   4.088  1.00  0.00     0.031 A 
ATOM     73  C   UNL     1     -11.971   4.991   2.345  1.00  0.00     0.131 A 
ATOM     74  C   UNL     1     -13.069   7.379   3.201  1.00  0.00     0.055 A 
ATOM     75  C   UNL     1     -11.995   6.088   1.481  1.00  0.00     0.041 A 
ATOM     76  F   UNL     1     -11.440   3.846   1.887  1.00  0.00    -0.206 F 
ATOM     77  C   UNL     1     -12.558   7.288   1.904  1.00  0.00     0.022 A 
BRANCH  74  78
ATOM     78  S   UNL     1     -13.900   8.897   3.744  1.00  0.00     0.124 S 
ATOM     79  O   UNL     1     -15.235   8.406   4.068  1.00  0.00    -0.237 OA
ATOM     80  O   UNL     1     -13.074   9.304   4.876  1.00  0.00    -0.237 OA
ATOM     81  O   UNL     1     -13.820   9.767   2.573  1.00  0.00    -0.744 OA
ENDBRANCH  74  78
ENDBRANCH  47  71
BRANCH  59  82
ATOM     82  C   UNL     1     -17.526   1.148   6.423  1.00  0.00     0.023 A 
ATOM     83  C   UNL     1     -18.266   0.976   5.241  1.00  0.00     0.031 A 
ATOM     84  C   UNL     1     -18.223   1.456   7.604  1.00  0.00     0.131 A 
ATOM     85  C   UNL     1     -19.656   1.165   5.255  1.00  0.00     0.055 A 
ATOM     86  C   UNL     1     -19.612   1.589   7.623  1.00  0.00     0.041 A 
ATOM     87  F   UNL     1     -17.564   1.633   8.761  1.00  0.00    -0.206 F 
ATOM     88  C   UNL     1     -20.335   1.456   6.441  1.00  0.00     0.022 A 
BRANCH  85  89
ATOM     89  S   UNL     1     -20.559   1.108   3.683  1.00  0.00     0.124 S 
ATOM     90  O   UNL     1     -19.909   2.169   2.921  1.00  0.00    -0.237 OA
ATOM     91  O   UNL     1     -20.303  -0.254   3.225  1.00  0.00    -0.237 OA
ATOM     92  O   UNL     1     -21.942   1.380   4.071  1.00  0.00    -0.744 OA
ENDBRANCH  85  89
ENDBRANCH  59  82
ENDBRANCH  33  34
ENDBRANCH  25  28
ENDBRANCH  23  24
ENDBRANCH   1  23
TORSDOF 17
