REMARK SMILES O=C(N[C@H]1c2ccccc2C[C@H]1C(=O)NCCCCNC(=O)c1ccc(-c2c3nc(c(-c4cc(S(=O)(=O)[O-])ccc4F)c4ccc([nH]4)c(-c4cc(S(=O)(=O)[O-])ccc4F)c4nc(c(-c5cc(S(=O)(=O)[O-])ccc5F)c5ccc2[nH]5)C=C4)C=C3)cc1)OCC1c2ccccc2-c2ccccc21
REMARK SMILES IDX 17 1 16 2 15 3 13 4 14 5 12 7 4 8 5 9 6 10 10 11 11 12 7 13
REMARK SMILES IDX 9 14 8 15 3 16 1 17 2 18 86 20 87 21 88 22 89 23 100 24
REMARK SMILES IDX 90 25 94 26 95 27 99 28 91 29 93 30 96 31 98 32 92 33 97 34
REMARK SMILES IDX 18 35 19 36 20 37 21 38 22 40 23 41 24 42 85 43 25 44 84 45
REMARK SMILES IDX 26 46 27 47 28 48 78 49 29 50 83 51 77 52 79 53 30 54 82 55
REMARK SMILES IDX 76 56 75 57 31 59 63 60 43 61 62 62 44 63 47 64 61 65 80 66
REMARK SMILES IDX 45 67 46 68 60 70 81 71 48 72 32 73 33 74 41 75 34 76 40 77
REMARK SMILES IDX 42 78 39 79 35 80 36 81 37 82 38 83 64 84 65 85 73 86 66 87
REMARK SMILES IDX 72 88 74 89 71 90 67 91 68 92 69 93 70 94 49 95 50 96 58 97
REMARK SMILES IDX 51 98 57 99 59 100 56 101 52 102 53 103 54 104 55 105
REMARK H PARENT 15 6 3 19 20 39 79 58 47 69
REMARK Flexibility Score: inf
ROOT
ATOM      1  C   UNL     1       2.581  -5.277   1.905  1.00  0.00     0.023 C 
ENDROOT
BRANCH   1   2
ATOM      2  C   UNL     1       3.735  -5.494   0.924  1.00  0.00     0.116 C 
BRANCH   2   3
ATOM      3  N   UNL     1       3.722  -4.494  -0.119  1.00  0.00    -0.356 N 
ATOM      4  C   UNL     1       4.151  -3.209  -0.134  1.00  0.00     0.225 C 
ATOM      5  O   UNL     1       3.962  -2.575  -1.178  1.00  0.00    -0.275 OA
ATOM      6  H   UNL     1       3.331  -4.800  -0.969  1.00  0.00     0.163 HD
BRANCH   4   7
ATOM      7  C   UNL     1       4.925  -2.552   0.998  1.00  0.00     0.110 C 
ATOM      8  C   UNL     1       4.430  -1.107   1.304  1.00  0.00     0.129 C 
ATOM      9  C   UNL     1       4.876  -0.890   2.724  1.00  0.00    -0.021 A 
ATOM     10  C   UNL     1       4.859   0.281   3.467  1.00  0.00     0.006 A 
ATOM     11  C   UNL     1       5.469  -2.041   3.239  1.00  0.00    -0.042 A 
ATOM     12  C   UNL     1       5.213  -3.212   2.348  1.00  0.00     0.052 C 
ATOM     13  C   UNL     1       5.530   0.308   4.691  1.00  0.00     0.000 A 
ATOM     14  C   UNL     1       6.127  -2.033   4.458  1.00  0.00     0.004 A 
ATOM     15  C   UNL     1       6.179  -0.837   5.173  1.00  0.00     0.000 A 
BRANCH   8  16
ATOM     16  N   UNL     1       3.054  -0.784   1.070  1.00  0.00    -0.314 N 
ATOM     17  O   UNL     1       1.243   0.355   0.477  1.00  0.00    -0.225 OA
ATOM     18  C   UNL     1       2.470   0.272   0.425  1.00  0.00     0.407 C 
ATOM     19  H   UNL     1       2.417  -1.437   1.439  1.00  0.00     0.167 HD
BRANCH  18  20
ATOM     20  O   UNL     1       3.179   1.264  -0.179  1.00  0.00    -0.449 OA
BRANCH  20  21
ATOM     21  C   UNL     1       4.524   1.289  -0.753  1.00  0.00     0.248 C 
BRANCH  21  22
ATOM     22  C   UNL     1       5.480   1.988   0.229  1.00  0.00     0.088 C 
ATOM     23  C   UNL     1       6.966   1.627   0.166  1.00  0.00    -0.029 A 
ATOM     24  C   UNL     1       5.526   3.506   0.061  1.00  0.00    -0.029 A 
ATOM     25  C   UNL     1       7.588   0.399   0.350  1.00  0.00     0.005 A 
ATOM     26  C   UNL     1       7.743   2.800   0.057  1.00  0.00    -0.014 A 
ATOM     27  C   UNL     1       6.862   3.942  -0.055  1.00  0.00    -0.014 A 
ATOM     28  C   UNL     1       4.473   4.409   0.081  1.00  0.00     0.005 A 
ATOM     29  C   UNL     1       8.979   0.346   0.457  1.00  0.00     0.000 A 
ATOM     30  C   UNL     1       9.127   2.749   0.149  1.00  0.00     0.009 A 
ATOM     31  C   UNL     1       7.154   5.285  -0.215  1.00  0.00     0.009 A 
ATOM     32  C   UNL     1       4.770   5.766  -0.061  1.00  0.00     0.000 A 
ATOM     33  C   UNL     1       9.743   1.513   0.363  1.00  0.00     0.001 A 
ATOM     34  C   UNL     1       6.097   6.199  -0.222  1.00  0.00     0.001 A 
ENDBRANCH  21  22
ENDBRANCH  20  21
ENDBRANCH  18  20
ENDBRANCH   8  16
ENDBRANCH   4   7
ENDBRANCH   2   3
ENDBRANCH   1   2
BRANCH   1  35
ATOM     35  C   UNL     1       1.280  -5.975   1.515  1.00  0.00     0.023 C 
BRANCH  35  36
ATOM     36  C   UNL     1       1.378  -7.492   1.428  1.00  0.00     0.116 C 
BRANCH  36  37
ATOM     37  N   UNL     1       1.906  -8.112   2.635  1.00  0.00    -0.352 N 
ATOM     38  C   UNL     1       1.719  -9.406   3.060  1.00  0.00     0.251 C 
ATOM     39  H   UNL     1       2.461  -7.539   3.212  1.00  0.00     0.163 HD
ATOM     40  O   UNL     1       2.145  -9.771   4.150  1.00  0.00    -0.269 OA
BRANCH  38  41
ATOM     41  C   UNL     1       0.945 -10.318   2.198  1.00  0.00     0.039 A 
ATOM     42  C   UNL     1      -0.189 -10.940   2.723  1.00  0.00     0.014 A 
ATOM     43  C   UNL     1       1.289 -10.475   0.852  1.00  0.00     0.014 A 
ATOM     44  C   UNL     1      -1.022 -11.669   1.875  1.00  0.00     0.010 A 
ATOM     45  C   UNL     1       0.419 -11.139  -0.003  1.00  0.00     0.010 A 
ATOM     46  C   UNL     1      -0.745 -11.741   0.499  1.00  0.00    -0.014 A 
BRANCH  46  47
ATOM     47  C   UNL     1      -1.655 -12.454  -0.431  1.00  0.00     0.031 A 
ATOM     48  C   UNL     1      -1.168 -13.677  -1.156  1.00  0.00     0.074 A 
ATOM     49  C   UNL     1      -2.888 -11.964  -0.666  1.00  0.00     0.049 A 
ATOM     50  N   UNL     1      -1.770 -14.394  -2.069  1.00  0.00    -0.248 NA
ATOM     51  C   UNL     1       0.193 -14.133  -0.831  1.00  0.00     0.031 C 
ATOM     52  C   UNL     1      -3.452 -10.759  -0.053  1.00  0.00     0.029 A 
ATOM     53  N   UNL     1      -3.888 -12.412  -1.492  1.00  0.00    -0.354 N 
ATOM     54  C   UNL     1      -0.862 -15.383  -2.431  1.00  0.00     0.074 A 
ATOM     55  C   UNL     1       0.357 -15.124  -1.693  1.00  0.00     0.031 C 
ATOM     56  C   UNL     1      -4.702 -10.577  -0.508  1.00  0.00     0.029 A 
ATOM     57  C   UNL     1      -5.016 -11.624  -1.475  1.00  0.00     0.049 A 
ATOM     58  H   UNL     1      -3.807 -13.223  -2.045  1.00  0.00     0.167 HD
ATOM     59  C   UNL     1      -1.038 -16.427  -3.277  1.00  0.00     0.034 A 
ATOM     60  C   UNL     1      -6.166 -11.729  -2.170  1.00  0.00     0.034 A 
ATOM     61  C   UNL     1      -2.262 -16.672  -3.999  1.00  0.00     0.049 A 
ATOM     62  C   UNL     1      -6.330 -12.885  -3.127  1.00  0.00     0.074 A 
ATOM     63  C   UNL     1      -2.566 -17.713  -4.859  1.00  0.00     0.029 A 
ATOM     64  N   UNL     1      -3.389 -15.860  -3.947  1.00  0.00    -0.354 N 
ATOM     65  N   UNL     1      -5.477 -13.838  -3.425  1.00  0.00    -0.248 NA
ATOM     66  C   UNL     1      -7.616 -12.986  -3.828  1.00  0.00     0.031 C 
ATOM     67  C   UNL     1      -3.851 -17.500  -5.369  1.00  0.00     0.029 A 
ATOM     68  C   UNL     1      -4.380 -16.366  -4.774  1.00  0.00     0.049 A 
ATOM     69  H   UNL     1      -3.472 -15.044  -3.402  1.00  0.00     0.167 HD
ATOM     70  C   UNL     1      -6.139 -14.671  -4.323  1.00  0.00     0.074 A 
ATOM     71  C   UNL     1      -7.464 -14.116  -4.504  1.00  0.00     0.031 C 
ATOM     72  C   UNL     1      -5.695 -15.794  -4.942  1.00  0.00     0.034 A 
BRANCH  59  73
ATOM     73  C   UNL     1       0.129 -17.365  -3.467  1.00  0.00     0.023 A 
ATOM     74  C   UNL     1       0.651 -18.113  -2.396  1.00  0.00     0.031 A 
ATOM     75  C   UNL     1       0.756 -17.486  -4.720  1.00  0.00     0.131 A 
ATOM     76  C   UNL     1       1.811 -18.881  -2.576  1.00  0.00     0.055 A 
ATOM     77  C   UNL     1       1.859 -18.321  -4.913  1.00  0.00     0.041 A 
ATOM     78  F   UNL     1       0.318 -16.782  -5.775  1.00  0.00    -0.206 F 
ATOM     79  C   UNL     1       2.403 -19.011  -3.833  1.00  0.00     0.022 A 
BRANCH  76  80
ATOM     80  S   UNL     1       2.617 -19.583  -1.111  1.00  0.00     0.124 S 
ATOM     81  O   UNL     1       2.923 -18.380  -0.340  1.00  0.00    -0.237 OA
ATOM     82  O   UNL     1       1.579 -20.447  -0.562  1.00  0.00    -0.237 OA
ATOM     83  O   UNL     1       3.781 -20.276  -1.660  1.00  0.00    -0.744 OA
ENDBRANCH  76  80
ENDBRANCH  59  73
BRANCH  60  84
ATOM     84  C   UNL     1      -7.251 -10.720  -2.004  1.00  0.00     0.023 A 
ATOM     85  C   UNL     1      -8.505 -11.085  -1.490  1.00  0.00     0.031 A 
ATOM     86  C   UNL     1      -7.070  -9.386  -2.412  1.00  0.00     0.131 A 
ATOM     87  C   UNL     1      -9.547 -10.145  -1.451  1.00  0.00     0.055 A 
ATOM     88  C   UNL     1      -8.092  -8.440  -2.317  1.00  0.00     0.041 A 
ATOM     89  F   UNL     1      -5.888  -8.981  -2.904  1.00  0.00    -0.206 F 
ATOM     90  C   UNL     1      -9.346  -8.822  -1.850  1.00  0.00     0.022 A 
BRANCH  87  91
ATOM     91  S   UNL     1     -11.203 -10.707  -0.966  1.00  0.00     0.124 S 
ATOM     92  O   UNL     1     -11.442 -11.784  -1.920  1.00  0.00    -0.237 OA
ATOM     93  O   UNL     1     -10.990 -11.111   0.419  1.00  0.00    -0.237 OA
ATOM     94  O   UNL     1     -12.031  -9.517  -1.147  1.00  0.00    -0.744 OA
ENDBRANCH  87  91
ENDBRANCH  60  84
BRANCH  72  95
ATOM     95  C   UNL     1      -6.677 -16.519  -5.829  1.00  0.00     0.023 A 
ATOM     96  C   UNL     1      -7.142 -15.959  -7.032  1.00  0.00     0.031 A 
ATOM     97  C   UNL     1      -7.162 -17.785  -5.456  1.00  0.00     0.131 A 
ATOM     98  C   UNL     1      -8.106 -16.638  -7.790  1.00  0.00     0.055 A 
ATOM     99  C   UNL     1      -8.077 -18.482  -6.245  1.00  0.00     0.041 A 
ATOM    100  F   UNL     1      -6.751 -18.365  -4.317  1.00  0.00    -0.206 F 
ATOM    101  C   UNL     1      -8.565 -17.903  -7.413  1.00  0.00     0.022 A 
BRANCH  98 102
ATOM    102  S   UNL     1      -8.820 -15.807  -9.236  1.00  0.00     0.124 S 
ATOM    103  O   UNL     1      -9.393 -14.604  -8.642  1.00  0.00    -0.237 OA
ATOM    104  O   UNL     1      -7.653 -15.604 -10.088  1.00  0.00    -0.237 OA
ATOM    105  O   UNL     1      -9.794 -16.774  -9.741  1.00  0.00    -0.744 OA
ENDBRANCH  98 102
ENDBRANCH  72  95
ENDBRANCH  46  47
ENDBRANCH  38  41
ENDBRANCH  36  37
ENDBRANCH  35  36
ENDBRANCH   1  35
TORSDOF 18
