REMARK SMILES Cc1cccc(N2C(=O)/C(=C/c3ccc(C(=O)NCCCCNC(=O)c4ccc(-c5c6nc(c(-c7cc(S(=O)(=O)[O-])ccc7F)c7ccc([nH]7)c(-c7cc(S(=O)(=O)[O-])ccc7F)c7nc(c(-c8cc(S(=O)(=O)[O-])ccc8F)c8ccc5[nH]8)C=C7)C=C6)cc4)cc3)c3ccccc3C2=O)c1
REMARK SMILES IDX 21 1 20 2 19 3 18 4 16 5 17 6 15 8 12 9 13 10 90 11 14 12
REMARK SMILES IDX 89 13 11 14 7 15 8 16 97 17 9 18 10 19 96 20 98 21 91 22
REMARK SMILES IDX 95 23 92 24 94 25 93 26 6 27 1 28 2 29 3 30 99 31 4 32 5 33
REMARK SMILES IDX 22 34 23 35 24 36 25 38 26 39 27 40 88 41 28 42 87 43 29 44
REMARK SMILES IDX 30 45 31 46 81 47 32 48 86 49 80 50 82 51 33 52 85 53 79 54
REMARK SMILES IDX 78 55 34 57 66 58 46 59 65 60 47 61 50 62 64 63 83 64 48 65
REMARK SMILES IDX 49 66 63 68 84 69 51 70 35 71 36 72 44 73 37 74 43 75 45 76
REMARK SMILES IDX 42 77 38 78 39 79 40 80 41 81 67 82 68 83 76 84 69 85 75 86
REMARK SMILES IDX 77 87 74 88 70 89 71 90 72 91 73 92 52 93 53 94 61 95 54 96
REMARK SMILES IDX 60 97 62 98 59 99 55 100 56 101 57 102 58 103
REMARK H PARENT 18 7 23 37 82 56 50 67
REMARK Flexibility Score: inf
ROOT
ATOM      1  C   UNL     1      -6.010  11.903   2.975  1.00  0.00     0.023 C 
ENDROOT
BRANCH   1   2
ATOM      2  C   UNL     1      -5.477  10.553   2.499  1.00  0.00     0.023 C 
BRANCH   2   3
ATOM      3  C   UNL     1      -5.753  10.206   1.031  1.00  0.00     0.116 C 
BRANCH   3   4
ATOM      4  N   UNL     1      -5.189  11.179   0.091  1.00  0.00    -0.352 N 
ATOM      5  C   UNL     1      -4.199  11.049  -0.853  1.00  0.00     0.251 C 
ATOM      6  O   UNL     1      -3.796  12.037  -1.463  1.00  0.00    -0.269 OA
ATOM      7  H   UNL     1      -5.588  12.077   0.145  1.00  0.00     0.163 HD
BRANCH   5   8
ATOM      8  C   UNL     1      -3.554   9.740  -1.094  1.00  0.00     0.039 A 
ATOM      9  C   UNL     1      -2.260   7.268  -1.191  1.00  0.00    -0.025 A 
ATOM     10  C   UNL     1      -1.509   8.448  -1.146  1.00  0.00     0.009 A 
ATOM     11  C   UNL     1      -3.651   7.341  -1.342  1.00  0.00     0.009 A 
ATOM     12  C   UNL     1      -2.155   9.685  -1.099  1.00  0.00     0.014 A 
ATOM     13  C   UNL     1      -4.298   8.578  -1.300  1.00  0.00     0.014 A 
BRANCH   9  14
ATOM     14  C   UNL     1      -1.576   5.981  -1.012  1.00  0.00     0.022 C 
ATOM     15  N   UNL     1      -1.700   2.622   0.284  1.00  0.00    -0.242 N 
ATOM     16  C   UNL     1      -1.041   3.779  -0.179  1.00  0.00     0.265 C 
ATOM     17  C   UNL     1      -3.012   2.674   0.809  1.00  0.00     0.265 C 
ATOM     18  O   UNL     1       0.059   3.818  -0.735  1.00  0.00    -0.268 OA
ATOM     19  C   UNL     1      -1.817   5.061  -0.048  1.00  0.00     0.049 C 
ATOM     20  C   UNL     1      -3.473   3.969   1.364  1.00  0.00     0.048 A 
ATOM     21  O   UNL     1      -3.801   1.736   0.908  1.00  0.00    -0.268 OA
ATOM     22  C   UNL     1      -2.822   5.150   1.016  1.00  0.00    -0.000 A 
ATOM     23  C   UNL     1      -4.542   3.985   2.272  1.00  0.00     0.014 A 
ATOM     24  C   UNL     1      -3.176   6.333   1.685  1.00  0.00     0.010 A 
ATOM     25  C   UNL     1      -4.933   5.179   2.870  1.00  0.00     0.001 A 
ATOM     26  C   UNL     1      -4.238   6.350   2.591  1.00  0.00     0.001 A 
BRANCH  15  27
ATOM     27  C   UNL     1      -1.036   1.327   0.141  1.00  0.00     0.053 A 
ATOM     28  C   UNL     1       2.533  -0.087   0.026  1.00  0.00     0.044 C 
ATOM     29  C   UNL     1       1.035  -0.017   0.028  1.00  0.00    -0.049 A 
ATOM     30  C   UNL     1       0.285  -1.186  -0.088  1.00  0.00     0.003 A 
ATOM     31  C   UNL     1       0.370   1.218   0.160  1.00  0.00     0.030 A 
ATOM     32  C   UNL     1      -1.101  -1.116  -0.093  1.00  0.00     0.002 A 
ATOM     33  C   UNL     1      -1.747   0.123   0.011  1.00  0.00     0.027 A 
ENDBRANCH  15  27
ENDBRANCH   9  14
ENDBRANCH   5   8
ENDBRANCH   3   4
ENDBRANCH   2   3
ENDBRANCH   1   2
BRANCH   1  34
ATOM     34  C   UNL     1      -7.525  12.060   2.897  1.00  0.00     0.116 C 
BRANCH  34  35
ATOM     35  N   UNL     1      -8.236  11.784   4.139  1.00  0.00    -0.352 N 
ATOM     36  C   UNL     1      -9.589  11.931   4.406  1.00  0.00     0.251 C 
ATOM     37  H   UNL     1      -7.685  11.451   4.884  1.00  0.00     0.163 HD
ATOM     38  O   UNL     1     -10.047  11.744   5.525  1.00  0.00    -0.269 OA
BRANCH  36  39
ATOM     39  C   UNL     1     -10.509  12.195   3.272  1.00  0.00     0.039 A 
ATOM     40  C   UNL     1     -11.541  11.274   3.057  1.00  0.00     0.014 A 
ATOM     41  C   UNL     1     -10.213  13.158   2.312  1.00  0.00     0.014 A 
ATOM     42  C   UNL     1     -12.101  11.160   1.787  1.00  0.00     0.010 A 
ATOM     43  C   UNL     1     -10.698  12.985   1.028  1.00  0.00     0.010 A 
ATOM     44  C   UNL     1     -11.586  11.939   0.751  1.00  0.00    -0.014 A 
BRANCH  44  45
ATOM     45  C   UNL     1     -11.800  11.623  -0.658  1.00  0.00     0.031 A 
ATOM     46  C   UNL     1     -12.678  12.456  -1.502  1.00  0.00     0.074 A 
ATOM     47  C   UNL     1     -11.161  10.568  -1.209  1.00  0.00     0.049 A 
ATOM     48  N   UNL     1     -13.244  12.053  -2.590  1.00  0.00    -0.248 NA
ATOM     49  C   UNL     1     -13.059  13.809  -1.126  1.00  0.00     0.031 C 
ATOM     50  C   UNL     1     -11.046  10.235  -2.626  1.00  0.00     0.029 A 
ATOM     51  N   UNL     1     -10.710   9.430  -0.548  1.00  0.00    -0.354 N 
ATOM     52  C   UNL     1     -13.801  13.150  -3.208  1.00  0.00     0.074 A 
ATOM     53  C   UNL     1     -13.766  14.179  -2.198  1.00  0.00     0.031 C 
ATOM     54  C   UNL     1     -10.815   8.918  -2.743  1.00  0.00     0.029 A 
ATOM     55  C   UNL     1     -10.908   8.342  -1.414  1.00  0.00     0.049 A 
ATOM     56  H   UNL     1     -10.325   9.394   0.358  1.00  0.00     0.167 HD
ATOM     57  C   UNL     1     -14.084  13.084  -4.543  1.00  0.00     0.034 A 
ATOM     58  C   UNL     1     -11.711   7.297  -1.058  1.00  0.00     0.034 A 
ATOM     59  C   UNL     1     -13.958  11.707  -5.044  1.00  0.00     0.049 A 
ATOM     60  C   UNL     1     -12.883   7.093  -1.993  1.00  0.00     0.074 A 
ATOM     61  C   UNL     1     -13.005  11.059  -5.814  1.00  0.00     0.029 A 
ATOM     62  N   UNL     1     -14.791  10.711  -4.538  1.00  0.00    -0.354 N 
ATOM     63  N   UNL     1     -13.291   7.979  -2.861  1.00  0.00    -0.248 NA
ATOM     64  C   UNL     1     -13.694   5.880  -2.016  1.00  0.00     0.031 C 
ATOM     65  C   UNL     1     -13.229   9.659  -5.703  1.00  0.00     0.029 A 
ATOM     66  C   UNL     1     -14.338   9.456  -4.899  1.00  0.00     0.049 A 
ATOM     67  H   UNL     1     -15.595  10.879  -3.995  1.00  0.00     0.167 HD
ATOM     68  C   UNL     1     -14.390   7.501  -3.531  1.00  0.00     0.074 A 
ATOM     69  C   UNL     1     -14.584   6.169  -2.982  1.00  0.00     0.031 C 
ATOM     70  C   UNL     1     -15.046   8.253  -4.470  1.00  0.00     0.034 A 
BRANCH  57  71
ATOM     71  C   UNL     1     -14.194  14.290  -5.474  1.00  0.00     0.023 A 
ATOM     72  C   UNL     1     -14.029  14.097  -6.867  1.00  0.00     0.031 A 
ATOM     73  C   UNL     1     -14.359  15.637  -5.090  1.00  0.00     0.131 A 
ATOM     74  C   UNL     1     -13.941  15.183  -7.765  1.00  0.00     0.055 A 
ATOM     75  C   UNL     1     -14.247  16.718  -5.976  1.00  0.00     0.041 A 
ATOM     76  F   UNL     1     -14.677  16.000  -3.847  1.00  0.00    -0.206 F 
ATOM     77  C   UNL     1     -14.024  16.497  -7.320  1.00  0.00     0.022 A 
BRANCH  74  78
ATOM     78  S   UNL     1     -13.694  14.865  -9.534  1.00  0.00     0.124 S 
ATOM     79  O   UNL     1     -12.417  14.159  -9.546  1.00  0.00    -0.237 OA
ATOM     80  O   UNL     1     -14.874  14.079  -9.876  1.00  0.00    -0.237 OA
ATOM     81  O   UNL     1     -13.660  16.206 -10.118  1.00  0.00    -0.744 OA
ENDBRANCH  74  78
ENDBRANCH  57  71
BRANCH  58  82
ATOM     82  C   UNL     1     -11.696   7.026   0.410  1.00  0.00     0.023 A 
ATOM     83  C   UNL     1     -10.430   6.802   1.001  1.00  0.00     0.031 A 
ATOM     84  C   UNL     1     -12.757   7.379   1.252  1.00  0.00     0.131 A 
ATOM     85  C   UNL     1     -10.209   7.127   2.345  1.00  0.00     0.055 A 
ATOM     86  C   UNL     1     -12.551   7.613   2.619  1.00  0.00     0.041 A 
ATOM     87  F   UNL     1     -13.975   7.630   0.750  1.00  0.00    -0.206 F 
ATOM     88  C   UNL     1     -11.264   7.537   3.160  1.00  0.00     0.022 A 
BRANCH  85  89
ATOM     89  S   UNL     1      -8.494   7.296   2.932  1.00  0.00     0.124 S 
ATOM     90  O   UNL     1      -8.243   5.991   3.531  1.00  0.00    -0.237 OA
ATOM     91  O   UNL     1      -7.744   7.590   1.712  1.00  0.00    -0.237 OA
ATOM     92  O   UNL     1      -8.556   8.417   3.866  1.00  0.00    -0.744 OA
ENDBRANCH  85  89
ENDBRANCH  58  82
BRANCH  70  93
ATOM     93  C   UNL     1     -16.363   7.896  -5.136  1.00  0.00     0.023 A 
ATOM     94  C   UNL     1     -17.246   6.919  -4.651  1.00  0.00     0.031 A 
ATOM     95  C   UNL     1     -16.814   8.605  -6.279  1.00  0.00     0.131 A 
ATOM     96  C   UNL     1     -18.448   6.617  -5.322  1.00  0.00     0.055 A 
ATOM     97  C   UNL     1     -18.044   8.358  -6.899  1.00  0.00     0.041 A 
ATOM     98  F   UNL     1     -16.084   9.578  -6.841  1.00  0.00    -0.206 F 
ATOM     99  C   UNL     1     -18.865   7.345  -6.431  1.00  0.00     0.022 A 
BRANCH  96 100
ATOM    100  S   UNL     1     -19.428   5.206  -4.741  1.00  0.00     0.124 S 
ATOM    101  O   UNL     1     -18.509   4.092  -4.960  1.00  0.00    -0.237 OA
ATOM    102  O   UNL     1     -19.681   5.552  -3.346  1.00  0.00    -0.237 OA
ATOM    103  O   UNL     1     -20.604   5.220  -5.608  1.00  0.00    -0.744 OA
ENDBRANCH  96 100
ENDBRANCH  70  93
ENDBRANCH  44  45
ENDBRANCH  36  39
ENDBRANCH  34  35
ENDBRANCH   1  34
TORSDOF 16
