REMARK SMILES O=C(NCCCCNC(=O)c1cc(S(=O)(=O)Nc2cccc(Cl)c2)ccc1O)c1ccc(-c2c3nc(c(-c4cc(S(=O)(=O)[O-])ccc4F)c4ccc([nH]4)c(-c4cc(S(=O)(=O)[O-])ccc4F)c4nc(c(-c5cc(S(=O)(=O)[O-])ccc5F)c5ccc2[nH]5)C=C4)C=C3)cc1
REMARK SMILES IDX 5 1 4 2 3 3 1 4 2 5 29 7 30 8 91 9 31 10 90 11 32 12 33 13
REMARK SMILES IDX 34 14 84 15 35 16 89 17 83 18 85 19 36 20 88 21 82 22 81 23
REMARK SMILES IDX 37 25 69 26 49 27 68 28 50 29 53 30 67 31 86 32 51 33 52 34
REMARK SMILES IDX 66 36 87 37 54 38 38 39 39 40 47 41 40 42 46 43 48 44 45 45
REMARK SMILES IDX 41 46 42 47 43 48 44 49 70 50 71 51 79 52 72 53 78 54 80 55
REMARK SMILES IDX 77 56 73 57 74 58 75 59 76 60 55 61 56 62 64 63 57 64 63 65
REMARK SMILES IDX 65 66 62 67 58 68 59 69 60 70 61 71 6 72 7 73 8 74 9 75
REMARK SMILES IDX 10 77 11 78 12 79 27 80 13 81 26 82 25 83 28 84 14 86 15 87
REMARK SMILES IDX 16 88 17 89 18 91 19 92 24 93 20 94 22 95 21 96 23 97
REMARK H PARENT 3 6 85 24 53 35 8 76 28 85 17 90
REMARK Flexibility Score: inf
ROOT
ATOM      1  C   UNL     1       5.127  -2.411  -0.708  1.00  0.00     0.023 C 
ENDROOT
BRANCH   1   2
ATOM      2  C   UNL     1       4.777  -0.930  -0.740  1.00  0.00     0.116 C 
BRANCH   2   3
ATOM      3  N   UNL     1       3.344  -0.667  -0.811  1.00  0.00    -0.352 N 
ATOM      4  O   UNL     1       1.336   0.116  -0.130  1.00  0.00    -0.269 OA
ATOM      5  C   UNL     1       2.552   0.078   0.034  1.00  0.00     0.251 C 
ATOM      6  H   UNL     1       2.876  -1.081  -1.573  1.00  0.00     0.163 HD
BRANCH   5   7
ATOM      7  C   UNL     1       3.177   0.801   1.163  1.00  0.00     0.039 A 
ATOM      8  C   UNL     1       4.330   1.559   0.960  1.00  0.00     0.014 A 
ATOM      9  C   UNL     1       2.642   0.664   2.447  1.00  0.00     0.014 A 
ATOM     10  C   UNL     1       5.058   2.003   2.056  1.00  0.00     0.010 A 
ATOM     11  C   UNL     1       3.323   1.208   3.542  1.00  0.00     0.010 A 
ATOM     12  C   UNL     1       4.566   1.833   3.361  1.00  0.00    -0.014 A 
BRANCH  12  13
ATOM     13  C   UNL     1       5.377   2.330   4.506  1.00  0.00     0.031 A 
ATOM     14  C   UNL     1       5.931   1.383   5.539  1.00  0.00     0.074 A 
ATOM     15  C   UNL     1       5.665   3.644   4.571  1.00  0.00     0.049 A 
ATOM     16  N   UNL     1       6.700   1.642   6.568  1.00  0.00    -0.248 NA
ATOM     17  C   UNL     1       5.564  -0.034   5.411  1.00  0.00     0.031 C 
ATOM     18  C   UNL     1       5.180   4.657   3.629  1.00  0.00     0.029 A 
ATOM     19  N   UNL     1       6.457   4.352   5.438  1.00  0.00    -0.354 N 
ATOM     20  C   UNL     1       6.886   0.429   7.225  1.00  0.00     0.074 A 
ATOM     21  C   UNL     1       6.124  -0.560   6.492  1.00  0.00     0.031 C 
ATOM     22  C   UNL     1       5.739   5.838   3.926  1.00  0.00     0.029 A 
ATOM     23  C   UNL     1       6.563   5.686   5.119  1.00  0.00     0.049 A 
ATOM     24  H   UNL     1       6.906   3.945   6.213  1.00  0.00     0.167 HD
ATOM     25  C   UNL     1       7.629   0.167   8.331  1.00  0.00     0.034 A 
ATOM     26  C   UNL     1       7.239   6.681   5.723  1.00  0.00     0.034 A 
ATOM     27  C   UNL     1       8.402   1.163   9.036  1.00  0.00     0.049 A 
ATOM     28  C   UNL     1       8.046   6.365   6.952  1.00  0.00     0.074 A 
ATOM     29  C   UNL     1       9.225   0.997  10.138  1.00  0.00     0.029 A 
ATOM     30  N   UNL     1       8.446   2.514   8.714  1.00  0.00    -0.354 N 
ATOM     31  N   UNL     1       8.221   5.210   7.550  1.00  0.00    -0.248 NA
ATOM     32  C   UNL     1       8.746   7.488   7.585  1.00  0.00     0.031 C 
ATOM     33  C   UNL     1       9.713   2.253  10.518  1.00  0.00     0.029 A 
ATOM     34  C   UNL     1       9.254   3.196   9.613  1.00  0.00     0.049 A 
ATOM     35  H   UNL     1       7.972   2.928   7.956  1.00  0.00     0.167 HD
ATOM     36  C   UNL     1       9.067   5.466   8.623  1.00  0.00     0.074 A 
ATOM     37  C   UNL     1       9.383   6.880   8.573  1.00  0.00     0.031 C 
ATOM     38  C   UNL     1       9.541   4.611   9.565  1.00  0.00     0.034 A 
BRANCH  25  39
ATOM     39  C   UNL     1       7.597  -1.244   8.874  1.00  0.00     0.023 A 
ATOM     40  C   UNL     1       8.101  -2.337   8.148  1.00  0.00     0.031 A 
ATOM     41  C   UNL     1       7.027  -1.501  10.135  1.00  0.00     0.131 A 
ATOM     42  C   UNL     1       7.962  -3.639   8.654  1.00  0.00     0.055 A 
ATOM     43  C   UNL     1       6.961  -2.791  10.667  1.00  0.00     0.041 A 
ATOM     44  F   UNL     1       6.512  -0.502  10.868  1.00  0.00    -0.206 F 
ATOM     45  C   UNL     1       7.417  -3.872   9.918  1.00  0.00     0.022 A 
BRANCH  42  46
ATOM     46  S   UNL     1       8.371  -5.039   7.574  1.00  0.00     0.124 S 
ATOM     47  O   UNL     1       7.509  -4.786   6.421  1.00  0.00    -0.237 OA
ATOM     48  O   UNL     1       9.801  -4.859   7.354  1.00  0.00    -0.237 OA
ATOM     49  O   UNL     1       8.004  -6.207   8.372  1.00  0.00    -0.744 OA
ENDBRANCH  42  46
ENDBRANCH  25  39
BRANCH  26  50
ATOM     50  C   UNL     1       7.166   8.068   5.187  1.00  0.00     0.023 A 
ATOM     51  C   UNL     1       8.302   8.703   4.664  1.00  0.00     0.031 A 
ATOM     52  C   UNL     1       5.956   8.784   5.205  1.00  0.00     0.131 A 
ATOM     53  C   UNL     1       8.214  10.028   4.211  1.00  0.00     0.055 A 
ATOM     54  C   UNL     1       5.861  10.084   4.706  1.00  0.00     0.041 A 
ATOM     55  F   UNL     1       4.838   8.218   5.688  1.00  0.00    -0.206 F 
ATOM     56  C   UNL     1       6.998  10.717   4.215  1.00  0.00     0.022 A 
BRANCH  53  57
ATOM     57  S   UNL     1       9.730  10.864   3.672  1.00  0.00     0.124 S 
ATOM     58  O   UNL     1      10.560  10.776   4.868  1.00  0.00    -0.237 OA
ATOM     59  O   UNL     1      10.144  10.041   2.541  1.00  0.00    -0.237 OA
ATOM     60  O   UNL     1       9.272  12.209   3.327  1.00  0.00    -0.744 OA
ENDBRANCH  53  57
ENDBRANCH  26  50
BRANCH  38  61
ATOM     61  C   UNL     1      10.478   5.194  10.593  1.00  0.00     0.023 A 
ATOM     62  C   UNL     1      10.037   6.128  11.546  1.00  0.00     0.031 A 
ATOM     63  C   UNL     1      11.840   4.843  10.588  1.00  0.00     0.131 A 
ATOM     64  C   UNL     1      10.961   6.731  12.413  1.00  0.00     0.055 A 
ATOM     65  C   UNL     1      12.744   5.402  11.492  1.00  0.00     0.041 A 
ATOM     66  F   UNL     1      12.315   3.958   9.697  1.00  0.00    -0.206 F 
ATOM     67  C   UNL     1      12.309   6.363  12.401  1.00  0.00     0.022 A 
BRANCH  64  68
ATOM     68  S   UNL     1      10.396   8.080  13.486  1.00  0.00     0.124 S 
ATOM     69  O   UNL     1       9.859   9.033  12.519  1.00  0.00    -0.237 OA
ATOM     70  O   UNL     1       9.415   7.413  14.336  1.00  0.00    -0.237 OA
ATOM     71  O   UNL     1      11.615   8.510  14.168  1.00  0.00    -0.744 OA
ENDBRANCH  64  68
ENDBRANCH  38  61
ENDBRANCH  12  13
ENDBRANCH   5   7
ENDBRANCH   2   3
ENDBRANCH   1   2
BRANCH   1  72
ATOM     72  C   UNL     1       4.688  -3.210  -1.925  1.00  0.00     0.023 C 
BRANCH  72  73
ATOM     73  C   UNL     1       5.077  -2.614  -3.268  1.00  0.00     0.116 C 
BRANCH  73  74
ATOM     74  N   UNL     1       6.513  -2.529  -3.504  1.00  0.00    -0.352 N 
ATOM     75  C   UNL     1       7.179  -2.802  -4.682  1.00  0.00     0.255 C 
ATOM     76  H   UNL     1       7.067  -2.247  -2.741  1.00  0.00     0.163 HD
ATOM     77  O   UNL     1       8.395  -2.684  -4.784  1.00  0.00    -0.269 OA
BRANCH  75  78
ATOM     78  C   UNL     1       6.397  -3.366  -5.798  1.00  0.00     0.082 A 
ATOM     79  C   UNL     1       6.678  -4.682  -6.183  1.00  0.00     0.040 A 
ATOM     80  C   UNL     1       5.296  -2.688  -6.329  1.00  0.00     0.128 A 
ATOM     81  C   UNL     1       5.754  -5.365  -6.976  1.00  0.00     0.088 A 
ATOM     82  C   UNL     1       4.335  -3.397  -7.033  1.00  0.00     0.048 A 
ATOM     83  C   UNL     1       4.535  -4.754  -7.283  1.00  0.00     0.026 A 
BRANCH  80  84
ATOM     84  O   UNL     1       5.109  -1.360  -6.081  1.00  0.00    -0.507 OA
ATOM     85  H   UNL     1       5.756  -0.876  -5.606  1.00  0.00     0.293 HD
ENDBRANCH  80  84
BRANCH  81  86
ATOM     86  S   UNL     1       6.252  -6.949  -7.628  1.00  0.00     0.261 S 
ATOM     87  O   UNL     1       7.338  -6.693  -8.553  1.00  0.00    -0.201 OA
ATOM     88  O   UNL     1       6.416  -7.833  -6.498  1.00  0.00    -0.201 OA
BRANCH  86  89
ATOM     89  N   UNL     1       4.974  -7.603  -8.503  1.00  0.00    -0.280 N 
ATOM     90  H   UNL     1       4.730  -8.540  -8.324  1.00  0.00     0.180 HD
BRANCH  89  91
ATOM     91  C   UNL     1       4.221  -6.901  -9.483  1.00  0.00     0.050 A 
ATOM     92  C   UNL     1       4.744  -5.860 -10.256  1.00  0.00     0.027 A 
ATOM     93  C   UNL     1       2.855  -7.194  -9.550  1.00  0.00     0.047 A 
ATOM     94  C   UNL     1       3.881  -5.023 -10.971  1.00  0.00     0.004 A 
ATOM     95  C   UNL     1       2.003  -6.364 -10.275  1.00  0.00     0.043 A 
ATOM     96  C   UNL     1       2.507  -5.262 -10.962  1.00  0.00     0.020 A 
ATOM     97  Cl  UNL     1       0.309  -6.660 -10.257  1.00  0.00    -0.084 Cl
ENDBRANCH  89  91
ENDBRANCH  86  89
ENDBRANCH  81  86
ENDBRANCH  75  78
ENDBRANCH  73  74
ENDBRANCH  72  73
ENDBRANCH   1  72
TORSDOF 18
