REMARK SMILES CC(C)[C@@](C)(CC(=O)N[C@H]1CCCC1(C)C)C(=O)NCCCCNC(=O)c1ccc(-c2c3nc(c(-c4cc(S(=O)(=O)[O-])ccc4F)c4ccc([nH]4)c(-c4cc(S(=O)(=O)[O-])ccc4F)c4nc(c(-c5cc(S(=O)(=O)[O-])ccc5F)c5ccc2[nH]5)C=C4)C=C3)cc1
REMARK SMILES IDX 21 1 20 2 19 3 17 4 18 5 4 7 5 8 2 9 1 10 3 11 6 12 7 13
REMARK SMILES IDX 8 14 9 15 10 17 11 18 14 19 12 20 13 21 15 22 16 23 22 24
REMARK SMILES IDX 23 25 24 26 25 27 26 29 27 30 28 31 89 32 29 33 88 34 30 35
REMARK SMILES IDX 31 36 32 37 82 38 33 39 87 40 81 41 83 42 34 43 86 44 80 45
REMARK SMILES IDX 79 46 35 48 67 49 47 50 66 51 48 52 51 53 65 54 84 55 49 56
REMARK SMILES IDX 50 57 64 59 85 60 52 61 36 62 37 63 45 64 38 65 44 66 46 67
REMARK SMILES IDX 43 68 39 69 40 70 41 71 42 72 68 73 69 74 77 75 70 76 76 77
REMARK SMILES IDX 78 78 75 79 71 80 72 81 73 82 74 83 53 84 54 85 62 86 55 87
REMARK SMILES IDX 61 88 63 89 60 90 56 91 57 92 58 93 59 94
REMARK H PARENT 19 6 9 16 24 28 83 47 51 58
REMARK Flexibility Score: inf
ROOT
ATOM      1  C   UNL     1      -5.025  -1.922   2.126  1.00  0.00     0.023 C 
ENDROOT
BRANCH   1   2
ATOM      2  C   UNL     1      -4.370  -1.345   0.874  1.00  0.00     0.116 C 
BRANCH   2   3
ATOM      3  N   UNL     1      -3.532  -0.221   1.198  1.00  0.00    -0.356 N 
ATOM      4  C   UNL     1      -2.221   0.045   1.130  1.00  0.00     0.226 C 
ATOM      5  O   UNL     1      -1.960   1.220   1.425  1.00  0.00    -0.274 OA
ATOM      6  H   UNL     1      -4.048   0.537   1.558  1.00  0.00     0.163 HD
BRANCH   4   7
ATOM      7  C   UNL     1      -1.126  -0.907   0.599  1.00  0.00     0.057 C 
ATOM      8  C   UNL     1      -1.371  -0.993  -0.930  1.00  0.00     0.022 C 
BRANCH   7   9
ATOM      9  C   UNL     1       0.253  -0.237   0.912  1.00  0.00    -0.002 C 
ATOM     10  C   UNL     1       0.715   0.919   0.018  1.00  0.00     0.008 C 
ATOM     11  C   UNL     1       0.393   0.176   2.406  1.00  0.00     0.008 C 
ENDBRANCH   7   9
BRANCH   7  12
ATOM     12  C   UNL     1      -1.090  -2.391   1.116  1.00  0.00     0.116 C 
BRANCH  12  13
ATOM     13  C   UNL     1      -0.382  -2.712   2.431  1.00  0.00     0.221 C 
ATOM     14  O   UNL     1      -1.039  -2.752   3.476  1.00  0.00    -0.275 OA
ATOM     15  N   UNL     1       0.956  -2.985   2.529  1.00  0.00    -0.353 N 
ATOM     16  H   UNL     1       1.255  -3.102   3.459  1.00  0.00     0.163 HD
BRANCH  15  17
ATOM     17  C   UNL     1       2.052  -3.142   1.551  1.00  0.00     0.087 C 
ATOM     18  C   UNL     1       3.043  -1.955   1.546  1.00  0.00     0.025 C 
ATOM     19  C   UNL     1       3.030  -4.300   1.925  1.00  0.00    -0.015 C 
ATOM     20  C   UNL     1       4.015  -2.191   2.691  1.00  0.00     0.003 C 
ATOM     21  C   UNL     1       3.916  -3.674   3.024  1.00  0.00     0.008 C 
ATOM     22  C   UNL     1       2.351  -5.572   2.437  1.00  0.00     0.013 C 
ATOM     23  C   UNL     1       3.905  -4.683   0.707  1.00  0.00     0.013 C 
ENDBRANCH  15  17
ENDBRANCH  12  13
ENDBRANCH   7  12
ENDBRANCH   4   7
ENDBRANCH   2   3
ENDBRANCH   1   2
BRANCH   1  24
ATOM     24  C   UNL     1      -5.755  -0.906   3.018  1.00  0.00     0.023 C 
BRANCH  24  25
ATOM     25  C   UNL     1      -6.671   0.087   2.306  1.00  0.00     0.116 C 
BRANCH  25  26
ATOM     26  N   UNL     1      -7.617  -0.556   1.415  1.00  0.00    -0.352 N 
ATOM     27  C   UNL     1      -8.949  -0.291   1.217  1.00  0.00     0.251 C 
ATOM     28  H   UNL     1      -7.250  -1.291   0.872  1.00  0.00     0.163 HD
ATOM     29  O   UNL     1      -9.606  -1.029   0.493  1.00  0.00    -0.269 OA
BRANCH  27  30
ATOM     30  C   UNL     1      -9.589   0.846   1.912  1.00  0.00     0.039 A 
ATOM     31  C   UNL     1     -10.822   0.627   2.526  1.00  0.00     0.014 A 
ATOM     32  C   UNL     1      -8.988   2.108   1.969  1.00  0.00     0.014 A 
ATOM     33  C   UNL     1     -11.428   1.659   3.241  1.00  0.00     0.010 A 
ATOM     34  C   UNL     1      -9.558   3.114   2.748  1.00  0.00     0.010 A 
ATOM     35  C   UNL     1     -10.785   2.900   3.391  1.00  0.00    -0.014 A 
BRANCH  35  36
ATOM     36  C   UNL     1     -11.402   3.957   4.235  1.00  0.00     0.031 A 
ATOM     37  C   UNL     1     -11.860   5.255   3.627  1.00  0.00     0.074 A 
ATOM     38  C   UNL     1     -11.551   3.735   5.557  1.00  0.00     0.049 A 
ATOM     39  N   UNL     1     -12.461   6.267   4.199  1.00  0.00    -0.248 NA
ATOM     40  C   UNL     1     -11.588   5.451   2.195  1.00  0.00     0.031 C 
ATOM     41  C   UNL     1     -11.091   2.537   6.266  1.00  0.00     0.029 A 
ATOM     42  N   UNL     1     -12.137   4.493   6.538  1.00  0.00    -0.354 N 
ATOM     43  C   UNL     1     -12.652   7.212   3.198  1.00  0.00     0.074 A 
ATOM     44  C   UNL     1     -12.031   6.684   2.001  1.00  0.00     0.031 C 
ATOM     45  C   UNL     1     -11.451   2.623   7.555  1.00  0.00     0.029 A 
ATOM     46  C   UNL     1     -12.126   3.897   7.779  1.00  0.00     0.049 A 
ATOM     47  H   UNL     1     -12.530   5.380   6.371  1.00  0.00     0.167 HD
ATOM     48  C   UNL     1     -13.312   8.396   3.262  1.00  0.00     0.034 A 
ATOM     49  C   UNL     1     -12.602   4.329   8.963  1.00  0.00     0.034 A 
ATOM     50  C   UNL     1     -13.917   8.911   4.467  1.00  0.00     0.049 A 
ATOM     51  C   UNL     1     -13.311   5.659   9.011  1.00  0.00     0.074 A 
ATOM     52  C   UNL     1     -14.630  10.085   4.641  1.00  0.00     0.029 A 
ATOM     53  N   UNL     1     -13.876   8.287   5.709  1.00  0.00    -0.354 N 
ATOM     54  N   UNL     1     -13.535   6.513   8.038  1.00  0.00    -0.248 NA
ATOM     55  C   UNL     1     -13.852   6.071  10.311  1.00  0.00     0.031 C 
ATOM     56  C   UNL     1     -14.958  10.204   5.996  1.00  0.00     0.029 A 
ATOM     57  C   UNL     1     -14.527   9.065   6.656  1.00  0.00     0.049 A 
ATOM     58  H   UNL     1     -13.448   7.419   5.890  1.00  0.00     0.167 HD
ATOM     59  C   UNL     1     -14.262   7.554   8.609  1.00  0.00     0.074 A 
ATOM     60  C   UNL     1     -14.473   7.196   9.997  1.00  0.00     0.031 C 
ATOM     61  C   UNL     1     -14.709   8.706   8.043  1.00  0.00     0.034 A 
BRANCH  48  62
ATOM     62  C   UNL     1     -13.399   9.214   1.995  1.00  0.00     0.023 A 
ATOM     63  C   UNL     1     -14.073   8.736   0.856  1.00  0.00     0.031 A 
ATOM     64  C   UNL     1     -12.801  10.484   1.918  1.00  0.00     0.131 A 
ATOM     65  C   UNL     1     -14.078   9.491  -0.326  1.00  0.00     0.055 A 
ATOM     66  C   UNL     1     -12.879  11.266   0.763  1.00  0.00     0.041 A 
ATOM     67  F   UNL     1     -12.125  10.986   2.963  1.00  0.00    -0.206 F 
ATOM     68  C   UNL     1     -13.510  10.765  -0.372  1.00  0.00     0.022 A 
BRANCH  65  69
ATOM     69  S   UNL     1     -14.727   8.730  -1.839  1.00  0.00     0.124 S 
ATOM     70  O   UNL     1     -13.851   7.569  -1.984  1.00  0.00    -0.237 OA
ATOM     71  O   UNL     1     -16.111   8.444  -1.481  1.00  0.00    -0.237 OA
ATOM     72  O   UNL     1     -14.545   9.769  -2.851  1.00  0.00    -0.744 OA
ENDBRANCH  65  69
ENDBRANCH  48  62
BRANCH  49  73
ATOM     73  C   UNL     1     -12.414   3.516  10.202  1.00  0.00     0.023 A 
ATOM     74  C   UNL     1     -13.511   3.035  10.934  1.00  0.00     0.031 A 
ATOM     75  C   UNL     1     -11.126   3.261  10.707  1.00  0.00     0.131 A 
ATOM     76  C   UNL     1     -13.304   2.383  12.160  1.00  0.00     0.055 A 
ATOM     77  C   UNL     1     -10.922   2.553  11.892  1.00  0.00     0.041 A 
ATOM     78  F   UNL     1     -10.040   3.695  10.047  1.00  0.00    -0.206 F 
ATOM     79  C   UNL     1     -12.016   2.126  12.636  1.00  0.00     0.022 A 
BRANCH  76  80
ATOM     80  S   UNL     1     -14.745   1.980  13.186  1.00  0.00     0.124 S 
ATOM     81  O   UNL     1     -15.384   3.284  13.326  1.00  0.00    -0.237 OA
ATOM     82  O   UNL     1     -15.446   1.008  12.354  1.00  0.00    -0.237 OA
ATOM     83  O   UNL     1     -14.153   1.440  14.408  1.00  0.00    -0.744 OA
ENDBRANCH  76  80
ENDBRANCH  49  73
BRANCH  61  84
ATOM     84  C   UNL     1     -15.493   9.639   8.937  1.00  0.00     0.023 A 
ATOM     85  C   UNL     1     -14.911  10.236  10.069  1.00  0.00     0.031 A 
ATOM     86  C   UNL     1     -16.853   9.892   8.685  1.00  0.00     0.131 A 
ATOM     87  C   UNL     1     -15.705  10.978  10.956  1.00  0.00     0.055 A 
ATOM     88  C   UNL     1     -17.619  10.700   9.528  1.00  0.00     0.041 A 
ATOM     89  F   UNL     1     -17.466   9.350   7.621  1.00  0.00    -0.206 F 
ATOM     90  C   UNL     1     -17.051  11.229  10.683  1.00  0.00     0.022 A 
BRANCH  87  91
ATOM     91  S   UNL     1     -14.988  11.483  12.544  1.00  0.00     0.124 S 
ATOM     92  O   UNL     1     -14.550  10.206  13.098  1.00  0.00    -0.237 OA
ATOM     93  O   UNL     1     -13.928  12.396  12.131  1.00  0.00    -0.237 OA
ATOM     94  O   UNL     1     -16.110  12.110  13.241  1.00  0.00    -0.744 OA
ENDBRANCH  87  91
ENDBRANCH  61  84
ENDBRANCH  35  36
ENDBRANCH  27  30
ENDBRANCH  25  26
ENDBRANCH  24  25
ENDBRANCH   1  24
TORSDOF 18
