REMARK SMILES Cc1ccc(S(=O)(=O)n2cc(C(=O)C(=O)N[C@@H](Cc3cnc[nH]3)C(=O)NCCCCNC(=O)c3ccc(-c4c5nc(c(-c6cc(S(=O)(=O)[O-])ccc6F)c6ccc([nH]6)c(-c6cc(S(=O)(=O)[O-])ccc6F)c6nc(c(-c7cc(S(=O)(=O)[O-])ccc7F)c7ccc4[nH]7)C=C6)C=C5)cc3)c3ccccc32)cc1
REMARK SMILES IDX 27 1 26 2 24 3 25 4 17 6 16 7 14 8 15 9 12 11 13 12 11 13
REMARK SMILES IDX 9 14 10 15 102 16 97 17 101 18 98 19 100 20 99 21 6 22 7 23
REMARK SMILES IDX 8 24 5 25 1 26 2 27 3 28 104 29 4 30 103 31 18 32 19 33
REMARK SMILES IDX 20 34 23 35 21 36 22 37 28 39 29 40 30 41 31 42 32 43 33 45
REMARK SMILES IDX 34 46 35 47 96 48 36 49 95 50 37 51 38 52 39 53 89 54 40 55
REMARK SMILES IDX 94 56 88 57 90 58 41 59 93 60 87 61 86 62 42 64 74 65 54 66
REMARK SMILES IDX 73 67 55 68 58 69 72 70 91 71 56 72 57 73 71 75 92 76 59 77
REMARK SMILES IDX 43 78 44 79 52 80 45 81 51 82 53 83 50 84 46 85 47 86 48 87
REMARK SMILES IDX 49 88 75 89 76 90 84 91 77 92 83 93 85 94 82 95 78 96 79 97
REMARK SMILES IDX 80 98 81 99 60 100 61 101 69 102 62 103 68 104 70 105 67 106
REMARK SMILES IDX 63 107 64 108 65 109 66 110
REMARK H PARENT 26 5 16 10 23 38 31 44 90 63 58 74
REMARK Flexibility Score: inf
ROOT
ATOM      1  C   UNL     1      -8.140   6.038   5.982  1.00  0.00     0.116 C 
ENDROOT
BRANCH   1   2
ATOM      2  N   UNL     1      -7.116   6.827   5.319  1.00  0.00    -0.354 N 
ATOM      3  C   UNL     1      -7.101   7.228   4.008  1.00  0.00     0.242 C 
ATOM      4  O   UNL     1      -6.594   8.331   3.768  1.00  0.00    -0.273 OA
ATOM      5  H   UNL     1      -6.349   7.103   5.871  1.00  0.00     0.163 HD
BRANCH   3   6
ATOM      6  C   UNL     1      -7.738   6.397   2.856  1.00  0.00     0.177 C 
BRANCH   6   7
ATOM      7  N   UNL     1      -7.595   4.947   3.051  1.00  0.00    -0.337 N 
ATOM      8  C   UNL     1      -6.745   4.048   2.454  1.00  0.00     0.293 C 
ATOM      9  O   UNL     1      -6.590   2.946   2.972  1.00  0.00    -0.265 OA
ATOM     10  H   UNL     1      -8.208   4.557   3.716  1.00  0.00     0.164 HD
BRANCH   8  11
ATOM     11  C   UNL     1      -6.027   4.391   1.127  1.00  0.00     0.252 C 
ATOM     12  O   UNL     1      -6.212   5.491   0.617  1.00  0.00    -0.283 OA
BRANCH  11  13
ATOM     13  C   UNL     1      -5.176   3.422   0.426  1.00  0.00     0.054 A 
ATOM     14  N   UNL     1      -4.128   1.565  -0.220  1.00  0.00    -0.240 N 
ATOM     15  C   UNL     1      -4.894   2.115   0.774  1.00  0.00     0.117 A 
ATOM     16  C   UNL     1      -3.860   2.482  -1.214  1.00  0.00     0.065 A 
ATOM     17  C   UNL     1      -4.477   3.672  -0.809  1.00  0.00     0.012 A 
ATOM     18  C   UNL     1      -3.127   2.403  -2.413  1.00  0.00     0.028 A 
ATOM     19  C   UNL     1      -4.335   4.817  -1.625  1.00  0.00     0.011 A 
ATOM     20  C   UNL     1      -2.997   3.558  -3.190  1.00  0.00     0.002 A 
ATOM     21  C   UNL     1      -3.589   4.752  -2.801  1.00  0.00     0.001 A 
BRANCH  14  22
ATOM     22  S   UNL     1      -3.538  -0.028  -0.181  1.00  0.00     0.268 S 
ATOM     23  O   UNL     1      -3.829  -0.578  -1.488  1.00  0.00    -0.201 OA
ATOM     24  O   UNL     1      -4.055  -0.626   1.040  1.00  0.00    -0.201 OA
BRANCH  22  25
ATOM     25  C   UNL     1      -1.775   0.043  -0.013  1.00  0.00     0.088 A 
ATOM     26  C   UNL     1       2.523  -0.037   0.030  1.00  0.00     0.044 C 
ATOM     27  C   UNL     1       1.023  -0.004   0.043  1.00  0.00    -0.051 A 
ATOM     28  C   UNL     1       0.300  -1.200  -0.041  1.00  0.00     0.005 A 
ATOM     29  C   UNL     1       0.331   1.210   0.139  1.00  0.00     0.005 A 
ATOM     30  C   UNL     1      -1.094  -1.178  -0.075  1.00  0.00     0.022 A 
ATOM     31  C   UNL     1      -1.066   1.237   0.126  1.00  0.00     0.022 A 
ENDBRANCH  22  25
ENDBRANCH  14  22
ENDBRANCH  11  13
ENDBRANCH   8  11
ENDBRANCH   6   7
BRANCH   6  32
ATOM     32  C   UNL     1      -9.152   6.820   2.407  1.00  0.00     0.090 C 
BRANCH  32  33
ATOM     33  C   UNL     1     -10.164   6.746   3.481  1.00  0.00     0.037 A 
ATOM     34  C   UNL     1     -10.893   5.706   4.020  1.00  0.00     0.134 A 
ATOM     35  N   UNL     1     -10.499   7.837   4.246  1.00  0.00    -0.348 N 
ATOM     36  N   UNL     1     -11.417   6.092   5.222  1.00  0.00    -0.245 NA
ATOM     37  C   UNL     1     -11.111   7.353   5.357  1.00  0.00     0.196 A 
ATOM     38  H   UNL     1     -10.329   8.782   4.031  1.00  0.00     0.167 HD
ENDBRANCH  32  33
ENDBRANCH   6  32
ENDBRANCH   3   6
ENDBRANCH   1   2
BRANCH   1  39
ATOM     39  C   UNL     1      -7.655   5.003   6.988  1.00  0.00     0.023 C 
BRANCH  39  40
ATOM     40  C   UNL     1      -7.342   5.543   8.375  1.00  0.00     0.023 C 
BRANCH  40  41
ATOM     41  C   UNL     1      -8.491   6.247   9.082  1.00  0.00     0.116 C 
BRANCH  41  42
ATOM     42  N   UNL     1      -9.473   5.435   9.773  1.00  0.00    -0.352 N 
ATOM     43  C   UNL     1     -10.429   5.841  10.697  1.00  0.00     0.251 C 
ATOM     44  H   UNL     1      -9.461   4.473   9.561  1.00  0.00     0.163 HD
ATOM     45  O   UNL     1     -11.018   5.012  11.387  1.00  0.00    -0.269 OA
BRANCH  43  46
ATOM     46  C   UNL     1     -10.891   7.263  10.735  1.00  0.00     0.039 A 
ATOM     47  C   UNL     1     -12.255   7.489  10.990  1.00  0.00     0.014 A 
ATOM     48  C   UNL     1     -10.125   8.293  10.209  1.00  0.00     0.014 A 
ATOM     49  C   UNL     1     -12.882   8.599  10.436  1.00  0.00     0.010 A 
ATOM     50  C   UNL     1     -10.751   9.274   9.497  1.00  0.00     0.010 A 
ATOM     51  C   UNL     1     -12.130   9.394   9.582  1.00  0.00    -0.014 A 
BRANCH  51  52
ATOM     52  C   UNL     1     -12.654  10.439   8.740  1.00  0.00     0.031 A 
ATOM     53  C   UNL     1     -12.654  11.786   9.306  1.00  0.00     0.074 A 
ATOM     54  C   UNL     1     -12.931  10.133   7.457  1.00  0.00     0.049 A 
ATOM     55  N   UNL     1     -13.567  12.655   9.084  1.00  0.00    -0.248 NA
ATOM     56  C   UNL     1     -11.645  12.237  10.269  1.00  0.00     0.031 C 
ATOM     57  C   UNL     1     -13.161  11.003   6.314  1.00  0.00     0.029 A 
ATOM     58  N   UNL     1     -13.204   8.866   6.961  1.00  0.00    -0.354 N 
ATOM     59  C   UNL     1     -13.062  13.854   9.532  1.00  0.00     0.074 A 
ATOM     60  C   UNL     1     -11.975  13.523  10.416  1.00  0.00     0.031 C 
ATOM     61  C   UNL     1     -13.810  10.301   5.362  1.00  0.00     0.029 A 
ATOM     62  C   UNL     1     -14.130   8.992   5.925  1.00  0.00     0.049 A 
ATOM     63  H   UNL     1     -12.812   8.023   7.285  1.00  0.00     0.167 HD
ATOM     64  C   UNL     1     -13.440  14.996   8.903  1.00  0.00     0.034 A 
ATOM     65  C   UNL     1     -15.368   8.422   6.003  1.00  0.00     0.034 A 
ATOM     66  C   UNL     1     -14.281  14.672   7.756  1.00  0.00     0.049 A 
ATOM     67  C   UNL     1     -16.407   9.535   6.105  1.00  0.00     0.074 A 
ATOM     68  C   UNL     1     -13.990  14.535   6.408  1.00  0.00     0.029 A 
ATOM     69  N   UNL     1     -15.507  14.059   7.962  1.00  0.00    -0.354 N 
ATOM     70  N   UNL     1     -16.151  10.741   6.548  1.00  0.00    -0.248 NA
ATOM     71  C   UNL     1     -17.788   9.389   5.662  1.00  0.00     0.031 C 
ATOM     72  C   UNL     1     -15.045  13.799   5.810  1.00  0.00     0.029 A 
ATOM     73  C   UNL     1     -15.974  13.501   6.791  1.00  0.00     0.049 A 
ATOM     74  H   UNL     1     -15.978  14.026   8.825  1.00  0.00     0.167 HD
ATOM     75  C   UNL     1     -17.268  11.529   6.420  1.00  0.00     0.074 A 
ATOM     76  C   UNL     1     -18.267  10.629   5.869  1.00  0.00     0.031 C 
ATOM     77  C   UNL     1     -17.275  12.858   6.757  1.00  0.00     0.034 A 
BRANCH  64  78
ATOM     78  C   UNL     1     -12.773  16.330   9.080  1.00  0.00     0.023 A 
ATOM     79  C   UNL     1     -12.756  17.215   7.986  1.00  0.00     0.031 A 
ATOM     80  C   UNL     1     -12.170  16.802  10.261  1.00  0.00     0.131 A 
ATOM     81  C   UNL     1     -12.120  18.461   8.055  1.00  0.00     0.055 A 
ATOM     82  C   UNL     1     -11.506  18.036  10.324  1.00  0.00     0.041 A 
ATOM     83  F   UNL     1     -12.234  16.109  11.407  1.00  0.00    -0.206 F 
ATOM     84  C   UNL     1     -11.476  18.873   9.215  1.00  0.00     0.022 A 
BRANCH  81  85
ATOM     85  S   UNL     1     -12.180  19.530   6.594  1.00  0.00     0.124 S 
ATOM     86  O   UNL     1     -11.460  18.733   5.605  1.00  0.00    -0.237 OA
ATOM     87  O   UNL     1     -13.614  19.682   6.379  1.00  0.00    -0.237 OA
ATOM     88  O   UNL     1     -11.489  20.741   7.035  1.00  0.00    -0.744 OA
ENDBRANCH  81  85
ENDBRANCH  64  78
BRANCH  65  89
ATOM     89  C   UNL     1     -15.374   7.146   6.806  1.00  0.00     0.023 A 
ATOM     90  C   UNL     1     -14.721   5.993   6.287  1.00  0.00     0.031 A 
ATOM     91  C   UNL     1     -15.579   7.203   8.196  1.00  0.00     0.131 A 
ATOM     92  C   UNL     1     -14.172   5.033   7.162  1.00  0.00     0.055 A 
ATOM     93  C   UNL     1     -15.015   6.253   9.056  1.00  0.00     0.041 A 
ATOM     94  F   UNL     1     -16.163   8.272   8.756  1.00  0.00    -0.206 F 
ATOM     95  C   UNL     1     -14.270   5.194   8.546  1.00  0.00     0.022 A 
BRANCH  92  96
ATOM     96  S   UNL     1     -13.279   3.553   6.571  1.00  0.00     0.124 S 
ATOM     97  O   UNL     1     -14.087   2.477   7.144  1.00  0.00    -0.237 OA
ATOM     98  O   UNL     1     -13.343   3.640   5.115  1.00  0.00    -0.237 OA
ATOM     99  O   UNL     1     -11.952   3.700   7.171  1.00  0.00    -0.744 OA
ENDBRANCH  92  96
ENDBRANCH  65  89
BRANCH  77 100
ATOM    100  C   UNL     1     -18.500  13.723   6.990  1.00  0.00     0.023 A 
ATOM    101  C   UNL     1     -19.793  13.201   7.037  1.00  0.00     0.031 A 
ATOM    102  C   UNL     1     -18.401  15.115   7.265  1.00  0.00     0.131 A 
ATOM    103  C   UNL     1     -20.909  14.031   7.231  1.00  0.00     0.055 A 
ATOM    104  C   UNL     1     -19.503  15.919   7.569  1.00  0.00     0.041 A 
ATOM    105  F   UNL     1     -17.232  15.769   7.268  1.00  0.00    -0.206 F 
ATOM    106  C   UNL     1     -20.775  15.383   7.529  1.00  0.00     0.022 A 
BRANCH 103 107
ATOM    107  S   UNL     1     -22.542  13.302   6.976  1.00  0.00     0.124 S 
ATOM    108  O   UNL     1     -22.467  12.893   5.575  1.00  0.00    -0.237 OA
ATOM    109  O   UNL     1     -22.555  12.216   7.951  1.00  0.00    -0.237 OA
ATOM    110  O   UNL     1     -23.459  14.404   7.254  1.00  0.00    -0.744 OA
ENDBRANCH 103 107
ENDBRANCH  77 100
ENDBRANCH  51  52
ENDBRANCH  43  46
ENDBRANCH  41  42
ENDBRANCH  40  41
ENDBRANCH  39  40
ENDBRANCH   1  39
TORSDOF 21
