REMARK SMILES O=C(COCCNC(=O)[C@@H]1CCCCO1)NCCCCNC(=O)c1ccc(-c2c3nc(c(-c4cc(S(=O)(=O)[O-])ccc4F)c4ccc([nH]4)c(-c4cc(S(=O)(=O)[O-])ccc4F)c4nc(c(-c5cc(S(=O)(=O)[O-])ccc5F)c5ccc2[nH]5)C=C4)C=C3)cc1
REMARK SMILES IDX 17 1 16 2 1 3 2 4 3 6 4 7 5 8 6 9 7 10 8 11 9 13 10 14 11 15
REMARK SMILES IDX 15 16 12 17 14 18 13 19 18 20 19 21 20 22 21 23 22 24 23 26
REMARK SMILES IDX 24 27 25 28 86 29 26 30 85 31 27 32 28 33 29 34 79 35 30 36
REMARK SMILES IDX 84 37 78 38 80 39 31 40 83 41 77 42 76 43 32 45 64 46 44 47
REMARK SMILES IDX 63 48 45 49 48 50 62 51 81 52 46 53 47 54 61 56 82 57 49 58
REMARK SMILES IDX 33 59 34 60 42 61 35 62 41 63 43 64 40 65 36 66 37 67 38 68
REMARK SMILES IDX 39 69 65 70 66 71 74 72 67 73 73 74 75 75 72 76 68 77 69 78
REMARK SMILES IDX 70 79 71 80 50 81 51 82 59 83 52 84 58 85 60 86 57 87 53 88
REMARK SMILES IDX 54 89 55 90 56 91
REMARK H PARENT 16 5 7 12 21 25 80 44 48 55
REMARK Flexibility Score: inf
ROOT
ATOM      1  C   UNL     1       2.074   1.677   1.793  1.00  0.00     0.116 C 
ENDROOT
BRANCH   1   2
ATOM      2  N   UNL     1       2.820   0.888   0.837  1.00  0.00    -0.354 N 
ATOM      3  O   UNL     1       1.124  -0.590   0.370  1.00  0.00    -0.272 OA
ATOM      4  C   UNL     1       2.278  -0.208   0.203  1.00  0.00     0.245 C 
ATOM      5  H   UNL     1       3.748   1.144   0.631  1.00  0.00     0.163 HD
BRANCH   4   6
ATOM      6  C   UNL     1       3.253  -0.907  -0.754  1.00  0.00     0.260 C 
BRANCH   6   7
ATOM      7  O   UNL     1       3.784  -0.145  -1.829  1.00  0.00    -0.370 OA
BRANCH   7   8
ATOM      8  C   UNL     1       2.838   0.628  -2.575  1.00  0.00     0.182 C 
BRANCH   8   9
ATOM      9  C   UNL     1       1.998  -0.172  -3.583  1.00  0.00     0.144 C 
BRANCH   9  10
ATOM     10  N   UNL     1       1.058  -1.093  -2.969  1.00  0.00    -0.352 N 
ATOM     11  C   UNL     1      -0.298  -1.059  -2.835  1.00  0.00     0.249 C 
ATOM     12  H   UNL     1       1.479  -1.890  -2.575  1.00  0.00     0.163 HD
ATOM     13  O   UNL     1      -0.820  -2.050  -2.317  1.00  0.00    -0.272 OA
BRANCH  11  14
ATOM     14  C   UNL     1      -1.128   0.123  -3.404  1.00  0.00     0.207 C 
ATOM     15  C   UNL     1      -0.928   1.452  -2.671  1.00  0.00     0.042 C 
ATOM     16  O   UNL     1      -2.529  -0.142  -3.548  1.00  0.00    -0.368 OA
ATOM     17  C   UNL     1      -1.695   1.512  -1.354  1.00  0.00     0.006 C 
ATOM     18  C   UNL     1      -3.237  -0.211  -2.309  1.00  0.00     0.161 C 
ATOM     19  C   UNL     1      -3.148   1.107  -1.558  1.00  0.00     0.029 C 
ENDBRANCH  11  14
ENDBRANCH   9  10
ENDBRANCH   8   9
ENDBRANCH   7   8
ENDBRANCH   6   7
ENDBRANCH   4   6
ENDBRANCH   1   2
BRANCH   1  20
ATOM     20  C   UNL     1       2.419   1.309   3.235  1.00  0.00     0.023 C 
BRANCH  20  21
ATOM     21  C   UNL     1       3.899   1.459   3.597  1.00  0.00     0.023 C 
BRANCH  21  22
ATOM     22  C   UNL     1       4.504   2.831   3.321  1.00  0.00     0.116 C 
BRANCH  22  23
ATOM     23  N   UNL     1       3.882   3.888   4.099  1.00  0.00    -0.352 N 
ATOM     24  C   UNL     1       4.471   4.852   4.886  1.00  0.00     0.251 C 
ATOM     25  H   UNL     1       2.899   3.920   4.059  1.00  0.00     0.163 HD
ATOM     26  O   UNL     1       3.771   5.563   5.597  1.00  0.00    -0.269 OA
BRANCH  24  27
ATOM     27  C   UNL     1       5.946   5.002   4.897  1.00  0.00     0.039 A 
ATOM     28  C   UNL     1       6.598   5.152   6.124  1.00  0.00     0.014 A 
ATOM     29  C   UNL     1       6.685   4.988   3.711  1.00  0.00     0.014 A 
ATOM     30  C   UNL     1       7.994   5.216   6.165  1.00  0.00     0.010 A 
ATOM     31  C   UNL     1       8.078   4.974   3.760  1.00  0.00     0.010 A 
ATOM     32  C   UNL     1       8.749   5.085   4.988  1.00  0.00    -0.014 A 
BRANCH  32  33
ATOM     33  C   UNL     1      10.238   5.056   5.025  1.00  0.00     0.031 A 
ATOM     34  C   UNL     1      11.036   6.127   4.331  1.00  0.00     0.074 A 
ATOM     35  C   UNL     1      10.871   4.033   5.636  1.00  0.00     0.049 A 
ATOM     36  N   UNL     1      12.333   6.235   4.194  1.00  0.00    -0.248 NA
ATOM     37  C   UNL     1      10.273   7.203   3.683  1.00  0.00     0.031 C 
ATOM     38  C   UNL     1      10.210   2.918   6.318  1.00  0.00     0.029 A 
ATOM     39  N   UNL     1      12.209   3.760   5.781  1.00  0.00    -0.354 N 
ATOM     40  C   UNL     1      12.542   7.382   3.435  1.00  0.00     0.074 A 
ATOM     41  C   UNL     1      11.234   7.898   3.091  1.00  0.00     0.031 C 
ATOM     42  C   UNL     1      11.143   2.101   6.833  1.00  0.00     0.029 A 
ATOM     43  C   UNL     1      12.467   2.599   6.475  1.00  0.00     0.049 A 
ATOM     44  H   UNL     1      12.918   4.340   5.421  1.00  0.00     0.167 HD
ATOM     45  C   UNL     1      13.715   7.962   3.077  1.00  0.00     0.034 A 
ATOM     46  C   UNL     1      13.634   1.995   6.776  1.00  0.00     0.034 A 
ATOM     47  C   UNL     1      15.012   7.440   3.437  1.00  0.00     0.049 A 
ATOM     48  C   UNL     1      14.924   2.637   6.327  1.00  0.00     0.074 A 
ATOM     49  C   UNL     1      16.259   7.981   3.175  1.00  0.00     0.029 A 
ATOM     50  N   UNL     1      15.233   6.253   4.124  1.00  0.00    -0.354 N 
ATOM     51  N   UNL     1      15.104   3.750   5.654  1.00  0.00    -0.248 NA
ATOM     52  C   UNL     1      16.169   1.945   6.687  1.00  0.00     0.031 C 
ATOM     53  C   UNL     1      17.232   7.083   3.627  1.00  0.00     0.029 A 
ATOM     54  C   UNL     1      16.595   6.026   4.256  1.00  0.00     0.049 A 
ATOM     55  H   UNL     1      14.526   5.660   4.467  1.00  0.00     0.167 HD
ATOM     56  C   UNL     1      16.483   3.909   5.545  1.00  0.00     0.074 A 
ATOM     57  C   UNL     1      17.085   2.786   6.233  1.00  0.00     0.031 C 
ATOM     58  C   UNL     1      17.188   4.897   4.936  1.00  0.00     0.034 A 
BRANCH  45  59
ATOM     59  C   UNL     1      13.647   9.209   2.226  1.00  0.00     0.023 A 
ATOM     60  C   UNL     1      13.035  10.389   2.685  1.00  0.00     0.031 A 
ATOM     61  C   UNL     1      14.191   9.216   0.929  1.00  0.00     0.131 A 
ATOM     62  C   UNL     1      12.915  11.496   1.831  1.00  0.00     0.055 A 
ATOM     63  C   UNL     1      14.146  10.350   0.115  1.00  0.00     0.041 A 
ATOM     64  F   UNL     1      14.768   8.114   0.424  1.00  0.00    -0.206 F 
ATOM     65  C   UNL     1      13.492  11.494   0.559  1.00  0.00     0.022 A 
BRANCH  62  66
ATOM     66  S   UNL     1      11.865  12.880   2.350  1.00  0.00     0.124 S 
ATOM     67  O   UNL     1      10.581  12.213   2.558  1.00  0.00    -0.237 OA
ATOM     68  O   UNL     1      12.540  13.355   3.552  1.00  0.00    -0.237 OA
ATOM     69  O   UNL     1      11.907  13.790   1.207  1.00  0.00    -0.744 OA
ENDBRANCH  62  66
ENDBRANCH  45  59
BRANCH  46  70
ATOM     70  C   UNL     1      13.651   0.706   7.528  1.00  0.00     0.023 A 
ATOM     71  C   UNL     1      14.263   0.613   8.789  1.00  0.00     0.031 A 
ATOM     72  C   UNL     1      13.107  -0.467   6.974  1.00  0.00     0.131 A 
ATOM     73  C   UNL     1      14.365  -0.632   9.428  1.00  0.00     0.055 A 
ATOM     74  C   UNL     1      13.155  -1.692   7.643  1.00  0.00     0.041 A 
ATOM     75  F   UNL     1      12.510  -0.437   5.772  1.00  0.00    -0.206 F 
ATOM     76  C   UNL     1      13.801  -1.782   8.872  1.00  0.00     0.022 A 
BRANCH  73  77
ATOM     77  S   UNL     1      15.340  -0.747  10.954  1.00  0.00     0.124 S 
ATOM     78  O   UNL     1      16.641  -0.260  10.510  1.00  0.00    -0.237 OA
ATOM     79  O   UNL     1      14.598   0.131  11.854  1.00  0.00    -0.237 OA
ATOM     80  O   UNL     1      15.284  -2.169  11.287  1.00  0.00    -0.744 OA
ENDBRANCH  73  77
ENDBRANCH  46  70
BRANCH  58  81
ATOM     81  C   UNL     1      18.694   4.832   5.035  1.00  0.00     0.023 A 
ATOM     82  C   UNL     1      19.436   3.800   4.435  1.00  0.00     0.031 A 
ATOM     83  C   UNL     1      19.397   5.818   5.752  1.00  0.00     0.131 A 
ATOM     84  C   UNL     1      20.827   3.744   4.613  1.00  0.00     0.055 A 
ATOM     85  C   UNL     1      20.787   5.795   5.867  1.00  0.00     0.041 A 
ATOM     86  F   UNL     1      18.742   6.826   6.351  1.00  0.00    -0.206 F 
ATOM     87  C   UNL     1      21.510   4.746   5.307  1.00  0.00     0.022 A 
BRANCH  84  88
ATOM     88  S   UNL     1      21.724   2.287   4.010  1.00  0.00     0.124 S 
ATOM     89  O   UNL     1      21.056   1.203   4.723  1.00  0.00    -0.237 OA
ATOM     90  O   UNL     1      21.486   2.346   2.572  1.00  0.00    -0.237 OA
ATOM     91  O   UNL     1      23.105   2.540   4.419  1.00  0.00    -0.744 OA
ENDBRANCH  84  88
ENDBRANCH  58  81
ENDBRANCH  32  33
ENDBRANCH  24  27
ENDBRANCH  22  23
ENDBRANCH  21  22
ENDBRANCH  20  21
ENDBRANCH   1  20
TORSDOF 19
