REMARK SMILES Cc1ccc(C(c2ccccc2)(c2ccccc2)n2cnc(C[C@H]([NH3+])C(=O)NCCCCNC(=O)c3ccc(-c4c5nc(c(-c6cc(S(=O)(=O)[O-])ccc6F)c6ccc([nH]6)c(-c6cc(S(=O)(=O)[O-])ccc6F)c6nc(c(-c7cc(S(=O)(=O)[O-])ccc7F)c7ccc4[nH]7)C=C6)C=C5)cc3)c2)cc1
REMARK SMILES IDX 30 1 29 2 28 3 26 4 27 5 24 7 23 8 22 9 19 10 20 11 99 12
REMARK SMILES IDX 21 13 6 14 5 15 1 16 2 17 3 18 101 19 4 20 100 21 7 22 8 23
REMARK SMILES IDX 12 24 9 25 11 26 10 27 13 28 14 29 18 30 15 31 17 32 16 33
REMARK SMILES IDX 25 34 31 38 32 39 33 40 34 41 35 43 36 44 37 45 98 46 38 47
REMARK SMILES IDX 97 48 39 49 40 50 41 51 91 52 42 53 96 54 90 55 92 56 43 57
REMARK SMILES IDX 95 58 89 59 88 60 44 62 76 63 56 64 75 65 57 66 60 67 74 68
REMARK SMILES IDX 93 69 58 70 59 71 73 73 94 74 61 75 45 76 46 77 54 78 47 79
REMARK SMILES IDX 53 80 55 81 52 82 48 83 49 84 50 85 51 86 77 87 78 88 86 89
REMARK SMILES IDX 79 90 85 91 87 92 84 93 80 94 81 95 82 96 83 97 62 98 63 99
REMARK SMILES IDX 71 100 64 101 70 102 72 103 69 104 65 105 66 106 67 107
REMARK SMILES IDX 68 108
REMARK H PARENT 28 6 25 35 25 36 25 37 33 42 92 61 60 72
REMARK Flexibility Score: inf
ROOT
ATOM      1  C   UNL     1      -4.403  -6.841   3.085  1.00  0.00     0.023 C 
ENDROOT
BRANCH   1   2
ATOM      2  C   UNL     1      -5.237  -7.006   1.808  1.00  0.00     0.116 C 
BRANCH   2   3
ATOM      3  N   UNL     1      -6.623  -6.596   2.003  1.00  0.00    -0.351 N 
ATOM      4  C   UNL     1      -7.326  -5.508   1.571  1.00  0.00     0.278 C 
ATOM      5  O   UNL     1      -8.447  -5.335   2.067  1.00  0.00    -0.268 OA
ATOM      6  H   UNL     1      -7.151  -7.222   2.549  1.00  0.00     0.163 HD
BRANCH   4   7
ATOM      7  C   UNL     1      -6.731  -4.494   0.572  1.00  0.00     0.276 C 
BRANCH   7   8
ATOM      8  C   UNL     1      -6.324  -5.119  -0.774  1.00  0.00     0.133 C 
BRANCH   8   9
ATOM      9  C   UNL     1      -7.472  -5.451  -1.662  1.00  0.00     0.065 A 
ATOM     10  N   UNL     1      -8.808  -5.700  -3.390  1.00  0.00    -0.319 N 
ATOM     11  C   UNL     1      -9.421  -6.118  -2.230  1.00  0.00     0.201 A 
ATOM     12  C   UNL     1      -7.526  -5.353  -3.034  1.00  0.00     0.112 A 
ATOM     13  N   UNL     1      -8.651  -5.948  -1.179  1.00  0.00    -0.241 NA
BRANCH  10  14
ATOM     14  C   UNL     1      -9.455  -5.591  -4.741  1.00  0.00     0.121 C 
BRANCH  14  15
ATOM     15  C   UNL     1      -9.555  -7.026  -5.398  1.00  0.00    -0.013 A 
ATOM     16  C   UNL     1      -9.989 -10.922  -7.285  1.00  0.00     0.044 C 
ATOM     17  C   UNL     1      -9.814  -9.568  -6.662  1.00  0.00    -0.051 A 
ATOM     18  C   UNL     1      -9.252  -9.455  -5.388  1.00  0.00     0.004 A 
ATOM     19  C   UNL     1     -10.215  -8.409  -7.325  1.00  0.00     0.004 A 
ATOM     20  C   UNL     1      -9.120  -8.206  -4.766  1.00  0.00     0.007 A 
ATOM     21  C   UNL     1     -10.074  -7.161  -6.711  1.00  0.00     0.007 A 
ENDBRANCH  14  15
BRANCH  14  22
ATOM     22  C   UNL     1     -10.903  -4.960  -4.500  1.00  0.00    -0.013 A 
ATOM     23  C   UNL     1     -11.075  -3.807  -3.696  1.00  0.00     0.007 A 
ATOM     24  C   UNL     1     -12.095  -5.556  -4.964  1.00  0.00     0.007 A 
ATOM     25  C   UNL     1     -12.332  -3.234  -3.462  1.00  0.00     0.000 A 
ATOM     26  C   UNL     1     -13.356  -4.993  -4.723  1.00  0.00     0.000 A 
ATOM     27  C   UNL     1     -13.473  -3.821  -3.989  1.00  0.00     0.000 A 
ENDBRANCH  14  22
BRANCH  14  28
ATOM     28  C   UNL     1      -8.519  -4.655  -5.641  1.00  0.00    -0.013 A 
ATOM     29  C   UNL     1      -7.584  -5.213  -6.548  1.00  0.00     0.007 A 
ATOM     30  C   UNL     1      -8.421  -3.260  -5.445  1.00  0.00     0.007 A 
ATOM     31  C   UNL     1      -6.639  -4.431  -7.224  1.00  0.00     0.000 A 
ATOM     32  C   UNL     1      -7.456  -2.481  -6.098  1.00  0.00     0.000 A 
ATOM     33  C   UNL     1      -6.567  -3.066  -6.990  1.00  0.00     0.000 A 
ENDBRANCH  14  28
ENDBRANCH  10  14
ENDBRANCH   8   9
ENDBRANCH   7   8
BRANCH   7  34
ATOM     34  N   UNL     1      -5.628  -3.733   1.227  1.00  0.00    -0.347 N 
ATOM     35  H   UNL     1      -4.880  -4.376   1.487  1.00  0.00     0.345 HD
ATOM     36  H   UNL     1      -5.984  -3.269   2.062  1.00  0.00     0.345 HD
ATOM     37  H   UNL     1      -5.265  -3.034   0.578  1.00  0.00     0.345 HD
ENDBRANCH   7  34
ENDBRANCH   4   7
ENDBRANCH   2   3
ENDBRANCH   1   2
BRANCH   1  38
ATOM     38  C   UNL     1      -4.920  -7.598   4.310  1.00  0.00     0.023 C 
BRANCH  38  39
ATOM     39  C   UNL     1      -4.949  -9.110   4.143  1.00  0.00     0.116 C 
BRANCH  39  40
ATOM     40  N   UNL     1      -3.747  -9.809   4.567  1.00  0.00    -0.352 N 
ATOM     41  C   UNL     1      -3.445 -11.160   4.484  1.00  0.00     0.251 C 
ATOM     42  H   UNL     1      -3.049  -9.244   4.971  1.00  0.00     0.163 HD
ATOM     43  O   UNL     1      -2.452 -11.612   5.035  1.00  0.00    -0.269 OA
BRANCH  41  44
ATOM     44  C   UNL     1      -4.269 -12.042   3.614  1.00  0.00     0.039 A 
ATOM     45  C   UNL     1      -3.594 -12.902   2.736  1.00  0.00     0.014 A 
ATOM     46  C   UNL     1      -5.645 -11.873   3.495  1.00  0.00     0.014 A 
ATOM     47  C   UNL     1      -4.250 -13.386   1.605  1.00  0.00     0.010 A 
ATOM     48  C   UNL     1      -6.263 -12.249   2.321  1.00  0.00     0.010 A 
ATOM     49  C   UNL     1      -5.552 -12.958   1.350  1.00  0.00    -0.014 A 
BRANCH  49  50
ATOM     50  C   UNL     1      -6.205 -13.087   0.055  1.00  0.00     0.031 A 
ATOM     51  C   UNL     1      -7.322 -14.028  -0.143  1.00  0.00     0.074 A 
ATOM     52  C   UNL     1      -5.849 -12.269  -0.960  1.00  0.00     0.049 A 
ATOM     53  N   UNL     1      -7.611 -14.568  -1.279  1.00  0.00    -0.248 NA
ATOM     54  C   UNL     1      -8.201 -14.454   0.939  1.00  0.00     0.031 C 
ATOM     55  C   UNL     1      -6.549 -12.068  -2.226  1.00  0.00     0.029 A 
ATOM     56  N   UNL     1      -4.627 -11.625  -1.133  1.00  0.00    -0.354 N 
ATOM     57  C   UNL     1      -8.861 -15.126  -1.158  1.00  0.00     0.074 A 
ATOM     58  C   UNL     1      -9.149 -15.104   0.258  1.00  0.00     0.031 C 
ATOM     59  C   UNL     1      -5.677 -11.607  -3.134  1.00  0.00     0.029 A 
ATOM     60  C   UNL     1      -4.365 -11.617  -2.516  1.00  0.00     0.049 A 
ATOM     61  H   UNL     1      -4.056 -11.248  -0.425  1.00  0.00     0.167 HD
ATOM     62  C   UNL     1      -9.590 -15.399  -2.276  1.00  0.00     0.034 A 
ATOM     63  C   UNL     1      -3.253 -12.225  -3.020  1.00  0.00     0.034 A 
ATOM     64  C   UNL     1      -8.877 -15.034  -3.499  1.00  0.00     0.049 A 
ATOM     65  C   UNL     1      -3.564 -13.339  -3.995  1.00  0.00     0.074 A 
ATOM     66  C   UNL     1      -8.990 -13.967  -4.377  1.00  0.00     0.029 A 
ATOM     67  N   UNL     1      -7.689 -15.679  -3.823  1.00  0.00    -0.354 N 
ATOM     68  N   UNL     1      -4.746 -13.870  -4.150  1.00  0.00    -0.248 NA
ATOM     69  C   UNL     1      -2.569 -13.953  -4.864  1.00  0.00     0.031 C 
ATOM     70  C   UNL     1      -7.853 -13.969  -5.226  1.00  0.00     0.029 A 
ATOM     71  C   UNL     1      -7.059 -15.047  -4.878  1.00  0.00     0.049 A 
ATOM     72  H   UNL     1      -7.344 -16.477  -3.363  1.00  0.00     0.167 HD
ATOM     73  C   UNL     1      -4.699 -14.867  -5.097  1.00  0.00     0.074 A 
ATOM     74  C   UNL     1      -3.308 -14.869  -5.518  1.00  0.00     0.031 C 
ATOM     75  C   UNL     1      -5.819 -15.586  -5.429  1.00  0.00     0.034 A 
BRANCH  62  76
ATOM     76  C   UNL     1     -11.069 -15.702  -2.233  1.00  0.00     0.023 A 
ATOM     77  C   UNL     1     -11.900 -15.259  -3.282  1.00  0.00     0.031 A 
ATOM     78  C   UNL     1     -11.720 -16.387  -1.191  1.00  0.00     0.131 A 
ATOM     79  C   UNL     1     -13.298 -15.392  -3.218  1.00  0.00     0.055 A 
ATOM     80  C   UNL     1     -13.117 -16.469  -1.094  1.00  0.00     0.041 A 
ATOM     81  F   UNL     1     -11.029 -17.041  -0.245  1.00  0.00    -0.206 F 
ATOM     82  C   UNL     1     -13.916 -15.954  -2.105  1.00  0.00     0.022 A 
BRANCH  79  83
ATOM     83  S   UNL     1     -14.295 -14.827  -4.624  1.00  0.00     0.124 S 
ATOM     84  O   UNL     1     -13.930 -13.417  -4.718  1.00  0.00    -0.237 OA
ATOM     85  O   UNL     1     -13.821 -15.688  -5.702  1.00  0.00    -0.237 OA
ATOM     86  O   UNL     1     -15.668 -15.082  -4.190  1.00  0.00    -0.744 OA
ENDBRANCH  79  83
ENDBRANCH  62  76
BRANCH  63  87
ATOM     87  C   UNL     1      -2.087 -12.138  -2.091  1.00  0.00     0.023 A 
ATOM     88  C   UNL     1      -1.694 -10.836  -1.702  1.00  0.00     0.031 A 
ATOM     89  C   UNL     1      -1.695 -13.210  -1.280  1.00  0.00     0.131 A 
ATOM     90  C   UNL     1      -1.119 -10.616  -0.443  1.00  0.00     0.055 A 
ATOM     91  C   UNL     1      -1.036 -12.991  -0.061  1.00  0.00     0.041 A 
ATOM     92  F   UNL     1      -2.062 -14.464  -1.579  1.00  0.00    -0.206 F 
ATOM     93  C   UNL     1      -0.793 -11.689   0.387  1.00  0.00     0.022 A 
BRANCH  90  94
ATOM     94  S   UNL     1      -1.099  -8.915   0.208  1.00  0.00     0.124 S 
ATOM     95  O   UNL     1       0.138  -8.387  -0.357  1.00  0.00    -0.237 OA
ATOM     96  O   UNL     1      -2.336  -8.345  -0.324  1.00  0.00    -0.237 OA
ATOM     97  O   UNL     1      -1.104  -9.096   1.657  1.00  0.00    -0.744 OA
ENDBRANCH  90  94
ENDBRANCH  63  87
BRANCH  75  98
ATOM     98  C   UNL     1      -5.919 -16.804  -6.344  1.00  0.00     0.023 A 
ATOM     99  C   UNL     1      -4.832 -17.397  -6.998  1.00  0.00     0.031 A 
ATOM    100  C   UNL     1      -7.169 -17.445  -6.573  1.00  0.00     0.131 A 
ATOM    101  C   UNL     1      -4.994 -18.520  -7.837  1.00  0.00     0.055 A 
ATOM    102  C   UNL     1      -7.324 -18.584  -7.371  1.00  0.00     0.041 A 
ATOM    103  F   UNL     1      -8.311 -17.004  -6.025  1.00  0.00    -0.206 F 
ATOM    104  C   UNL     1      -6.231 -19.128  -8.017  1.00  0.00     0.022 A 
BRANCH 101 105
ATOM    105  S   UNL     1      -3.541 -19.146  -8.721  1.00  0.00     0.124 S 
ATOM    106  O   UNL     1      -3.185 -18.008  -9.563  1.00  0.00    -0.237 OA
ATOM    107  O   UNL     1      -2.616 -19.440  -7.630  1.00  0.00    -0.237 OA
ATOM    108  O   UNL     1      -4.048 -20.315  -9.438  1.00  0.00    -0.744 OA
ENDBRANCH 101 105
ENDBRANCH  75  98
ENDBRANCH  49  50
ENDBRANCH  41  44
ENDBRANCH  39  40
ENDBRANCH  38  39
ENDBRANCH   1  38
TORSDOF 21
