REMARK SMILES CC(=O)Oc1ccccc1SCCCCCC(=O)NCCCCNC(=O)c1ccc(-c2c3nc(c(-c4cc(S(=O)(=O)[O-])ccc4F)c4ccc([nH]4)c(-c4cc(S(=O)(=O)[O-])ccc4F)c4nc(c(-c5cc(S(=O)(=O)[O-])ccc5F)c5ccc2[nH]5)C=C4)C=C3)cc1
REMARK SMILES IDX 17 1 18 2 19 3 16 5 15 6 14 7 13 8 12 9 11 10 10 11 5 12
REMARK SMILES IDX 6 13 7 14 9 15 8 16 4 17 2 18 1 19 3 20 20 21 21 22 22 23
REMARK SMILES IDX 23 24 24 25 25 26 26 28 27 29 28 30 89 31 29 32 88 33 30 34
REMARK SMILES IDX 31 35 32 36 82 37 33 38 87 39 81 40 83 41 34 42 86 43 80 44
REMARK SMILES IDX 79 45 35 47 67 48 47 49 66 50 48 51 51 52 65 53 84 54 49 55
REMARK SMILES IDX 50 56 64 58 85 59 52 60 36 61 37 62 45 63 38 64 44 65 46 66
REMARK SMILES IDX 43 67 39 68 40 69 41 70 42 71 68 72 69 73 77 74 70 75 76 76
REMARK SMILES IDX 78 77 75 78 71 79 72 80 73 81 74 82 53 83 54 84 62 85 55 86
REMARK SMILES IDX 61 87 63 88 60 89 56 90 57 91 58 92 59 93
REMARK H PARENT 19 4 24 27 83 46 51 57
REMARK Flexibility Score: inf
ROOT
ATOM      1  C   UNL     1       4.422  -1.067   1.199  1.00  0.00     0.219 C 
ATOM      2  O   UNL     1       5.461  -1.457   0.668  1.00  0.00    -0.275 OA
ATOM      3  N   UNL     1       4.458  -0.608   2.480  1.00  0.00    -0.356 N 
ATOM      4  H   UNL     1       5.352  -0.529   2.885  1.00  0.00     0.163 HD
ENDROOT
BRANCH   1   5
ATOM      5  C   UNL     1       3.108  -1.066   0.444  1.00  0.00     0.100 C 
BRANCH   5   6
ATOM      6  C   UNL     1       2.258  -2.319   0.663  1.00  0.00     0.010 C 
BRANCH   6   7
ATOM      7  C   UNL     1       1.051  -2.272   1.626  1.00  0.00     0.001 C 
BRANCH   7   8
ATOM      8  C   UNL     1       0.157  -1.036   1.615  1.00  0.00     0.011 C 
BRANCH   8   9
ATOM      9  C   UNL     1      -1.368  -1.072   1.402  1.00  0.00     0.075 C 
BRANCH   9  10
ATOM     10  S   UNL     1      -2.541  -2.469   1.326  1.00  0.00    -0.122 SA
BRANCH  10  11
ATOM     11  C   UNL     1      -1.674  -3.910   0.768  1.00  0.00     0.050 A 
ATOM     12  C   UNL     1      -0.779  -4.050  -0.300  1.00  0.00     0.144 A 
ATOM     13  C   UNL     1       0.003  -5.213  -0.427  1.00  0.00     0.048 A 
ATOM     14  C   UNL     1      -0.138  -6.265   0.477  1.00  0.00     0.004 A 
ATOM     15  C   UNL     1      -1.855  -5.021   1.617  1.00  0.00     0.019 A 
ATOM     16  C   UNL     1      -1.086  -6.179   1.487  1.00  0.00     0.001 A 
BRANCH  12  17
ATOM     17  O   UNL     1      -0.311  -2.982  -1.117  1.00  0.00    -0.426 OA
BRANCH  17  18
ATOM     18  C   UNL     1      -1.023  -1.956  -1.732  1.00  0.00     0.308 C 
ATOM     19  C   UNL     1      -0.025  -0.931  -2.207  1.00  0.00     0.139 C 
ATOM     20  O   UNL     1      -2.228  -1.893  -1.890  1.00  0.00    -0.252 OA
ENDBRANCH  17  18
ENDBRANCH  12  17
ENDBRANCH  10  11
ENDBRANCH   9  10
ENDBRANCH   8   9
ENDBRANCH   7   8
ENDBRANCH   6   7
ENDBRANCH   5   6
ENDBRANCH   1   5
BRANCH   3  21
ATOM     21  C   UNL     1       3.347  -0.224   3.318  1.00  0.00     0.116 C 
BRANCH  21  22
ATOM     22  C   UNL     1       2.896  -1.401   4.177  1.00  0.00     0.023 C 
BRANCH  22  23
ATOM     23  C   UNL     1       3.504  -1.476   5.558  1.00  0.00     0.023 C 
BRANCH  23  24
ATOM     24  C   UNL     1       3.156  -0.286   6.425  1.00  0.00     0.116 C 
BRANCH  24  25
ATOM     25  N   UNL     1       1.724  -0.065   6.620  1.00  0.00    -0.352 N 
ATOM     26  C   UNL     1       1.126   0.464   7.746  1.00  0.00     0.251 C 
ATOM     27  H   UNL     1       1.130  -0.318   5.877  1.00  0.00     0.163 HD
ATOM     28  O   UNL     1      -0.090   0.563   7.841  1.00  0.00    -0.269 OA
BRANCH  26  29
ATOM     29  C   UNL     1       2.026   0.843   8.851  1.00  0.00     0.039 A 
ATOM     30  C   UNL     1       1.945   0.143  10.054  1.00  0.00     0.014 A 
ATOM     31  C   UNL     1       3.109   1.678   8.568  1.00  0.00     0.014 A 
ATOM     32  C   UNL     1       3.014   0.214  10.947  1.00  0.00     0.010 A 
ATOM     33  C   UNL     1       4.222   1.630   9.392  1.00  0.00     0.010 A 
ATOM     34  C   UNL     1       4.185   0.908  10.597  1.00  0.00    -0.014 A 
BRANCH  34  35
ATOM     35  C   UNL     1       5.375   0.927  11.486  1.00  0.00     0.031 A 
ATOM     36  C   UNL     1       5.902   2.252  11.970  1.00  0.00     0.074 A 
ATOM     37  C   UNL     1       6.014  -0.219  11.799  1.00  0.00     0.049 A 
ATOM     38  N   UNL     1       6.977   2.512  12.667  1.00  0.00    -0.248 NA
ATOM     39  C   UNL     1       5.147   3.451  11.569  1.00  0.00     0.031 C 
ATOM     40  C   UNL     1       5.639  -1.558  11.334  1.00  0.00     0.029 A 
ATOM     41  N   UNL     1       7.120  -0.444  12.581  1.00  0.00    -0.354 N 
ATOM     42  C   UNL     1       7.037   3.898  12.760  1.00  0.00     0.074 A 
ATOM     43  C   UNL     1       5.945   4.424  11.974  1.00  0.00     0.031 C 
ATOM     44  C   UNL     1       6.472  -2.463  11.875  1.00  0.00     0.029 A 
ATOM     45  C   UNL     1       7.469  -1.772  12.685  1.00  0.00     0.049 A 
ATOM     46  H   UNL     1       7.618   0.279  13.027  1.00  0.00     0.167 HD
ATOM     47  C   UNL     1       7.900   4.663  13.470  1.00  0.00     0.034 A 
ATOM     48  C   UNL     1       8.480  -2.362  13.356  1.00  0.00     0.034 A 
ATOM     49  C   UNL     1       8.953   4.118  14.286  1.00  0.00     0.049 A 
ATOM     50  C   UNL     1       9.416  -1.492  14.158  1.00  0.00     0.074 A 
ATOM     51  C   UNL     1       9.841   4.790  15.105  1.00  0.00     0.029 A 
ATOM     52  N   UNL     1       9.257   2.767  14.389  1.00  0.00    -0.354 N 
ATOM     53  N   UNL     1       9.428  -0.184  14.280  1.00  0.00    -0.248 NA
ATOM     54  C   UNL     1      10.466  -2.177  14.922  1.00  0.00     0.031 C 
ATOM     55  C   UNL     1      10.724   3.853  15.651  1.00  0.00     0.029 A 
ATOM     56  C   UNL     1      10.337   2.588  15.238  1.00  0.00     0.049 A 
ATOM     57  H   UNL     1       8.777   2.043  13.927  1.00  0.00     0.167 HD
ATOM     58  C   UNL     1      10.468   0.107  15.158  1.00  0.00     0.074 A 
ATOM     59  C   UNL     1      11.048  -1.163  15.546  1.00  0.00     0.031 C 
ATOM     60  C   UNL     1      10.905   1.312  15.606  1.00  0.00     0.034 A 
BRANCH  47  61
ATOM     61  C   UNL     1       7.737   6.161  13.379  1.00  0.00     0.023 A 
ATOM     62  C   UNL     1       6.564   6.807  13.812  1.00  0.00     0.031 A 
ATOM     63  C   UNL     1       8.755   6.953  12.821  1.00  0.00     0.131 A 
ATOM     64  C   UNL     1       6.406   8.185  13.606  1.00  0.00     0.055 A 
ATOM     65  C   UNL     1       8.627   8.338  12.700  1.00  0.00     0.041 A 
ATOM     66  F   UNL     1       9.887   6.392  12.367  1.00  0.00    -0.206 F 
ATOM     67  C   UNL     1       7.441   8.960  13.080  1.00  0.00     0.022 A 
BRANCH  64  68
ATOM     68  S   UNL     1       4.776   8.923  13.903  1.00  0.00     0.124 S 
ATOM     69  O   UNL     1       3.944   8.186  12.955  1.00  0.00    -0.237 OA
ATOM     70  O   UNL     1       4.549   8.630  15.314  1.00  0.00    -0.237 OA
ATOM     71  O   UNL     1       4.976  10.334  13.582  1.00  0.00    -0.744 OA
ENDBRANCH  64  68
ENDBRANCH  47  61
BRANCH  48  72
ATOM     72  C   UNL     1       8.665  -3.842  13.302  1.00  0.00     0.023 A 
ATOM     73  C   UNL     1       8.516  -4.637  14.451  1.00  0.00     0.031 A 
ATOM     74  C   UNL     1       9.025  -4.482  12.103  1.00  0.00     0.131 A 
ATOM     75  C   UNL     1       8.767  -6.017  14.386  1.00  0.00     0.055 A 
ATOM     76  C   UNL     1       9.225  -5.862  12.032  1.00  0.00     0.041 A 
ATOM     77  F   UNL     1       9.175  -3.772  10.973  1.00  0.00    -0.206 F 
ATOM     78  C   UNL     1       9.107  -6.637  13.181  1.00  0.00     0.022 A 
BRANCH  75  79
ATOM     79  S   UNL     1       8.714  -6.987  15.919  1.00  0.00     0.124 S 
ATOM     80  O   UNL     1       9.728  -6.320  16.727  1.00  0.00    -0.237 OA
ATOM     81  O   UNL     1       7.330  -6.803  16.345  1.00  0.00    -0.237 OA
ATOM     82  O   UNL     1       9.053  -8.338  15.479  1.00  0.00    -0.744 OA
ENDBRANCH  75  79
ENDBRANCH  48  72
BRANCH  60  83
ATOM     83  C   UNL     1      12.038   1.307  16.601  1.00  0.00     0.023 A 
ATOM     84  C   UNL     1      13.330   0.885  16.249  1.00  0.00     0.031 A 
ATOM     85  C   UNL     1      11.818   1.741  17.921  1.00  0.00     0.131 A 
ATOM     86  C   UNL     1      14.342   0.853  17.220  1.00  0.00     0.055 A 
ATOM     87  C   UNL     1      12.844   1.768  18.865  1.00  0.00     0.041 A 
ATOM     88  F   UNL     1      10.602   2.154  18.311  1.00  0.00    -0.206 F 
ATOM     89  C   UNL     1      14.112   1.310  18.520  1.00  0.00     0.022 A 
BRANCH  86  90
ATOM     90  S   UNL     1      15.941   0.117  16.784  1.00  0.00     0.124 S 
ATOM     91  O   UNL     1      15.553  -1.231  16.380  1.00  0.00    -0.237 OA
ATOM     92  O   UNL     1      16.407   0.994  15.715  1.00  0.00    -0.237 OA
ATOM     93  O   UNL     1      16.704   0.196  18.028  1.00  0.00    -0.744 OA
ENDBRANCH  86  90
ENDBRANCH  60  83
ENDBRANCH  34  35
ENDBRANCH  26  29
ENDBRANCH  24  25
ENDBRANCH  23  24
ENDBRANCH  22  23
ENDBRANCH  21  22
ENDBRANCH   3  21
TORSDOF 22
