REMARK SMILES Cc1n[nH]c2c1[C@@]1(C(=O)N([C@@H](C)C(=O)NCCCCNC(=O)c3ccc(-c4c5nc(c(-c6cc(S(=O)(=O)[O-])ccc6F)c6ccc([nH]6)c(-c6cc(S(=O)(=O)[O-])ccc6F)c6nc(c(-c7cc(S(=O)(=O)[O-])ccc7F)c7ccc4[nH]7)C=C6)C=C5)cc3)c3ccccc31)C(C#N)=C(N)O2
REMARK SMILES IDX 18 1 17 2 16 3 15 4 13 5 14 6 11 8 12 9 10 10 1 11 2 12 3 13
REMARK SMILES IDX 6 14 4 15 5 16 7 17 97 19 8 20 91 21 92 22 95 23 9 24 86 25
REMARK SMILES IDX 90 26 87 27 89 28 88 29 93 30 94 31 96 32 19 35 20 36 21 37
REMARK SMILES IDX 22 39 23 40 24 41 85 42 25 43 84 44 26 45 27 46 28 47 78 48
REMARK SMILES IDX 29 49 83 50 77 51 79 52 30 53 82 54 76 55 75 56 31 58 63 59
REMARK SMILES IDX 43 60 62 61 44 62 47 63 61 64 80 65 45 66 46 67 60 69 81 70
REMARK SMILES IDX 48 71 32 72 33 73 41 74 34 75 40 76 42 77 39 78 35 79 36 80
REMARK SMILES IDX 37 81 38 82 64 83 65 84 73 85 66 86 72 87 74 88 71 89 67 90
REMARK SMILES IDX 68 91 69 92 70 93 49 94 50 95 58 96 51 97 57 98 59 99 56 100
REMARK SMILES IDX 52 101 53 102 54 103 55 104
REMARK H PARENT 15 7 4 18 96 33 96 34 20 38 79 57 47 68
REMARK Flexibility Score: inf
ROOT
ATOM      1  C   UNL     1       1.706   4.934  -5.151  1.00  0.00     0.023 C 
ENDROOT
BRANCH   1   2
ATOM      2  C   UNL     1       1.749   3.742  -4.203  1.00  0.00     0.023 C 
BRANCH   2   3
ATOM      3  C   UNL     1       2.220   2.428  -4.826  1.00  0.00     0.116 C 
BRANCH   3   4
ATOM      4  N   UNL     1       3.659   2.264  -4.738  1.00  0.00    -0.354 N 
ATOM      5  C   UNL     1       4.452   1.481  -3.960  1.00  0.00     0.242 C 
ATOM      6  O   UNL     1       5.668   1.535  -4.194  1.00  0.00    -0.273 OA
ATOM      7  H   UNL     1       4.161   2.832  -5.367  1.00  0.00     0.163 HD
BRANCH   5   8
ATOM      8  C   UNL     1       3.954   0.575  -2.807  1.00  0.00     0.176 C 
ATOM      9  C   UNL     1       2.944  -0.502  -3.189  1.00  0.00     0.042 C 
BRANCH   8  10
ATOM     10  N   UNL     1       3.621   1.324  -1.599  1.00  0.00    -0.298 N 
ATOM     11  C   UNL     1       0.854  -0.132   0.565  1.00  0.00     0.069 C 
ATOM     12  C   UNL     1       0.621   1.248   1.060  1.00  0.00     0.068 A 
ATOM     13  N   UNL     1      -0.458   1.507   1.817  1.00  0.00    -0.177 NA
ATOM     14  C   UNL     1       1.354   2.430   0.779  1.00  0.00     0.063 A 
ATOM     15  N   UNL     1      -0.465   2.852   1.934  1.00  0.00    -0.246 N 
ATOM     16  C   UNL     1       0.595   3.434   1.321  1.00  0.00     0.222 A 
ATOM     17  C   UNL     1       2.538   2.778  -0.064  1.00  0.00     0.149 C 
ATOM     18  H   UNL     1      -1.164   3.355   2.411  1.00  0.00     0.193 HD
ATOM     19  O   UNL     1       0.770   4.743   1.207  1.00  0.00    -0.422 OA
ATOM     20  C   UNL     1       2.436   2.032  -1.402  1.00  0.00     0.248 C 
ATOM     21  C   UNL     1       3.755   2.137   0.551  1.00  0.00     0.002 A 
ATOM     22  C   UNL     1       2.660   4.292  -0.246  1.00  0.00     0.114 C 
ATOM     23  C   UNL     1       1.820   5.169   0.376  1.00  0.00     0.208 C 
ATOM     24  O   UNL     1       1.432   1.981  -2.111  1.00  0.00    -0.273 OA
ATOM     25  C   UNL     1       4.388   1.338  -0.414  1.00  0.00     0.050 A 
ATOM     26  C   UNL     1       4.270   2.262   1.835  1.00  0.00     0.008 A 
ATOM     27  C   UNL     1       5.553   0.655  -0.114  1.00  0.00     0.027 A 
ATOM     28  C   UNL     1       5.430   1.556   2.150  1.00  0.00     0.001 A 
ATOM     29  C   UNL     1       6.067   0.763   1.183  1.00  0.00     0.002 A 
BRANCH  22  30
ATOM     30  C   UNL     1       3.776   4.888  -1.089  1.00  0.00     0.102 C 
ATOM     31  N   UNL     1       4.702   5.382  -1.789  1.00  0.00    -0.193 NA
ENDBRANCH  22  30
BRANCH  23  32
ATOM     32  N   UNL     1       1.891   6.528   0.288  1.00  0.00    -0.369 N 
ATOM     33  H   UNL     1       2.586   6.949  -0.266  1.00  0.00     0.159 HD
ATOM     34  H   UNL     1       1.246   7.087   0.779  1.00  0.00     0.159 HD
ENDBRANCH  23  32
ENDBRANCH   8  10
ENDBRANCH   5   8
ENDBRANCH   3   4
ENDBRANCH   2   3
ENDBRANCH   1   2
BRANCH   1  35
ATOM     35  C   UNL     1       0.685   4.798  -6.286  1.00  0.00     0.116 C 
BRANCH  35  36
ATOM     36  N   UNL     1      -0.660   4.480  -5.840  1.00  0.00    -0.352 N 
ATOM     37  C   UNL     1      -1.761   5.226  -5.508  1.00  0.00     0.251 C 
ATOM     38  H   UNL     1      -0.816   3.512  -5.758  1.00  0.00     0.163 HD
ATOM     39  O   UNL     1      -2.810   4.598  -5.335  1.00  0.00    -0.269 OA
BRANCH  37  40
ATOM     40  C   UNL     1      -1.762   6.701  -5.303  1.00  0.00     0.039 A 
ATOM     41  C   UNL     1      -0.621   7.498  -5.307  1.00  0.00     0.014 A 
ATOM     42  C   UNL     1      -2.998   7.310  -5.004  1.00  0.00     0.014 A 
ATOM     43  C   UNL     1      -0.687   8.834  -4.943  1.00  0.00     0.010 A 
ATOM     44  C   UNL     1      -3.075   8.663  -4.667  1.00  0.00     0.010 A 
ATOM     45  C   UNL     1      -1.908   9.415  -4.598  1.00  0.00    -0.014 A 
BRANCH  45  46
ATOM     46  C   UNL     1      -1.852  10.826  -4.226  1.00  0.00     0.031 A 
ATOM     47  C   UNL     1      -1.302  11.749  -5.260  1.00  0.00     0.074 A 
ATOM     48  C   UNL     1      -2.265  11.320  -3.046  1.00  0.00     0.049 A 
ATOM     49  N   UNL     1      -0.208  12.441  -5.226  1.00  0.00    -0.248 NA
ATOM     50  C   UNL     1      -2.024  11.822  -6.535  1.00  0.00     0.031 C 
ATOM     51  C   UNL     1      -3.107  10.677  -2.038  1.00  0.00     0.029 A 
ATOM     52  N   UNL     1      -2.078  12.577  -2.551  1.00  0.00    -0.354 N 
ATOM     53  C   UNL     1      -0.177  13.171  -6.415  1.00  0.00     0.074 A 
ATOM     54  C   UNL     1      -1.251  12.656  -7.229  1.00  0.00     0.031 C 
ATOM     55  C   UNL     1      -3.548  11.618  -1.173  1.00  0.00     0.029 A 
ATOM     56  C   UNL     1      -2.892  12.880  -1.478  1.00  0.00     0.049 A 
ATOM     57  H   UNL     1      -1.423  13.210  -2.925  1.00  0.00     0.167 HD
ATOM     58  C   UNL     1       0.630  14.257  -6.595  1.00  0.00     0.034 A 
ATOM     59  C   UNL     1      -3.090  14.105  -0.940  1.00  0.00     0.034 A 
ATOM     60  C   UNL     1       1.666  14.327  -5.604  1.00  0.00     0.049 A 
ATOM     61  C   UNL     1      -1.967  14.990  -1.326  1.00  0.00     0.074 A 
ATOM     62  C   UNL     1       2.767  13.564  -5.277  1.00  0.00     0.029 A 
ATOM     63  N   UNL     1       1.490  15.201  -4.563  1.00  0.00    -0.354 N 
ATOM     64  N   UNL     1      -0.748  14.887  -0.875  1.00  0.00    -0.248 NA
ATOM     65  C   UNL     1      -2.122  15.823  -2.509  1.00  0.00     0.031 C 
ATOM     66  C   UNL     1       2.934  13.726  -3.872  1.00  0.00     0.029 A 
ATOM     67  C   UNL     1       1.929  14.585  -3.421  1.00  0.00     0.049 A 
ATOM     68  H   UNL     1       1.114  16.109  -4.625  1.00  0.00     0.167 HD
ATOM     69  C   UNL     1       0.054  15.265  -1.941  1.00  0.00     0.074 A 
ATOM     70  C   UNL     1      -0.841  15.970  -2.851  1.00  0.00     0.031 C 
ATOM     71  C   UNL     1       1.300  14.733  -2.121  1.00  0.00     0.034 A 
BRANCH  58  72
ATOM     72  C   UNL     1       0.305  15.423  -7.503  1.00  0.00     0.023 A 
ATOM     73  C   UNL     1      -0.976  15.624  -8.049  1.00  0.00     0.031 A 
ATOM     74  C   UNL     1       1.212  16.492  -7.665  1.00  0.00     0.131 A 
ATOM     75  C   UNL     1      -1.312  16.802  -8.730  1.00  0.00     0.055 A 
ATOM     76  C   UNL     1       0.857  17.698  -8.284  1.00  0.00     0.041 A 
ATOM     77  F   UNL     1       2.459  16.423  -7.173  1.00  0.00    -0.206 F 
ATOM     78  C   UNL     1      -0.412  17.857  -8.825  1.00  0.00     0.022 A 
BRANCH  75  79
ATOM     79  S   UNL     1      -2.943  16.972  -9.505  1.00  0.00     0.124 S 
ATOM     80  O   UNL     1      -3.528  18.061  -8.731  1.00  0.00    -0.237 OA
ATOM     81  O   UNL     1      -2.586  17.294 -10.884  1.00  0.00    -0.237 OA
ATOM     82  O   UNL     1      -3.547  15.656  -9.316  1.00  0.00    -0.744 OA
ENDBRANCH  75  79
ENDBRANCH  58  72
BRANCH  59  83
ATOM     83  C   UNL     1      -4.397  14.641  -0.502  1.00  0.00     0.023 A 
ATOM     84  C   UNL     1      -5.576  14.204  -1.136  1.00  0.00     0.031 A 
ATOM     85  C   UNL     1      -4.482  15.773   0.321  1.00  0.00     0.131 A 
ATOM     86  C   UNL     1      -6.775  14.906  -0.971  1.00  0.00     0.055 A 
ATOM     87  C   UNL     1      -5.684  16.470   0.492  1.00  0.00     0.041 A 
ATOM     88  F   UNL     1      -3.388  16.260   0.926  1.00  0.00    -0.206 F 
ATOM     89  C   UNL     1      -6.836  16.043  -0.165  1.00  0.00     0.022 A 
BRANCH  86  90
ATOM     90  S   UNL     1      -8.269  14.379  -1.854  1.00  0.00     0.124 S 
ATOM     91  O   UNL     1      -9.289  14.460  -0.811  1.00  0.00    -0.237 OA
ATOM     92  O   UNL     1      -8.363  15.384  -2.906  1.00  0.00    -0.237 OA
ATOM     93  O   UNL     1      -7.945  13.024  -2.293  1.00  0.00    -0.744 OA
ENDBRANCH  86  90
ENDBRANCH  59  83
BRANCH  71  94
ATOM     94  C   UNL     1       1.954  13.988  -0.978  1.00  0.00     0.023 A 
ATOM     95  C   UNL     1       3.291  14.309  -0.671  1.00  0.00     0.031 A 
ATOM     96  C   UNL     1       1.393  12.867  -0.339  1.00  0.00     0.131 A 
ATOM     97  C   UNL     1       4.025  13.515   0.220  1.00  0.00     0.055 A 
ATOM     98  C   UNL     1       2.107  12.120   0.605  1.00  0.00     0.041 A 
ATOM     99  F   UNL     1       0.178  12.406  -0.666  1.00  0.00    -0.206 F 
ATOM    100  C   UNL     1       3.434  12.434   0.877  1.00  0.00     0.022 A 
BRANCH  97 101
ATOM    101  S   UNL     1       5.807  13.770   0.428  1.00  0.00     0.124 S 
ATOM    102  O   UNL     1       5.894  14.222   1.814  1.00  0.00    -0.237 OA
ATOM    103  O   UNL     1       6.344  12.435   0.171  1.00  0.00    -0.237 OA
ATOM    104  O   UNL     1       6.141  14.773  -0.580  1.00  0.00    -0.744 OA
ENDBRANCH  97 101
ENDBRANCH  71  94
ENDBRANCH  45  46
ENDBRANCH  37  40
ENDBRANCH  35  36
ENDBRANCH   1  35
TORSDOF 17
