REMARK SMILES C[C@@H](C(=O)NCCCCNC(=O)c1ccc(-c2c3nc(c(-c4cc(S(=O)(=O)[O-])ccc4F)c4ccc([nH]4)c(-c4cc(S(=O)(=O)[O-])ccc4F)c4nc(c(-c5cc(S(=O)(=O)[O-])ccc5F)c5ccc2[nH]5)C=C4)C=C3)cc1)c1ccc2c3cc(Cl)ccc3n(C(=O)c3ccc(Cl)cc3)c2c1
REMARK SMILES IDX 7 1 6 2 5 3 3 4 4 5 2 7 1 8 76 9 77 10 98 11 78 12 97 13
REMARK SMILES IDX 79 14 87 15 80 16 86 17 81 18 85 19 82 20 84 21 83 22 88 23
REMARK SMILES IDX 89 24 90 25 91 26 96 27 92 28 95 29 93 30 94 31 8 32 9 33
REMARK SMILES IDX 10 34 11 35 12 37 13 38 14 39 75 40 15 41 74 42 16 43 17 44
REMARK SMILES IDX 18 45 68 46 19 47 73 48 67 49 69 50 20 51 72 52 66 53 65 54
REMARK SMILES IDX 21 56 53 57 33 58 52 59 34 60 37 61 51 62 70 63 35 64 36 65
REMARK SMILES IDX 50 67 71 68 38 69 22 70 23 71 31 72 24 73 30 74 32 75 29 76
REMARK SMILES IDX 25 77 26 78 27 79 28 80 54 81 55 82 63 83 56 84 62 85 64 86
REMARK SMILES IDX 61 87 57 88 58 89 59 90 60 91 39 92 40 93 48 94 41 95 47 96
REMARK SMILES IDX 49 97 46 98 42 99 43 100 44 101 45 102
REMARK H PARENT 5 6 10 36 69 55 37 66
REMARK Flexibility Score: inf
ROOT
ATOM      1  C   UNL     1       4.354   0.649   1.006  1.00  0.00     0.023 C 
ENDROOT
BRANCH   1   2
ATOM      2  C   UNL     1       3.610  -0.476   1.727  1.00  0.00     0.116 C 
BRANCH   2   3
ATOM      3  N   UNL     1       2.582   0.071   2.585  1.00  0.00    -0.356 N 
ATOM      4  C   UNL     1       1.257   0.267   2.325  1.00  0.00     0.227 C 
ATOM      5  O   UNL     1       0.621   0.939   3.137  1.00  0.00    -0.274 OA
ATOM      6  H   UNL     1       2.881   0.341   3.484  1.00  0.00     0.163 HD
BRANCH   4   7
ATOM      7  C   UNL     1       0.627  -0.390   1.086  1.00  0.00     0.105 C 
ATOM      8  C   UNL     1       1.068   0.228  -0.244  1.00  0.00     0.023 C 
BRANCH   7   9
ATOM      9  C   UNL     1      -0.894  -0.381   1.143  1.00  0.00    -0.034 A 
ATOM     10  C   UNL     1      -1.613   0.800   0.950  1.00  0.00     0.005 A 
ATOM     11  C   UNL     1      -1.580  -1.581   1.378  1.00  0.00     0.032 A 
ATOM     12  C   UNL     1      -3.003   0.784   0.879  1.00  0.00     0.011 A 
ATOM     13  C   UNL     1      -2.989  -1.580   1.394  1.00  0.00     0.057 A 
ATOM     14  C   UNL     1      -3.696  -0.426   1.078  1.00  0.00     0.008 A 
ATOM     15  N   UNL     1      -3.909  -2.606   1.677  1.00  0.00    -0.276 N 
ATOM     16  C   UNL     1      -5.069  -0.764   1.053  1.00  0.00     0.009 A 
ATOM     17  C   UNL     1      -5.202  -2.073   1.538  1.00  0.00     0.057 A 
ATOM     18  C   UNL     1      -6.210  -0.004   0.721  1.00  0.00     0.031 A 
ATOM     19  C   UNL     1      -6.482  -2.566   1.861  1.00  0.00     0.029 A 
ATOM     20  C   UNL     1      -7.470  -0.528   0.969  1.00  0.00     0.041 A 
ATOM     21  C   UNL     1      -7.606  -1.776   1.564  1.00  0.00     0.023 A 
ATOM     22  Cl  UNL     1      -8.863   0.404   0.577  1.00  0.00    -0.084 Cl
BRANCH  15  23
ATOM     23  C   UNL     1      -3.502  -3.904   2.096  1.00  0.00     0.262 C 
ATOM     24  O   UNL     1      -2.392  -3.969   2.634  1.00  0.00    -0.268 OA
BRANCH  23  25
ATOM     25  C   UNL     1      -4.179  -5.225   1.942  1.00  0.00     0.040 A 
ATOM     26  C   UNL     1      -3.619  -6.306   2.659  1.00  0.00     0.015 A 
ATOM     27  C   UNL     1      -5.203  -5.494   1.031  1.00  0.00     0.015 A 
ATOM     28  C   UNL     1      -4.067  -7.616   2.479  1.00  0.00     0.021 A 
ATOM     29  C   UNL     1      -5.678  -6.808   0.874  1.00  0.00     0.021 A 
ATOM     30  C   UNL     1      -5.103  -7.861   1.589  1.00  0.00     0.041 A 
ATOM     31  Cl  UNL     1      -5.650  -9.473   1.344  1.00  0.00    -0.084 Cl
ENDBRANCH  23  25
ENDBRANCH  15  23
ENDBRANCH   7   9
ENDBRANCH   4   7
ENDBRANCH   2   3
ENDBRANCH   1   2
BRANCH   1  32
ATOM     32  C   UNL     1       5.135   1.581   1.935  1.00  0.00     0.023 C 
BRANCH  32  33
ATOM     33  C   UNL     1       6.123   0.875   2.851  1.00  0.00     0.116 C 
BRANCH  33  34
ATOM     34  N   UNL     1       7.089   0.083   2.110  1.00  0.00    -0.352 N 
ATOM     35  C   UNL     1       8.443  -0.029   2.305  1.00  0.00     0.251 C 
ATOM     36  H   UNL     1       6.722  -0.447   1.365  1.00  0.00     0.163 HD
ATOM     37  O   UNL     1       9.129  -0.599   1.466  1.00  0.00    -0.269 OA
BRANCH  35  38
ATOM     38  C   UNL     1       9.059   0.565   3.512  1.00  0.00     0.039 A 
ATOM     39  C   UNL     1      10.272   1.241   3.381  1.00  0.00     0.014 A 
ATOM     40  C   UNL     1       8.448   0.451   4.765  1.00  0.00     0.014 A 
ATOM     41  C   UNL     1      10.857   1.830   4.503  1.00  0.00     0.010 A 
ATOM     42  C   UNL     1       8.985   1.116   5.862  1.00  0.00     0.010 A 
ATOM     43  C   UNL     1      10.209   1.790   5.749  1.00  0.00    -0.014 A 
BRANCH  43  44
ATOM     44  C   UNL     1      10.829   2.409   6.949  1.00  0.00     0.031 A 
ATOM     45  C   UNL     1      11.228   1.546   8.118  1.00  0.00     0.074 A 
ATOM     46  C   UNL     1      11.012   3.743   6.995  1.00  0.00     0.049 A 
ATOM     47  N   UNL     1      11.783   1.891   9.252  1.00  0.00    -0.248 NA
ATOM     48  C   UNL     1      10.937   0.108   8.009  1.00  0.00     0.031 C 
ATOM     49  C   UNL     1      10.628   4.684   5.941  1.00  0.00     0.029 A 
ATOM     50  N   UNL     1      11.575   4.539   7.960  1.00  0.00    -0.354 N 
ATOM     51  C   UNL     1      11.893   0.720   9.994  1.00  0.00     0.074 A 
ATOM     52  C   UNL     1      11.281  -0.331   9.210  1.00  0.00     0.031 C 
ATOM     53  C   UNL     1      11.010   5.921   6.296  1.00  0.00     0.029 A 
ATOM     54  C   UNL     1      11.621   5.872   7.620  1.00  0.00     0.049 A 
ATOM     55  H   UNL     1      11.913   4.190   8.816  1.00  0.00     0.167 HD
ATOM     56  C   UNL     1      12.474   0.532  11.204  1.00  0.00     0.034 A 
ATOM     57  C   UNL     1      12.104   6.931   8.300  1.00  0.00     0.034 A 
ATOM     58  C   UNL     1      13.091   1.592  11.964  1.00  0.00     0.049 A 
ATOM     59  C   UNL     1      12.726   6.700   9.655  1.00  0.00     0.074 A 
ATOM     60  C   UNL     1      13.761   1.508  13.172  1.00  0.00     0.029 A 
ATOM     61  N   UNL     1      13.104   2.932  11.597  1.00  0.00    -0.354 N 
ATOM     62  N   UNL     1      12.880   5.575  10.316  1.00  0.00    -0.248 NA
ATOM     63  C   UNL     1      13.255   7.882  10.346  1.00  0.00     0.031 C 
ATOM     64  C   UNL     1      14.104   2.803  13.575  1.00  0.00     0.029 A 
ATOM     65  C   UNL     1      13.737   3.688  12.573  1.00  0.00     0.049 A 
ATOM     66  H   UNL     1      12.720   3.293  10.765  1.00  0.00     0.167 HD
ATOM     67  C   UNL     1      13.563   5.912  11.482  1.00  0.00     0.074 A 
ATOM     68  C   UNL     1      13.802   7.340  11.422  1.00  0.00     0.031 C 
ATOM     69  C   UNL     1      13.963   5.114  12.506  1.00  0.00     0.034 A 
BRANCH  56  70
ATOM     70  C   UNL     1      12.435  -0.863  11.788  1.00  0.00     0.023 A 
ATOM     71  C   UNL     1      13.038  -1.958  11.142  1.00  0.00     0.031 A 
ATOM     72  C   UNL     1      11.756  -1.109  12.995  1.00  0.00     0.131 A 
ATOM     73  C   UNL     1      12.877  -3.253  11.658  1.00  0.00     0.055 A 
ATOM     74  C   UNL     1      11.679  -2.387  13.552  1.00  0.00     0.041 A 
ATOM     75  F   UNL     1      11.139  -0.111  13.648  1.00  0.00    -0.206 F 
ATOM     76  C   UNL     1      12.226  -3.472  12.873  1.00  0.00     0.022 A 
BRANCH  73  77
ATOM     77  S   UNL     1      13.385  -4.662  10.634  1.00  0.00     0.124 S 
ATOM     78  O   UNL     1      12.591  -4.450   9.426  1.00  0.00    -0.237 OA
ATOM     79  O   UNL     1      14.822  -4.454  10.501  1.00  0.00    -0.237 OA
ATOM     80  O   UNL     1      12.993  -5.824  11.431  1.00  0.00    -0.744 OA
ENDBRANCH  73  77
ENDBRANCH  56  70
BRANCH  57  81
ATOM     81  C   UNL     1      12.034   8.303   7.717  1.00  0.00     0.023 A 
ATOM     82  C   UNL     1      13.204   9.025   7.430  1.00  0.00     0.031 A 
ATOM     83  C   UNL     1      10.799   8.934   7.488  1.00  0.00     0.131 A 
ATOM     84  C   UNL     1      13.116  10.353   6.984  1.00  0.00     0.055 A 
ATOM     85  C   UNL     1      10.715  10.234   6.986  1.00  0.00     0.041 A 
ATOM     86  F   UNL     1       9.649   8.289   7.742  1.00  0.00    -0.206 F 
ATOM     87  C   UNL     1      11.879  10.957   6.746  1.00  0.00     0.022 A 
BRANCH  84  88
ATOM     88  S   UNL     1      14.644  11.315   6.815  1.00  0.00     0.124 S 
ATOM     89  O   UNL     1      15.192  11.240   8.164  1.00  0.00    -0.237 OA
ATOM     90  O   UNL     1      15.361  10.567   5.787  1.00  0.00    -0.237 OA
ATOM     91  O   UNL     1      14.171  12.636   6.405  1.00  0.00    -0.744 OA
ENDBRANCH  84  88
ENDBRANCH  57  81
BRANCH  69  92
ATOM     92  C   UNL     1      14.756   5.766  13.616  1.00  0.00     0.023 A 
ATOM     93  C   UNL     1      14.206   6.763  14.440  1.00  0.00     0.031 A 
ATOM     94  C   UNL     1      16.098   5.401  13.830  1.00  0.00     0.131 A 
ATOM     95  C   UNL     1      15.014   7.413  15.385  1.00  0.00     0.055 A 
ATOM     96  C   UNL     1      16.874   5.997  14.825  1.00  0.00     0.041 A 
ATOM     97  F   UNL     1      16.680   4.457  13.072  1.00  0.00    -0.206 F 
ATOM     98  C   UNL     1      16.338   7.023  15.597  1.00  0.00     0.022 A 
BRANCH  95  99
ATOM     99  S   UNL     1      14.349   8.866  16.244  1.00  0.00     0.124 S 
ATOM    100  O   UNL     1      13.968   9.729  15.130  1.00  0.00    -0.237 OA
ATOM    101  O   UNL     1      13.248   8.296  17.014  1.00  0.00    -0.237 OA
ATOM    102  O   UNL     1      15.480   9.342  17.039  1.00  0.00    -0.744 OA
ENDBRANCH  95  99
ENDBRANCH  69  92
ENDBRANCH  43  44
ENDBRANCH  35  38
ENDBRANCH  33  34
ENDBRANCH  32  33
ENDBRANCH   1  32
TORSDOF 17
