REMARK SMILES CC[NH2+][C@@]1(C(=O)NCCCCNC(=O)c2ccc(-c3c4nc(c(-c5cc(S(=O)(=O)[O-])ccc5F)c5ccc([nH]5)c(-c5cc(S(=O)(=O)[O-])ccc5F)c5nc(c(-c6cc(S(=O)(=O)[O-])ccc6F)c6ccc3[nH]6)C=C5)C=C4)cc2)CC[C@@H](SCC2CCCC2)C1
REMARK SMILES IDX 9 1 8 2 7 3 5 4 6 5 4 7 78 8 88 9 79 10 80 11 3 12 2 15 1 16
REMARK SMILES IDX 81 17 82 18 83 19 84 20 87 21 85 22 86 23 10 24 11 25 12 26
REMARK SMILES IDX 13 27 14 29 15 30 16 31 77 32 17 33 76 34 18 35 19 36 20 37
REMARK SMILES IDX 70 38 21 39 75 40 69 41 71 42 22 43 74 44 68 45 67 46 23 48
REMARK SMILES IDX 55 49 35 50 54 51 36 52 39 53 53 54 72 55 37 56 38 57 52 59
REMARK SMILES IDX 73 60 40 61 24 62 25 63 33 64 26 65 32 66 34 67 31 68 27 69
REMARK SMILES IDX 28 70 29 71 30 72 56 73 57 74 65 75 58 76 64 77 66 78 63 79
REMARK SMILES IDX 59 80 60 81 61 82 62 83 41 84 42 85 50 86 43 87 49 88 51 89
REMARK SMILES IDX 48 90 44 91 45 92 46 93 47 94
REMARK H PARENT 7 6 3 13 3 14 12 28 71 47 39 58
REMARK Flexibility Score: inf
ROOT
ATOM      1  C   UNL     1       0.280   0.312   7.362  1.00  0.00     0.023 C 
ENDROOT
BRANCH   1   2
ATOM      2  C   UNL     1       0.905   1.437   6.551  1.00  0.00     0.116 C 
BRANCH   2   3
ATOM      3  N   UNL     1       1.670   0.978   5.423  1.00  0.00    -0.351 N 
ATOM      4  C   UNL     1       1.505   1.168   4.091  1.00  0.00     0.281 C 
ATOM      5  O   UNL     1       2.507   0.915   3.404  1.00  0.00    -0.268 OA
ATOM      6  H   UNL     1       2.452   0.429   5.660  1.00  0.00     0.163 HD
BRANCH   4   7
ATOM      7  C   UNL     1       0.183   1.712   3.399  1.00  0.00     0.176 C 
ATOM      8  C   UNL     1      -0.015   3.217   3.674  1.00  0.00     0.080 C 
ATOM      9  C   UNL     1      -1.142   1.045   3.812  1.00  0.00     0.093 C 
ATOM     10  C   UNL     1      -1.185   3.377   4.647  1.00  0.00     0.022 C 
ATOM     11  C   UNL     1      -1.934   2.044   4.661  1.00  0.00     0.053 C 
BRANCH   7  12
ATOM     12  N   UNL     1       0.407   1.577   1.914  1.00  0.00    -0.334 N 
ATOM     13  H   UNL     1      -0.312   2.115   1.431  1.00  0.00     0.347 HD
ATOM     14  H   UNL     1       1.349   1.921   1.726  1.00  0.00     0.347 HD
BRANCH  12  15
ATOM     15  C   UNL     1       0.356   0.190   1.422  1.00  0.00     0.257 C 
ATOM     16  C   UNL     1       1.044   0.088   0.067  1.00  0.00     0.071 C 
ENDBRANCH  12  15
ENDBRANCH   7  12
BRANCH  11  17
ATOM     17  S   UNL     1      -3.745   2.093   4.320  1.00  0.00    -0.158 SA
BRANCH  17  18
ATOM     18  C   UNL     1      -3.869   2.635   2.569  1.00  0.00     0.073 C 
BRANCH  18  19
ATOM     19  C   UNL     1      -3.434   4.073   2.348  1.00  0.00    -0.001 C 
ATOM     20  C   UNL     1      -3.560   4.604   0.927  1.00  0.00     0.004 C 
ATOM     21  C   UNL     1      -4.203   5.127   3.145  1.00  0.00     0.004 C 
ATOM     22  C   UNL     1      -3.212   6.079   1.130  1.00  0.00     0.000 C 
ATOM     23  C   UNL     1      -3.785   6.448   2.502  1.00  0.00     0.000 C 
ENDBRANCH  18  19
ENDBRANCH  17  18
ENDBRANCH  11  17
ENDBRANCH   4   7
ENDBRANCH   2   3
ENDBRANCH   1   2
BRANCH   1  24
ATOM     24  C   UNL     1       1.054  -0.038   8.629  1.00  0.00     0.023 C 
BRANCH  24  25
ATOM     25  C   UNL     1       1.304   1.122   9.589  1.00  0.00     0.116 C 
BRANCH  25  26
ATOM     26  N   UNL     1       0.104   1.841   9.996  1.00  0.00    -0.352 N 
ATOM     27  C   UNL     1      -0.134   2.445  11.213  1.00  0.00     0.251 C 
ATOM     28  H   UNL     1      -0.617   1.902   9.329  1.00  0.00     0.163 HD
ATOM     29  O   UNL     1      -1.216   2.969  11.453  1.00  0.00    -0.269 OA
BRANCH  27  30
ATOM     30  C   UNL     1       0.930   2.392  12.235  1.00  0.00     0.039 A 
ATOM     31  C   UNL     1       0.661   1.777  13.459  1.00  0.00     0.014 A 
ATOM     32  C   UNL     1       2.221   2.824  11.920  1.00  0.00     0.014 A 
ATOM     33  C   UNL     1       1.715   1.509  14.335  1.00  0.00     0.010 A 
ATOM     34  C   UNL     1       3.277   2.484  12.758  1.00  0.00     0.010 A 
ATOM     35  C   UNL     1       3.037   1.813  13.968  1.00  0.00    -0.014 A 
BRANCH  35  36
ATOM     36  C   UNL     1       4.186   1.428  14.829  1.00  0.00     0.031 A 
ATOM     37  C   UNL     1       5.074   2.493  15.410  1.00  0.00     0.074 A 
ATOM     38  C   UNL     1       4.476   0.124  15.016  1.00  0.00     0.049 A 
ATOM     39  N   UNL     1       6.174   2.366  16.106  1.00  0.00    -0.248 NA
ATOM     40  C   UNL     1       4.693   3.886  15.135  1.00  0.00     0.031 C 
ATOM     41  C   UNL     1       3.724  -1.001  14.453  1.00  0.00     0.029 A 
ATOM     42  N   UNL     1       5.486  -0.477  15.724  1.00  0.00    -0.354 N 
ATOM     43  C   UNL     1       6.627   3.660  16.335  1.00  0.00     0.074 A 
ATOM     44  C   UNL     1       5.718   4.550  15.644  1.00  0.00     0.031 C 
ATOM     45  C   UNL     1       4.285  -2.152  14.858  1.00  0.00     0.029 A 
ATOM     46  C   UNL     1       5.456  -1.852  15.676  1.00  0.00     0.049 A 
ATOM     47  H   UNL     1       6.170   0.028  16.220  1.00  0.00     0.167 HD
ATOM     48  C   UNL     1       7.686   4.071  17.077  1.00  0.00     0.034 A 
ATOM     49  C   UNL     1       6.282  -2.766  16.223  1.00  0.00     0.034 A 
ATOM     50  C   UNL     1       8.567   3.171  17.779  1.00  0.00     0.049 A 
ATOM     51  C   UNL     1       7.447  -2.288  17.051  1.00  0.00     0.074 A 
ATOM     52  C   UNL     1       9.630   3.476  18.611  1.00  0.00     0.029 A 
ATOM     53  N   UNL     1       8.489   1.784  17.730  1.00  0.00    -0.354 N 
ATOM     54  N   UNL     1       7.829  -1.058  17.308  1.00  0.00    -0.248 NA
ATOM     55  C   UNL     1       8.284  -3.321  17.674  1.00  0.00     0.031 C 
ATOM     56  C   UNL     1      10.228   2.278  19.018  1.00  0.00     0.029 A 
ATOM     57  C   UNL     1       9.498   1.222  18.496  1.00  0.00     0.049 A 
ATOM     58  H   UNL     1       7.815   1.275  17.224  1.00  0.00     0.167 HD
ATOM     59  C   UNL     1       8.934  -1.171  18.147  1.00  0.00     0.074 A 
ATOM     60  C   UNL     1       9.146  -2.588  18.363  1.00  0.00     0.031 C 
ATOM     61  C   UNL     1       9.702  -0.194  18.692  1.00  0.00     0.034 A 
BRANCH  48  62
ATOM     62  C   UNL     1       7.948   5.556  17.141  1.00  0.00     0.023 A 
ATOM     63  C   UNL     1       7.011   6.446  17.695  1.00  0.00     0.031 A 
ATOM     64  C   UNL     1       9.128   6.098  16.601  1.00  0.00     0.131 A 
ATOM     65  C   UNL     1       7.225   7.830  17.615  1.00  0.00     0.055 A 
ATOM     66  C   UNL     1       9.376   7.472  16.604  1.00  0.00     0.041 A 
ATOM     67  F   UNL     1      10.052   5.301  16.041  1.00  0.00    -0.206 F 
ATOM     68  C   UNL     1       8.413   8.349  17.096  1.00  0.00     0.022 A 
BRANCH  65  69
ATOM     69  S   UNL     1       5.860   8.942  18.053  1.00  0.00     0.124 S 
ATOM     70  O   UNL     1       4.827   8.525  17.107  1.00  0.00    -0.237 OA
ATOM     71  O   UNL     1       5.618   8.608  19.451  1.00  0.00    -0.237 OA
ATOM     72  O   UNL     1       6.413  10.273  17.814  1.00  0.00    -0.744 OA
ENDBRANCH  65  69
ENDBRANCH  48  62
BRANCH  49  73
ATOM     73  C   UNL     1       6.046  -4.223  16.012  1.00  0.00     0.023 A 
ATOM     74  C   UNL     1       5.699  -5.061  17.084  1.00  0.00     0.031 A 
ATOM     75  C   UNL     1       6.206  -4.807  14.743  1.00  0.00     0.131 A 
ATOM     76  C   UNL     1       5.567  -6.443  16.879  1.00  0.00     0.055 A 
ATOM     77  C   UNL     1       6.027  -6.176  14.534  1.00  0.00     0.041 A 
ATOM     78  F   UNL     1       6.529  -4.050  13.683  1.00  0.00    -0.206 F 
ATOM     79  C   UNL     1       5.719  -7.005  15.609  1.00  0.00     0.022 A 
BRANCH  76  80
ATOM     80  S   UNL     1       5.270  -7.510  18.315  1.00  0.00     0.124 S 
ATOM     81  O   UNL     1       6.425  -7.209  19.153  1.00  0.00    -0.237 OA
ATOM     82  O   UNL     1       3.983  -7.019  18.795  1.00  0.00    -0.237 OA
ATOM     83  O   UNL     1       5.248  -8.854  17.741  1.00  0.00    -0.744 OA
ENDBRANCH  76  80
ENDBRANCH  49  73
BRANCH  61  84
ATOM     84  C   UNL     1      10.814  -0.634  19.611  1.00  0.00     0.023 A 
ATOM     85  C   UNL     1      11.934  -1.335  19.132  1.00  0.00     0.031 A 
ATOM     86  C   UNL     1      10.742  -0.359  20.988  1.00  0.00     0.131 A 
ATOM     87  C   UNL     1      12.912  -1.786  20.032  1.00  0.00     0.055 A 
ATOM     88  C   UNL     1      11.745  -0.761  21.870  1.00  0.00     0.041 A 
ATOM     89  F   UNL     1       9.693   0.306  21.498  1.00  0.00    -0.206 F 
ATOM     90  C   UNL     1      12.832  -1.490  21.395  1.00  0.00     0.022 A 
BRANCH  87  91
ATOM     91  S   UNL     1      14.247  -2.844  19.409  1.00  0.00     0.124 S 
ATOM     92  O   UNL     1      13.506  -3.966  18.842  1.00  0.00    -0.237 OA
ATOM     93  O   UNL     1      14.914  -1.970  18.448  1.00  0.00    -0.237 OA
ATOM     94  O   UNL     1      15.025  -3.155  20.606  1.00  0.00    -0.744 OA
ENDBRANCH  87  91
ENDBRANCH  61  84
ENDBRANCH  35  36
ENDBRANCH  27  30
ENDBRANCH  25  26
ENDBRANCH  24  25
ENDBRANCH   1  24
TORSDOF 19
