REMARK SMILES NC(=O)CC[C@H](NC(=O)N[C@H]1CCOC1)C(=O)NCCCCNC(=O)c1ccc(-c2c3nc(c(-c4cc(S(=O)(=O)[O-])ccc4F)c4ccc([nH]4)c(-c4cc(S(=O)(=O)[O-])ccc4F)c4nc(c(-c5cc(S(=O)(=O)[O-])ccc5F)c5ccc2[nH]5)C=C4)C=C3)cc1
REMARK SMILES IDX 20 1 19 2 18 3 16 4 17 5 6 7 5 8 4 9 2 10 1 11 3 14 7 15
REMARK SMILES IDX 8 16 9 18 10 19 11 21 12 22 15 23 13 24 14 25 21 26 22 27
REMARK SMILES IDX 23 28 24 29 25 31 26 32 27 33 88 34 28 35 87 36 29 37 30 38
REMARK SMILES IDX 31 39 81 40 32 41 86 42 80 43 82 44 33 45 85 46 79 47 78 48
REMARK SMILES IDX 34 50 66 51 46 52 65 53 47 54 50 55 64 56 83 57 48 58 49 59
REMARK SMILES IDX 63 61 84 62 51 63 35 64 36 65 44 66 37 67 43 68 45 69 42 70
REMARK SMILES IDX 38 71 39 72 40 73 41 74 67 75 68 76 76 77 69 78 75 79 77 80
REMARK SMILES IDX 74 81 70 82 71 83 72 84 73 85 52 86 53 87 61 88 54 89 60 90
REMARK SMILES IDX 62 91 59 92 55 93 56 94 57 95 58 96
REMARK H PARENT 18 6 1 12 1 13 7 17 10 20 23 30 82 49 50 60
REMARK Flexibility Score: inf
ROOT
ATOM      1  C   UNL     1       4.620   3.294  -2.829  1.00  0.00     0.023 C 
ENDROOT
BRANCH   1   2
ATOM      2  C   UNL     1       3.679   2.905  -1.696  1.00  0.00     0.116 C 
BRANCH   2   3
ATOM      3  N   UNL     1       4.448   2.550  -0.530  1.00  0.00    -0.354 N 
ATOM      4  C   UNL     1       4.702   3.221   0.608  1.00  0.00     0.242 C 
ATOM      5  O   UNL     1       5.599   2.747   1.308  1.00  0.00    -0.273 OA
ATOM      6  H   UNL     1       4.862   1.657  -0.575  1.00  0.00     0.163 HD
BRANCH   4   7
ATOM      7  C   UNL     1       3.814   4.363   1.102  1.00  0.00     0.173 C 
BRANCH   7   8
ATOM      8  C   UNL     1       2.337   3.938   1.257  1.00  0.00     0.045 C 
BRANCH   8   9
ATOM      9  C   UNL     1       2.099   2.509   1.763  1.00  0.00     0.102 C 
BRANCH   9  10
ATOM     10  C   UNL     1       2.678   2.261   3.137  1.00  0.00     0.217 C 
ATOM     11  N   UNL     1       3.910   1.688   3.174  1.00  0.00    -0.370 N 
ATOM     12  H   UNL     1       4.340   1.501   4.040  1.00  0.00     0.159 HD
ATOM     13  H   UNL     1       4.372   1.459   2.335  1.00  0.00     0.159 HD
ATOM     14  O   UNL     1       2.097   2.586   4.166  1.00  0.00    -0.275 OA
ENDBRANCH   9  10
ENDBRANCH   8   9
ENDBRANCH   7   8
BRANCH   7  15
ATOM     15  N   UNL     1       3.955   5.530   0.250  1.00  0.00    -0.326 N 
ATOM     16  C   UNL     1       4.963   6.376   0.059  1.00  0.00     0.315 C 
ATOM     17  H   UNL     1       3.155   5.733  -0.286  1.00  0.00     0.166 HD
ATOM     18  O   UNL     1       4.933   7.040  -0.982  1.00  0.00    -0.249 OA
ATOM     19  N   UNL     1       6.000   6.573   0.865  1.00  0.00    -0.333 N 
ATOM     20  H   UNL     1       6.707   7.050   0.372  1.00  0.00     0.165 HD
BRANCH  19  21
ATOM     21  C   UNL     1       6.455   6.324   2.237  1.00  0.00     0.112 C 
ATOM     22  C   UNL     1       5.449   6.354   3.362  1.00  0.00     0.056 C 
ATOM     23  C   UNL     1       7.316   5.094   2.471  1.00  0.00     0.185 C 
ATOM     24  C   UNL     1       5.639   5.041   4.102  1.00  0.00     0.162 C 
ATOM     25  O   UNL     1       6.752   4.344   3.549  1.00  0.00    -0.379 OA
ENDBRANCH  19  21
ENDBRANCH   7  15
ENDBRANCH   4   7
ENDBRANCH   2   3
ENDBRANCH   1   2
BRANCH   1  26
ATOM     26  C   UNL     1       5.754   2.291  -3.087  1.00  0.00     0.023 C 
BRANCH  26  27
ATOM     27  C   UNL     1       5.344   0.824  -3.143  1.00  0.00     0.116 C 
BRANCH  27  28
ATOM     28  N   UNL     1       4.214   0.583  -4.018  1.00  0.00    -0.352 N 
ATOM     29  C   UNL     1       3.980  -0.496  -4.827  1.00  0.00     0.251 C 
ATOM     30  H   UNL     1       3.525   1.286  -4.031  1.00  0.00     0.163 HD
ATOM     31  O   UNL     1       3.003  -0.500  -5.572  1.00  0.00    -0.269 OA
BRANCH  29  32
ATOM     32  C   UNL     1       4.941  -1.614  -4.830  1.00  0.00     0.039 A 
ATOM     33  C   UNL     1       5.439  -2.050  -6.057  1.00  0.00     0.014 A 
ATOM     34  C   UNL     1       5.376  -2.196  -3.634  1.00  0.00     0.014 A 
ATOM     35  C   UNL     1       6.404  -3.054  -6.085  1.00  0.00     0.010 A 
ATOM     36  C   UNL     1       6.396  -3.142  -3.662  1.00  0.00     0.010 A 
ATOM     37  C   UNL     1       6.906  -3.592  -4.889  1.00  0.00    -0.014 A 
BRANCH  37  38
ATOM     38  C   UNL     1       7.929  -4.667  -4.919  1.00  0.00     0.031 A 
ATOM     39  C   UNL     1       7.585  -6.035  -4.397  1.00  0.00     0.074 A 
ATOM     40  C   UNL     1       9.160  -4.406  -5.402  1.00  0.00     0.049 A 
ATOM     41  N   UNL     1       8.336  -7.103  -4.315  1.00  0.00    -0.248 NA
ATOM     42  C   UNL     1       6.223  -6.218  -3.873  1.00  0.00     0.031 C 
ATOM     43  C   UNL     1       9.611  -3.107  -5.906  1.00  0.00     0.029 A 
ATOM     44  N   UNL     1      10.254  -5.218  -5.556  1.00  0.00    -0.354 N 
ATOM     45  C   UNL     1       7.540  -8.081  -3.728  1.00  0.00     0.074 A 
ATOM     46  C   UNL     1       6.277  -7.454  -3.402  1.00  0.00     0.031 C 
ATOM     47  C   UNL     1      10.873  -3.222  -6.350  1.00  0.00     0.029 A 
ATOM     48  C   UNL     1      11.338  -4.586  -6.120  1.00  0.00     0.049 A 
ATOM     49  H   UNL     1      10.263  -6.166  -5.288  1.00  0.00     0.167 HD
ATOM     50  C   UNL     1       7.823  -9.389  -3.511  1.00  0.00     0.034 A 
ATOM     51  C   UNL     1      12.566  -5.056  -6.415  1.00  0.00     0.034 A 
ATOM     52  C   UNL     1       9.087  -9.995  -3.851  1.00  0.00     0.049 A 
ATOM     53  C   UNL     1      12.871  -6.507  -6.130  1.00  0.00     0.074 A 
ATOM     54  C   UNL     1       9.480 -11.313  -3.699  1.00  0.00     0.029 A 
ATOM     55  N   UNL     1      10.166  -9.321  -4.410  1.00  0.00    -0.354 N 
ATOM     56  N   UNL     1      12.094  -7.429  -5.606  1.00  0.00    -0.248 NA
ATOM     57  C   UNL     1      14.211  -6.984  -6.491  1.00  0.00     0.031 C 
ATOM     58  C   UNL     1      10.816 -11.421  -4.101  1.00  0.00     0.029 A 
ATOM     59  C   UNL     1      11.231 -10.191  -4.587  1.00  0.00     0.049 A 
ATOM     60  H   UNL     1      10.174  -8.366  -4.646  1.00  0.00     0.167 HD
ATOM     61  C   UNL     1      12.841  -8.604  -5.618  1.00  0.00     0.074 A 
ATOM     62  C   UNL     1      14.120  -8.275  -6.213  1.00  0.00     0.031 C 
ATOM     63  C   UNL     1      12.500  -9.845  -5.184  1.00  0.00     0.034 A 
BRANCH  50  64
ATOM     64  C   UNL     1       6.752 -10.232  -2.860  1.00  0.00     0.023 A 
ATOM     65  C   UNL     1       5.500 -10.433  -3.470  1.00  0.00     0.031 A 
ATOM     66  C   UNL     1       6.967 -10.814  -1.599  1.00  0.00     0.131 A 
ATOM     67  C   UNL     1       4.489 -11.123  -2.786  1.00  0.00     0.055 A 
ATOM     68  C   UNL     1       5.986 -11.577  -0.963  1.00  0.00     0.041 A 
ATOM     69  F   UNL     1       8.131 -10.638  -0.954  1.00  0.00    -0.206 F 
ATOM     70  C   UNL     1       4.732 -11.721  -1.548  1.00  0.00     0.022 A 
BRANCH  67  71
ATOM     71  S   UNL     1       2.808 -11.092  -3.467  1.00  0.00     0.124 S 
ATOM     72  O   UNL     1       2.529  -9.658  -3.496  1.00  0.00    -0.237 OA
ATOM     73  O   UNL     1       2.980 -11.736  -4.764  1.00  0.00    -0.237 OA
ATOM     74  O   UNL     1       2.029 -11.851  -2.491  1.00  0.00    -0.744 OA
ENDBRANCH  67  71
ENDBRANCH  50  64
BRANCH  51  75
ATOM     75  C   UNL     1      13.601  -4.164  -7.014  1.00  0.00     0.023 A 
ATOM     76  C   UNL     1      14.133  -4.426  -8.287  1.00  0.00     0.031 A 
ATOM     77  C   UNL     1      14.118  -3.069  -6.299  1.00  0.00     0.131 A 
ATOM     78  C   UNL     1      15.191  -3.646  -8.779  1.00  0.00     0.055 A 
ATOM     79  C   UNL     1      15.127  -2.256  -6.820  1.00  0.00     0.041 A 
ATOM     80  F   UNL     1      13.644  -2.768  -5.080  1.00  0.00    -0.206 F 
ATOM     81  C   UNL     1      15.682  -2.554  -8.061  1.00  0.00     0.022 A 
BRANCH  78  82
ATOM     82  S   UNL     1      15.992  -4.148 -10.328  1.00  0.00     0.124 S 
ATOM     83  O   UNL     1      16.404  -5.512 -10.018  1.00  0.00    -0.237 OA
ATOM     84  O   UNL     1      14.903  -4.008 -11.290  1.00  0.00    -0.237 OA
ATOM     85  O   UNL     1      17.080  -3.184 -10.475  1.00  0.00    -0.744 OA
ENDBRANCH  78  82
ENDBRANCH  51  75
BRANCH  63  86
ATOM     86  C   UNL     1      13.508 -10.949  -5.401  1.00  0.00     0.023 A 
ATOM     87  C   UNL     1      14.759 -10.953  -4.761  1.00  0.00     0.031 A 
ATOM     88  C   UNL     1      13.213 -12.005  -6.282  1.00  0.00     0.131 A 
ATOM     89  C   UNL     1      15.695 -11.953  -5.063  1.00  0.00     0.055 A 
ATOM     90  C   UNL     1      14.121 -13.037  -6.524  1.00  0.00     0.041 A 
ATOM     91  F   UNL     1      12.035 -12.052  -6.924  1.00  0.00    -0.206 F 
ATOM     92  C   UNL     1      15.377 -13.005  -5.926  1.00  0.00     0.022 A 
BRANCH  89  93
ATOM     93  S   UNL     1      17.377 -11.798  -4.402  1.00  0.00     0.124 S 
ATOM     94  O   UNL     1      17.782 -10.490  -4.907  1.00  0.00    -0.237 OA
ATOM     95  O   UNL     1      17.155 -11.885  -2.963  1.00  0.00    -0.237 OA
ATOM     96  O   UNL     1      18.083 -12.935  -4.991  1.00  0.00    -0.744 OA
ENDBRANCH  89  93
ENDBRANCH  63  86
ENDBRANCH  37  38
ENDBRANCH  29  32
ENDBRANCH  27  28
ENDBRANCH  26  27
ENDBRANCH   1  26
TORSDOF 19
