REMARK SMILES COc1ccc(OC)c(-c2cc(C(=O)NCCCCNC(=O)c3ccc(-c4c5nc(c(-c6cc(S(=O)(=O)[O-])ccc6F)c6ccc([nH]6)c(-c6cc(S(=O)(=O)[O-])ccc6F)c6nc(c(-c7cc(S(=O)(=O)[O-])ccc7F)c7ccc4[nH]7)C=C6)C=C5)cc3)ccn2)c1
REMARK SMILES IDX 18 1 17 2 16 3 15 4 13 5 14 6 12 8 10 9 11 10 88 11 87 12
REMARK SMILES IDX 86 13 9 14 3 15 4 16 89 17 5 18 6 19 2 20 1 21 7 22 8 23
REMARK SMILES IDX 19 24 20 25 21 26 22 28 23 29 24 30 85 31 25 32 84 33 26 34
REMARK SMILES IDX 27 35 28 36 78 37 29 38 83 39 77 40 79 41 30 42 82 43 76 44
REMARK SMILES IDX 75 45 31 47 63 48 43 49 62 50 44 51 47 52 61 53 80 54 45 55
REMARK SMILES IDX 46 56 60 58 81 59 48 60 32 61 33 62 41 63 34 64 40 65 42 66
REMARK SMILES IDX 39 67 35 68 36 69 37 70 38 71 64 72 65 73 73 74 66 75 72 76
REMARK SMILES IDX 74 77 71 78 67 79 68 80 69 81 70 82 49 83 50 84 58 85 51 86
REMARK SMILES IDX 57 87 59 88 56 89 52 90 53 91 54 92 55 93
REMARK H PARENT 15 7 20 27 79 46 47 57
REMARK Flexibility Score: inf
ROOT
ATOM      1  C   UNL     1       6.024   5.138  -2.468  1.00  0.00     0.023 C 
ENDROOT
BRANCH   1   2
ATOM      2  C   UNL     1       5.359   4.474  -1.259  1.00  0.00     0.023 C 
BRANCH   2   3
ATOM      3  C   UNL     1       6.059   3.200  -0.780  1.00  0.00     0.116 C 
BRANCH   3   4
ATOM      4  N   UNL     1       7.219   3.525   0.031  1.00  0.00    -0.352 N 
ATOM      5  C   UNL     1       7.410   3.560   1.390  1.00  0.00     0.251 C 
ATOM      6  O   UNL     1       8.531   3.829   1.818  1.00  0.00    -0.269 OA
ATOM      7  H   UNL     1       8.018   3.765  -0.491  1.00  0.00     0.163 HD
BRANCH   5   8
ATOM      8  C   UNL     1       6.340   3.228   2.365  1.00  0.00     0.043 A 
ATOM      9  C   UNL     1       4.062   3.013   3.080  1.00  0.00     0.075 A 
ATOM     10  C   UNL     1       4.989   3.471   2.150  1.00  0.00     0.043 A 
ATOM     11  N   UNL     1       4.426   2.405   4.233  1.00  0.00    -0.256 NA
ATOM     12  C   UNL     1       5.749   2.267   4.468  1.00  0.00     0.112 A 
ATOM     13  C   UNL     1       6.730   2.646   3.572  1.00  0.00     0.034 A 
BRANCH   9  14
ATOM     14  C   UNL     1       2.630   3.055   2.773  1.00  0.00     0.046 A 
ATOM     15  C   UNL     1       0.842   2.011   1.437  1.00  0.00     0.119 A 
ATOM     16  C   UNL     1      -0.013   3.043   1.801  1.00  0.00     0.050 A 
ATOM     17  C   UNL     1       2.144   2.014   1.934  1.00  0.00     0.060 A 
ATOM     18  C   UNL     1       0.431   4.061   2.646  1.00  0.00     0.051 A 
ATOM     19  C   UNL     1       1.746   4.085   3.139  1.00  0.00     0.128 A 
BRANCH  15  20
ATOM     20  O   UNL     1       0.303   1.094   0.580  1.00  0.00    -0.497 OA
ATOM     21  C   UNL     1       1.111  -0.021   0.221  1.00  0.00     0.278 C 
ENDBRANCH  15  20
BRANCH  19  22
ATOM     22  O   UNL     1       1.984   5.211   3.881  1.00  0.00    -0.496 OA
ATOM     23  C   UNL     1       3.083   5.235   4.777  1.00  0.00     0.278 C 
ENDBRANCH  19  22
ENDBRANCH   9  14
ENDBRANCH   5   8
ENDBRANCH   3   4
ENDBRANCH   2   3
ENDBRANCH   1   2
BRANCH   1  24
ATOM     24  C   UNL     1       5.983   4.316  -3.752  1.00  0.00     0.116 C 
BRANCH  24  25
ATOM     25  N   UNL     1       4.632   3.997  -4.185  1.00  0.00    -0.352 N 
ATOM     26  C   UNL     1       4.168   3.807  -5.468  1.00  0.00     0.251 C 
ATOM     27  H   UNL     1       3.962   3.906  -3.469  1.00  0.00     0.163 HD
ATOM     28  O   UNL     1       2.975   3.650  -5.672  1.00  0.00    -0.269 OA
BRANCH  26  29
ATOM     29  C   UNL     1       5.130   3.846  -6.592  1.00  0.00     0.039 A 
ATOM     30  C   UNL     1       4.852   4.672  -7.683  1.00  0.00     0.014 A 
ATOM     31  C   UNL     1       6.313   3.104  -6.549  1.00  0.00     0.014 A 
ATOM     32  C   UNL     1       5.797   4.808  -8.703  1.00  0.00     0.010 A 
ATOM     33  C   UNL     1       7.279   3.289  -7.534  1.00  0.00     0.010 A 
ATOM     34  C   UNL     1       7.033   4.146  -8.617  1.00  0.00    -0.014 A 
BRANCH  34  35
ATOM     35  C   UNL     1       8.084   4.342  -9.648  1.00  0.00     0.031 A 
ATOM     36  C   UNL     1       8.516   3.188 -10.510  1.00  0.00     0.074 A 
ATOM     37  C   UNL     1       8.700   5.537  -9.753  1.00  0.00     0.049 A 
ATOM     38  N   UNL     1       9.471   3.132 -11.402  1.00  0.00    -0.248 NA
ATOM     39  C   UNL     1       7.796   1.919 -10.318  1.00  0.00     0.031 C 
ATOM     40  C   UNL     1       8.396   6.719  -8.941  1.00  0.00     0.029 A 
ATOM     41  N   UNL     1       9.716   5.955 -10.575  1.00  0.00    -0.354 N 
ATOM     42  C   UNL     1       9.483   1.819 -11.862  1.00  0.00     0.074 A 
ATOM     43  C   UNL     1       8.473   1.103 -11.113  1.00  0.00     0.031 C 
ATOM     44  C   UNL     1       9.194   7.730  -9.320  1.00  0.00     0.029 A 
ATOM     45  C   UNL     1      10.094   7.262 -10.369  1.00  0.00     0.049 A 
ATOM     46  H   UNL     1      10.135   5.373 -11.250  1.00  0.00     0.167 HD
ATOM     47  C   UNL     1      10.255   1.269 -12.832  1.00  0.00     0.034 A 
ATOM     48  C   UNL     1      11.064   7.995 -10.951  1.00  0.00     0.034 A 
ATOM     49  C   UNL     1      11.239   2.006 -13.587  1.00  0.00     0.049 A 
ATOM     50  C   UNL     1      11.912   7.357 -12.024  1.00  0.00     0.074 A 
ATOM     51  C   UNL     1      12.016   1.570 -14.646  1.00  0.00     0.029 A 
ATOM     52  N   UNL     1      11.587   3.332 -13.360  1.00  0.00    -0.354 N 
ATOM     53  N   UNL     1      11.865   6.132 -12.495  1.00  0.00    -0.248 NA
ATOM     54  C   UNL     1      12.935   8.205 -12.650  1.00  0.00     0.031 C 
ATOM     55  C   UNL     1      12.878   2.609 -15.016  1.00  0.00     0.029 A 
ATOM     56  C   UNL     1      12.590   3.718 -14.236  1.00  0.00     0.049 A 
ATOM     57  H   UNL     1      11.181   3.912 -12.677  1.00  0.00     0.167 HD
ATOM     58  C   UNL     1      12.829   6.076 -13.497  1.00  0.00     0.074 A 
ATOM     59  C   UNL     1      13.431   7.391 -13.569  1.00  0.00     0.031 C 
ATOM     60  C   UNL     1      13.182   5.033 -14.291  1.00  0.00     0.034 A 
BRANCH  47  61
ATOM     61  C   UNL     1      10.084  -0.205 -13.108  1.00  0.00     0.023 A 
ATOM     62  C   UNL     1       8.877  -0.732 -13.599  1.00  0.00     0.031 A 
ATOM     63  C   UNL     1      11.139  -1.100 -12.858  1.00  0.00     0.131 A 
ATOM     64  C   UNL     1       8.730  -2.118 -13.755  1.00  0.00     0.055 A 
ATOM     65  C   UNL     1      11.013  -2.471 -13.091  1.00  0.00     0.041 A 
ATOM     66  F   UNL     1      12.309  -0.658 -12.369  1.00  0.00    -0.206 F 
ATOM     67  C   UNL     1       9.797  -2.990 -13.529  1.00  0.00     0.022 A 
BRANCH  64  68
ATOM     68  S   UNL     1       7.082  -2.778 -14.129  1.00  0.00     0.124 S 
ATOM     69  O   UNL     1       6.311  -2.314 -12.978  1.00  0.00    -0.237 OA
ATOM     70  O   UNL     1       6.771  -2.144 -15.405  1.00  0.00    -0.237 OA
ATOM     71  O   UNL     1       7.296  -4.223 -14.185  1.00  0.00    -0.744 OA
ENDBRANCH  64  68
ENDBRANCH  47  61
BRANCH  48  72
ATOM     72  C   UNL     1      11.301   9.408 -10.540  1.00  0.00     0.023 A 
ATOM     73  C   UNL     1      11.102  10.464 -11.443  1.00  0.00     0.031 A 
ATOM     74  C   UNL     1      11.785   9.720  -9.257  1.00  0.00     0.131 A 
ATOM     75  C   UNL     1      11.437  11.775 -11.072  1.00  0.00     0.055 A 
ATOM     76  C   UNL     1      12.066  11.034  -8.874  1.00  0.00     0.041 A 
ATOM     77  F   UNL     1      11.988   8.749  -8.352  1.00  0.00    -0.206 F 
ATOM     78  C   UNL     1      11.907  12.069  -9.790  1.00  0.00     0.022 A 
BRANCH  75  79
ATOM     79  S   UNL     1      11.339  13.082 -12.327  1.00  0.00     0.124 S 
ATOM     80  O   UNL     1      12.213  12.558 -13.370  1.00  0.00    -0.237 OA
ATOM     81  O   UNL     1       9.913  13.101 -12.633  1.00  0.00    -0.237 OA
ATOM     82  O   UNL     1      11.841  14.263 -11.627  1.00  0.00    -0.744 OA
ENDBRANCH  75  79
ENDBRANCH  48  72
BRANCH  60  83
ATOM     83  C   UNL     1      14.234   5.298 -15.340  1.00  0.00     0.023 A 
ATOM     84  C   UNL     1      15.570   5.567 -14.997  1.00  0.00     0.031 A 
ATOM     85  C   UNL     1      13.887   5.293 -16.702  1.00  0.00     0.131 A 
ATOM     86  C   UNL     1      16.500   5.874 -16.001  1.00  0.00     0.055 A 
ATOM     87  C   UNL     1      14.829   5.543 -17.701  1.00  0.00     0.041 A 
ATOM     88  F   UNL     1      12.624   5.043 -17.085  1.00  0.00    -0.206 F 
ATOM     89  C   UNL     1      16.141   5.848 -17.352  1.00  0.00     0.022 A 
BRANCH  86  90
ATOM     90  S   UNL     1      18.169   6.393 -15.515  1.00  0.00     0.124 S 
ATOM     91  O   UNL     1      17.895   7.573 -14.701  1.00  0.00    -0.237 OA
ATOM     92  O   UNL     1      18.662   5.223 -14.795  1.00  0.00    -0.237 OA
ATOM     93  O   UNL     1      18.831   6.659 -16.791  1.00  0.00    -0.744 OA
ENDBRANCH  86  90
ENDBRANCH  60  83
ENDBRANCH  34  35
ENDBRANCH  26  29
ENDBRANCH  24  25
ENDBRANCH   1  24
TORSDOF 17
