REMARK SMILES Cc1ccc(C(N)=O)c(NCc2ccc(C(=O)NCCCCNC(=O)c3ccc(-c4c5nc(c(-c6cc(S(=O)(=O)[O-])ccc6F)c6ccc([nH]6)c(-c6cc(S(=O)(=O)[O-])ccc6F)c6nc(c(-c7cc(S(=O)(=O)[O-])ccc7F)c7ccc4[nH]7)C=C6)C=C5)cc3)o2)n1
REMARK SMILES IDX 20 1 19 2 18 3 16 4 17 5 15 7 12 8 13 9 89 10 14 11 11 12
REMARK SMILES IDX 10 13 9 15 1 16 2 17 3 18 90 19 4 20 5 21 6 22 7 23 8 24
REMARK SMILES IDX 21 27 22 28 23 29 24 30 25 32 26 33 27 34 88 35 28 36 87 37
REMARK SMILES IDX 29 38 30 39 31 40 81 41 32 42 86 43 80 44 82 45 33 46 85 47
REMARK SMILES IDX 79 48 78 49 34 51 66 52 46 53 65 54 47 55 50 56 64 57 83 58
REMARK SMILES IDX 48 59 49 60 63 62 84 63 51 64 35 65 36 66 44 67 37 68 43 69
REMARK SMILES IDX 45 70 42 71 38 72 39 73 40 74 41 75 67 76 68 77 76 78 69 79
REMARK SMILES IDX 75 80 77 81 74 82 70 83 71 84 72 85 73 86 52 87 53 88 61 89
REMARK SMILES IDX 54 90 60 91 62 92 59 93 55 94 56 95 57 96 58 97
REMARK H PARENT 18 6 10 14 7 25 7 26 23 31 82 50 50 61
REMARK Flexibility Score: inf
ROOT
ATOM      1  C   UNL     1      -2.646   7.013  -5.959  1.00  0.00     0.023 C 
ENDROOT
BRANCH   1   2
ATOM      2  C   UNL     1      -1.207   7.032  -5.444  1.00  0.00     0.116 C 
BRANCH   2   3
ATOM      3  N   UNL     1      -1.097   7.787  -4.214  1.00  0.00    -0.349 N 
ATOM      4  C   UNL     1      -1.072   7.374  -2.902  1.00  0.00     0.286 C 
ATOM      5  O   UNL     1      -0.881   8.258  -2.063  1.00  0.00    -0.266 OA
ATOM      6  H   UNL     1      -1.030   8.762  -4.337  1.00  0.00     0.163 HD
BRANCH   4   7
ATOM      7  C   UNL     1      -1.244   5.976  -2.540  1.00  0.00     0.191 A 
ATOM      8  C   UNL     1      -1.079   4.288  -1.110  1.00  0.00     0.124 A 
ATOM      9  C   UNL     1      -1.600   3.763  -2.270  1.00  0.00     0.048 A 
ATOM     10  O   UNL     1      -0.860   5.622  -1.267  1.00  0.00    -0.454 OA
ATOM     11  C   UNL     1      -1.747   4.848  -3.167  1.00  0.00     0.056 A 
BRANCH   8  12
ATOM     12  C   UNL     1      -0.754   3.711   0.227  1.00  0.00     0.190 C 
BRANCH  12  13
ATOM     13  N   UNL     1      -1.530   2.519   0.540  1.00  0.00    -0.362 N 
ATOM     14  H   UNL     1      -2.436   2.613   0.914  1.00  0.00     0.162 HD
BRANCH  13  15
ATOM     15  C   UNL     1      -1.009   1.255   0.318  1.00  0.00     0.139 A 
ATOM     16  C   UNL     1       2.395  -0.112  -0.050  1.00  0.00     0.067 C 
ATOM     17  C   UNL     1       0.899  -0.074   0.039  1.00  0.00     0.040 A 
ATOM     18  C   UNL     1       0.146  -1.232  -0.060  1.00  0.00     0.024 A 
ATOM     19  N   UNL     1       0.336   1.147   0.209  1.00  0.00    -0.236 NA
ATOM     20  C   UNL     1      -1.237  -1.128   0.023  1.00  0.00     0.019 A 
ATOM     21  C   UNL     1      -1.833   0.127   0.203  1.00  0.00     0.081 A 
BRANCH  21  22
ATOM     22  C   UNL     1      -3.320   0.168   0.222  1.00  0.00     0.252 C 
ATOM     23  N   UNL     1      -3.933   1.330  -0.151  1.00  0.00    -0.365 N 
ATOM     24  O   UNL     1      -3.983  -0.819   0.519  1.00  0.00    -0.269 OA
ATOM     25  H   UNL     1      -3.392   2.118  -0.388  1.00  0.00     0.159 HD
ATOM     26  H   UNL     1      -4.915   1.380  -0.183  1.00  0.00     0.159 HD
ENDBRANCH  21  22
ENDBRANCH  13  15
ENDBRANCH  12  13
ENDBRANCH   8  12
ENDBRANCH   4   7
ENDBRANCH   2   3
ENDBRANCH   1   2
BRANCH   1  27
ATOM     27  C   UNL     1      -3.059   8.287  -6.706  1.00  0.00     0.023 C 
BRANCH  27  28
ATOM     28  C   UNL     1      -2.258   8.584  -7.972  1.00  0.00     0.116 C 
BRANCH  28  29
ATOM     29  N   UNL     1      -2.302   7.508  -8.949  1.00  0.00    -0.352 N 
ATOM     30  C   UNL     1      -2.233   7.599 -10.322  1.00  0.00     0.251 C 
ATOM     31  H   UNL     1      -2.392   6.598  -8.583  1.00  0.00     0.163 HD
ATOM     32  O   UNL     1      -2.394   6.603 -11.013  1.00  0.00    -0.269 OA
BRANCH  30  33
ATOM     33  C   UNL     1      -2.009   8.924 -10.941  1.00  0.00     0.039 A 
ATOM     34  C   UNL     1      -2.882   9.360 -11.940  1.00  0.00     0.014 A 
ATOM     35  C   UNL     1      -0.970   9.747 -10.499  1.00  0.00     0.014 A 
ATOM     36  C   UNL     1      -2.760  10.656 -12.445  1.00  0.00     0.010 A 
ATOM     37  C   UNL     1      -0.889  11.057 -10.958  1.00  0.00     0.010 A 
ATOM     38  C   UNL     1      -1.788  11.528 -11.930  1.00  0.00    -0.014 A 
BRANCH  38  39
ATOM     39  C   UNL     1      -1.681  12.938 -12.388  1.00  0.00     0.031 A 
ATOM     40  C   UNL     1      -0.438  13.398 -13.096  1.00  0.00     0.074 A 
ATOM     41  C   UNL     1      -2.658  13.817 -12.087  1.00  0.00     0.049 A 
ATOM     42  N   UNL     1      -0.079  14.607 -13.441  1.00  0.00    -0.248 NA
ATOM     43  C   UNL     1       0.548  12.359 -13.427  1.00  0.00     0.031 C 
ATOM     44  C   UNL     1      -3.898  13.494 -11.379  1.00  0.00     0.029 A 
ATOM     45  N   UNL     1      -2.752  15.166 -12.320  1.00  0.00    -0.354 N 
ATOM     46  C   UNL     1       1.183  14.479 -14.011  1.00  0.00     0.074 A 
ATOM     47  C   UNL     1       1.546  13.081 -13.912  1.00  0.00     0.031 C 
ATOM     48  C   UNL     1      -4.632  14.611 -11.246  1.00  0.00     0.029 A 
ATOM     49  C   UNL     1      -3.897  15.737 -11.813  1.00  0.00     0.049 A 
ATOM     50  H   UNL     1      -2.065  15.678 -12.805  1.00  0.00     0.167 HD
ATOM     51  C   UNL     1       1.958  15.436 -14.580  1.00  0.00     0.034 A 
ATOM     52  C   UNL     1      -4.297  17.024 -11.788  1.00  0.00     0.034 A 
ATOM     53  C   UNL     1       1.571  16.822 -14.683  1.00  0.00     0.049 A 
ATOM     54  C   UNL     1      -3.411  18.075 -12.409  1.00  0.00     0.074 A 
ATOM     55  C   UNL     1       2.258  17.868 -15.276  1.00  0.00     0.029 A 
ATOM     56  N   UNL     1       0.393  17.359 -14.178  1.00  0.00    -0.354 N 
ATOM     57  N   UNL     1      -2.232  17.934 -12.970  1.00  0.00    -0.248 NA
ATOM     58  C   UNL     1      -3.913  19.456 -12.402  1.00  0.00     0.031 C 
ATOM     59  C   UNL     1       1.525  19.043 -15.078  1.00  0.00     0.029 A 
ATOM     60  C   UNL     1       0.345  18.721 -14.427  1.00  0.00     0.049 A 
ATOM     61  H   UNL     1      -0.305  16.846 -13.710  1.00  0.00     0.167 HD
ATOM     62  C   UNL     1      -1.872  19.203 -13.418  1.00  0.00     0.074 A 
ATOM     63  C   UNL     1      -2.959  20.093 -13.064  1.00  0.00     0.031 C 
ATOM     64  C   UNL     1      -0.749  19.594 -14.072  1.00  0.00     0.034 A 
BRANCH  51  65
ATOM     65  C   UNL     1       3.308  15.012 -15.105  1.00  0.00     0.023 A 
ATOM     66  C   UNL     1       3.434  14.081 -16.151  1.00  0.00     0.031 A 
ATOM     67  C   UNL     1       4.488  15.519 -14.531  1.00  0.00     0.131 A 
ATOM     68  C   UNL     1       4.704  13.624 -16.534  1.00  0.00     0.055 A 
ATOM     69  C   UNL     1       5.752  15.124 -14.976  1.00  0.00     0.041 A 
ATOM     70  F   UNL     1       4.433  16.395 -13.516  1.00  0.00    -0.206 F 
ATOM     71  C   UNL     1       5.865  14.158 -15.971  1.00  0.00     0.022 A 
BRANCH  68  72
ATOM     72  S   UNL     1       4.808  12.213 -17.669  1.00  0.00     0.124 S 
ATOM     73  O   UNL     1       4.090  11.182 -16.922  1.00  0.00    -0.237 OA
ATOM     74  O   UNL     1       4.141  12.718 -18.863  1.00  0.00    -0.237 OA
ATOM     75  O   UNL     1       6.245  11.987 -17.804  1.00  0.00    -0.744 OA
ENDBRANCH  68  72
ENDBRANCH  51  65
BRANCH  52  76
ATOM     76  C   UNL     1      -5.589  17.402 -11.147  1.00  0.00     0.023 A 
ATOM     77  C   UNL     1      -6.644  17.932 -11.907  1.00  0.00     0.031 A 
ATOM     78  C   UNL     1      -5.774  17.278  -9.758  1.00  0.00     0.131 A 
ATOM     79  C   UNL     1      -7.817  18.364 -11.269  1.00  0.00     0.055 A 
ATOM     80  C   UNL     1      -6.963  17.662  -9.135  1.00  0.00     0.041 A 
ATOM     81  F   UNL     1      -4.800  16.771  -8.986  1.00  0.00    -0.206 F 
ATOM     82  C   UNL     1      -7.989  18.221  -9.891  1.00  0.00     0.022 A 
BRANCH  79  83
ATOM     83  S   UNL     1      -9.087  19.197 -12.262  1.00  0.00     0.124 S 
ATOM     84  O   UNL     1      -8.339  20.318 -12.820  1.00  0.00    -0.237 OA
ATOM     85  O   UNL     1      -9.471  18.149 -13.202  1.00  0.00    -0.237 OA
ATOM     86  O   UNL     1     -10.107  19.554 -11.278  1.00  0.00    -0.744 OA
ENDBRANCH  79  83
ENDBRANCH  52  76
BRANCH  64  87
ATOM     87  C   UNL     1      -0.674  21.036 -14.508  1.00  0.00     0.023 A 
ATOM     88  C   UNL     1      -0.545  22.088 -13.586  1.00  0.00     0.031 A 
ATOM     89  C   UNL     1      -0.728  21.355 -15.877  1.00  0.00     0.131 A 
ATOM     90  C   UNL     1      -0.519  23.415 -14.042  1.00  0.00     0.055 A 
ATOM     91  C   UNL     1      -0.647  22.673 -16.328  1.00  0.00     0.041 A 
ATOM     92  F   UNL     1      -0.852  20.388 -16.799  1.00  0.00    -0.206 F 
ATOM     93  C   UNL     1      -0.553  23.713 -15.408  1.00  0.00     0.022 A 
BRANCH  90  94
ATOM     94  S   UNL     1      -0.512  24.758 -12.823  1.00  0.00     0.124 S 
ATOM     95  O   UNL     1      -1.751  24.512 -12.092  1.00  0.00    -0.237 OA
ATOM     96  O   UNL     1       0.723  24.506 -12.087  1.00  0.00    -0.237 OA
ATOM     97  O   UNL     1      -0.506  25.968 -13.644  1.00  0.00    -0.744 OA
ENDBRANCH  90  94
ENDBRANCH  64  87
ENDBRANCH  38  39
ENDBRANCH  30  33
ENDBRANCH  28  29
ENDBRANCH  27  28
ENDBRANCH   1  27
TORSDOF 18
