REMARK SMILES CCC(CC)COc1cc2c(cc1Cl)C=C(C(=O)NCCCCNC(=O)c1ccc(-c3c4nc(c(-c5cc(S(=O)(=O)[O-])ccc5F)c5ccc([nH]5)c(-c5cc(S(=O)(=O)[O-])ccc5F)c5nc(c(-c6cc(S(=O)(=O)[O-])ccc6F)c6ccc3[nH]6)C=C5)C=C4)cc1)[C@@H](C(F)(F)F)O2
REMARK SMILES IDX 21 1 20 2 19 3 17 4 18 5 16 7 8 8 9 9 13 10 10 11 12 12
REMARK SMILES IDX 14 13 11 14 95 15 15 16 90 17 7 18 6 19 3 20 2 21 1 22 4 23
REMARK SMILES IDX 5 24 91 25 92 26 93 27 94 28 22 29 23 30 24 31 25 32 26 34
REMARK SMILES IDX 27 35 28 36 89 37 29 38 88 39 30 40 31 41 32 42 82 43 33 44
REMARK SMILES IDX 87 45 81 46 83 47 34 48 86 49 80 50 79 51 35 53 67 54 47 55
REMARK SMILES IDX 66 56 48 57 51 58 65 59 84 60 49 61 50 62 64 64 85 65 52 66
REMARK SMILES IDX 36 67 37 68 45 69 38 70 44 71 46 72 43 73 39 74 40 75 41 76
REMARK SMILES IDX 42 77 68 78 69 79 77 80 70 81 76 82 78 83 75 84 71 85 72 86
REMARK SMILES IDX 73 87 74 88 53 89 54 90 62 91 55 92 61 93 63 94 60 95 56 96
REMARK SMILES IDX 57 97 58 98 59 99
REMARK H PARENT 19 6 24 33 83 52 51 63
REMARK Flexibility Score: inf
ROOT
ATOM      1  C   UNL     1      -2.760   3.651  -9.427  1.00  0.00     0.023 C 
ENDROOT
BRANCH   1   2
ATOM      2  C   UNL     1      -1.309   3.863  -9.007  1.00  0.00     0.116 C 
BRANCH   2   3
ATOM      3  N   UNL     1      -1.215   4.486  -7.701  1.00  0.00    -0.352 N 
ATOM      4  C   UNL     1      -0.759   4.122  -6.481  1.00  0.00     0.251 C 
ATOM      5  O   UNL     1      -0.808   4.992  -5.607  1.00  0.00    -0.270 OA
ATOM      6  H   UNL     1      -1.572   5.404  -7.703  1.00  0.00     0.163 HD
BRANCH   4   7
ATOM      7  C   UNL     1      -0.237   2.772  -6.137  1.00  0.00     0.067 C 
ATOM      8  C   UNL     1       1.371  -1.220  -3.578  1.00  0.00     0.141 A 
ATOM      9  C   UNL     1       0.440  -1.057  -4.603  1.00  0.00     0.095 A 
ATOM     10  C   UNL     1       2.126  -0.125  -3.131  1.00  0.00     0.083 A 
ATOM     11  C   UNL     1       0.202   0.220  -5.097  1.00  0.00     0.131 A 
ATOM     12  C   UNL     1       1.810   1.164  -3.562  1.00  0.00     0.036 A 
ATOM     13  Cl  UNL     1       3.427  -0.310  -2.012  1.00  0.00    -0.080 Cl
ATOM     14  C   UNL     1       0.822   1.340  -4.528  1.00  0.00     0.019 A 
ATOM     15  O   UNL     1      -0.658   0.345  -6.159  1.00  0.00    -0.475 OA
ATOM     16  C   UNL     1       0.386   2.666  -4.948  1.00  0.00     0.025 C 
ATOM     17  C   UNL     1      -0.398   1.533  -6.974  1.00  0.00     0.314 C 
BRANCH   8  18
ATOM     18  O   UNL     1       1.551  -2.459  -3.022  1.00  0.00    -0.492 OA
BRANCH  18  19
ATOM     19  C   UNL     1       0.460  -2.837  -2.149  1.00  0.00     0.233 C 
BRANCH  19  20
ATOM     20  C   UNL     1       0.638  -2.249  -0.727  1.00  0.00     0.026 C 
BRANCH  20  21
ATOM     21  C   UNL     1      -0.092  -0.892  -0.582  1.00  0.00     0.003 C 
ATOM     22  C   UNL     1       0.430  -0.065   0.584  1.00  0.00     0.004 C 
ENDBRANCH  20  21
BRANCH  20  23
ATOM     23  C   UNL     1       0.225  -3.256   0.368  1.00  0.00     0.003 C 
ATOM     24  C   UNL     1      -1.262  -3.564   0.451  1.00  0.00     0.004 C 
ENDBRANCH  20  23
ENDBRANCH  19  20
ENDBRANCH  18  19
ENDBRANCH   8  18
BRANCH  17  25
ATOM     25  C   UNL     1       0.814   1.304  -7.912  1.00  0.00     0.429 C 
ATOM     26  F   UNL     1       0.482   0.459  -8.919  1.00  0.00    -0.167 F 
ATOM     27  F   UNL     1       1.239   2.453  -8.492  1.00  0.00    -0.167 F 
ATOM     28  F   UNL     1       1.888   0.775  -7.283  1.00  0.00    -0.167 F 
ENDBRANCH  17  25
ENDBRANCH   4   7
ENDBRANCH   2   3
ENDBRANCH   1   2
BRANCH   1  29
ATOM     29  C   UNL     1      -3.422   4.887 -10.032  1.00  0.00     0.023 C 
BRANCH  29  30
ATOM     30  C   UNL     1      -2.708   5.479 -11.242  1.00  0.00     0.116 C 
BRANCH  30  31
ATOM     31  N   UNL     1      -2.442   4.522 -12.310  1.00  0.00    -0.352 N 
ATOM     32  C   UNL     1      -2.369   4.779 -13.662  1.00  0.00     0.251 C 
ATOM     33  H   UNL     1      -2.299   3.588 -12.034  1.00  0.00     0.163 HD
ATOM     34  O   UNL     1      -2.197   3.872 -14.470  1.00  0.00    -0.269 OA
BRANCH  32  35
ATOM     35  C   UNL     1      -2.565   6.172 -14.105  1.00  0.00     0.039 A 
ATOM     36  C   UNL     1      -1.778   7.183 -13.551  1.00  0.00     0.014 A 
ATOM     37  C   UNL     1      -3.651   6.475 -14.929  1.00  0.00     0.014 A 
ATOM     38  C   UNL     1      -2.198   8.501 -13.663  1.00  0.00     0.010 A 
ATOM     39  C   UNL     1      -4.017   7.810 -15.110  1.00  0.00     0.010 A 
ATOM     40  C   UNL     1      -3.335   8.827 -14.423  1.00  0.00    -0.014 A 
BRANCH  40  41
ATOM     41  C   UNL     1      -3.807  10.235 -14.457  1.00  0.00     0.031 A 
ATOM     42  C   UNL     1      -5.134  10.621 -13.859  1.00  0.00     0.074 A 
ATOM     43  C   UNL     1      -2.997  11.179 -14.972  1.00  0.00     0.049 A 
ATOM     44  N   UNL     1      -5.683  11.805 -13.774  1.00  0.00    -0.248 NA
ATOM     45  C   UNL     1      -5.953   9.541 -13.282  1.00  0.00     0.031 C 
ATOM     46  C   UNL     1      -1.684  10.915 -15.562  1.00  0.00     0.029 A 
ATOM     47  N   UNL     1      -3.135  12.540 -15.059  1.00  0.00    -0.354 N 
ATOM     48  C   UNL     1      -6.916  11.614 -13.159  1.00  0.00     0.074 A 
ATOM     49  C   UNL     1      -7.048  10.194 -12.916  1.00  0.00     0.031 C 
ATOM     50  C   UNL     1      -1.113  12.079 -15.894  1.00  0.00     0.029 A 
ATOM     51  C   UNL     1      -2.045  13.168 -15.615  1.00  0.00     0.049 A 
ATOM     52  H   UNL     1      -3.938  13.022 -14.753  1.00  0.00     0.167 HD
ATOM     53  C   UNL     1      -7.843  12.540 -12.818  1.00  0.00     0.034 A 
ATOM     54  C   UNL     1      -1.821  14.470 -15.883  1.00  0.00     0.034 A 
ATOM     55  C   UNL     1      -7.683  13.955 -13.045  1.00  0.00     0.049 A 
ATOM     56  C   UNL     1      -2.876  15.478 -15.513  1.00  0.00     0.074 A 
ATOM     57  C   UNL     1      -8.557  14.976 -12.715  1.00  0.00     0.029 A 
ATOM     58  N   UNL     1      -6.582  14.550 -13.643  1.00  0.00    -0.354 N 
ATOM     59  N   UNL     1      -4.025  15.281 -14.909  1.00  0.00    -0.248 NA
ATOM     60  C   UNL     1      -2.612  16.881 -15.858  1.00  0.00     0.031 C 
ATOM     61  C   UNL     1      -8.009  16.180 -13.161  1.00  0.00     0.029 A 
ATOM     62  C   UNL     1      -6.764  15.921 -13.712  1.00  0.00     0.049 A 
ATOM     63  H   UNL     1      -5.788  14.068 -13.971  1.00  0.00     0.167 HD
ATOM     64  C   UNL     1      -4.616  16.535 -14.792  1.00  0.00     0.074 A 
ATOM     65  C   UNL     1      -3.683  17.487 -15.360  1.00  0.00     0.031 C 
ATOM     66  C   UNL     1      -5.824  16.864 -14.271  1.00  0.00     0.034 A 
BRANCH  53  67
ATOM     67  C   UNL     1      -9.119  12.082 -12.155  1.00  0.00     0.023 A 
ATOM     68  C   UNL     1     -10.355  12.265 -12.802  1.00  0.00     0.031 A 
ATOM     69  C   UNL     1      -9.124  11.585 -10.839  1.00  0.00     0.131 A 
ATOM     70  C   UNL     1     -11.547  11.985 -12.121  1.00  0.00     0.055 A 
ATOM     71  C   UNL     1     -10.314  11.274 -10.178  1.00  0.00     0.041 A 
ATOM     72  F   UNL     1      -7.971  11.390 -10.180  1.00  0.00    -0.206 F 
ATOM     73  C   UNL     1     -11.533  11.486 -10.815  1.00  0.00     0.022 A 
BRANCH  70  74
ATOM     74  S   UNL     1     -13.162  12.312 -12.879  1.00  0.00     0.124 S 
ATOM     75  O   UNL     1     -13.765  10.981 -12.885  1.00  0.00    -0.237 OA
ATOM     76  O   UNL     1     -13.754  13.261 -11.940  1.00  0.00    -0.237 OA
ATOM     77  O   UNL     1     -12.831  12.849 -14.194  1.00  0.00    -0.744 OA
ENDBRANCH  70  74
ENDBRANCH  53  67
BRANCH  54  78
ATOM     78  C   UNL     1      -0.519  14.865 -16.495  1.00  0.00     0.023 A 
ATOM     79  C   UNL     1      -0.132  14.361 -17.750  1.00  0.00     0.031 A 
ATOM     80  C   UNL     1       0.410  15.633 -15.775  1.00  0.00     0.131 A 
ATOM     81  C   UNL     1       1.178  14.555 -18.205  1.00  0.00     0.055 A 
ATOM     82  C   UNL     1       1.690  15.890 -16.269  1.00  0.00     0.041 A 
ATOM     83  F   UNL     1       0.091  16.124 -14.568  1.00  0.00    -0.206 F 
ATOM     84  C   UNL     1       2.087  15.330 -17.480  1.00  0.00     0.022 A 
BRANCH  81  85
ATOM     85  S   UNL     1       1.791  13.671 -19.667  1.00  0.00     0.124 S 
ATOM     86  O   UNL     1       2.121  14.769 -20.570  1.00  0.00    -0.237 OA
ATOM     87  O   UNL     1       2.930  12.939 -19.118  1.00  0.00    -0.237 OA
ATOM     88  O   UNL     1       0.659  12.841 -20.067  1.00  0.00    -0.744 OA
ENDBRANCH  81  85
ENDBRANCH  54  78
BRANCH  66  89
ATOM     89  C   UNL     1      -6.240  18.314 -14.281  1.00  0.00     0.023 A 
ATOM     90  C   UNL     1      -6.443  18.997 -13.067  1.00  0.00     0.031 A 
ATOM     91  C   UNL     1      -6.580  18.966 -15.479  1.00  0.00     0.131 A 
ATOM     92  C   UNL     1      -7.008  20.278 -13.076  1.00  0.00     0.055 A 
ATOM     93  C   UNL     1      -7.103  20.259 -15.484  1.00  0.00     0.041 A 
ATOM     94  F   UNL     1      -6.413  18.350 -16.660  1.00  0.00    -0.206 F 
ATOM     95  C   UNL     1      -7.333  20.915 -14.278  1.00  0.00     0.022 A 
BRANCH  92  96
ATOM     96  S   UNL     1      -7.424  21.129 -11.528  1.00  0.00     0.124 S 
ATOM     97  O   UNL     1      -6.590  22.325 -11.609  1.00  0.00    -0.237 OA
ATOM     98  O   UNL     1      -8.859  21.358 -11.679  1.00  0.00    -0.237 OA
ATOM     99  O   UNL     1      -7.047  20.176 -10.490  1.00  0.00    -0.744 OA
ENDBRANCH  92  96
ENDBRANCH  66  89
ENDBRANCH  40  41
ENDBRANCH  32  35
ENDBRANCH  30  31
ENDBRANCH  29  30
ENDBRANCH   1  29
TORSDOF 20
