REMARK SMILES COCCNS(=O)(=O)Cc1ccc(C(=O)NCCCCNC(=O)c2ccc(-c3c4nc(c(-c5cc(S(=O)(=O)[O-])ccc5F)c5ccc([nH]5)c(-c5cc(S(=O)(=O)[O-])ccc5F)c5nc(c(-c6cc(S(=O)(=O)[O-])ccc6F)c6ccc3[nH]6)C=C5)C=C4)cc2)cc1
REMARK SMILES IDX 17 1 16 2 14 3 15 4 13 6 10 7 11 8 88 9 12 10 87 11 9 12
REMARK SMILES IDX 6 13 7 14 8 15 5 16 4 18 3 19 2 20 1 21 18 22 19 23 20 24
REMARK SMILES IDX 21 25 22 26 23 28 24 29 25 30 86 31 26 32 85 33 27 34 28 35
REMARK SMILES IDX 29 36 79 37 30 38 84 39 78 40 80 41 31 42 83 43 77 44 76 45
REMARK SMILES IDX 32 47 64 48 44 49 63 50 45 51 48 52 62 53 81 54 46 55 47 56
REMARK SMILES IDX 61 58 82 59 49 60 33 61 34 62 42 63 35 64 41 65 43 66 40 67
REMARK SMILES IDX 36 68 37 69 38 70 39 71 65 72 66 73 74 74 67 75 73 76 75 77
REMARK SMILES IDX 72 78 68 79 69 80 70 81 71 82 50 83 51 84 59 85 52 86 58 87
REMARK SMILES IDX 60 88 57 89 53 90 54 91 55 92 56 93
REMARK H PARENT 16 5 5 17 21 27 80 46 48 57
REMARK Flexibility Score: inf
ROOT
ATOM      1  C   UNL     1       7.081   7.263  -2.543  1.00  0.00     0.116 C 
ENDROOT
BRANCH   1   2
ATOM      2  N   UNL     1       7.459   5.894  -2.253  1.00  0.00    -0.352 N 
ATOM      3  C   UNL     1       6.699   4.782  -2.002  1.00  0.00     0.251 C 
ATOM      4  O   UNL     1       7.274   3.718  -1.778  1.00  0.00    -0.269 OA
ATOM      5  H   UNL     1       8.431   5.736  -2.235  1.00  0.00     0.163 HD
BRANCH   3   6
ATOM      6  C   UNL     1       5.213   4.799  -2.068  1.00  0.00     0.039 A 
ATOM      7  C   UNL     1       2.411   4.692  -2.376  1.00  0.00    -0.032 A 
ATOM      8  C   UNL     1       3.207   3.586  -2.700  1.00  0.00     0.005 A 
ATOM      9  C   UNL     1       3.028   5.835  -1.855  1.00  0.00     0.005 A 
ATOM     10  C   UNL     1       4.592   3.637  -2.541  1.00  0.00     0.014 A 
ATOM     11  C   UNL     1       4.413   5.876  -1.680  1.00  0.00     0.014 A 
BRANCH   7  12
ATOM     12  C   UNL     1       0.921   4.667  -2.572  1.00  0.00     0.189 C 
BRANCH  12  13
ATOM     13  S   UNL     1       0.096   3.892  -1.175  1.00  0.00     0.215 S 
ATOM     14  O   UNL     1      -1.319   3.792  -1.476  1.00  0.00    -0.212 OA
ATOM     15  O   UNL     1       0.542   4.495   0.059  1.00  0.00    -0.212 OA
BRANCH  13  16
ATOM     16  N   UNL     1       0.705   2.323  -1.169  1.00  0.00    -0.213 NA
ATOM     17  H   UNL     1       1.708   2.386  -1.341  1.00  0.00     0.141 HD
BRANCH  16  18
ATOM     18  C   UNL     1       0.148   1.367  -2.145  1.00  0.00     0.127 C 
BRANCH  18  19
ATOM     19  C   UNL     1       0.963   0.067  -2.172  1.00  0.00     0.176 C 
BRANCH  19  20
ATOM     20  O   UNL     1       0.544  -0.882  -1.188  1.00  0.00    -0.383 OA
ATOM     21  C   UNL     1       1.041  -0.626   0.117  1.00  0.00     0.194 C 
ENDBRANCH  19  20
ENDBRANCH  18  19
ENDBRANCH  16  18
ENDBRANCH  13  16
ENDBRANCH  12  13
ENDBRANCH   7  12
ENDBRANCH   3   6
ENDBRANCH   1   2
BRANCH   1  22
ATOM     22  C   UNL     1       7.165   8.109  -1.271  1.00  0.00     0.023 C 
BRANCH  22  23
ATOM     23  C   UNL     1       8.591   8.507  -0.891  1.00  0.00     0.023 C 
BRANCH  23  24
ATOM     24  C   UNL     1       9.305   9.362  -1.929  1.00  0.00     0.116 C 
BRANCH  24  25
ATOM     25  N   UNL     1       8.584  10.586  -2.246  1.00  0.00    -0.352 N 
ATOM     26  C   UNL     1       9.104  11.826  -2.530  1.00  0.00     0.251 C 
ATOM     27  H   UNL     1       7.602  10.517  -2.258  1.00  0.00     0.163 HD
ATOM     28  O   UNL     1       8.363  12.797  -2.636  1.00  0.00    -0.269 OA
BRANCH  26  29
ATOM     29  C   UNL     1      10.567  11.966  -2.660  1.00  0.00     0.039 A 
ATOM     30  C   UNL     1      11.220  12.956  -1.926  1.00  0.00     0.014 A 
ATOM     31  C   UNL     1      11.292  11.072  -3.453  1.00  0.00     0.014 A 
ATOM     32  C   UNL     1      12.614  13.008  -1.937  1.00  0.00     0.010 A 
ATOM     33  C   UNL     1      12.681  11.074  -3.396  1.00  0.00     0.010 A 
ATOM     34  C   UNL     1      13.357  12.043  -2.640  1.00  0.00    -0.014 A 
BRANCH  34  35
ATOM     35  C   UNL     1      14.841  12.037  -2.597  1.00  0.00     0.031 A 
ATOM     36  C   UNL     1      15.629  12.249  -3.861  1.00  0.00     0.074 A 
ATOM     37  C   UNL     1      15.474  11.788  -1.433  1.00  0.00     0.049 A 
ATOM     38  N   UNL     1      16.924  12.222  -4.042  1.00  0.00    -0.248 NA
ATOM     39  C   UNL     1      14.856  12.493  -5.088  1.00  0.00     0.031 C 
ATOM     40  C   UNL     1      14.815  11.530  -0.150  1.00  0.00     0.029 A 
ATOM     41  N   UNL     1      16.812  11.709  -1.137  1.00  0.00    -0.354 N 
ATOM     42  C   UNL     1      17.120  12.437  -5.402  1.00  0.00     0.074 A 
ATOM     43  C   UNL     1      15.809  12.522  -6.007  1.00  0.00     0.031 C 
ATOM     44  C   UNL     1      15.748  11.358   0.798  1.00  0.00     0.029 A 
ATOM     45  C   UNL     1      17.072  11.436   0.187  1.00  0.00     0.049 A 
ATOM     46  H   UNL     1      17.520  11.835  -1.808  1.00  0.00     0.167 HD
ATOM     47  C   UNL     1      18.288  12.575  -6.078  1.00  0.00     0.034 A 
ATOM     48  C   UNL     1      18.242  11.257   0.833  1.00  0.00     0.034 A 
ATOM     49  C   UNL     1      19.586  12.493  -5.455  1.00  0.00     0.049 A 
ATOM     50  C   UNL     1      19.526  11.373   0.049  1.00  0.00     0.074 A 
ATOM     51  C   UNL     1      20.830  12.671  -6.033  1.00  0.00     0.029 A 
ATOM     52  N   UNL     1      19.810  12.199  -4.115  1.00  0.00    -0.354 N 
ATOM     53  N   UNL     1      19.696  11.632  -1.228  1.00  0.00    -0.248 NA
ATOM     54  C   UNL     1      20.776  11.182   0.795  1.00  0.00     0.031 C 
ATOM     55  C   UNL     1      21.805  12.402  -5.068  1.00  0.00     0.029 A 
ATOM     56  C   UNL     1      21.173  12.150  -3.861  1.00  0.00     0.049 A 
ATOM     57  H   UNL     1      19.105  12.047  -3.445  1.00  0.00     0.167 HD
ATOM     58  C   UNL     1      21.074  11.671  -1.427  1.00  0.00     0.074 A 
ATOM     59  C   UNL     1      21.685  11.425  -0.138  1.00  0.00     0.031 C 
ATOM     60  C   UNL     1      21.771  11.896  -2.570  1.00  0.00     0.034 A 
BRANCH  47  61
ATOM     61  C   UNL     1      18.208  12.797  -7.570  1.00  0.00     0.023 A 
ATOM     62  C   UNL     1      17.580  13.929  -8.119  1.00  0.00     0.031 A 
ATOM     63  C   UNL     1      18.752  11.853  -8.460  1.00  0.00     0.131 A 
ATOM     64  C   UNL     1      17.446  14.052  -9.510  1.00  0.00     0.055 A 
ATOM     65  C   UNL     1      18.694  12.025  -9.844  1.00  0.00     0.041 A 
ATOM     66  F   UNL     1      19.342  10.739  -7.998  1.00  0.00    -0.206 F 
ATOM     67  C   UNL     1      18.024  13.123 -10.377  1.00  0.00     0.022 A 
BRANCH  64  68
ATOM     68  S   UNL     1      16.375  15.362 -10.164  1.00  0.00     0.124 S 
ATOM     69  O   UNL     1      15.099  15.044  -9.528  1.00  0.00    -0.237 OA
ATOM     70  O   UNL     1      17.038  16.574  -9.697  1.00  0.00    -0.237 OA
ATOM     71  O   UNL     1      16.413  15.145 -11.609  1.00  0.00    -0.744 OA
ENDBRANCH  64  68
ENDBRANCH  47  61
BRANCH  48  72
ATOM     72  C   UNL     1      18.266  10.938   2.290  1.00  0.00     0.023 A 
ATOM     73  C   UNL     1      18.880  11.803   3.210  1.00  0.00     0.031 A 
ATOM     74  C   UNL     1      17.726   9.735   2.780  1.00  0.00     0.131 A 
ATOM     75  C   UNL     1      18.990  11.430   4.559  1.00  0.00     0.055 A 
ATOM     76  C   UNL     1      17.780   9.397   4.134  1.00  0.00     0.041 A 
ATOM     77  F   UNL     1      17.126   8.870   1.947  1.00  0.00    -0.206 F 
ATOM     78  C   UNL     1      18.430  10.240   5.030  1.00  0.00     0.022 A 
BRANCH  75  79
ATOM     79  S   UNL     1      19.973  12.473   5.670  1.00  0.00     0.124 S 
ATOM     80  O   UNL     1      21.268  12.481   5.000  1.00  0.00    -0.237 OA
ATOM     81  O   UNL     1      19.228  13.727   5.646  1.00  0.00    -0.237 OA
ATOM     82  O   UNL     1      19.931  11.750   6.940  1.00  0.00    -0.744 OA
ENDBRANCH  75  79
ENDBRANCH  48  72
BRANCH  60  83
ATOM     83  C   UNL     1      23.277  11.938  -2.463  1.00  0.00     0.023 A 
ATOM     84  C   UNL     1      24.030  10.806  -2.107  1.00  0.00     0.031 A 
ATOM     85  C   UNL     1      23.968  13.138  -2.715  1.00  0.00     0.131 A 
ATOM     86  C   UNL     1      25.421  10.912  -1.955  1.00  0.00     0.055 A 
ATOM     87  C   UNL     1      25.358  13.218  -2.632  1.00  0.00     0.041 A 
ATOM     88  F   UNL     1      23.301  14.253  -3.054  1.00  0.00    -0.206 F 
ATOM     89  C   UNL     1      26.092  12.105  -2.235  1.00  0.00     0.022 A 
BRANCH  86  90
ATOM     90  S   UNL     1      26.333   9.495  -1.282  1.00  0.00     0.124 S 
ATOM     91  O   UNL     1      25.671   9.292   0.003  1.00  0.00    -0.237 OA
ATOM     92  O   UNL     1      26.099   8.466  -2.289  1.00  0.00    -0.237 OA
ATOM     93  O   UNL     1      27.709   9.981  -1.201  1.00  0.00    -0.744 OA
ENDBRANCH  86  90
ENDBRANCH  60  83
ENDBRANCH  34  35
ENDBRANCH  26  29
ENDBRANCH  24  25
ENDBRANCH  23  24
ENDBRANCH  22  23
ENDBRANCH   1  22
TORSDOF 20
