REMARK SMILES O=C(NCCCCNC(=O)[C@H]1CC[C@@H](CNC(=O)[C@H]2CCSC2)CC1)c1ccc(-c2c3nc(c(-c4cc(S(=O)(=O)[O-])ccc4F)c4ccc([nH]4)c(-c4cc(S(=O)(=O)[O-])ccc4F)c4nc(c(-c5cc(S(=O)(=O)[O-])ccc5F)c5ccc2[nH]5)C=C4)C=C3)cc1
REMARK SMILES IDX 5 1 4 2 3 3 1 4 2 5 26 7 27 8 88 9 28 10 87 11 29 12 30 13
REMARK SMILES IDX 31 14 81 15 32 16 86 17 80 18 82 19 33 20 85 21 79 22 78 23
REMARK SMILES IDX 34 25 66 26 46 27 65 28 47 29 50 30 64 31 83 32 48 33 49 34
REMARK SMILES IDX 63 36 84 37 51 38 35 39 36 40 44 41 37 42 43 43 45 44 42 45
REMARK SMILES IDX 38 46 39 47 40 48 41 49 67 50 68 51 76 52 69 53 75 54 77 55
REMARK SMILES IDX 74 56 70 57 71 58 72 59 73 60 52 61 53 62 61 63 54 64 60 65
REMARK SMILES IDX 62 66 59 67 55 68 56 69 57 70 58 71 6 72 7 73 8 74 9 75
REMARK SMILES IDX 10 77 11 78 25 79 12 80 24 81 13 82 14 83 15 84 16 85 17 86
REMARK SMILES IDX 18 88 19 89 20 90 23 91 21 92 22 93
REMARK H PARENT 3 6 82 24 50 35 8 76 16 87
REMARK Flexibility Score: inf
ROOT
ATOM      1  C   UNL     1       0.398 -15.684   4.018  1.00  0.00     0.023 C 
ENDROOT
BRANCH   1   2
ATOM      2  C   UNL     1       0.079 -16.118   5.446  1.00  0.00     0.116 C 
BRANCH   2   3
ATOM      3  N   UNL     1       0.176 -15.048   6.431  1.00  0.00    -0.352 N 
ATOM      4  O   UNL     1      -0.361 -13.948   8.335  1.00  0.00    -0.269 OA
ATOM      5  C   UNL     1      -0.489 -14.946   7.633  1.00  0.00     0.251 C 
ATOM      6  H   UNL     1       0.790 -14.310   6.212  1.00  0.00     0.163 HD
BRANCH   5   7
ATOM      7  C   UNL     1      -1.396 -16.041   8.036  1.00  0.00     0.039 A 
ATOM      8  C   UNL     1      -0.951 -17.363   8.012  1.00  0.00     0.014 A 
ATOM      9  C   UNL     1      -2.723 -15.743   8.356  1.00  0.00     0.014 A 
ATOM     10  C   UNL     1      -1.871 -18.395   8.142  1.00  0.00     0.010 A 
ATOM     11  C   UNL     1      -3.630 -16.785   8.567  1.00  0.00     0.010 A 
ATOM     12  C   UNL     1      -3.223 -18.120   8.411  1.00  0.00    -0.014 A 
BRANCH  12  13
ATOM     13  C   UNL     1      -4.184 -19.248   8.511  1.00  0.00     0.031 A 
ATOM     14  C   UNL     1      -5.288 -19.415   7.501  1.00  0.00     0.074 A 
ATOM     15  C   UNL     1      -4.017 -20.158   9.491  1.00  0.00     0.049 A 
ATOM     16  N   UNL     1      -6.189 -20.361   7.410  1.00  0.00    -0.248 NA
ATOM     17  C   UNL     1      -5.402 -18.379   6.464  1.00  0.00     0.031 C 
ATOM     18  C   UNL     1      -2.982 -20.097  10.525  1.00  0.00     0.029 A 
ATOM     19  N   UNL     1      -4.688 -21.322   9.762  1.00  0.00    -0.354 N 
ATOM     20  C   UNL     1      -6.994 -20.022   6.326  1.00  0.00     0.074 A 
ATOM     21  C   UNL     1      -6.488 -18.767   5.811  1.00  0.00     0.031 C 
ATOM     22  C   UNL     1      -3.051 -21.202  11.282  1.00  0.00     0.029 A 
ATOM     23  C   UNL     1      -4.171 -22.018  10.829  1.00  0.00     0.049 A 
ATOM     24  H   UNL     1      -5.466 -21.629   9.242  1.00  0.00     0.167 HD
ATOM     25  C   UNL     1      -8.050 -20.699   5.809  1.00  0.00     0.034 A 
ATOM     26  C   UNL     1      -4.560 -23.180  11.387  1.00  0.00     0.034 A 
ATOM     27  C   UNL     1      -8.528 -21.961   6.327  1.00  0.00     0.049 A 
ATOM     28  C   UNL     1      -5.735 -23.909  10.796  1.00  0.00     0.074 A 
ATOM     29  C   UNL     1      -9.569 -22.747   5.862  1.00  0.00     0.029 A 
ATOM     30  N   UNL     1      -7.999 -22.621   7.429  1.00  0.00    -0.354 N 
ATOM     31  N   UNL     1      -6.480 -23.578   9.767  1.00  0.00    -0.248 NA
ATOM     32  C   UNL     1      -6.117 -25.170  11.440  1.00  0.00     0.031 C 
ATOM     33  C   UNL     1      -9.706 -23.849   6.715  1.00  0.00     0.029 A 
ATOM     34  C   UNL     1      -8.707 -23.790   7.673  1.00  0.00     0.049 A 
ATOM     35  H   UNL     1      -7.233 -22.305   7.960  1.00  0.00     0.167 HD
ATOM     36  C   UNL     1      -7.408 -24.604   9.627  1.00  0.00     0.074 A 
ATOM     37  C   UNL     1      -7.113 -25.573  10.665  1.00  0.00     0.031 C 
ATOM     38  C   UNL     1      -8.411 -24.737   8.723  1.00  0.00     0.034 A 
BRANCH  25  39
ATOM     39  C   UNL     1      -8.790 -20.060   4.656  1.00  0.00     0.023 A 
ATOM     40  C   UNL     1      -8.182 -19.843   3.407  1.00  0.00     0.031 A 
ATOM     41  C   UNL     1     -10.121 -19.635   4.820  1.00  0.00     0.131 A 
ATOM     42  C   UNL     1      -8.877 -19.157   2.398  1.00  0.00     0.055 A 
ATOM     43  C   UNL     1     -10.834 -19.022   3.787  1.00  0.00     0.041 A 
ATOM     44  F   UNL     1     -10.750 -19.796   5.995  1.00  0.00    -0.206 F 
ATOM     45  C   UNL     1     -10.207 -18.766   2.571  1.00  0.00     0.022 A 
BRANCH  42  46
ATOM     46  S   UNL     1      -7.972 -18.656   0.907  1.00  0.00     0.124 S 
ATOM     47  O   UNL     1      -6.886 -17.859   1.474  1.00  0.00    -0.237 OA
ATOM     48  O   UNL     1      -7.588 -19.936   0.326  1.00  0.00    -0.237 OA
ATOM     49  O   UNL     1      -8.960 -17.894   0.146  1.00  0.00    -0.744 OA
ENDBRANCH  42  46
ENDBRANCH  25  39
BRANCH  26  50
ATOM     50  C   UNL     1      -3.840 -23.716  12.575  1.00  0.00     0.023 A 
ATOM     51  C   UNL     1      -3.121 -24.919  12.505  1.00  0.00     0.031 A 
ATOM     52  C   UNL     1      -3.875 -23.036  13.806  1.00  0.00     0.131 A 
ATOM     53  C   UNL     1      -2.495 -25.425  13.654  1.00  0.00     0.055 A 
ATOM     54  C   UNL     1      -3.209 -23.517  14.933  1.00  0.00     0.041 A 
ATOM     55  F   UNL     1      -4.542 -21.876  13.922  1.00  0.00    -0.206 F 
ATOM     56  C   UNL     1      -2.523 -24.726  14.863  1.00  0.00     0.022 A 
BRANCH  53  57
ATOM     57  S   UNL     1      -1.696 -27.050  13.563  1.00  0.00     0.124 S 
ATOM     58  O   UNL     1      -2.803 -27.904  13.147  1.00  0.00    -0.237 OA
ATOM     59  O   UNL     1      -0.654 -26.819  12.567  1.00  0.00    -0.237 OA
ATOM     60  O   UNL     1      -1.215 -27.269  14.925  1.00  0.00    -0.744 OA
ENDBRANCH  53  57
ENDBRANCH  26  50
BRANCH  38  61
ATOM     61  C   UNL     1      -9.229 -26.001   8.803  1.00  0.00     0.023 A 
ATOM     62  C   UNL     1     -10.072 -26.267   9.897  1.00  0.00     0.031 A 
ATOM     63  C   UNL     1      -9.131 -26.971   7.791  1.00  0.00     0.131 A 
ATOM     64  C   UNL     1     -10.731 -27.502   9.987  1.00  0.00     0.055 A 
ATOM     65  C   UNL     1      -9.835 -28.174   7.857  1.00  0.00     0.041 A 
ATOM     66  F   UNL     1      -8.339 -26.769   6.726  1.00  0.00    -0.206 F 
ATOM     67  C   UNL     1     -10.628 -28.452   8.967  1.00  0.00     0.022 A 
BRANCH  64  68
ATOM     68  S   UNL     1     -11.639 -27.896  11.507  1.00  0.00     0.124 S 
ATOM     69  O   UNL     1     -10.606 -27.741  12.527  1.00  0.00    -0.237 OA
ATOM     70  O   UNL     1     -12.694 -26.888  11.510  1.00  0.00    -0.237 OA
ATOM     71  O   UNL     1     -12.094 -29.268  11.289  1.00  0.00    -0.744 OA
ENDBRANCH  64  68
ENDBRANCH  38  61
ENDBRANCH  12  13
ENDBRANCH   5   7
ENDBRANCH   2   3
ENDBRANCH   1   2
BRANCH   1  72
ATOM     72  C   UNL     1       1.740 -14.971   3.829  1.00  0.00     0.023 C 
BRANCH  72  73
ATOM     73  C   UNL     1       2.955 -15.761   4.314  1.00  0.00     0.116 C 
BRANCH  73  74
ATOM     74  N   UNL     1       3.386 -16.752   3.349  1.00  0.00    -0.356 N 
ATOM     75  C   UNL     1       4.305 -16.771   2.357  1.00  0.00     0.223 C 
ATOM     76  H   UNL     1       2.900 -17.604   3.434  1.00  0.00     0.163 HD
ATOM     77  O   UNL     1       4.410 -17.849   1.755  1.00  0.00    -0.275 OA
BRANCH  75  78
ATOM     78  C   UNL     1       5.217 -15.603   1.939  1.00  0.00     0.078 C 
ATOM     79  C   UNL     1       5.103 -15.462   0.403  1.00  0.00     0.014 C 
ATOM     80  C   UNL     1       5.079 -14.255   2.646  1.00  0.00     0.014 C 
ATOM     81  C   UNL     1       5.929 -14.312  -0.171  1.00  0.00     0.006 C 
ATOM     82  C   UNL     1       5.908 -13.139   2.015  1.00  0.00     0.006 C 
ATOM     83  C   UNL     1       5.628 -12.975   0.519  1.00  0.00     0.008 C 
BRANCH  83  84
ATOM     84  C   UNL     1       4.193 -12.517   0.199  1.00  0.00     0.119 C 
BRANCH  84  85
ATOM     85  N   UNL     1       3.879 -11.198   0.722  1.00  0.00    -0.356 N 
ATOM     86  C   UNL     1       3.101 -10.209   0.205  1.00  0.00     0.223 C 
ATOM     87  H   UNL     1       4.296 -10.987   1.589  1.00  0.00     0.163 HD
ATOM     88  O   UNL     1       2.866  -9.235   0.925  1.00  0.00    -0.275 OA
BRANCH  86  89
ATOM     89  C   UNL     1       2.582 -10.243  -1.224  1.00  0.00     0.089 C 
ATOM     90  C   UNL     1       3.719 -10.145  -2.242  1.00  0.00     0.025 C 
ATOM     91  C   UNL     1       1.686 -11.439  -1.534  1.00  0.00     0.083 C 
ATOM     92  C   UNL     1       3.171 -10.580  -3.584  1.00  0.00     0.070 C 
ATOM     93  S   UNL     1       2.145 -12.013  -3.196  1.00  0.00    -0.161 SA
ENDBRANCH  86  89
ENDBRANCH  84  85
ENDBRANCH  83  84
ENDBRANCH  75  78
ENDBRANCH  73  74
ENDBRANCH  72  73
ENDBRANCH   1  72
TORSDOF 17
