REMARK SMILES O=C1CC[C@@H](CC(=O)N2CCC(Oc3ccccc3)(C(=O)NCCCCNC(=O)c3ccc(-c4c5nc(c(-c6cc(S(=O)(=O)[O-])ccc6F)c6ccc([nH]6)c(-c6cc(S(=O)(=O)[O-])ccc6F)c6nc(c(-c7cc(S(=O)(=O)[O-])ccc7F)c7ccc4[nH]7)C=C6)C=C5)cc3)CC2)N1
REMARK SMILES IDX 25 1 24 2 23 3 22 4 20 5 21 6 12 8 7 9 8 10 9 11 10 12 94 13
REMARK SMILES IDX 11 14 93 15 6 16 5 17 1 18 2 19 3 20 95 21 4 22 13 24 14 25
REMARK SMILES IDX 15 26 19 27 16 28 18 29 17 30 26 31 27 32 28 33 29 35 30 36
REMARK SMILES IDX 31 37 92 38 32 39 91 40 33 41 34 42 35 43 85 44 36 45 90 46
REMARK SMILES IDX 84 47 86 48 37 49 89 50 83 51 82 52 38 54 70 55 50 56 69 57
REMARK SMILES IDX 51 58 54 59 68 60 87 61 52 62 53 63 67 65 88 66 55 67 39 68
REMARK SMILES IDX 40 69 48 70 41 71 47 72 49 73 46 74 42 75 43 76 44 77 45 78
REMARK SMILES IDX 71 79 72 80 80 81 73 82 79 83 81 84 78 85 74 86 75 87 76 88
REMARK SMILES IDX 77 89 56 90 57 91 65 92 58 93 64 94 66 95 63 96 59 97 60 98
REMARK SMILES IDX 61 99 62 100
REMARK H PARENT 22 7 95 23 27 34 86 53 54 64
REMARK Flexibility Score: inf
ROOT
ATOM      1  C   UNL     1      -0.068   2.787  -8.397  1.00  0.00     0.023 C 
ENDROOT
BRANCH   1   2
ATOM      2  C   UNL     1       0.524   1.462  -7.915  1.00  0.00     0.023 C 
BRANCH   2   3
ATOM      3  C   UNL     1       1.731   1.623  -6.998  1.00  0.00     0.116 C 
BRANCH   3   4
ATOM      4  N   UNL     1       1.348   2.296  -5.780  1.00  0.00    -0.353 N 
ATOM      5  C   UNL     1       1.255   1.816  -4.514  1.00  0.00     0.264 C 
ATOM      6  O   UNL     1       0.940   2.647  -3.655  1.00  0.00    -0.270 OA
ATOM      7  H   UNL     1       1.119   3.248  -5.884  1.00  0.00     0.163 HD
BRANCH   5   8
ATOM      8  C   UNL     1       1.555   0.326  -4.175  1.00  0.00     0.190 C 
ATOM      9  C   UNL     1      -1.564  -1.654  -2.250  1.00  0.00     0.224 C 
ATOM     10  O   UNL     1      -1.809  -2.704  -2.861  1.00  0.00    -0.275 OA
ATOM     11  N   UNL     1      -0.897  -0.628  -2.889  1.00  0.00    -0.342 N 
ATOM     12  C   UNL     1      -0.841  -0.573  -4.349  1.00  0.00     0.124 C 
ATOM     13  C   UNL     1      -0.041   0.331  -2.236  1.00  0.00     0.124 C 
ATOM     14  C   UNL     1       0.594  -0.676  -4.856  1.00  0.00     0.080 C 
ATOM     15  C   UNL     1       1.416   0.170  -2.655  1.00  0.00     0.080 C 
BRANCH   9  16
ATOM     16  C   UNL     1      -2.237  -1.469  -0.876  1.00  0.00     0.125 C 
BRANCH  16  17
ATOM     17  C   UNL     1      -1.647  -0.856   0.395  1.00  0.00     0.091 C 
ATOM     18  O   UNL     1       1.611  -0.172   1.517  1.00  0.00    -0.275 OA
ATOM     19  C   UNL     1       0.444  -0.114   1.161  1.00  0.00     0.220 C 
ATOM     20  C   UNL     1      -0.409   1.129   1.104  1.00  0.00     0.102 C 
ATOM     21  N   UNL     1      -0.287  -1.185   0.698  1.00  0.00    -0.353 N 
ATOM     22  C   UNL     1      -1.745   0.667   0.513  1.00  0.00     0.035 C 
ATOM     23  H   UNL     1       0.088  -2.088   0.587  1.00  0.00     0.163 HD
ENDBRANCH  16  17
ENDBRANCH   9  16
BRANCH   8  24
ATOM     24  O   UNL     1       2.939   0.228  -4.599  1.00  0.00    -0.477 OA
BRANCH  24  25
ATOM     25  C   UNL     1       3.598  -0.946  -4.397  1.00  0.00     0.120 A 
ATOM     26  C   UNL     1       4.579  -0.989  -3.410  1.00  0.00     0.046 A 
ATOM     27  C   UNL     1       3.422  -2.029  -5.255  1.00  0.00     0.046 A 
ATOM     28  C   UNL     1       5.331  -2.150  -3.229  1.00  0.00     0.004 A 
ATOM     29  C   UNL     1       4.156  -3.198  -5.061  1.00  0.00     0.004 A 
ATOM     30  C   UNL     1       5.108  -3.260  -4.044  1.00  0.00     0.000 A 
ENDBRANCH  24  25
ENDBRANCH   8  24
ENDBRANCH   5   8
ENDBRANCH   3   4
ENDBRANCH   2   3
ENDBRANCH   1   2
BRANCH   1  31
ATOM     31  C   UNL     1       0.943   3.745  -9.012  1.00  0.00     0.116 C 
BRANCH  31  32
ATOM     32  N   UNL     1       1.704   3.129 -10.088  1.00  0.00    -0.352 N 
ATOM     33  C   UNL     1       1.980   3.630 -11.335  1.00  0.00     0.251 C 
ATOM     34  H   UNL     1       2.069   2.235  -9.896  1.00  0.00     0.163 HD
ATOM     35  O   UNL     1       2.483   2.907 -12.189  1.00  0.00    -0.269 OA
BRANCH  33  36
ATOM     36  C   UNL     1       1.631   5.032 -11.635  1.00  0.00     0.039 A 
ATOM     37  C   UNL     1       0.942   5.320 -12.814  1.00  0.00     0.014 A 
ATOM     38  C   UNL     1       1.947   6.048 -10.729  1.00  0.00     0.014 A 
ATOM     39  C   UNL     1       0.518   6.627 -13.055  1.00  0.00     0.010 A 
ATOM     40  C   UNL     1       1.448   7.330 -10.931  1.00  0.00     0.010 A 
ATOM     41  C   UNL     1       0.735   7.635 -12.101  1.00  0.00    -0.014 A 
BRANCH  41  42
ATOM     42  C   UNL     1       0.250   9.022 -12.321  1.00  0.00     0.031 A 
ATOM     43  C   UNL     1       1.242  10.150 -12.415  1.00  0.00     0.074 A 
ATOM     44  C   UNL     1      -1.073   9.270 -12.392  1.00  0.00     0.049 A 
ATOM     45  N   UNL     1       1.025  11.436 -12.521  1.00  0.00    -0.248 NA
ATOM     46  C   UNL     1       2.668   9.787 -12.357  1.00  0.00     0.031 C 
ATOM     47  C   UNL     1      -2.130   8.260 -12.287  1.00  0.00     0.029 A 
ATOM     48  N   UNL     1      -1.759  10.446 -12.564  1.00  0.00    -0.354 N 
ATOM     49  C   UNL     1       2.281  12.032 -12.541  1.00  0.00     0.074 A 
ATOM     50  C   UNL     1       3.252  10.975 -12.361  1.00  0.00     0.031 C 
ATOM     51  C   UNL     1      -3.325   8.857 -12.426  1.00  0.00     0.029 A 
ATOM     52  C   UNL     1      -3.127  10.296 -12.574  1.00  0.00     0.049 A 
ATOM     53  H   UNL     1      -1.313  11.317 -12.672  1.00  0.00     0.167 HD
ATOM     54  C   UNL     1       2.598  13.336 -12.725  1.00  0.00     0.034 A 
ATOM     55  C   UNL     1      -4.109  11.215 -12.673  1.00  0.00     0.034 A 
ATOM     56  C   UNL     1       1.620  14.378 -12.914  1.00  0.00     0.049 A 
ATOM     57  C   UNL     1      -3.727  12.670 -12.821  1.00  0.00     0.074 A 
ATOM     58  C   UNL     1       1.833  15.729 -13.130  1.00  0.00     0.029 A 
ATOM     59  N   UNL     1       0.245  14.189 -12.911  1.00  0.00    -0.354 N 
ATOM     60  N   UNL     1      -2.530  13.211 -12.871  1.00  0.00    -0.248 NA
ATOM     61  C   UNL     1      -4.826  13.637 -12.941  1.00  0.00     0.031 C 
ATOM     62  C   UNL     1       0.590  16.365 -13.190  1.00  0.00     0.029 A 
ATOM     63  C   UNL     1      -0.401  15.401 -13.099  1.00  0.00     0.049 A 
ATOM     64  H   UNL     1      -0.206  13.322 -12.793  1.00  0.00     0.167 HD
ATOM     65  C   UNL     1      -2.739  14.573 -13.076  1.00  0.00     0.074 A 
ATOM     66  C   UNL     1      -4.170  14.766 -13.157  1.00  0.00     0.031 C 
ATOM     67  C   UNL     1      -1.831  15.575 -13.190  1.00  0.00     0.034 A 
BRANCH  54  68
ATOM     68  C   UNL     1       4.060  13.708 -12.724  1.00  0.00     0.023 A 
ATOM     69  C   UNL     1       4.940  13.227 -13.709  1.00  0.00     0.031 A 
ATOM     70  C   UNL     1       4.581  14.557 -11.733  1.00  0.00     0.131 A 
ATOM     71  C   UNL     1       6.302  13.553 -13.651  1.00  0.00     0.055 A 
ATOM     72  C   UNL     1       5.923  14.943 -11.726  1.00  0.00     0.041 A 
ATOM     73  F   UNL     1       3.794  15.027 -10.752  1.00  0.00    -0.206 F 
ATOM     74  C   UNL     1       6.795  14.432 -12.683  1.00  0.00     0.022 A 
BRANCH  71  75
ATOM     75  S   UNL     1       7.442  12.719 -14.788  1.00  0.00     0.124 S 
ATOM     76  O   UNL     1       7.260  11.319 -14.412  1.00  0.00    -0.237 OA
ATOM     77  O   UNL     1       6.921  13.102 -16.095  1.00  0.00    -0.237 OA
ATOM     78  O   UNL     1       8.744  13.286 -14.444  1.00  0.00    -0.744 OA
ENDBRANCH  71  75
ENDBRANCH  54  68
BRANCH  55  79
ATOM     79  C   UNL     1      -5.548  10.816 -12.616  1.00  0.00     0.023 A 
ATOM     80  C   UNL     1      -6.418  11.100 -13.681  1.00  0.00     0.031 A 
ATOM     81  C   UNL     1      -6.097  10.236 -11.458  1.00  0.00     0.131 A 
ATOM     82  C   UNL     1      -7.797  10.884 -13.536  1.00  0.00     0.055 A 
ATOM     83  C   UNL     1      -7.460   9.951 -11.349  1.00  0.00     0.041 A 
ATOM     84  F   UNL     1      -5.315   9.941 -10.407  1.00  0.00    -0.206 F 
ATOM     85  C   UNL     1      -8.322  10.297 -12.384  1.00  0.00     0.022 A 
BRANCH  82  86
ATOM     86  S   UNL     1      -8.911  11.524 -14.817  1.00  0.00     0.124 S 
ATOM     87  O   UNL     1      -8.528  12.931 -14.864  1.00  0.00    -0.237 OA
ATOM     88  O   UNL     1      -8.536  10.718 -15.974  1.00  0.00    -0.237 OA
ATOM     89  O   UNL     1     -10.241  11.256 -14.275  1.00  0.00    -0.744 OA
ENDBRANCH  82  86
ENDBRANCH  55  79
BRANCH  67  90
ATOM     90  C   UNL     1      -2.360  16.957 -13.489  1.00  0.00     0.023 A 
ATOM     91  C   UNL     1      -3.162  17.662 -12.576  1.00  0.00     0.031 A 
ATOM     92  C   UNL     1      -2.058  17.574 -14.717  1.00  0.00     0.131 A 
ATOM     93  C   UNL     1      -3.686  18.915 -12.929  1.00  0.00     0.055 A 
ATOM     94  C   UNL     1      -2.525  18.850 -15.034  1.00  0.00     0.041 A 
ATOM     95  F   UNL     1      -1.298  16.947 -15.629  1.00  0.00    -0.206 F 
ATOM     96  C   UNL     1      -3.357  19.522 -14.143  1.00  0.00     0.022 A 
BRANCH  93  97
ATOM     97  S   UNL     1      -4.890  19.698 -11.821  1.00  0.00     0.124 S 
ATOM     98  O   UNL     1      -5.937  18.684 -11.744  1.00  0.00    -0.237 OA
ATOM     99  O   UNL     1      -4.109  19.899 -10.604  1.00  0.00    -0.237 OA
ATOM    100  O   UNL     1      -5.262  20.922 -12.528  1.00  0.00    -0.744 OA
ENDBRANCH  93  97
ENDBRANCH  67  90
ENDBRANCH  41  42
ENDBRANCH  33  36
ENDBRANCH  31  32
ENDBRANCH   1  31
TORSDOF 18
