REMARK SMILES CC(C)(C)[N@H+](CCC(=O)NCCCCNC(=O)c1ccc(-c2c3nc(c(-c4cc(S(=O)(=O)[O-])ccc4F)c4ccc([nH]4)c(-c4cc(S(=O)(=O)[O-])ccc4F)c4nc(c(-c5cc(S(=O)(=O)[O-])ccc5F)c5ccc2[nH]5)C=C4)C=C3)cc1)Cc1ccccc1C1CC1
REMARK SMILES IDX 11 1 10 2 8 3 9 4 7 6 6 7 5 8 2 10 1 11 3 12 4 13 81 14
REMARK SMILES IDX 82 15 83 16 87 17 84 18 86 19 85 20 88 21 89 22 90 23 12 24
REMARK SMILES IDX 13 25 14 26 15 27 16 28 17 30 18 31 19 32 80 33 20 34 79 35
REMARK SMILES IDX 21 36 22 37 23 38 73 39 24 40 78 41 72 42 74 43 25 44 77 45
REMARK SMILES IDX 71 46 70 47 26 49 58 50 38 51 57 52 39 53 42 54 56 55 75 56
REMARK SMILES IDX 40 57 41 58 55 60 76 61 43 62 27 63 28 64 36 65 29 66 35 67
REMARK SMILES IDX 37 68 34 69 30 70 31 71 32 72 33 73 59 74 60 75 68 76 61 77
REMARK SMILES IDX 67 78 69 79 66 80 62 81 63 82 64 83 65 84 44 85 45 86 53 87
REMARK SMILES IDX 46 88 52 89 54 90 51 91 47 92 48 93 49 94 50 95
REMARK H PARENT 10 5 5 9 15 29 74 48 42 59
REMARK Flexibility Score: inf
ROOT
ATOM      1  C   UNL     1      -0.523   3.510   3.236  1.00  0.00     0.116 C 
ENDROOT
BRANCH   1   2
ATOM      2  N   UNL     1       0.725   2.784   3.502  1.00  0.00    -0.356 N 
ATOM      3  C   UNL     1       1.951   3.317   3.137  1.00  0.00     0.225 C 
ATOM      4  O   UNL     1       2.445   4.219   3.819  1.00  0.00    -0.275 OA
ATOM      5  H   UNL     1       0.690   1.907   3.947  1.00  0.00     0.163 HD
BRANCH   3   6
ATOM      6  C   UNL     1       2.824   2.630   2.092  1.00  0.00     0.161 C 
BRANCH   6   7
ATOM      7  C   UNL     1       2.221   1.549   1.209  1.00  0.00     0.272 C 
BRANCH   7   8
ATOM      8  N   UNL     1       1.584   1.948  -0.068  1.00  0.00    -0.327 N 
ATOM      9  H   UNL     1       2.324   2.205  -0.721  1.00  0.00     0.348 HD
BRANCH   8  10
ATOM     10  C   UNL     1       0.847   0.785  -0.698  1.00  0.00     0.089 C 
ATOM     11  C   UNL     1       1.578  -0.587  -0.567  1.00  0.00     0.078 C 
ATOM     12  C   UNL     1       0.733   1.041  -2.218  1.00  0.00     0.078 C 
ATOM     13  C   UNL     1      -0.566   0.574  -0.104  1.00  0.00     0.078 C 
ENDBRANCH   8  10
BRANCH   8  14
ATOM     14  C   UNL     1       0.743   3.188   0.077  1.00  0.00     0.299 C 
BRANCH  14  15
ATOM     15  C   UNL     1       1.416   4.564  -0.121  1.00  0.00     0.010 A 
ATOM     16  C   UNL     1       2.273   4.556  -1.262  1.00  0.00     0.010 A 
ATOM     17  C   UNL     1       1.090   5.838   0.474  1.00  0.00    -0.036 A 
ATOM     18  C   UNL     1       2.711   5.715  -1.896  1.00  0.00     0.001 A 
ATOM     19  C   UNL     1       1.558   6.980  -0.249  1.00  0.00     0.004 A 
ATOM     20  C   UNL     1       2.325   6.938  -1.403  1.00  0.00     0.000 A 
BRANCH  17  21
ATOM     21  C   UNL     1       0.160   6.314   1.633  1.00  0.00     0.020 C 
ATOM     22  C   UNL     1       0.158   6.350   3.152  1.00  0.00     0.009 C 
ATOM     23  C   UNL     1       0.898   7.411   2.486  1.00  0.00     0.009 C 
ENDBRANCH  17  21
ENDBRANCH  14  15
ENDBRANCH   8  14
ENDBRANCH   7   8
ENDBRANCH   6   7
ENDBRANCH   3   6
ENDBRANCH   1   2
BRANCH   1  24
ATOM     24  C   UNL     1      -1.839   2.740   3.229  1.00  0.00     0.023 C 
BRANCH  24  25
ATOM     25  C   UNL     1      -3.003   3.677   2.814  1.00  0.00     0.023 C 
BRANCH  25  26
ATOM     26  C   UNL     1      -3.020   4.085   1.331  1.00  0.00     0.116 C 
BRANCH  26  27
ATOM     27  N   UNL     1      -4.096   3.439   0.602  1.00  0.00    -0.352 N 
ATOM     28  C   UNL     1      -5.407   3.829   0.446  1.00  0.00     0.251 C 
ATOM     29  H   UNL     1      -3.852   2.597   0.152  1.00  0.00     0.163 HD
ATOM     30  O   UNL     1      -6.226   3.027   0.016  1.00  0.00    -0.269 OA
BRANCH  28  31
ATOM     31  C   UNL     1      -5.838   5.197   0.821  1.00  0.00     0.039 A 
ATOM     32  C   UNL     1      -6.962   5.345   1.637  1.00  0.00     0.014 A 
ATOM     33  C   UNL     1      -5.196   6.330   0.311  1.00  0.00     0.014 A 
ATOM     34  C   UNL     1      -7.418   6.625   1.972  1.00  0.00     0.010 A 
ATOM     35  C   UNL     1      -5.621   7.608   0.693  1.00  0.00     0.010 A 
ATOM     36  C   UNL     1      -6.742   7.773   1.523  1.00  0.00    -0.014 A 
BRANCH  36  37
ATOM     37  C   UNL     1      -7.220   9.133   1.915  1.00  0.00     0.031 A 
ATOM     38  C   UNL     1      -7.733  10.100   0.877  1.00  0.00     0.074 A 
ATOM     39  C   UNL     1      -7.191   9.502   3.213  1.00  0.00     0.049 A 
ATOM     40  N   UNL     1      -8.194  11.316   1.033  1.00  0.00    -0.248 NA
ATOM     41  C   UNL     1      -7.704   9.649  -0.522  1.00  0.00     0.031 C 
ATOM     42  C   UNL     1      -6.688   8.674   4.312  1.00  0.00     0.029 A 
ATOM     43  N   UNL     1      -7.598  10.658   3.834  1.00  0.00    -0.354 N 
ATOM     44  C   UNL     1      -8.508  11.775  -0.243  1.00  0.00     0.074 A 
ATOM     45  C   UNL     1      -8.122  10.729  -1.166  1.00  0.00     0.031 C 
ATOM     46  C   UNL     1      -6.851   9.332   5.471  1.00  0.00     0.029 A 
ATOM     47  C   UNL     1      -7.425  10.647   5.201  1.00  0.00     0.049 A 
ATOM     48  H   UNL     1      -7.979  11.425   3.347  1.00  0.00     0.167 HD
ATOM     49  C   UNL     1      -9.087  12.947  -0.611  1.00  0.00     0.034 A 
ATOM     50  C   UNL     1      -7.691  11.587   6.132  1.00  0.00     0.034 A 
ATOM     51  C   UNL     1      -9.477  13.980   0.319  1.00  0.00     0.049 A 
ATOM     52  C   UNL     1      -8.305  12.894   5.692  1.00  0.00     0.074 A 
ATOM     53  C   UNL     1     -10.109  15.184   0.055  1.00  0.00     0.029 A 
ATOM     54  N   UNL     1      -9.267  13.940   1.692  1.00  0.00    -0.354 N 
ATOM     55  N   UNL     1      -8.643  13.284   4.484  1.00  0.00    -0.248 NA
ATOM     56  C   UNL     1      -8.587  13.880   6.743  1.00  0.00     0.031 C 
ATOM     57  C   UNL     1     -10.214  15.900   1.252  1.00  0.00     0.029 A 
ATOM     58  C   UNL     1      -9.727  15.109   2.280  1.00  0.00     0.049 A 
ATOM     59  H   UNL     1      -8.853  13.190   2.177  1.00  0.00     0.167 HD
ATOM     60  C   UNL     1      -9.206  14.549   4.639  1.00  0.00     0.074 A 
ATOM     61  C   UNL     1      -9.188  14.841   6.057  1.00  0.00     0.031 C 
ATOM     62  C   UNL     1      -9.693  15.396   3.695  1.00  0.00     0.034 A 
BRANCH  49  63
ATOM     63  C   UNL     1      -9.319  13.182  -2.086  1.00  0.00     0.023 A 
ATOM     64  C   UNL     1     -10.184  12.368  -2.838  1.00  0.00     0.031 A 
ATOM     65  C   UNL     1      -8.668  14.237  -2.753  1.00  0.00     0.131 A 
ATOM     66  C   UNL     1     -10.325  12.578  -4.218  1.00  0.00     0.055 A 
ATOM     67  C   UNL     1      -8.875  14.491  -4.110  1.00  0.00     0.041 A 
ATOM     68  F   UNL     1      -7.815  15.038  -2.095  1.00  0.00    -0.206 F 
ATOM     69  C   UNL     1      -9.698  13.651  -4.855  1.00  0.00     0.022 A 
BRANCH  66  70
ATOM     70  S   UNL     1     -11.236  11.351  -5.194  1.00  0.00     0.124 S 
ATOM     71  O   UNL     1     -10.463  10.138  -4.936  1.00  0.00    -0.237 OA
ATOM     72  O   UNL     1     -12.567  11.399  -4.600  1.00  0.00    -0.237 OA
ATOM     73  O   UNL     1     -11.143  11.861  -6.561  1.00  0.00    -0.744 OA
ENDBRANCH  66  70
ENDBRANCH  49  63
BRANCH  50  74
ATOM     74  C   UNL     1      -7.368  11.351   7.572  1.00  0.00     0.023 A 
ATOM     75  C   UNL     1      -8.373  11.360   8.553  1.00  0.00     0.031 A 
ATOM     76  C   UNL     1      -6.038  11.186   7.998  1.00  0.00     0.131 A 
ATOM     77  C   UNL     1      -8.028  11.272   9.912  1.00  0.00     0.055 A 
ATOM     78  C   UNL     1      -5.706  11.032   9.345  1.00  0.00     0.041 A 
ATOM     79  F   UNL     1      -5.035  11.170   7.105  1.00  0.00    -0.206 F 
ATOM     80  C   UNL     1      -6.703  11.093  10.313  1.00  0.00     0.022 A 
BRANCH  77  81
ATOM     81  S   UNL     1      -9.326  11.517  11.156  1.00  0.00     0.124 S 
ATOM     82  O   UNL     1      -9.849  12.827  10.784  1.00  0.00    -0.237 OA
ATOM     83  O   UNL     1     -10.204  10.380  10.904  1.00  0.00    -0.237 OA
ATOM     84  O   UNL     1      -8.597  11.472  12.421  1.00  0.00    -0.744 OA
ENDBRANCH  77  81
ENDBRANCH  50  74
BRANCH  62  85
ATOM     85  C   UNL     1     -10.283  16.699   4.181  1.00  0.00     0.023 A 
ATOM     86  C   UNL     1      -9.497  17.673   4.823  1.00  0.00     0.031 A 
ATOM     87  C   UNL     1     -11.656  16.959   4.026  1.00  0.00     0.131 A 
ATOM     88  C   UNL     1     -10.101  18.825   5.349  1.00  0.00     0.055 A 
ATOM     89  C   UNL     1     -12.239  18.141   4.487  1.00  0.00     0.041 A 
ATOM     90  F   UNL     1     -12.458  16.066   3.424  1.00  0.00    -0.206 F 
ATOM     91  C   UNL     1     -11.463  19.074   5.169  1.00  0.00     0.022 A 
BRANCH  88  92
ATOM     92  S   UNL     1      -9.102  19.937   6.377  1.00  0.00     0.124 S 
ATOM     93  O   UNL     1      -8.633  19.039   7.428  1.00  0.00    -0.237 OA
ATOM     94  O   UNL     1      -8.087  20.403   5.438  1.00  0.00    -0.237 OA
ATOM     95  O   UNL     1     -10.058  20.954   6.811  1.00  0.00    -0.744 OA
ENDBRANCH  88  92
ENDBRANCH  62  85
ENDBRANCH  36  37
ENDBRANCH  28  31
ENDBRANCH  26  27
ENDBRANCH  25  26
ENDBRANCH  24  25
ENDBRANCH   1  24
TORSDOF 20
