REMARK SMILES C[C@@H]1[C@@H](C(=O)NCCCCNC(=O)c2ccc(-c3c4nc(c(-c5cc(S(=O)(=O)[O-])ccc5F)c5ccc([nH]5)c(-c5cc(S(=O)(=O)[O-])ccc5F)c5nc(c(-c6cc(S(=O)(=O)[O-])ccc6F)c6ccc3[nH]6)C=C5)C=C4)cc2)CCN1C(=O)CN1C(=O)CNC1=O
REMARK SMILES IDX 8 1 7 2 6 3 4 4 5 5 3 7 1 8 2 9 79 10 77 11 78 12 80 13
REMARK SMILES IDX 81 14 82 15 83 16 84 17 88 18 85 19 86 20 87 21 89 22 9 24
REMARK SMILES IDX 10 25 11 26 12 27 13 29 14 30 15 31 76 32 16 33 75 34 17 35
REMARK SMILES IDX 18 36 19 37 69 38 20 39 74 40 68 41 70 42 21 43 73 44 67 45
REMARK SMILES IDX 66 46 22 48 54 49 34 50 53 51 35 52 38 53 52 54 71 55 36 56
REMARK SMILES IDX 37 57 51 59 72 60 39 61 23 62 24 63 32 64 25 65 31 66 33 67
REMARK SMILES IDX 30 68 26 69 27 70 28 71 29 72 55 73 56 74 64 75 57 76 63 77
REMARK SMILES IDX 65 78 62 79 58 80 59 81 60 82 61 83 40 84 41 85 49 86 42 87
REMARK SMILES IDX 48 88 50 89 47 90 43 91 44 92 45 93 46 94
REMARK H PARENT 6 6 87 23 11 28 70 47 38 58
REMARK Flexibility Score: inf
ROOT
ATOM      1  C   UNL     1      -2.867   4.396  -1.082  1.00  0.00     0.023 C 
ENDROOT
BRANCH   1   2
ATOM      2  C   UNL     1      -2.459   2.983  -0.676  1.00  0.00     0.116 C 
BRANCH   2   3
ATOM      3  N   UNL     1      -1.538   2.385  -1.618  1.00  0.00    -0.356 N 
ATOM      4  C   UNL     1      -0.425   1.636  -1.395  1.00  0.00     0.225 C 
ATOM      5  O   UNL     1       0.380   1.557  -2.328  1.00  0.00    -0.275 OA
ATOM      6  H   UNL     1      -1.749   2.545  -2.566  1.00  0.00     0.163 HD
BRANCH   4   7
ATOM      7  C   UNL     1      -0.090   1.090  -0.005  1.00  0.00     0.102 C 
ATOM      8  C   UNL     1       1.939  -0.057   0.998  1.00  0.00     0.032 C 
ATOM      9  C   UNL     1       0.896  -0.102  -0.121  1.00  0.00     0.094 C 
ATOM     10  N   UNL     1       0.048  -1.303  -0.010  1.00  0.00    -0.338 N 
ATOM     11  C   UNL     1      -1.215   0.488   0.844  1.00  0.00     0.037 C 
ATOM     12  C   UNL     1      -1.289  -0.963   0.420  1.00  0.00     0.121 C 
BRANCH  10  13
ATOM     13  C   UNL     1       0.269  -2.572  -0.524  1.00  0.00     0.243 C 
ATOM     14  O   UNL     1      -0.579  -3.465  -0.447  1.00  0.00    -0.273 OA
BRANCH  13  15
ATOM     15  C   UNL     1       1.577  -2.814  -1.265  1.00  0.00     0.230 C 
BRANCH  15  16
ATOM     16  N   UNL     1       1.537  -2.599  -2.697  1.00  0.00    -0.253 N 
ATOM     17  C   UNL     1       2.525  -3.051  -3.528  1.00  0.00     0.250 C 
ATOM     18  C   UNL     1       0.748  -1.705  -3.357  1.00  0.00     0.325 C 
ATOM     19  O   UNL     1       3.417  -3.837  -3.236  1.00  0.00    -0.272 OA
ATOM     20  C   UNL     1       2.381  -2.370  -4.878  1.00  0.00     0.218 C 
ATOM     21  N   UNL     1       1.245  -1.539  -4.628  1.00  0.00    -0.329 N 
ATOM     22  O   UNL     1      -0.245  -1.133  -2.951  1.00  0.00    -0.248 OA
ATOM     23  H   UNL     1       0.863  -0.918  -5.290  1.00  0.00     0.165 HD
ENDBRANCH  15  16
ENDBRANCH  13  15
ENDBRANCH  10  13
ENDBRANCH   4   7
ENDBRANCH   2   3
ENDBRANCH   1   2
BRANCH   1  24
ATOM     24  C   UNL     1      -3.682   4.501  -2.372  1.00  0.00     0.023 C 
BRANCH  24  25
ATOM     25  C   UNL     1      -4.951   3.655  -2.420  1.00  0.00     0.116 C 
BRANCH  25  26
ATOM     26  N   UNL     1      -5.875   3.960  -1.338  1.00  0.00    -0.352 N 
ATOM     27  C   UNL     1      -7.164   4.438  -1.382  1.00  0.00     0.251 C 
ATOM     28  H   UNL     1      -5.522   3.800  -0.433  1.00  0.00     0.163 HD
ATOM     29  O   UNL     1      -7.711   4.787  -0.340  1.00  0.00    -0.269 OA
BRANCH  27  30
ATOM     30  C   UNL     1      -7.873   4.561  -2.675  1.00  0.00     0.039 A 
ATOM     31  C   UNL     1      -8.616   5.717  -2.933  1.00  0.00     0.014 A 
ATOM     32  C   UNL     1      -7.812   3.545  -3.631  1.00  0.00     0.014 A 
ATOM     33  C   UNL     1      -9.229   5.886  -4.178  1.00  0.00     0.010 A 
ATOM     34  C   UNL     1      -8.350   3.752  -4.899  1.00  0.00     0.010 A 
ATOM     35  C   UNL     1      -9.068   4.923  -5.187  1.00  0.00    -0.014 A 
BRANCH  35  36
ATOM     36  C   UNL     1      -9.652   5.111  -6.543  1.00  0.00     0.031 A 
ATOM     37  C   UNL     1     -10.682   4.141  -7.058  1.00  0.00     0.074 A 
ATOM     38  C   UNL     1      -9.209   6.108  -7.335  1.00  0.00     0.049 A 
ATOM     39  N   UNL     1     -11.239   4.071  -8.241  1.00  0.00    -0.248 NA
ATOM     40  C   UNL     1     -11.116   3.089  -6.127  1.00  0.00     0.031 C 
ATOM     41  C   UNL     1      -8.188   7.091  -6.966  1.00  0.00     0.029 A 
ATOM     42  N   UNL     1      -9.554   6.457  -8.617  1.00  0.00    -0.354 N 
ATOM     43  C   UNL     1     -12.074   2.959  -8.201  1.00  0.00     0.074 A 
ATOM     44  C   UNL     1     -11.895   2.349  -6.901  1.00  0.00     0.031 C 
ATOM     45  C   UNL     1      -8.009   7.944  -7.987  1.00  0.00     0.029 A 
ATOM     46  C   UNL     1      -8.863   7.545  -9.101  1.00  0.00     0.049 A 
ATOM     47  H   UNL     1     -10.232   5.973  -9.143  1.00  0.00     0.167 HD
ATOM     48  C   UNL     1     -12.930   2.503  -9.150  1.00  0.00     0.034 A 
ATOM     49  C   UNL     1      -8.905   8.145 -10.307  1.00  0.00     0.034 A 
ATOM     50  C   UNL     1     -13.107   3.131 -10.438  1.00  0.00     0.049 A 
ATOM     51  C   UNL     1      -9.847   7.609 -11.356  1.00  0.00     0.074 A 
ATOM     52  C   UNL     1     -13.976   2.782 -11.456  1.00  0.00     0.029 A 
ATOM     53  N   UNL     1     -12.395   4.237 -10.888  1.00  0.00    -0.354 N 
ATOM     54  N   UNL     1     -10.660   6.580 -11.290  1.00  0.00    -0.248 NA
ATOM     55  C   UNL     1      -9.886   8.325 -12.638  1.00  0.00     0.031 C 
ATOM     56  C   UNL     1     -13.745   3.632 -12.543  1.00  0.00     0.029 A 
ATOM     57  C   UNL     1     -12.789   4.566 -12.177  1.00  0.00     0.049 A 
ATOM     58  H   UNL     1     -11.711   4.718 -10.368  1.00  0.00     0.167 HD
ATOM     59  C   UNL     1     -11.335   6.551 -12.508  1.00  0.00     0.074 A 
ATOM     60  C   UNL     1     -10.840   7.670 -13.283  1.00  0.00     0.031 C 
ATOM     61  C   UNL     1     -12.284   5.682 -12.942  1.00  0.00     0.034 A 
BRANCH  48  62
ATOM     62  C   UNL     1     -13.716   1.253  -8.830  1.00  0.00     0.023 A 
ATOM     63  C   UNL     1     -14.617   1.203  -7.750  1.00  0.00     0.031 A 
ATOM     64  C   UNL     1     -13.535   0.081  -9.585  1.00  0.00     0.131 A 
ATOM     65  C   UNL     1     -15.228  -0.010  -7.401  1.00  0.00     0.055 A 
ATOM     66  C   UNL     1     -14.218  -1.101  -9.288  1.00  0.00     0.041 A 
ATOM     67  F   UNL     1     -12.675   0.057 -10.616  1.00  0.00    -0.206 F 
ATOM     68  C   UNL     1     -15.056  -1.157  -8.178  1.00  0.00     0.022 A 
BRANCH  65  69
ATOM     69  S   UNL     1     -16.118  -0.106  -5.822  1.00  0.00     0.124 S 
ATOM     70  O   UNL     1     -15.071   0.261  -4.872  1.00  0.00    -0.237 OA
ATOM     71  O   UNL     1     -17.187   0.869  -6.003  1.00  0.00    -0.237 OA
ATOM     72  O   UNL     1     -16.548  -1.501  -5.755  1.00  0.00    -0.744 OA
ENDBRANCH  65  69
ENDBRANCH  48  62
BRANCH  49  73
ATOM     73  C   UNL     1      -8.031   9.318 -10.599  1.00  0.00     0.023 A 
ATOM     74  C   UNL     1      -8.583  10.583 -10.856  1.00  0.00     0.031 A 
ATOM     75  C   UNL     1      -6.633   9.184 -10.664  1.00  0.00     0.131 A 
ATOM     76  C   UNL     1      -7.747  11.652 -11.215  1.00  0.00     0.055 A 
ATOM     77  C   UNL     1      -5.801  10.264 -10.968  1.00  0.00     0.041 A 
ATOM     78  F   UNL     1      -6.052   7.998 -10.421  1.00  0.00    -0.206 F 
ATOM     79  C   UNL     1      -6.359  11.504 -11.259  1.00  0.00     0.022 A 
BRANCH  76  80
ATOM     80  S   UNL     1      -8.508  13.224 -11.705  1.00  0.00     0.124 S 
ATOM     81  O   UNL     1      -9.339  12.813 -12.831  1.00  0.00    -0.237 OA
ATOM     82  O   UNL     1      -9.219  13.608 -10.489  1.00  0.00    -0.237 OA
ATOM     83  O   UNL     1      -7.363  14.065 -12.046  1.00  0.00    -0.744 OA
ENDBRANCH  76  80
ENDBRANCH  49  73
BRANCH  61  84
ATOM     84  C   UNL     1     -12.891   5.950 -14.299  1.00  0.00     0.023 A 
ATOM     85  C   UNL     1     -12.142   5.851 -15.484  1.00  0.00     0.031 A 
ATOM     86  C   UNL     1     -14.244   6.323 -14.402  1.00  0.00     0.131 A 
ATOM     87  C   UNL     1     -12.733   6.178 -16.714  1.00  0.00     0.055 A 
ATOM     88  C   UNL     1     -14.843   6.585 -15.634  1.00  0.00     0.041 A 
ATOM     89  F   UNL     1     -15.007   6.436 -13.303  1.00  0.00    -0.206 F 
ATOM     90  C   UNL     1     -14.083   6.528 -16.798  1.00  0.00     0.022 A 
BRANCH  87  91
ATOM     91  S   UNL     1     -11.688   6.238 -18.196  1.00  0.00     0.124 S 
ATOM     92  O   UNL     1     -10.672   7.214 -17.812  1.00  0.00    -0.237 OA
ATOM     93  O   UNL     1     -11.232   4.857 -18.312  1.00  0.00    -0.237 OA
ATOM     94  O   UNL     1     -12.605   6.678 -19.245  1.00  0.00    -0.744 OA
ENDBRANCH  87  91
ENDBRANCH  61  84
ENDBRANCH  35  36
ENDBRANCH  27  30
ENDBRANCH  25  26
ENDBRANCH  24  25
ENDBRANCH   1  24
TORSDOF 17
