REMARK SMILES C[NH+]1CCC(C[N@H+](C)[C@H]2CC[C@]([NH3+])(C(=O)NCCCCNC(=O)c3ccc(-c4c5nc(c(-c6cc(S(=O)(=O)[O-])ccc6F)c6ccc([nH]6)c(-c6cc(S(=O)(=O)[O-])ccc6F)c6nc(c(-c7cc(S(=O)(=O)[O-])ccc7F)c7ccc4[nH]7)C=C6)C=C5)cc3)C2)CC1
REMARK SMILES IDX 18 1 17 2 16 3 14 4 15 5 12 7 9 8 10 9 87 10 11 11 7 12 8 13
REMARK SMILES IDX 6 15 5 16 1 17 2 18 3 19 89 20 4 22 88 23 13 24 19 28 20 29
REMARK SMILES IDX 21 30 22 31 23 33 24 34 25 35 86 36 26 37 85 38 27 39 28 40
REMARK SMILES IDX 29 41 79 42 30 43 84 44 78 45 80 46 31 47 83 48 77 49 76 50
REMARK SMILES IDX 32 52 64 53 44 54 63 55 45 56 48 57 62 58 81 59 46 60 47 61
REMARK SMILES IDX 61 63 82 64 49 65 33 66 34 67 42 68 35 69 41 70 43 71 40 72
REMARK SMILES IDX 36 73 37 74 38 75 39 76 65 77 66 78 74 79 67 80 73 81 75 82
REMARK SMILES IDX 72 83 68 84 69 85 70 86 71 87 50 88 51 89 59 90 52 91 58 92
REMARK SMILES IDX 60 93 57 94 53 95 54 96 55 97 56 98
REMARK H PARENT 16 6 7 14 2 21 13 25 13 26 13 27 21 32 80 51 48 62
REMARK Flexibility Score: inf
ROOT
ATOM      1  C   UNL     1       5.355  -6.130   3.659  1.00  0.00     0.023 C 
ENDROOT
BRANCH   1   2
ATOM      2  C   UNL     1       6.349  -5.356   2.788  1.00  0.00     0.116 C 
BRANCH   2   3
ATOM      3  N   UNL     1       6.353  -5.683   1.385  1.00  0.00    -0.351 N 
ATOM      4  C   UNL     1       5.598  -5.171   0.369  1.00  0.00     0.281 C 
ATOM      5  O   UNL     1       6.104  -5.239  -0.760  1.00  0.00    -0.268 OA
ATOM      6  H   UNL     1       6.996  -6.379   1.119  1.00  0.00     0.163 HD
BRANCH   4   7
ATOM      7  C   UNL     1       4.085  -4.780   0.557  1.00  0.00     0.179 C 
ATOM      8  C   UNL     1       3.101  -2.583  -0.235  1.00  0.00     0.190 C 
ATOM      9  C   UNL     1       3.634  -2.466   1.198  1.00  0.00     0.072 C 
ATOM     10  C   UNL     1       3.603  -3.973  -0.696  1.00  0.00     0.144 C 
ATOM     11  C   UNL     1       3.661  -3.886   1.734  1.00  0.00     0.085 C 
BRANCH   8  12
ATOM     12  N   UNL     1       1.656  -2.212  -0.278  1.00  0.00    -0.334 N 
ATOM     13  C   UNL     1       1.508  -0.935  -0.996  1.00  0.00     0.332 C 
ATOM     14  H   UNL     1       1.401  -2.166   0.709  1.00  0.00     0.348 HD
BRANCH  12  15
ATOM     15  C   UNL     1       0.695  -3.183  -0.837  1.00  0.00     0.266 C 
BRANCH  15  16
ATOM     16  C   UNL     1       0.451  -4.375   0.092  1.00  0.00     0.055 C 
ATOM     17  C   UNL     1      -0.359  -7.649   2.578  1.00  0.00     0.332 C 
ATOM     18  N   UNL     1      -0.707  -6.514   1.710  1.00  0.00    -0.337 N 
ATOM     19  C   UNL     1      -0.208  -6.770   0.350  1.00  0.00     0.262 C 
ATOM     20  C   UNL     1      -0.213  -5.270   2.321  1.00  0.00     0.262 C 
ATOM     21  H   UNL     1      -1.717  -6.403   1.621  1.00  0.00     0.347 HD
ATOM     22  C   UNL     1      -0.260  -5.549  -0.577  1.00  0.00     0.071 C 
ATOM     23  C   UNL     1      -0.284  -4.051   1.393  1.00  0.00     0.071 C 
ENDBRANCH  15  16
ENDBRANCH  12  15
ENDBRANCH   8  12
BRANCH   7  24
ATOM     24  N   UNL     1       3.429  -6.107   0.659  1.00  0.00    -0.345 N 
ATOM     25  H   UNL     1       2.425  -5.981   0.786  1.00  0.00     0.345 HD
ATOM     26  H   UNL     1       3.812  -6.614   1.457  1.00  0.00     0.345 HD
ATOM     27  H   UNL     1       3.600  -6.637  -0.195  1.00  0.00     0.345 HD
ENDBRANCH   7  24
ENDBRANCH   4   7
ENDBRANCH   2   3
ENDBRANCH   1   2
BRANCH   1  28
ATOM     28  C   UNL     1       5.766  -7.546   4.074  1.00  0.00     0.023 C 
BRANCH  28  29
ATOM     29  C   UNL     1       7.221  -7.712   4.491  1.00  0.00     0.116 C 
BRANCH  29  30
ATOM     30  N   UNL     1       7.690  -6.689   5.413  1.00  0.00    -0.352 N 
ATOM     31  C   UNL     1       8.878  -6.659   6.111  1.00  0.00     0.251 C 
ATOM     32  H   UNL     1       7.086  -5.925   5.556  1.00  0.00     0.163 HD
ATOM     33  O   UNL     1       9.132  -5.738   6.864  1.00  0.00    -0.269 OA
BRANCH  31  34
ATOM     34  C   UNL     1       9.790  -7.815   5.979  1.00  0.00     0.039 A 
ATOM     35  C   UNL     1      10.131  -8.516   7.136  1.00  0.00     0.014 A 
ATOM     36  C   UNL     1      10.219  -8.254   4.725  1.00  0.00     0.014 A 
ATOM     37  C   UNL     1      10.842  -9.710   7.028  1.00  0.00     0.010 A 
ATOM     38  C   UNL     1      10.864  -9.480   4.614  1.00  0.00     0.010 A 
ATOM     39  C   UNL     1      11.174 -10.223   5.763  1.00  0.00    -0.014 A 
BRANCH  39  40
ATOM     40  C   UNL     1      11.855 -11.535   5.628  1.00  0.00     0.031 A 
ATOM     41  C   UNL     1      13.248 -11.594   5.069  1.00  0.00     0.074 A 
ATOM     42  C   UNL     1      11.200 -12.665   5.963  1.00  0.00     0.049 A 
ATOM     43  N   UNL     1      13.988 -12.638   4.801  1.00  0.00    -0.248 NA
ATOM     44  C   UNL     1      13.882 -10.307   4.744  1.00  0.00     0.031 C 
ATOM     45  C   UNL     1       9.831 -12.727   6.482  1.00  0.00     0.029 A 
ATOM     46  N   UNL     1      11.593 -13.978   5.912  1.00  0.00    -0.354 N 
ATOM     47  C   UNL     1      15.174 -12.135   4.279  1.00  0.00     0.074 A 
ATOM     48  C   UNL     1      15.023 -10.698   4.199  1.00  0.00     0.031 C 
ATOM     49  C   UNL     1       9.508 -14.009   6.719  1.00  0.00     0.029 A 
ATOM     50  C   UNL     1      10.626 -14.863   6.331  1.00  0.00     0.049 A 
ATOM     51  H   UNL     1      12.484 -14.261   5.603  1.00  0.00     0.167 HD
ATOM     52  C   UNL     1      16.299 -12.807   3.929  1.00  0.00     0.034 A 
ATOM     53  C   UNL     1      10.639 -16.210   6.385  1.00  0.00     0.034 A 
ATOM     54  C   UNL     1      16.433 -14.240   4.017  1.00  0.00     0.049 A 
ATOM     55  C   UNL     1      11.890 -16.938   5.954  1.00  0.00     0.074 A 
ATOM     56  C   UNL     1      17.526 -15.027   3.699  1.00  0.00     0.029 A 
ATOM     57  N   UNL     1      15.437 -15.103   4.457  1.00  0.00    -0.354 N 
ATOM     58  N   UNL     1      13.017 -16.442   5.494  1.00  0.00    -0.248 NA
ATOM     59  C   UNL     1      11.878 -18.402   6.065  1.00  0.00     0.031 C 
ATOM     60  C   UNL     1      17.175 -16.366   3.898  1.00  0.00     0.029 A 
ATOM     61  C   UNL     1      15.887 -16.413   4.406  1.00  0.00     0.049 A 
ATOM     62  H   UNL     1      14.543 -14.825   4.762  1.00  0.00     0.167 HD
ATOM     63  C   UNL     1      13.857 -17.535   5.297  1.00  0.00     0.074 A 
ATOM     64  C   UNL     1      13.115 -18.709   5.704  1.00  0.00     0.031 C 
ATOM     65  C   UNL     1      15.129 -17.569   4.823  1.00  0.00     0.034 A 
BRANCH  52  66
ATOM     66  C   UNL     1      17.458 -11.990   3.416  1.00  0.00     0.023 A 
ATOM     67  C   UNL     1      18.104 -11.045   4.234  1.00  0.00     0.031 A 
ATOM     68  C   UNL     1      17.908 -12.131   2.092  1.00  0.00     0.131 A 
ATOM     69  C   UNL     1      19.110 -10.228   3.701  1.00  0.00     0.055 A 
ATOM     70  C   UNL     1      18.966 -11.370   1.591  1.00  0.00     0.041 A 
ATOM     71  F   UNL     1      17.317 -13.001   1.258  1.00  0.00    -0.206 F 
ATOM     72  C   UNL     1      19.565 -10.402   2.392  1.00  0.00     0.022 A 
BRANCH  69  73
ATOM     73  S   UNL     1      19.724  -8.847   4.703  1.00  0.00     0.124 S 
ATOM     74  O   UNL     1      18.512  -8.051   4.880  1.00  0.00    -0.237 OA
ATOM     75  O   UNL     1      20.227  -9.519   5.895  1.00  0.00    -0.237 OA
ATOM     76  O   UNL     1      20.745  -8.235   3.854  1.00  0.00    -0.744 OA
ENDBRANCH  69  73
ENDBRANCH  52  66
BRANCH  53  77
ATOM     77  C   UNL     1       9.441 -16.971   6.846  1.00  0.00     0.023 A 
ATOM     78  C   UNL     1       9.498 -17.787   7.987  1.00  0.00     0.031 A 
ATOM     79  C   UNL     1       8.242 -16.954   6.111  1.00  0.00     0.131 A 
ATOM     80  C   UNL     1       8.406 -18.603   8.321  1.00  0.00     0.055 A 
ATOM     81  C   UNL     1       7.137 -17.721   6.482  1.00  0.00     0.041 A 
ATOM     82  F   UNL     1       8.129 -16.188   5.014  1.00  0.00    -0.206 F 
ATOM     83  C   UNL     1       7.222 -18.567   7.583  1.00  0.00     0.022 A 
BRANCH  80  84
ATOM     84  S   UNL     1       8.603 -19.807   9.664  1.00  0.00     0.124 S 
ATOM     85  O   UNL     1       9.790 -20.538   9.236  1.00  0.00    -0.237 OA
ATOM     86  O   UNL     1       8.768 -18.939  10.825  1.00  0.00    -0.237 OA
ATOM     87  O   UNL     1       7.355 -20.566   9.626  1.00  0.00    -0.744 OA
ENDBRANCH  80  84
ENDBRANCH  53  77
BRANCH  65  88
ATOM     88  C   UNL     1      15.807 -18.915   4.781  1.00  0.00     0.023 A 
ATOM     89  C   UNL     1      15.383 -19.930   3.906  1.00  0.00     0.031 A 
ATOM     90  C   UNL     1      16.886 -19.187   5.640  1.00  0.00     0.131 A 
ATOM     91  C   UNL     1      15.997 -21.190   3.951  1.00  0.00     0.055 A 
ATOM     92  C   UNL     1      17.532 -20.423   5.638  1.00  0.00     0.041 A 
ATOM     93  F   UNL     1      17.331 -18.252   6.495  1.00  0.00    -0.206 F 
ATOM     94  C   UNL     1      17.080 -21.438   4.799  1.00  0.00     0.022 A 
BRANCH  91  95
ATOM     95  S   UNL     1      15.306 -22.531   2.944  1.00  0.00     0.124 S 
ATOM     96  O   UNL     1      13.938 -22.614   3.445  1.00  0.00    -0.237 OA
ATOM     97  O   UNL     1      15.458 -22.013   1.588  1.00  0.00    -0.237 OA
ATOM     98  O   UNL     1      16.156 -23.676   3.267  1.00  0.00    -0.744 OA
ENDBRANCH  91  95
ENDBRANCH  65  88
ENDBRANCH  39  40
ENDBRANCH  31  34
ENDBRANCH  29  30
ENDBRANCH  28  29
ENDBRANCH   1  28
TORSDOF 18
