REMARK SMILES CC/C=C/C/C=C/C/C=C/C/C=C/CCSCCCC(=O)NCCCCNC(=O)c1ccc(-c2c3nc(c(-c4cc(S(=O)(=O)[O-])ccc4F)c4ccc([nH]4)c(-c4cc(S(=O)(=O)[O-])ccc4F)c4nc(c(-c5cc(S(=O)(=O)[O-])ccc5F)c5ccc2[nH]5)C=C4)C=C3)cc1
REMARK SMILES IDX 17 1 16 2 15 3 14 4 13 5 12 6 11 7 10 8 9 9 8 10 7 11 6 12
REMARK SMILES IDX 5 13 4 14 3 15 2 16 1 17 18 18 19 19 20 20 21 21 22 22 23 24
REMARK SMILES IDX 24 25 25 26 26 27 27 28 28 29 29 31 30 32 31 33 92 34 32 35
REMARK SMILES IDX 91 36 33 37 34 38 35 39 85 40 36 41 90 42 84 43 86 44 37 45
REMARK SMILES IDX 89 46 83 47 82 48 38 50 70 51 50 52 69 53 51 54 54 55 68 56
REMARK SMILES IDX 87 57 52 58 53 59 67 61 88 62 55 63 39 64 40 65 48 66 41 67
REMARK SMILES IDX 47 68 49 69 46 70 42 71 43 72 44 73 45 74 71 75 72 76 80 77
REMARK SMILES IDX 73 78 79 79 81 80 78 81 74 82 75 83 76 84 77 85 56 86 57 87
REMARK SMILES IDX 65 88 58 89 64 90 66 91 63 92 59 93 60 94 61 95 62 96
REMARK H PARENT 22 23 27 30 86 49 54 60
REMARK Flexibility Score: inf
ROOT
ATOM      1  C   UNL     1      -6.169  -4.731  12.841  1.00  0.00     0.070 C 
ENDROOT
BRANCH   1   2
ATOM      2  S   UNL     1      -6.633  -6.324  12.036  1.00  0.00    -0.162 SA
BRANCH   2   3
ATOM      3  C   UNL     1      -5.558  -6.641  10.573  1.00  0.00     0.073 C 
BRANCH   3   4
ATOM      4  C   UNL     1      -6.099  -6.216   9.183  1.00  0.00     0.038 C 
BRANCH   4   5
ATOM      5  C   UNL     1      -5.432  -5.017   8.566  1.00  0.00    -0.030 C 
ATOM      6  C   UNL     1      -5.386  -4.653   7.273  1.00  0.00    -0.027 C 
BRANCH   6   7
ATOM      7  C   UNL     1      -4.912  -3.280   6.838  1.00  0.00     0.054 C 
BRANCH   7   8
ATOM      8  C   UNL     1      -3.472  -2.986   7.151  1.00  0.00    -0.027 C 
ATOM      9  C   UNL     1      -2.696  -2.223   6.363  1.00  0.00    -0.027 C 
BRANCH   9  10
ATOM     10  C   UNL     1      -1.239  -1.950   6.608  1.00  0.00     0.054 C 
BRANCH  10  11
ATOM     11  C   UNL     1      -0.433  -2.743   5.622  1.00  0.00    -0.027 C 
ATOM     12  C   UNL     1       0.353  -2.209   4.675  1.00  0.00    -0.027 C 
BRANCH  12  13
ATOM     13  C   UNL     1       0.971  -3.011   3.567  1.00  0.00     0.054 C 
BRANCH  13  14
ATOM     14  C   UNL     1       0.451  -2.518   2.247  1.00  0.00    -0.027 C 
ATOM     15  C   UNL     1       1.219  -2.004   1.274  1.00  0.00    -0.031 C 
BRANCH  15  16
ATOM     16  C   UNL     1       0.668  -1.417   0.007  1.00  0.00     0.023 C 
ATOM     17  C   UNL     1       1.083   0.040  -0.131  1.00  0.00     0.008 C 
ENDBRANCH  15  16
ENDBRANCH  13  14
ENDBRANCH  12  13
ENDBRANCH  10  11
ENDBRANCH   9  10
ENDBRANCH   7   8
ENDBRANCH   6   7
ENDBRANCH   4   5
ENDBRANCH   3   4
ENDBRANCH   2   3
ENDBRANCH   1   2
BRANCH   1  18
ATOM     18  C   UNL     1      -4.768  -4.132  12.915  1.00  0.00     0.021 C 
BRANCH  18  19
ATOM     19  C   UNL     1      -4.070  -3.691  11.644  1.00  0.00     0.101 C 
BRANCH  19  20
ATOM     20  C   UNL     1      -4.389  -2.320  11.070  1.00  0.00     0.220 C 
ATOM     21  O   UNL     1      -3.479  -1.489  10.963  1.00  0.00    -0.275 OA
ATOM     22  N   UNL     1      -5.607  -1.946  10.606  1.00  0.00    -0.356 N 
ATOM     23  H   UNL     1      -5.697  -0.974  10.485  1.00  0.00     0.163 HD
BRANCH  22  24
ATOM     24  C   UNL     1      -6.804  -2.685  10.252  1.00  0.00     0.116 C 
BRANCH  24  25
ATOM     25  C   UNL     1      -8.089  -2.021  10.748  1.00  0.00     0.023 C 
BRANCH  25  26
ATOM     26  C   UNL     1      -9.074  -1.754   9.605  1.00  0.00     0.023 C 
BRANCH  26  27
ATOM     27  C   UNL     1      -9.601  -3.013   8.915  1.00  0.00     0.116 C 
BRANCH  27  28
ATOM     28  N   UNL     1     -10.585  -3.723   9.723  1.00  0.00    -0.352 N 
ATOM     29  C   UNL     1     -11.944  -3.849   9.536  1.00  0.00     0.251 C 
ATOM     30  H   UNL     1     -10.226  -4.179  10.518  1.00  0.00     0.163 HD
ATOM     31  O   UNL     1     -12.642  -4.346  10.403  1.00  0.00    -0.269 OA
BRANCH  29  32
ATOM     32  C   UNL     1     -12.556  -3.338   8.285  1.00  0.00     0.039 A 
ATOM     33  C   UNL     1     -13.623  -2.440   8.371  1.00  0.00     0.014 A 
ATOM     34  C   UNL     1     -12.046  -3.710   7.039  1.00  0.00     0.014 A 
ATOM     35  C   UNL     1     -14.107  -1.831   7.210  1.00  0.00     0.010 A 
ATOM     36  C   UNL     1     -12.486  -3.052   5.892  1.00  0.00     0.010 A 
ATOM     37  C   UNL     1     -13.503  -2.086   5.968  1.00  0.00    -0.014 A 
BRANCH  37  38
ATOM     38  C   UNL     1     -13.872  -1.315   4.748  1.00  0.00     0.031 A 
ATOM     39  C   UNL     1     -14.455  -2.019   3.554  1.00  0.00     0.074 A 
ATOM     40  C   UNL     1     -13.581   0.002   4.683  1.00  0.00     0.049 A 
ATOM     41  N   UNL     1     -14.712  -1.547   2.361  1.00  0.00    -0.248 NA
ATOM     42  C   UNL     1     -14.764  -3.448   3.714  1.00  0.00     0.031 C 
ATOM     43  C   UNL     1     -12.977   0.788   5.763  1.00  0.00     0.029 A 
ATOM     44  N   UNL     1     -13.727   0.909   3.662  1.00  0.00    -0.354 N 
ATOM     45  C   UNL     1     -15.189  -2.623   1.620  1.00  0.00     0.074 A 
ATOM     46  C   UNL     1     -15.151  -3.780   2.490  1.00  0.00     0.031 C 
ATOM     47  C   UNL     1     -12.811   2.054   5.349  1.00  0.00     0.029 A 
ATOM     48  C   UNL     1     -13.239   2.163   3.958  1.00  0.00     0.049 A 
ATOM     49  H   UNL     1     -14.143   0.684   2.798  1.00  0.00     0.167 HD
ATOM     50  C   UNL     1     -15.625  -2.639   0.337  1.00  0.00     0.034 A 
ATOM     51  C   UNL     1     -13.117   3.266   3.191  1.00  0.00     0.034 A 
ATOM     52  C   UNL     1     -15.681  -1.470  -0.507  1.00  0.00     0.049 A 
ATOM     53  C   UNL     1     -13.586   3.211   1.757  1.00  0.00     0.074 A 
ATOM     54  C   UNL     1     -16.204  -1.358  -1.784  1.00  0.00     0.029 A 
ATOM     55  N   UNL     1     -15.184  -0.218  -0.171  1.00  0.00    -0.354 N 
ATOM     56  N   UNL     1     -14.113   2.203   1.100  1.00  0.00    -0.248 NA
ATOM     57  C   UNL     1     -13.446   4.438   0.961  1.00  0.00     0.031 C 
ATOM     58  C   UNL     1     -15.949  -0.065  -2.250  1.00  0.00     0.029 A 
ATOM     59  C   UNL     1     -15.339   0.656  -1.236  1.00  0.00     0.049 A 
ATOM     60  H   UNL     1     -14.779   0.014   0.696  1.00  0.00     0.167 HD
ATOM     61  C   UNL     1     -14.389   2.686  -0.176  1.00  0.00     0.074 A 
ATOM     62  C   UNL     1     -13.990   4.077  -0.191  1.00  0.00     0.031 C 
ATOM     63  C   UNL     1     -14.926   2.038  -1.241  1.00  0.00     0.034 A 
BRANCH  50  64
ATOM     64  C   UNL     1     -16.046  -3.963  -0.251  1.00  0.00     0.023 A 
ATOM     65  C   UNL     1     -17.163  -4.668   0.226  1.00  0.00     0.031 A 
ATOM     66  C   UNL     1     -15.324  -4.517  -1.324  1.00  0.00     0.131 A 
ATOM     67  C   UNL     1     -17.496  -5.912  -0.333  1.00  0.00     0.055 A 
ATOM     68  C   UNL     1     -15.702  -5.720  -1.923  1.00  0.00     0.041 A 
ATOM     69  F   UNL     1     -14.236  -3.897  -1.808  1.00  0.00    -0.206 F 
ATOM     70  C   UNL     1     -16.788  -6.430  -1.421  1.00  0.00     0.022 A 
BRANCH  67  71
ATOM     71  S   UNL     1     -18.801  -6.896   0.453  1.00  0.00     0.124 S 
ATOM     72  O   UNL     1     -18.265  -7.075   1.800  1.00  0.00    -0.237 OA
ATOM     73  O   UNL     1     -19.965  -6.025   0.339  1.00  0.00    -0.237 OA
ATOM     74  O   UNL     1     -18.849  -8.111  -0.358  1.00  0.00    -0.744 OA
ENDBRANCH  67  71
ENDBRANCH  50  64
BRANCH  51  75
ATOM     75  C   UNL     1     -12.483   4.506   3.731  1.00  0.00     0.023 A 
ATOM     76  C   UNL     1     -13.199   5.711   3.813  1.00  0.00     0.031 A 
ATOM     77  C   UNL     1     -11.127   4.523   4.105  1.00  0.00     0.131 A 
ATOM     78  C   UNL     1     -12.544   6.892   4.198  1.00  0.00     0.055 A 
ATOM     79  C   UNL     1     -10.496   5.687   4.548  1.00  0.00     0.041 A 
ATOM     80  F   UNL     1     -10.392   3.401   4.047  1.00  0.00    -0.206 F 
ATOM     81  C   UNL     1     -11.201   6.885   4.580  1.00  0.00     0.022 A 
BRANCH  78  82
ATOM     82  S   UNL     1     -13.444   8.463   4.077  1.00  0.00     0.124 S 
ATOM     83  O   UNL     1     -13.860   8.459   2.679  1.00  0.00    -0.237 OA
ATOM     84  O   UNL     1     -14.504   8.280   5.063  1.00  0.00    -0.237 OA
ATOM     85  O   UNL     1     -12.435   9.460   4.425  1.00  0.00    -0.744 OA
ENDBRANCH  78  82
ENDBRANCH  51  75
BRANCH  63  86
ATOM     86  C   UNL     1     -15.142   2.841  -2.499  1.00  0.00     0.023 A 
ATOM     87  C   UNL     1     -14.064   3.317  -3.265  1.00  0.00     0.031 A 
ATOM     88  C   UNL     1     -16.447   3.123  -2.943  1.00  0.00     0.131 A 
ATOM     89  C   UNL     1     -14.309   4.086  -4.413  1.00  0.00     0.055 A 
ATOM     90  C   UNL     1     -16.684   3.839  -4.117  1.00  0.00     0.041 A 
ATOM     91  F   UNL     1     -17.512   2.696  -2.247  1.00  0.00    -0.206 F 
ATOM     92  C   UNL     1     -15.612   4.333  -4.854  1.00  0.00     0.022 A 
BRANCH  89  93
ATOM     93  S   UNL     1     -12.901   4.817  -5.291  1.00  0.00     0.124 S 
ATOM     94  O   UNL     1     -12.324   5.684  -4.268  1.00  0.00    -0.237 OA
ATOM     95  O   UNL     1     -12.111   3.643  -5.651  1.00  0.00    -0.237 OA
ATOM     96  O   UNL     1     -13.521   5.513  -6.416  1.00  0.00    -0.744 OA
ENDBRANCH  89  93
ENDBRANCH  63  86
ENDBRANCH  37  38
ENDBRANCH  29  32
ENDBRANCH  27  28
ENDBRANCH  26  27
ENDBRANCH  25  26
ENDBRANCH  24  25
ENDBRANCH  22  24
ENDBRANCH  19  20
ENDBRANCH  18  19
ENDBRANCH   1  18
TORSDOF 27
