REMARK SMILES CCOc1ccc(-c2nn(-c3ccccc3)cc2/C=C2/SC(=S)N(CC(=O)NCCCCNC(=O)c3ccc(-c4c5nc(c(-c6cc(S(=O)(=O)[O-])ccc6F)c6ccc([nH]6)c(-c6cc(S(=O)(=O)[O-])ccc6F)c6nc(c(-c7cc(S(=O)(=O)[O-])ccc7F)c7ccc4[nH]7)C=C6)C=C5)cc3)C2=O)cc1F
REMARK SMILES IDX 29 1 28 2 26 3 27 4 25 6 24 7 19 8 20 9 21 10 99 11 22 12
REMARK SMILES IDX 100 13 23 14 18 15 8 16 9 17 10 18 17 19 7 20 4 21 5 22
REMARK SMILES IDX 102 23 6 24 101 25 103 26 3 27 2 28 1 29 11 30 12 31 16 32
REMARK SMILES IDX 13 33 15 34 14 35 30 36 31 37 32 38 33 39 34 40 35 42 36 43
REMARK SMILES IDX 37 44 98 45 38 46 97 47 39 48 40 49 41 50 91 51 42 52 96 53
REMARK SMILES IDX 90 54 92 55 43 56 95 57 89 58 88 59 44 61 76 62 56 63 75 64
REMARK SMILES IDX 57 65 60 66 74 67 93 68 58 69 59 70 73 72 94 73 61 74 45 75
REMARK SMILES IDX 46 76 54 77 47 78 53 79 55 80 52 81 48 82 49 83 50 84 51 85
REMARK SMILES IDX 77 86 78 87 86 88 79 89 85 90 87 91 84 92 80 93 81 94 82 95
REMARK SMILES IDX 83 96 62 97 63 98 71 99 64 100 70 101 72 102 69 103 65 104
REMARK SMILES IDX 66 105 67 106 68 107
REMARK H PARENT 28 5 33 41 92 60 60 71
REMARK Flexibility Score: inf
ROOT
ATOM      1  C   UNL     1      10.578   8.470   1.099  1.00  0.00     0.116 C 
ENDROOT
BRANCH   1   2
ATOM      2  N   UNL     1      10.536   8.272  -0.335  1.00  0.00    -0.355 N 
ATOM      3  C   UNL     1       9.518   8.486  -1.221  1.00  0.00     0.240 C 
ATOM      4  O   UNL     1       9.806   8.513  -2.420  1.00  0.00    -0.273 OA
ATOM      5  H   UNL     1      11.369   7.931  -0.733  1.00  0.00     0.163 HD
BRANCH   3   6
ATOM      6  C   UNL     1       8.092   8.812  -0.749  1.00  0.00     0.227 C 
BRANCH   6   7
ATOM      7  N   UNL     1       7.581   7.830   0.209  1.00  0.00    -0.283 N 
ATOM      8  C   UNL     1       7.022   4.292   0.826  1.00  0.00     0.033 C 
ATOM      9  C   UNL     1       7.054   5.633   0.876  1.00  0.00     0.081 C 
ATOM     10  S   UNL     1       6.654   6.573   2.259  1.00  0.00    -0.054 SA
ATOM     11  C   UNL     1       7.445   6.534  -0.240  1.00  0.00     0.266 C 
ATOM     12  C   UNL     1       7.067   8.091   1.458  1.00  0.00     0.148 C 
ATOM     13  O   UNL     1       7.582   6.179  -1.407  1.00  0.00    -0.268 OA
ATOM     14  S   UNL     1       6.807   9.567   2.187  1.00  0.00    -0.052 S 
BRANCH   8  15
ATOM     15  C   UNL     1       7.346   3.542  -0.337  1.00  0.00     0.022 A 
ATOM     16  C   UNL     1       6.478   2.962  -1.296  1.00  0.00     0.100 A 
ATOM     17  N   UNL     1       7.169   2.522  -2.357  1.00  0.00    -0.167 NA
ATOM     18  N   UNL     1       8.468   2.748  -2.049  1.00  0.00    -0.240 N 
ATOM     19  C   UNL     1       8.618   3.283  -0.790  1.00  0.00     0.123 A 
BRANCH  16  20
ATOM     20  C   UNL     1       5.039   2.759  -1.214  1.00  0.00     0.006 A 
ATOM     21  C   UNL     1       2.300   2.240  -0.952  1.00  0.00     0.154 A 
ATOM     22  C   UNL     1       2.771   3.550  -0.854  1.00  0.00     0.050 A 
ATOM     23  C   UNL     1       3.192   1.208  -1.236  1.00  0.00     0.165 A 
ATOM     24  C   UNL     1       4.143   3.811  -0.981  1.00  0.00     0.014 A 
ATOM     25  C   UNL     1       4.551   1.455  -1.350  1.00  0.00     0.053 A 
ATOM     26  F   UNL     1       2.757  -0.046  -1.426  1.00  0.00    -0.203 F 
BRANCH  21  27
ATOM     27  O   UNL     1       0.951   2.021  -0.894  1.00  0.00    -0.491 OA
BRANCH  27  28
ATOM     28  C   UNL     1       0.529   1.438   0.347  1.00  0.00     0.226 C 
ATOM     29  C   UNL     1       0.581  -0.082   0.326  1.00  0.00     0.049 C 
ENDBRANCH  27  28
ENDBRANCH  21  27
ENDBRANCH  16  20
BRANCH  18  30
ATOM     30  C   UNL     1       9.496   2.396  -2.949  1.00  0.00     0.065 A 
ATOM     31  C   UNL     1       9.313   2.622  -4.318  1.00  0.00     0.028 A 
ATOM     32  C   UNL     1      10.684   1.828  -2.475  1.00  0.00     0.028 A 
ATOM     33  C   UNL     1      10.336   2.304  -5.212  1.00  0.00     0.002 A 
ATOM     34  C   UNL     1      11.678   1.460  -3.383  1.00  0.00     0.002 A 
ATOM     35  C   UNL     1      11.509   1.709  -4.746  1.00  0.00     0.000 A 
ENDBRANCH  18  30
ENDBRANCH   8  15
ENDBRANCH   6   7
ENDBRANCH   3   6
ENDBRANCH   1   2
BRANCH   1  36
ATOM     36  C   UNL     1      10.743   7.163   1.877  1.00  0.00     0.023 C 
BRANCH  36  37
ATOM     37  C   UNL     1      12.081   6.433   1.695  1.00  0.00     0.023 C 
BRANCH  37  38
ATOM     38  C   UNL     1      13.323   7.255   2.018  1.00  0.00     0.116 C 
BRANCH  38  39
ATOM     39  N   UNL     1      13.393   7.674   3.414  1.00  0.00    -0.352 N 
ATOM     40  C   UNL     1      14.364   8.467   4.002  1.00  0.00     0.251 C 
ATOM     41  H   UNL     1      12.670   7.358   4.003  1.00  0.00     0.163 HD
ATOM     42  O   UNL     1      14.588   8.364   5.204  1.00  0.00    -0.269 OA
BRANCH  40  43
ATOM     43  C   UNL     1      15.122   9.425   3.165  1.00  0.00     0.039 A 
ATOM     44  C   UNL     1      16.478   9.665   3.385  1.00  0.00     0.014 A 
ATOM     45  C   UNL     1      14.454  10.090   2.135  1.00  0.00     0.014 A 
ATOM     46  C   UNL     1      17.163  10.505   2.503  1.00  0.00     0.010 A 
ATOM     47  C   UNL     1      15.154  10.812   1.190  1.00  0.00     0.010 A 
ATOM     48  C   UNL     1      16.507  11.050   1.378  1.00  0.00    -0.014 A 
BRANCH  48  49
ATOM     49  C   UNL     1      17.279  11.678   0.297  1.00  0.00     0.031 A 
ATOM     50  C   UNL     1      18.442  10.850  -0.112  1.00  0.00     0.074 A 
ATOM     51  C   UNL     1      16.950  12.794  -0.397  1.00  0.00     0.049 A 
ATOM     52  N   UNL     1      19.668  11.042   0.241  1.00  0.00    -0.248 NA
ATOM     53  C   UNL     1      18.217   9.561  -0.787  1.00  0.00     0.031 C 
ATOM     54  C   UNL     1      15.741  13.613  -0.285  1.00  0.00     0.029 A 
ATOM     55  N   UNL     1      17.627  13.417  -1.412  1.00  0.00    -0.354 N 
ATOM     56  C   UNL     1      20.406  10.070  -0.416  1.00  0.00     0.074 A 
ATOM     57  C   UNL     1      19.459   9.069  -0.828  1.00  0.00     0.031 C 
ATOM     58  C   UNL     1      15.677  14.491  -1.316  1.00  0.00     0.029 A 
ATOM     59  C   UNL     1      16.911  14.417  -2.081  1.00  0.00     0.049 A 
ATOM     60  H   UNL     1      18.552  13.178  -1.653  1.00  0.00     0.167 HD
ATOM     61  C   UNL     1      21.680  10.339  -0.810  1.00  0.00     0.034 A 
ATOM     62  C   UNL     1      17.317  15.183  -3.139  1.00  0.00     0.034 A 
ATOM     63  C   UNL     1      22.200  11.503  -0.122  1.00  0.00     0.049 A 
ATOM     64  C   UNL     1      18.794  15.230  -3.056  1.00  0.00     0.074 A 
ATOM     65  C   UNL     1      22.357  11.854   1.207  1.00  0.00     0.029 A 
ATOM     66  N   UNL     1      22.247  12.687  -0.822  1.00  0.00    -0.354 N 
ATOM     67  N   UNL     1      19.435  15.794  -2.069  1.00  0.00    -0.248 NA
ATOM     68  C   UNL     1      19.541  14.233  -3.804  1.00  0.00     0.031 C 
ATOM     69  C   UNL     1      21.977  13.228   1.271  1.00  0.00     0.029 A 
ATOM     70  C   UNL     1      21.710  13.669  -0.026  1.00  0.00     0.049 A 
ATOM     71  H   UNL     1      22.602  12.809  -1.732  1.00  0.00     0.167 HD
ATOM     72  C   UNL     1      20.469  14.918  -1.783  1.00  0.00     0.074 A 
ATOM     73  C   UNL     1      20.535  14.020  -2.937  1.00  0.00     0.031 C 
ATOM     74  C   UNL     1      20.990  14.825  -0.526  1.00  0.00     0.034 A 
BRANCH  61  75
ATOM     75  C   UNL     1      22.290   9.832  -2.096  1.00  0.00     0.023 A 
ATOM     76  C   UNL     1      23.639  10.148  -2.340  1.00  0.00     0.031 A 
ATOM     77  C   UNL     1      21.562   9.333  -3.201  1.00  0.00     0.131 A 
ATOM     78  C   UNL     1      24.178  10.050  -3.634  1.00  0.00     0.055 A 
ATOM     79  C   UNL     1      22.120   9.181  -4.472  1.00  0.00     0.041 A 
ATOM     80  F   UNL     1      20.254   9.057  -3.145  1.00  0.00    -0.206 F 
ATOM     81  C   UNL     1      23.428   9.567  -4.702  1.00  0.00     0.022 A 
BRANCH  78  82
ATOM     82  S   UNL     1      25.843  10.697  -3.923  1.00  0.00     0.124 S 
ATOM     83  O   UNL     1      25.675  12.103  -3.574  1.00  0.00    -0.237 OA
ATOM     84  O   UNL     1      26.642   9.896  -3.001  1.00  0.00    -0.237 OA
ATOM     85  O   UNL     1      26.070  10.424  -5.340  1.00  0.00    -0.744 OA
ENDBRANCH  78  82
ENDBRANCH  61  75
BRANCH  62  86
ATOM     86  C   UNL     1      16.566  15.597  -4.372  1.00  0.00     0.023 A 
ATOM     87  C   UNL     1      17.109  16.480  -5.347  1.00  0.00     0.031 A 
ATOM     88  C   UNL     1      15.401  14.900  -4.752  1.00  0.00     0.131 A 
ATOM     89  C   UNL     1      16.504  16.613  -6.625  1.00  0.00     0.055 A 
ATOM     90  C   UNL     1      14.815  15.028  -6.017  1.00  0.00     0.041 A 
ATOM     91  F   UNL     1      14.837  13.996  -3.938  1.00  0.00    -0.206 F 
ATOM     92  C   UNL     1      15.370  15.875  -6.964  1.00  0.00     0.022 A 
BRANCH  89  93
ATOM     93  S   UNL     1      17.244  17.664  -7.928  1.00  0.00     0.124 S 
ATOM     94  O   UNL     1      16.857  19.003  -7.499  1.00  0.00    -0.237 OA
ATOM     95  O   UNL     1      18.662  17.338  -7.838  1.00  0.00    -0.237 OA
ATOM     96  O   UNL     1      16.589  17.200  -9.153  1.00  0.00    -0.744 OA
ENDBRANCH  89  93
ENDBRANCH  62  86
BRANCH  74  97
ATOM     97  C   UNL     1      20.678  15.911   0.484  1.00  0.00     0.023 A 
ATOM     98  C   UNL     1      19.405  16.189   1.034  1.00  0.00     0.031 A 
ATOM     99  C   UNL     1      21.789  16.580   1.029  1.00  0.00     0.131 A 
ATOM    100  C   UNL     1      19.291  17.103   2.106  1.00  0.00     0.055 A 
ATOM    101  C   UNL     1      21.674  17.461   2.101  1.00  0.00     0.041 A 
ATOM    102  F   UNL     1      23.024  16.338   0.559  1.00  0.00    -0.206 F 
ATOM    103  C   UNL     1      20.424  17.724   2.646  1.00  0.00     0.022 A 
BRANCH 100 104
ATOM    104  S   UNL     1      17.668  17.470   2.858  1.00  0.00     0.124 S 
ATOM    105  O   UNL     1      16.916  18.056   1.754  1.00  0.00    -0.237 OA
ATOM    106  O   UNL     1      17.217  16.160   3.317  1.00  0.00    -0.237 OA
ATOM    107  O   UNL     1      17.992  18.408   3.936  1.00  0.00    -0.744 OA
ENDBRANCH 100 104
ENDBRANCH  74  97
ENDBRANCH  48  49
ENDBRANCH  40  43
ENDBRANCH  38  39
ENDBRANCH  37  38
ENDBRANCH  36  37
ENDBRANCH   1  36
TORSDOF 20
