REMARK SMILES C[C@H](Oc1ccc(-c2ccccc2)cc1)C(=O)N[C@H](C)C(=O)NCCCCNC(=O)c1ccc(-c2c3nc(c(-c4cc(S(=O)(=O)[O-])ccc4F)c4ccc([nH]4)c(-c4cc(S(=O)(=O)[O-])ccc4F)c4nc(c(-c5cc(S(=O)(=O)[O-])ccc5F)c5ccc2[nH]5)C=C4)C=C3)cc1
REMARK SMILES IDX 24 1 23 2 21 3 22 4 19 6 20 7 18 8 16 9 17 10 2 12 1 13 3 14
REMARK SMILES IDX 4 15 5 16 15 17 6 18 14 19 7 20 8 21 9 22 13 23 10 24 12 25
REMARK SMILES IDX 11 26 25 27 26 28 27 29 28 30 29 31 30 33 31 34 32 35 93 36
REMARK SMILES IDX 33 37 92 38 34 39 35 40 36 41 86 42 37 43 91 44 85 45 87 46
REMARK SMILES IDX 38 47 90 48 84 49 83 50 39 52 71 53 51 54 70 55 52 56 55 57
REMARK SMILES IDX 69 58 88 59 53 60 54 61 68 63 89 64 56 65 40 66 41 67 49 68
REMARK SMILES IDX 42 69 48 70 50 71 47 72 43 73 44 74 45 75 46 76 72 77 73 78
REMARK SMILES IDX 81 79 74 80 80 81 82 82 79 83 75 84 76 85 77 86 78 87 57 88
REMARK SMILES IDX 58 89 66 90 59 91 65 92 67 93 64 94 60 95 61 96 62 97 63 98
REMARK H PARENT 23 5 18 11 28 32 87 51 55 62
REMARK Flexibility Score: inf
ROOT
ATOM      1  C   UNL     1      -3.779   2.654   2.306  1.00  0.00     0.116 C 
ENDROOT
BRANCH   1   2
ATOM      2  N   UNL     1      -2.598   2.917   3.097  1.00  0.00    -0.354 N 
ATOM      3  C   UNL     1      -1.300   2.564   2.858  1.00  0.00     0.242 C 
ATOM      4  O   UNL     1      -0.446   2.920   3.676  1.00  0.00    -0.273 OA
ATOM      5  H   UNL     1      -2.751   3.423   3.927  1.00  0.00     0.163 HD
BRANCH   3   6
ATOM      6  C   UNL     1      -0.918   1.647   1.671  1.00  0.00     0.168 C 
ATOM      7  C   UNL     1      -1.332   0.232   2.001  1.00  0.00     0.041 C 
BRANCH   6   8
ATOM      8  N   UNL     1      -1.274   2.248   0.375  1.00  0.00    -0.341 N 
ATOM      9  C   UNL     1      -1.796   1.893  -0.825  1.00  0.00     0.261 C 
ATOM     10  O   UNL     1      -1.769   2.787  -1.685  1.00  0.00    -0.271 OA
ATOM     11  H   UNL     1      -1.068   3.210   0.381  1.00  0.00     0.164 HD
BRANCH   9  12
ATOM     12  C   UNL     1      -2.513   0.566  -1.161  1.00  0.00     0.258 C 
ATOM     13  C   UNL     1      -3.950   0.646  -0.662  1.00  0.00     0.064 C 
BRANCH  12  14
ATOM     14  O   UNL     1      -1.675  -0.552  -0.922  1.00  0.00    -0.481 OA
BRANCH  14  15
ATOM     15  C   UNL     1      -1.998  -1.761  -0.400  1.00  0.00     0.120 A 
ATOM     16  C   UNL     1      -3.237  -2.230   0.004  1.00  0.00     0.047 A 
ATOM     17  C   UNL     1      -0.877  -2.566  -0.157  1.00  0.00     0.047 A 
ATOM     18  C   UNL     1      -3.339  -3.412   0.749  1.00  0.00     0.012 A 
ATOM     19  C   UNL     1      -0.977  -3.756   0.573  1.00  0.00     0.012 A 
ATOM     20  C   UNL     1      -2.213  -4.186   1.064  1.00  0.00    -0.018 A 
BRANCH  20  21
ATOM     21  C   UNL     1      -2.351  -5.396   1.890  1.00  0.00    -0.018 A 
ATOM     22  C   UNL     1      -3.355  -6.339   1.610  1.00  0.00     0.009 A 
ATOM     23  C   UNL     1      -1.525  -5.627   3.003  1.00  0.00     0.009 A 
ATOM     24  C   UNL     1      -3.541  -7.461   2.418  1.00  0.00     0.001 A 
ATOM     25  C   UNL     1      -1.707  -6.753   3.812  1.00  0.00     0.001 A 
ATOM     26  C   UNL     1      -2.718  -7.666   3.521  1.00  0.00     0.000 A 
ENDBRANCH  20  21
ENDBRANCH  14  15
ENDBRANCH  12  14
ENDBRANCH   9  12
ENDBRANCH   6   8
ENDBRANCH   3   6
ENDBRANCH   1   2
BRANCH   1  27
ATOM     27  C   UNL     1      -4.647   1.535   2.878  1.00  0.00     0.023 C 
BRANCH  27  28
ATOM     28  C   UNL     1      -5.428   1.903   4.136  1.00  0.00     0.023 C 
BRANCH  28  29
ATOM     29  C   UNL     1      -6.301   3.145   4.012  1.00  0.00     0.116 C 
BRANCH  29  30
ATOM     30  N   UNL     1      -7.254   3.078   2.915  1.00  0.00    -0.352 N 
ATOM     31  C   UNL     1      -8.540   3.563   2.863  1.00  0.00     0.251 C 
ATOM     32  H   UNL     1      -6.937   2.624   2.102  1.00  0.00     0.163 HD
ATOM     33  O   UNL     1      -9.244   3.308   1.889  1.00  0.00    -0.269 OA
BRANCH  31  34
ATOM     34  C   UNL     1      -9.077   4.346   3.998  1.00  0.00     0.039 A 
ATOM     35  C   UNL     1     -10.364   4.063   4.460  1.00  0.00     0.014 A 
ATOM     36  C   UNL     1      -8.309   5.332   4.626  1.00  0.00     0.014 A 
ATOM     37  C   UNL     1     -10.852   4.722   5.590  1.00  0.00     0.010 A 
ATOM     38  C   UNL     1      -8.761   5.920   5.804  1.00  0.00     0.010 A 
ATOM     39  C   UNL     1     -10.040   5.627   6.297  1.00  0.00    -0.014 A 
BRANCH  39  40
ATOM     40  C   UNL     1     -10.527   6.262   7.550  1.00  0.00     0.031 A 
ATOM     41  C   UNL     1     -10.700   7.756   7.631  1.00  0.00     0.074 A 
ATOM     42  C   UNL     1     -10.784   5.490   8.626  1.00  0.00     0.049 A 
ATOM     43  N   UNL     1     -11.139   8.484   8.626  1.00  0.00    -0.248 NA
ATOM     44  C   UNL     1     -10.300   8.538   6.451  1.00  0.00     0.031 C 
ATOM     45  C   UNL     1     -10.594   4.038   8.688  1.00  0.00     0.029 A 
ATOM     46  N   UNL     1     -11.270   5.811   9.868  1.00  0.00    -0.354 N 
ATOM     47  C   UNL     1     -11.059   9.805   8.197  1.00  0.00     0.074 A 
ATOM     48  C   UNL     1     -10.466   9.780   6.878  1.00  0.00     0.031 C 
ATOM     49  C   UNL     1     -11.009   3.590   9.884  1.00  0.00     0.029 A 
ATOM     50  C   UNL     1     -11.454   4.721  10.690  1.00  0.00     0.049 A 
ATOM     51  H   UNL     1     -11.469   6.734  10.147  1.00  0.00     0.167 HD
ATOM     52  C   UNL     1     -11.466  10.931   8.834  1.00  0.00     0.034 A 
ATOM     53  C   UNL     1     -11.935   4.643  11.947  1.00  0.00     0.034 A 
ATOM     54  C   UNL     1     -12.073  10.935  10.144  1.00  0.00     0.049 A 
ATOM     55  C   UNL     1     -12.381   5.912  12.630  1.00  0.00     0.074 A 
ATOM     56  C   UNL     1     -12.588  12.008  10.851  1.00  0.00     0.029 A 
ATOM     57  N   UNL     1     -12.236   9.815  10.950  1.00  0.00    -0.354 N 
ATOM     58  N   UNL     1     -12.377   7.144  12.175  1.00  0.00    -0.248 NA
ATOM     59  C   UNL     1     -12.916   5.773  13.990  1.00  0.00     0.031 C 
ATOM     60  C   UNL     1     -12.991  11.551  12.111  1.00  0.00     0.029 A 
ATOM     61  C   UNL     1     -12.810  10.178  12.160  1.00  0.00     0.049 A 
ATOM     62  H   UNL     1     -11.983   8.898  10.699  1.00  0.00     0.167 HD
ATOM     63  C   UNL     1     -12.942   7.921  13.184  1.00  0.00     0.074 A 
ATOM     64  C   UNL     1     -13.300   7.011  14.253  1.00  0.00     0.031 C 
ATOM     65  C   UNL     1     -13.147   9.263  13.226  1.00  0.00     0.034 A 
BRANCH  52  66
ATOM     66  C   UNL     1     -11.246  12.252   8.132  1.00  0.00     0.023 A 
ATOM     67  C   UNL     1     -11.863  12.553   6.904  1.00  0.00     0.031 A 
ATOM     68  C   UNL     1     -10.395  13.221   8.693  1.00  0.00     0.131 A 
ATOM     69  C   UNL     1     -11.568  13.758   6.247  1.00  0.00     0.055 A 
ATOM     70  C   UNL     1     -10.170  14.452   8.074  1.00  0.00     0.041 A 
ATOM     71  F   UNL     1      -9.759  12.983   9.851  1.00  0.00    -0.206 F 
ATOM     72  C   UNL     1     -10.747  14.721   6.837  1.00  0.00     0.022 A 
BRANCH  69  73
ATOM     73  S   UNL     1     -12.161  13.987   4.548  1.00  0.00     0.124 S 
ATOM     74  O   UNL     1     -11.544  12.853   3.865  1.00  0.00    -0.237 OA
ATOM     75  O   UNL     1     -13.609  13.926   4.709  1.00  0.00    -0.237 OA
ATOM     76  O   UNL     1     -11.629  15.296   4.173  1.00  0.00    -0.744 OA
ENDBRANCH  69  73
ENDBRANCH  52  66
BRANCH  53  77
ATOM     77  C   UNL     1     -12.038   3.329  12.647  1.00  0.00     0.023 A 
ATOM     78  C   UNL     1     -13.284   2.825  13.055  1.00  0.00     0.031 A 
ATOM     79  C   UNL     1     -10.889   2.589  12.979  1.00  0.00     0.131 A 
ATOM     80  C   UNL     1     -13.348   1.654  13.826  1.00  0.00     0.055 A 
ATOM     81  C   UNL     1     -10.963   1.391  13.693  1.00  0.00     0.041 A 
ATOM     82  F   UNL     1      -9.672   3.021  12.611  1.00  0.00    -0.206 F 
ATOM     83  C   UNL     1     -12.198   0.926  14.136  1.00  0.00     0.022 A 
BRANCH  80  84
ATOM     84  S   UNL     1     -14.951   1.155  14.514  1.00  0.00     0.124 S 
ATOM     85  O   UNL     1     -15.333   2.342  15.269  1.00  0.00    -0.237 OA
ATOM     86  O   UNL     1     -15.726   0.884  13.307  1.00  0.00    -0.237 OA
ATOM     87  O   UNL     1     -14.625  -0.020  15.319  1.00  0.00    -0.744 OA
ENDBRANCH  80  84
ENDBRANCH  53  77
BRANCH  65  88
ATOM     88  C   UNL     1     -13.827   9.809  14.460  1.00  0.00     0.023 A 
ATOM     89  C   UNL     1     -13.238   9.711  15.733  1.00  0.00     0.031 A 
ATOM     90  C   UNL     1     -15.105  10.389  14.368  1.00  0.00     0.131 A 
ATOM     91  C   UNL     1     -13.960  10.103  16.870  1.00  0.00     0.055 A 
ATOM     92  C   UNL     1     -15.787  10.850  15.496  1.00  0.00     0.041 A 
ATOM     93  F   UNL     1     -15.720  10.508  13.181  1.00  0.00    -0.206 F 
ATOM     94  C   UNL     1     -15.224  10.688  16.759  1.00  0.00     0.022 A 
BRANCH  91  95
ATOM     95  S   UNL     1     -13.285   9.704  18.506  1.00  0.00     0.124 S 
ATOM     96  O   UNL     1     -13.092   8.261  18.411  1.00  0.00    -0.237 OA
ATOM     97  O   UNL     1     -12.068  10.508  18.545  1.00  0.00    -0.237 OA
ATOM     98  O   UNL     1     -14.339  10.130  19.425  1.00  0.00    -0.744 OA
ENDBRANCH  91  95
ENDBRANCH  65  88
ENDBRANCH  39  40
ENDBRANCH  31  34
ENDBRANCH  29  30
ENDBRANCH  28  29
ENDBRANCH  27  28
ENDBRANCH   1  27
TORSDOF 19
