REMARK SMILES COc1cccc([C@H](CC(=O)NCCCCNC(=O)c2ccc(-c3c4nc(c(-c5cc(S(=O)(=O)[O-])ccc5F)c5ccc([nH]5)c(-c5cc(S(=O)(=O)[O-])ccc5F)c5nc(c(-c6cc(S(=O)(=O)[O-])ccc6F)c6ccc3[nH]6)C=C5)C=C4)cc2)NS(=O)(=O)c2ccc3c(c2)C[C@@H](C)N3C(C)=O)c1
REMARK SMILES IDX 13 1 12 2 10 3 11 4 9 6 8 7 7 8 3 9 4 10 100 11 5 12 6 13
REMARK SMILES IDX 2 14 1 15 83 16 84 18 85 19 86 20 87 21 88 22 92 23 89 24
REMARK SMILES IDX 91 25 90 26 93 27 96 28 94 29 95 30 97 31 98 32 99 33 14 34
REMARK SMILES IDX 15 35 16 36 17 37 18 38 19 40 20 41 21 42 82 43 22 44 81 45
REMARK SMILES IDX 23 46 24 47 25 48 75 49 26 50 80 51 74 52 76 53 27 54 79 55
REMARK SMILES IDX 73 56 72 57 28 59 60 60 40 61 59 62 41 63 44 64 58 65 77 66
REMARK SMILES IDX 42 67 43 68 57 70 78 71 45 72 29 73 30 74 38 75 31 76 37 77
REMARK SMILES IDX 39 78 36 79 32 80 33 81 34 82 35 83 61 84 62 85 70 86 63 87
REMARK SMILES IDX 69 88 71 89 68 90 64 91 65 92 66 93 67 94 46 95 47 96 55 97
REMARK SMILES IDX 48 98 54 99 56 100 53 101 49 102 50 103 51 104 52 105
REMARK H PARENT 12 5 83 17 17 39 76 58 44 69
REMARK Flexibility Score: inf
ROOT
ATOM      1  C   UNL     1       2.569   0.469  -3.274  1.00  0.00     0.116 C 
ENDROOT
BRANCH   1   2
ATOM      2  N   UNL     1       1.597  -0.289  -4.020  1.00  0.00    -0.356 N 
ATOM      3  C   UNL     1       1.624  -1.616  -4.317  1.00  0.00     0.221 C 
ATOM      4  O   UNL     1       0.870  -2.036  -5.196  1.00  0.00    -0.275 OA
ATOM      5  H   UNL     1       0.820   0.214  -4.355  1.00  0.00     0.163 HD
BRANCH   3   6
ATOM      6  C   UNL     1       2.503  -2.568  -3.535  1.00  0.00     0.124 C 
BRANCH   6   7
ATOM      7  C   UNL     1       4.002  -2.702  -3.883  1.00  0.00     0.109 C 
BRANCH   7   8
ATOM      8  C   UNL     1       4.396  -4.167  -3.823  1.00  0.00    -0.026 A 
ATOM      9  C   UNL     1       5.776  -5.918  -2.872  1.00  0.00     0.119 A 
ATOM     10  C   UNL     1       5.445  -6.753  -3.939  1.00  0.00     0.046 A 
ATOM     11  C   UNL     1       5.255  -4.626  -2.812  1.00  0.00     0.051 A 
ATOM     12  C   UNL     1       4.544  -6.329  -4.914  1.00  0.00     0.004 A 
ATOM     13  C   UNL     1       4.009  -5.045  -4.850  1.00  0.00     0.005 A 
BRANCH   9  14
ATOM     14  O   UNL     1       6.695  -6.414  -1.987  1.00  0.00    -0.497 OA
ATOM     15  C   UNL     1       6.442  -6.077  -0.627  1.00  0.00     0.278 C 
ENDBRANCH   9  14
ENDBRANCH   7   8
BRANCH   7  16
ATOM     16  N   UNL     1       4.419  -2.073  -5.146  1.00  0.00    -0.203 NA
ATOM     17  H   UNL     1       4.159  -1.090  -5.072  1.00  0.00     0.142 HD
BRANCH  16  18
ATOM     18  S   UNL     1       6.027  -2.094  -5.692  1.00  0.00     0.241 S 
ATOM     19  O   UNL     1       6.579  -3.422  -5.617  1.00  0.00    -0.207 OA
ATOM     20  O   UNL     1       6.004  -1.375  -6.951  1.00  0.00    -0.207 OA
BRANCH  18  21
ATOM     21  C   UNL     1       6.891  -1.071  -4.518  1.00  0.00     0.082 A 
ATOM     22  C   UNL     1       7.621  -1.647  -3.449  1.00  0.00     0.024 A 
ATOM     23  C   UNL     1       6.767   0.308  -4.645  1.00  0.00     0.027 A 
ATOM     24  C   UNL     1       8.171  -0.839  -2.436  1.00  0.00     0.028 A 
ATOM     25  C   UNL     1       7.203   1.065  -3.579  1.00  0.00    -0.021 A 
ATOM     26  C   UNL     1       7.914   0.513  -2.505  1.00  0.00     0.047 A 
ATOM     27  C   UNL     1       6.839   2.483  -3.257  1.00  0.00     0.063 C 
ATOM     28  N   UNL     1       8.005   1.484  -1.474  1.00  0.00    -0.309 N 
ATOM     29  C   UNL     1       6.844   2.376  -1.713  1.00  0.00     0.092 C 
ATOM     30  C   UNL     1       5.616   1.688  -1.061  1.00  0.00     0.032 C 
BRANCH  28  31
ATOM     31  C   UNL     1       9.252   1.953  -1.091  1.00  0.00     0.224 C 
ATOM     32  C   UNL     1       9.613   3.334  -1.618  1.00  0.00     0.115 C 
ATOM     33  O   UNL     1      10.069   1.268  -0.478  1.00  0.00    -0.275 OA
ENDBRANCH  28  31
ENDBRANCH  18  21
ENDBRANCH  16  18
ENDBRANCH   7  16
ENDBRANCH   6   7
ENDBRANCH   3   6
ENDBRANCH   1   2
BRANCH   1  34
ATOM     34  C   UNL     1       3.573   1.092  -4.229  1.00  0.00     0.023 C 
BRANCH  34  35
ATOM     35  C   UNL     1       3.159   2.373  -4.947  1.00  0.00     0.023 C 
BRANCH  35  36
ATOM     36  C   UNL     1       2.798   3.550  -4.049  1.00  0.00     0.116 C 
BRANCH  36  37
ATOM     37  N   UNL     1       3.863   3.893  -3.114  1.00  0.00    -0.352 N 
ATOM     38  C   UNL     1       4.501   5.088  -2.875  1.00  0.00     0.251 C 
ATOM     39  H   UNL     1       4.179   3.143  -2.560  1.00  0.00     0.163 HD
ATOM     40  O   UNL     1       5.540   5.131  -2.227  1.00  0.00    -0.269 OA
BRANCH  38  41
ATOM     41  C   UNL     1       3.905   6.302  -3.431  1.00  0.00     0.039 A 
ATOM     42  C   UNL     1       4.688   7.225  -4.126  1.00  0.00     0.014 A 
ATOM     43  C   UNL     1       2.521   6.435  -3.338  1.00  0.00     0.014 A 
ATOM     44  C   UNL     1       4.050   8.236  -4.837  1.00  0.00     0.010 A 
ATOM     45  C   UNL     1       1.890   7.350  -4.146  1.00  0.00     0.010 A 
ATOM     46  C   UNL     1       2.648   8.260  -4.898  1.00  0.00    -0.014 A 
BRANCH  46  47
ATOM     47  C   UNL     1       1.902   9.235  -5.715  1.00  0.00     0.031 A 
ATOM     48  C   UNL     1       0.930  10.142  -5.022  1.00  0.00     0.074 A 
ATOM     49  C   UNL     1       1.987   9.179  -7.056  1.00  0.00     0.049 A 
ATOM     50  N   UNL     1      -0.009  10.890  -5.529  1.00  0.00    -0.248 NA
ATOM     51  C   UNL     1       0.982  10.144  -3.550  1.00  0.00     0.031 C 
ATOM     52  C   UNL     1       2.869   8.286  -7.814  1.00  0.00     0.029 A 
ATOM     53  N   UNL     1       1.299   9.863  -8.022  1.00  0.00    -0.354 N 
ATOM     54  C   UNL     1      -0.675  11.434  -4.437  1.00  0.00     0.074 A 
ATOM     55  C   UNL     1      -0.096  10.847  -3.249  1.00  0.00     0.031 C 
ATOM     56  C   UNL     1       2.675   8.488  -9.126  1.00  0.00     0.029 A 
ATOM     57  C   UNL     1       1.615   9.473  -9.302  1.00  0.00     0.049 A 
ATOM     58  H   UNL     1       0.640  10.566  -7.819  1.00  0.00     0.167 HD
ATOM     59  C   UNL     1      -1.657  12.366  -4.433  1.00  0.00     0.034 A 
ATOM     60  C   UNL     1       1.080   9.850 -10.480  1.00  0.00     0.034 A 
ATOM     61  C   UNL     1      -2.203  12.924  -5.643  1.00  0.00     0.049 A 
ATOM     62  C   UNL     1      -0.032  10.867 -10.461  1.00  0.00     0.074 A 
ATOM     63  C   UNL     1      -3.169  13.901  -5.786  1.00  0.00     0.029 A 
ATOM     64  N   UNL     1      -1.827  12.541  -6.928  1.00  0.00    -0.354 N 
ATOM     65  N   UNL     1      -0.630  11.414  -9.426  1.00  0.00    -0.248 NA
ATOM     66  C   UNL     1      -0.534  11.328 -11.760  1.00  0.00     0.031 C 
ATOM     67  C   UNL     1      -3.432  14.053  -7.151  1.00  0.00     0.029 A 
ATOM     68  C   UNL     1      -2.562  13.242  -7.867  1.00  0.00     0.049 A 
ATOM     69  H   UNL     1      -1.138  11.869  -7.137  1.00  0.00     0.167 HD
ATOM     70  C   UNL     1      -1.554  12.312  -9.950  1.00  0.00     0.074 A 
ATOM     71  C   UNL     1      -1.434  12.230 -11.393  1.00  0.00     0.031 C 
ATOM     72  C   UNL     1      -2.414  13.138  -9.301  1.00  0.00     0.034 A 
BRANCH  59  73
ATOM     73  C   UNL     1      -2.194  12.795  -3.088  1.00  0.00     0.023 A 
ATOM     74  C   UNL     1      -1.351  13.337  -2.100  1.00  0.00     0.031 A 
ATOM     75  C   UNL     1      -3.542  12.583  -2.751  1.00  0.00     0.131 A 
ATOM     76  C   UNL     1      -1.830  13.533  -0.797  1.00  0.00     0.055 A 
ATOM     77  C   UNL     1      -4.040  12.886  -1.481  1.00  0.00     0.041 A 
ATOM     78  F   UNL     1      -4.393  12.044  -3.637  1.00  0.00    -0.206 F 
ATOM     79  C   UNL     1      -3.177  13.341  -0.488  1.00  0.00     0.022 A 
BRANCH  76  80
ATOM     80  S   UNL     1      -0.624  13.836   0.524  1.00  0.00     0.124 S 
ATOM     81  O   UNL     1       0.230  12.654   0.418  1.00  0.00    -0.237 OA
ATOM     82  O   UNL     1      -0.019  15.099   0.117  1.00  0.00    -0.237 OA
ATOM     83  O   UNL     1      -1.445  13.894   1.731  1.00  0.00    -0.744 OA
ENDBRANCH  76  80
ENDBRANCH  59  73
BRANCH  60  84
ATOM     84  C   UNL     1       1.581   9.256 -11.752  1.00  0.00     0.023 A 
ATOM     85  C   UNL     1       2.247  10.040 -12.706  1.00  0.00     0.031 A 
ATOM     86  C   UNL     1       1.407   7.887 -12.029  1.00  0.00     0.131 A 
ATOM     87  C   UNL     1       2.683   9.459 -13.908  1.00  0.00     0.055 A 
ATOM     88  C   UNL     1       1.891   7.303 -13.201  1.00  0.00     0.041 A 
ATOM     89  F   UNL     1       0.786   7.089 -11.146  1.00  0.00    -0.206 F 
ATOM     90  C   UNL     1       2.524   8.093 -14.154  1.00  0.00     0.022 A 
BRANCH  87  91
ATOM     91  S   UNL     1       3.401  10.533 -15.181  1.00  0.00     0.124 S 
ATOM     92  O   UNL     1       2.317  11.481 -15.412  1.00  0.00    -0.237 OA
ATOM     93  O   UNL     1       4.581  11.059 -14.503  1.00  0.00    -0.237 OA
ATOM     94  O   UNL     1       3.675   9.615 -16.284  1.00  0.00    -0.744 OA
ENDBRANCH  87  91
ENDBRANCH  60  84
BRANCH  72  95
ATOM     95  C   UNL     1      -3.245  14.072 -10.144  1.00  0.00     0.023 A 
ATOM     96  C   UNL     1      -4.278  13.608 -10.974  1.00  0.00     0.031 A 
ATOM     97  C   UNL     1      -3.023  15.459 -10.067  1.00  0.00     0.131 A 
ATOM     98  C   UNL     1      -5.033  14.526 -11.719  1.00  0.00     0.055 A 
ATOM     99  C   UNL     1      -3.817  16.369 -10.761  1.00  0.00     0.041 A 
ATOM    100  F   UNL     1      -2.044  15.951  -9.290  1.00  0.00    -0.206 F 
ATOM    101  C   UNL     1      -4.825  15.903 -11.599  1.00  0.00     0.022 A 
BRANCH  98 102
ATOM    102  S   UNL     1      -6.256  13.894 -12.899  1.00  0.00     0.124 S 
ATOM    103  O   UNL     1      -5.425  13.105 -13.802  1.00  0.00    -0.237 OA
ATOM    104  O   UNL     1      -7.159  13.136 -12.038  1.00  0.00    -0.237 OA
ATOM    105  O   UNL     1      -6.828  15.107 -13.481  1.00  0.00    -0.744 OA
ENDBRANCH  98 102
ENDBRANCH  72  95
ENDBRANCH  46  47
ENDBRANCH  38  41
ENDBRANCH  36  37
ENDBRANCH  35  36
ENDBRANCH  34  35
ENDBRANCH   1  34
TORSDOF 21
