REMARK SMILES CC(C)CN(C)/C=C\C(=O)NCCCCNC(=O)c1ccc(-c2c3nc(c(-c4cc(S(=O)(=O)[O-])ccc4F)c4ccc([nH]4)c(-c4cc(S(=O)(=O)[O-])ccc4F)c4nc(c(-c5cc(S(=O)(=O)[O-])ccc5F)c5ccc2[nH]5)C=C4)C=C3)cc1
REMARK SMILES IDX 13 1 12 2 11 3 9 4 10 5 8 7 7 8 5 9 6 10 4 11 2 12 1 13 3 14
REMARK SMILES IDX 14 15 15 16 16 17 17 18 18 20 19 21 20 22 81 23 21 24 80 25
REMARK SMILES IDX 22 26 23 27 24 28 74 29 25 30 79 31 73 32 75 33 26 34 78 35
REMARK SMILES IDX 72 36 71 37 27 39 59 40 39 41 58 42 40 43 43 44 57 45 76 46
REMARK SMILES IDX 41 47 42 48 56 50 77 51 44 52 28 53 29 54 37 55 30 56 36 57
REMARK SMILES IDX 38 58 35 59 31 60 32 61 33 62 34 63 60 64 61 65 69 66 62 67
REMARK SMILES IDX 68 68 70 69 67 70 63 71 64 72 65 73 66 74 45 75 46 76 54 77
REMARK SMILES IDX 47 78 53 79 55 80 52 81 48 82 49 83 50 84 51 85
REMARK H PARENT 11 6 16 19 75 38 43 49
REMARK Flexibility Score: inf
ROOT
ATOM      1  C   UNL     1      -1.994   2.679   0.589  1.00  0.00     0.023 C 
ENDROOT
BRANCH   1   2
ATOM      2  C   UNL     1      -2.690   1.566  -0.198  1.00  0.00     0.116 C 
BRANCH   2   3
ATOM      3  N   UNL     1      -1.871   0.836  -1.151  1.00  0.00    -0.353 N 
ATOM      4  C   UNL     1      -1.578  -0.497  -1.198  1.00  0.00     0.245 C 
ATOM      5  O   UNL     1      -1.175  -1.002  -2.244  1.00  0.00    -0.270 OA
ATOM      6  H   UNL     1      -1.471   1.381  -1.867  1.00  0.00     0.163 HD
BRANCH   4   7
ATOM      7  C   UNL     1      -1.757  -1.352  -0.004  1.00  0.00     0.088 C 
ATOM      8  C   UNL     1      -1.186  -1.177   1.197  1.00  0.00     0.086 C 
BRANCH   8   9
ATOM      9  N   UNL     1      -0.302  -0.216   1.678  1.00  0.00    -0.380 N 
ATOM     10  C   UNL     1      -0.568   0.367   3.001  1.00  0.00     0.143 C 
BRANCH   9  11
ATOM     11  C   UNL     1       0.581   0.534   0.766  1.00  0.00     0.118 C 
BRANCH  11  12
ATOM     12  C   UNL     1       2.067   0.614   1.081  1.00  0.00     0.002 C 
ATOM     13  C   UNL     1       2.752  -0.726   0.835  1.00  0.00     0.009 C 
ATOM     14  C   UNL     1       2.645   1.673   0.119  1.00  0.00     0.009 C 
ENDBRANCH  11  12
ENDBRANCH   9  11
ENDBRANCH   8   9
ENDBRANCH   4   7
ENDBRANCH   2   3
ENDBRANCH   1   2
BRANCH   1  15
ATOM     15  C   UNL     1      -1.096   3.626  -0.210  1.00  0.00     0.023 C 
BRANCH  15  16
ATOM     16  C   UNL     1      -1.882   4.616  -1.041  1.00  0.00     0.116 C 
BRANCH  16  17
ATOM     17  N   UNL     1      -2.800   5.396  -0.217  1.00  0.00    -0.352 N 
ATOM     18  C   UNL     1      -3.018   6.751  -0.202  1.00  0.00     0.251 C 
ATOM     19  H   UNL     1      -3.340   4.875   0.420  1.00  0.00     0.163 HD
ATOM     20  O   UNL     1      -3.632   7.268   0.715  1.00  0.00    -0.269 OA
BRANCH  18  21
ATOM     21  C   UNL     1      -2.481   7.547  -1.318  1.00  0.00     0.039 A 
ATOM     22  C   UNL     1      -1.892   8.783  -1.062  1.00  0.00     0.014 A 
ATOM     23  C   UNL     1      -2.529   7.024  -2.612  1.00  0.00     0.014 A 
ATOM     24  C   UNL     1      -1.311   9.479  -2.117  1.00  0.00     0.010 A 
ATOM     25  C   UNL     1      -1.822   7.641  -3.622  1.00  0.00     0.010 A 
ATOM     26  C   UNL     1      -1.249   8.897  -3.395  1.00  0.00    -0.014 A 
BRANCH  26  27
ATOM     27  C   UNL     1      -0.659   9.614  -4.543  1.00  0.00     0.031 A 
ATOM     28  C   UNL     1      -1.527   9.920  -5.733  1.00  0.00     0.074 A 
ATOM     29  C   UNL     1       0.650   9.925  -4.524  1.00  0.00     0.049 A 
ATOM     30  N   UNL     1      -1.203  10.475  -6.870  1.00  0.00    -0.248 NA
ATOM     31  C   UNL     1      -2.937   9.499  -5.655  1.00  0.00     0.031 C 
ATOM     32  C   UNL     1       1.580   9.608  -3.436  1.00  0.00     0.029 A 
ATOM     33  N   UNL     1       1.425  10.578  -5.443  1.00  0.00    -0.354 N 
ATOM     34  C   UNL     1      -2.360  10.447  -7.642  1.00  0.00     0.074 A 
ATOM     35  C   UNL     1      -3.361   9.733  -6.885  1.00  0.00     0.031 C 
ATOM     36  C   UNL     1       2.787  10.116  -3.729  1.00  0.00     0.029 A 
ATOM     37  C   UNL     1       2.730  10.743  -5.044  1.00  0.00     0.049 A 
ATOM     38  H   UNL     1       1.081  10.899  -6.307  1.00  0.00     0.167 HD
ATOM     39  C   UNL     1      -2.577  11.006  -8.855  1.00  0.00     0.034 A 
ATOM     40  C   UNL     1       3.760  11.334  -5.678  1.00  0.00     0.034 A 
ATOM     41  C   UNL     1      -1.561  11.736  -9.568  1.00  0.00     0.049 A 
ATOM     42  C   UNL     1       3.500  11.944  -7.032  1.00  0.00     0.074 A 
ATOM     43  C   UNL     1      -1.662  12.401 -10.775  1.00  0.00     0.029 A 
ATOM     44  N   UNL     1      -0.249  11.891  -9.133  1.00  0.00    -0.354 N 
ATOM     45  N   UNL     1       2.384  11.968  -7.727  1.00  0.00    -0.248 NA
ATOM     46  C   UNL     1       4.629  12.619  -7.679  1.00  0.00     0.031 C 
ATOM     47  C   UNL     1      -0.395  12.890 -11.107  1.00  0.00     0.029 A 
ATOM     48  C   UNL     1       0.478  12.612 -10.065  1.00  0.00     0.049 A 
ATOM     49  H   UNL     1       0.111  11.539  -8.287  1.00  0.00     0.167 HD
ATOM     50  C   UNL     1       2.671  12.688  -8.881  1.00  0.00     0.074 A 
ATOM     51  C   UNL     1       4.059  13.095  -8.777  1.00  0.00     0.031 C 
ATOM     52  C   UNL     1       1.865  12.993  -9.932  1.00  0.00     0.034 A 
BRANCH  39  53
ATOM     53  C   UNL     1      -3.944  10.825  -9.473  1.00  0.00     0.023 A 
ATOM     54  C   UNL     1      -5.112  11.293  -8.841  1.00  0.00     0.031 A 
ATOM     55  C   UNL     1      -4.090  10.131 -10.686  1.00  0.00     0.131 A 
ATOM     56  C   UNL     1      -6.372  10.983  -9.375  1.00  0.00     0.055 A 
ATOM     57  C   UNL     1      -5.343   9.908 -11.261  1.00  0.00     0.041 A 
ATOM     58  F   UNL     1      -3.018   9.634 -11.324  1.00  0.00    -0.206 F 
ATOM     59  C   UNL     1      -6.495  10.319 -10.597  1.00  0.00     0.022 A 
BRANCH  56  60
ATOM     60  S   UNL     1      -7.843  11.311  -8.366  1.00  0.00     0.124 S 
ATOM     61  O   UNL     1      -7.565  10.515  -7.172  1.00  0.00    -0.237 OA
ATOM     62  O   UNL     1      -7.794  12.758  -8.195  1.00  0.00    -0.237 OA
ATOM     63  O   UNL     1      -8.943  10.816  -9.191  1.00  0.00    -0.744 OA
ENDBRANCH  56  60
ENDBRANCH  39  53
BRANCH  40  64
ATOM     64  C   UNL     1       5.109  11.384  -5.046  1.00  0.00     0.023 A 
ATOM     65  C   UNL     1       5.702  12.608  -4.701  1.00  0.00     0.031 A 
ATOM     66  C   UNL     1       5.837  10.207  -4.795  1.00  0.00     0.131 A 
ATOM     67  C   UNL     1       7.002  12.632  -4.172  1.00  0.00     0.055 A 
ATOM     68  C   UNL     1       7.106  10.232  -4.214  1.00  0.00     0.041 A 
ATOM     69  F   UNL     1       5.315   9.007  -5.098  1.00  0.00    -0.206 F 
ATOM     70  C   UNL     1       7.701  11.452  -3.911  1.00  0.00     0.022 A 
BRANCH  67  71
ATOM     71  S   UNL     1       7.803  14.239  -3.912  1.00  0.00     0.124 S 
ATOM     72  O   UNL     1       7.743  14.819  -5.249  1.00  0.00    -0.237 OA
ATOM     73  O   UNL     1       6.939  14.849  -2.907  1.00  0.00    -0.237 OA
ATOM     74  O   UNL     1       9.141  13.879  -3.446  1.00  0.00    -0.744 OA
ENDBRANCH  67  71
ENDBRANCH  40  64
BRANCH  52  75
ATOM     75  C   UNL     1       2.463  13.843 -11.025  1.00  0.00     0.023 A 
ATOM     76  C   UNL     1       3.507  13.374 -11.839  1.00  0.00     0.031 A 
ATOM     77  C   UNL     1       1.973  15.141 -11.253  1.00  0.00     0.131 A 
ATOM     78  C   UNL     1       4.069  14.221 -12.804  1.00  0.00     0.055 A 
ATOM     79  C   UNL     1       2.487  15.952 -12.264  1.00  0.00     0.041 A 
ATOM     80  F   UNL     1       0.977  15.639 -10.502  1.00  0.00    -0.206 F 
ATOM     81  C   UNL     1       3.552  15.498 -13.037  1.00  0.00     0.022 A 
BRANCH  78  82
ATOM     82  S   UNL     1       5.556  13.668 -13.681  1.00  0.00     0.124 S 
ATOM     83  O   UNL     1       6.485  13.430 -12.580  1.00  0.00    -0.237 OA
ATOM     84  O   UNL     1       5.082  12.479 -14.382  1.00  0.00    -0.237 OA
ATOM     85  O   UNL     1       5.890  14.803 -14.539  1.00  0.00    -0.744 OA
ENDBRANCH  78  82
ENDBRANCH  52  75
ENDBRANCH  26  27
ENDBRANCH  18  21
ENDBRANCH  16  17
ENDBRANCH  15  16
ENDBRANCH   1  15
TORSDOF 17
