REMARK SMILES Cc1ccccc1OCc1nc2cc(C(=O)NCCCCNC(=O)c3ccc(-c4c5nc(c(-c6cc(S(=O)(=O)[O-])ccc6F)c6ccc([nH]6)c(-c6cc(S(=O)(=O)[O-])ccc6F)c6nc(c(-c7cc(S(=O)(=O)[O-])ccc7F)c7ccc4[nH]7)C=C6)C=C5)cc3)ccc2n1C[C@H](C)O
REMARK SMILES IDX 19 1 18 2 17 3 15 4 16 5 14 7 10 8 11 9 91 10 12 11 90 12
REMARK SMILES IDX 13 13 89 14 88 15 9 16 8 17 7 18 1 19 2 20 3 21 4 22 6 23
REMARK SMILES IDX 5 24 92 25 93 26 94 27 95 28 20 30 21 31 22 32 23 33 24 35
REMARK SMILES IDX 25 36 26 37 87 38 27 39 86 40 28 41 29 42 30 43 80 44 31 45
REMARK SMILES IDX 85 46 79 47 81 48 32 49 84 50 78 51 77 52 33 54 65 55 45 56
REMARK SMILES IDX 64 57 46 58 49 59 63 60 82 61 47 62 48 63 62 65 83 66 50 67
REMARK SMILES IDX 34 68 35 69 43 70 36 71 42 72 44 73 41 74 37 75 38 76 39 77
REMARK SMILES IDX 40 78 66 79 67 80 75 81 68 82 74 83 76 84 73 85 69 86 70 87
REMARK SMILES IDX 71 88 72 89 51 90 52 91 60 92 53 93 59 94 61 95 58 96 54 97
REMARK SMILES IDX 55 98 56 99 57 100
REMARK H PARENT 17 6 95 29 22 34 81 53 49 64
REMARK Flexibility Score: inf
ROOT
ATOM      1  C   UNL     1      -2.020   3.503  -2.067  1.00  0.00     0.023 C 
ENDROOT
BRANCH   1   2
ATOM      2  C   UNL     1      -1.764   3.667  -0.564  1.00  0.00     0.116 C 
BRANCH   2   3
ATOM      3  N   UNL     1      -3.019   3.722   0.200  1.00  0.00    -0.352 N 
ATOM      4  C   UNL     1      -3.698   2.670   0.784  1.00  0.00     0.251 C 
ATOM      5  O   UNL     1      -4.774   2.807   1.349  1.00  0.00    -0.269 OA
ATOM      6  H   UNL     1      -3.423   4.613   0.308  1.00  0.00     0.163 HD
BRANCH   4   7
ATOM      7  C   UNL     1      -2.998   1.374   0.774  1.00  0.00     0.042 A 
ATOM      8  C   UNL     1      -0.335  -1.360  -1.504  1.00  0.00     0.148 A 
ATOM      9  N   UNL     1      -1.603  -1.022  -1.702  1.00  0.00    -0.229 NA
ATOM     10  N   UNL     1       0.233  -0.479  -0.613  1.00  0.00    -0.322 N 
ATOM     11  C   UNL     1      -1.899  -0.166  -0.666  1.00  0.00     0.090 A 
ATOM     12  C   UNL     1      -0.805  -0.051   0.187  1.00  0.00     0.068 A 
ATOM     13  C   UNL     1      -3.041   0.592  -0.392  1.00  0.00     0.044 A 
ATOM     14  C   UNL     1      -0.840   0.547   1.448  1.00  0.00     0.029 A 
ATOM     15  C   UNL     1      -1.998   1.249   1.748  1.00  0.00     0.016 A 
BRANCH   8  16
ATOM     16  C   UNL     1       0.335  -2.650  -1.847  1.00  0.00     0.304 C 
BRANCH  16  17
ATOM     17  O   UNL     1       0.239  -3.448  -0.644  1.00  0.00    -0.485 OA
BRANCH  17  18
ATOM     18  C   UNL     1       1.443  -3.877  -0.155  1.00  0.00     0.122 A 
ATOM     19  C   UNL     1       1.194  -2.378   1.903  1.00  0.00     0.048 C 
ATOM     20  C   UNL     1       1.912  -3.413   1.087  1.00  0.00    -0.009 A 
ATOM     21  C   UNL     1       3.149  -3.877   1.559  1.00  0.00     0.007 A 
ATOM     22  C   UNL     1       3.861  -4.843   0.852  1.00  0.00     0.001 A 
ATOM     23  C   UNL     1       2.148  -4.859  -0.851  1.00  0.00     0.047 A 
ATOM     24  C   UNL     1       3.353  -5.346  -0.344  1.00  0.00     0.004 A 
ENDBRANCH  17  18
ENDBRANCH  16  17
ENDBRANCH   8  16
BRANCH  10  25
ATOM     25  C   UNL     1       1.427   0.333  -0.841  1.00  0.00     0.155 C 
BRANCH  25  26
ATOM     26  C   UNL     1       2.743  -0.438  -0.950  1.00  0.00     0.131 C 
ATOM     27  C   UNL     1       3.875   0.303  -0.255  1.00  0.00     0.040 C 
BRANCH  26  28
ATOM     28  O   UNL     1       3.105  -0.724  -2.298  1.00  0.00    -0.392 OA
ATOM     29  H   UNL     1       3.260   0.106  -2.774  1.00  0.00     0.211 HD
ENDBRANCH  26  28
ENDBRANCH  25  26
ENDBRANCH  10  25
ENDBRANCH   4   7
ENDBRANCH   2   3
ENDBRANCH   1   2
BRANCH   1  30
ATOM     30  C   UNL     1      -2.478   4.802  -2.727  1.00  0.00     0.023 C 
BRANCH  30  31
ATOM     31  C   UNL     1      -1.340   5.805  -2.866  1.00  0.00     0.116 C 
BRANCH  31  32
ATOM     32  N   UNL     1      -0.820   5.958  -4.215  1.00  0.00    -0.352 N 
ATOM     33  C   UNL     1       0.225   6.758  -4.662  1.00  0.00     0.251 C 
ATOM     34  H   UNL     1      -1.270   5.422  -4.907  1.00  0.00     0.163 HD
ATOM     35  O   UNL     1       0.441   6.901  -5.848  1.00  0.00    -0.269 OA
BRANCH  33  36
ATOM     36  C   UNL     1       1.161   7.341  -3.663  1.00  0.00     0.039 A 
ATOM     37  C   UNL     1       2.533   7.155  -3.886  1.00  0.00     0.014 A 
ATOM     38  C   UNL     1       0.716   7.836  -2.443  1.00  0.00     0.014 A 
ATOM     39  C   UNL     1       3.417   7.216  -2.812  1.00  0.00     0.010 A 
ATOM     40  C   UNL     1       1.565   7.782  -1.358  1.00  0.00     0.010 A 
ATOM     41  C   UNL     1       2.898   7.403  -1.533  1.00  0.00    -0.014 A 
BRANCH  41  42
ATOM     42  C   UNL     1       3.635   7.122  -0.307  1.00  0.00     0.031 A 
ATOM     43  C   UNL     1       4.085   8.240   0.552  1.00  0.00     0.074 A 
ATOM     44  C   UNL     1       3.813   5.841   0.088  1.00  0.00     0.049 A 
ATOM     45  N   UNL     1       4.987   8.146   1.467  1.00  0.00    -0.248 NA
ATOM     46  C   UNL     1       3.573   9.597   0.401  1.00  0.00     0.031 C 
ATOM     47  C   UNL     1       4.283   5.373   1.391  1.00  0.00     0.029 A 
ATOM     48  N   UNL     1       3.820   4.680  -0.683  1.00  0.00    -0.354 N 
ATOM     49  C   UNL     1       4.958   9.304   2.215  1.00  0.00     0.074 A 
ATOM     50  C   UNL     1       4.130  10.204   1.451  1.00  0.00     0.031 C 
ATOM     51  C   UNL     1       4.844   4.163   1.231  1.00  0.00     0.029 A 
ATOM     52  C   UNL     1       4.896   3.925  -0.202  1.00  0.00     0.049 A 
ATOM     53  H   UNL     1       3.201   4.442  -1.411  1.00  0.00     0.167 HD
ATOM     54  C   UNL     1       5.527   9.300   3.456  1.00  0.00     0.034 A 
ATOM     55  C   UNL     1       6.035   3.642  -0.906  1.00  0.00     0.034 A 
ATOM     56  C   UNL     1       6.274   8.057   3.684  1.00  0.00     0.049 A 
ATOM     57  C   UNL     1       7.288   4.027  -0.149  1.00  0.00     0.074 A 
ATOM     58  C   UNL     1       6.008   6.908   4.410  1.00  0.00     0.029 A 
ATOM     59  N   UNL     1       7.371   7.765   2.877  1.00  0.00    -0.354 N 
ATOM     60  N   UNL     1       7.323   4.948   0.777  1.00  0.00    -0.248 NA
ATOM     61  C   UNL     1       8.587   3.402  -0.366  1.00  0.00     0.031 C 
ATOM     62  C   UNL     1       6.916   5.900   3.984  1.00  0.00     0.029 A 
ATOM     63  C   UNL     1       7.757   6.447   3.027  1.00  0.00     0.049 A 
ATOM     64  H   UNL     1       7.814   8.411   2.281  1.00  0.00     0.167 HD
ATOM     65  C   UNL     1       8.591   5.033   1.296  1.00  0.00     0.074 A 
ATOM     66  C   UNL     1       9.342   4.039   0.545  1.00  0.00     0.031 C 
ATOM     67  C   UNL     1       8.903   5.913   2.297  1.00  0.00     0.034 A 
BRANCH  54  68
ATOM     68  C   UNL     1       5.185  10.274   4.576  1.00  0.00     0.023 A 
ATOM     69  C   UNL     1       5.397   9.877   5.917  1.00  0.00     0.031 A 
ATOM     70  C   UNL     1       4.594  11.545   4.428  1.00  0.00     0.131 A 
ATOM     71  C   UNL     1       4.950  10.657   7.004  1.00  0.00     0.055 A 
ATOM     72  C   UNL     1       4.110  12.303   5.505  1.00  0.00     0.041 A 
ATOM     73  F   UNL     1       4.498  12.155   3.243  1.00  0.00    -0.206 F 
ATOM     74  C   UNL     1       4.275  11.855   6.803  1.00  0.00     0.022 A 
BRANCH  71  75
ATOM     75  S   UNL     1       5.252  10.079   8.697  1.00  0.00     0.124 S 
ATOM     76  O   UNL     1       4.532   8.810   8.723  1.00  0.00    -0.237 OA
ATOM     77  O   UNL     1       6.707   9.999   8.742  1.00  0.00    -0.237 OA
ATOM     78  O   UNL     1       4.669  11.135   9.525  1.00  0.00    -0.744 OA
ENDBRANCH  71  75
ENDBRANCH  54  68
BRANCH  55  79
ATOM     79  C   UNL     1       5.891   3.660  -2.390  1.00  0.00     0.023 A 
ATOM     80  C   UNL     1       4.865   2.867  -2.927  1.00  0.00     0.031 A 
ATOM     81  C   UNL     1       6.418   4.670  -3.203  1.00  0.00     0.131 A 
ATOM     82  C   UNL     1       4.205   3.263  -4.092  1.00  0.00     0.055 A 
ATOM     83  C   UNL     1       5.849   4.968  -4.452  1.00  0.00     0.041 A 
ATOM     84  F   UNL     1       7.403   5.462  -2.757  1.00  0.00    -0.206 F 
ATOM     85  C   UNL     1       4.698   4.299  -4.879  1.00  0.00     0.022 A 
BRANCH  82  86
ATOM     86  S   UNL     1       2.528   2.614  -4.332  1.00  0.00     0.124 S 
ATOM     87  O   UNL     1       2.698   1.189  -4.053  1.00  0.00    -0.237 OA
ATOM     88  O   UNL     1       1.793   3.346  -3.302  1.00  0.00    -0.237 OA
ATOM     89  O   UNL     1       2.215   2.960  -5.711  1.00  0.00    -0.744 OA
ENDBRANCH  82  86
ENDBRANCH  55  79
BRANCH  67  90
ATOM     90  C   UNL     1      10.302   6.292   2.755  1.00  0.00     0.023 A 
ATOM     91  C   UNL     1      11.471   5.918   2.078  1.00  0.00     0.031 A 
ATOM     92  C   UNL     1      10.503   7.140   3.875  1.00  0.00     0.131 A 
ATOM     93  C   UNL     1      12.745   6.295   2.542  1.00  0.00     0.055 A 
ATOM     94  C   UNL     1      11.765   7.579   4.291  1.00  0.00     0.041 A 
ATOM     95  F   UNL     1       9.481   7.602   4.610  1.00  0.00    -0.206 F 
ATOM     96  C   UNL     1      12.901   7.143   3.632  1.00  0.00     0.022 A 
BRANCH  93  97
ATOM     97  S   UNL     1      14.196   5.599   1.709  1.00  0.00     0.124 S 
ATOM     98  O   UNL     1      14.038   4.172   1.977  1.00  0.00    -0.237 OA
ATOM     99  O   UNL     1      13.989   6.008   0.324  1.00  0.00    -0.237 OA
ATOM    100  O   UNL     1      15.323   6.238   2.385  1.00  0.00    -0.744 OA
ENDBRANCH  93  97
ENDBRANCH  67  90
ENDBRANCH  41  42
ENDBRANCH  33  36
ENDBRANCH  31  32
ENDBRANCH  30  31
ENDBRANCH   1  30
TORSDOF 20
