REMARK SMILES COc1ccc(-c2nc3cc(N4C[C@@H](C(=O)NCCCCNC(=O)c5ccc(-c6c7nc(c(-c8cc(S(=O)(=O)[O-])ccc8F)c8ccc([nH]8)c(-c8cc(S(=O)(=O)[O-])ccc8F)c8nc(c(-c9cc(S(=O)(=O)[O-])ccc9F)c9ccc6[nH]9)C=C8)C=C7)cc5)CC4=O)ccc3o2)cc1
REMARK SMILES IDX 19 1 18 2 17 3 15 4 16 5 14 7 12 8 13 9 89 10 88 11 90 12
REMARK SMILES IDX 11 13 7 14 8 15 94 16 9 17 93 18 10 19 92 20 91 21 6 22 3 23
REMARK SMILES IDX 4 24 96 25 5 26 95 27 2 28 1 29 20 30 21 31 22 32 23 33
REMARK SMILES IDX 24 35 25 36 26 37 87 38 27 39 86 40 28 41 29 42 30 43 80 44
REMARK SMILES IDX 31 45 85 46 79 47 81 48 32 49 84 50 78 51 77 52 33 54 65 55
REMARK SMILES IDX 45 56 64 57 46 58 49 59 63 60 82 61 47 62 48 63 62 65 83 66
REMARK SMILES IDX 50 67 34 68 35 69 43 70 36 71 42 72 44 73 41 74 37 75 38 76
REMARK SMILES IDX 39 77 40 78 66 79 67 80 75 81 68 82 74 83 76 84 73 85 69 86
REMARK SMILES IDX 70 87 71 88 72 89 51 90 52 91 60 92 53 93 59 94 61 95 58 96
REMARK SMILES IDX 54 97 55 98 56 99 57 100
REMARK H PARENT 17 6 22 34 81 53 49 64
REMARK Flexibility Score: inf
ROOT
ATOM      1  C   UNL     1       9.359 -10.700   9.234  1.00  0.00     0.023 C 
ENDROOT
BRANCH   1   2
ATOM      2  C   UNL     1       8.775  -9.289   9.246  1.00  0.00     0.116 C 
BRANCH   2   3
ATOM      3  N   UNL     1       9.803  -8.287   9.025  1.00  0.00    -0.356 N 
ATOM      4  C   UNL     1      10.058  -7.485   7.962  1.00  0.00     0.225 C 
ATOM      5  O   UNL     1      11.026  -6.724   8.037  1.00  0.00    -0.275 OA
ATOM      6  H   UNL     1      10.423  -8.170   9.781  1.00  0.00     0.163 HD
BRANCH   4   7
ATOM      7  C   UNL     1       9.170  -7.445   6.739  1.00  0.00     0.107 C 
ATOM      8  N   UNL     1       6.852  -7.671   6.351  1.00  0.00    -0.312 N 
ATOM      9  C   UNL     1       7.812  -6.860   7.062  1.00  0.00     0.139 C 
ATOM     10  C   UNL     1       7.425  -8.834   5.830  1.00  0.00     0.227 C 
ATOM     11  C   UNL     1       8.919  -8.767   6.037  1.00  0.00     0.116 C 
ATOM     12  O   UNL     1       6.882  -9.746   5.234  1.00  0.00    -0.274 OA
BRANCH   8  13
ATOM     13  C   UNL     1       5.512  -7.258   6.133  1.00  0.00     0.046 A 
ATOM     14  C   UNL     1       2.415  -4.457   4.630  1.00  0.00     0.227 A 
ATOM     15  N   UNL     1       3.585  -4.237   5.195  1.00  0.00    -0.209 NA
ATOM     16  O   UNL     1       1.963  -5.752   4.709  1.00  0.00    -0.436 OA
ATOM     17  C   UNL     1       3.995  -5.480   5.565  1.00  0.00     0.112 A 
ATOM     18  C   UNL     1       3.020  -6.417   5.277  1.00  0.00     0.155 A 
ATOM     19  C   UNL     1       5.233  -5.886   6.062  1.00  0.00     0.058 A 
ATOM     20  C   UNL     1       3.184  -7.780   5.475  1.00  0.00     0.051 A 
ATOM     21  C   UNL     1       4.477  -8.180   5.874  1.00  0.00     0.030 A 
BRANCH  14  22
ATOM     22  C   UNL     1       1.726  -3.549   3.731  1.00  0.00     0.037 A 
ATOM     23  C   UNL     1       0.592  -1.614   2.035  1.00  0.00     0.118 A 
ATOM     24  C   UNL     1      -0.188  -2.272   2.995  1.00  0.00     0.047 A 
ATOM     25  C   UNL     1       1.939  -1.941   1.910  1.00  0.00     0.047 A 
ATOM     26  C   UNL     1       0.369  -3.247   3.834  1.00  0.00     0.017 A 
ATOM     27  C   UNL     1       2.499  -2.895   2.758  1.00  0.00     0.017 A 
BRANCH  23  28
ATOM     28  O   UNL     1      -0.062  -0.662   1.300  1.00  0.00    -0.497 OA
ATOM     29  C   UNL     1       0.664  -0.087   0.219  1.00  0.00     0.278 C 
ENDBRANCH  23  28
ENDBRANCH  14  22
ENDBRANCH   8  13
ENDBRANCH   4   7
ENDBRANCH   2   3
ENDBRANCH   1   2
BRANCH   1  30
ATOM     30  C   UNL     1      10.303 -11.006  10.398  1.00  0.00     0.023 C 
BRANCH  30  31
ATOM     31  C   UNL     1       9.715 -10.774  11.784  1.00  0.00     0.116 C 
BRANCH  31  32
ATOM     32  N   UNL     1       8.490 -11.524  12.012  1.00  0.00    -0.352 N 
ATOM     33  C   UNL     1       8.125 -12.265  13.111  1.00  0.00     0.251 C 
ATOM     34  H   UNL     1       7.833 -11.498  11.279  1.00  0.00     0.163 HD
ATOM     35  O   UNL     1       7.107 -12.949  13.074  1.00  0.00    -0.269 OA
BRANCH  33  36
ATOM     36  C   UNL     1       8.987 -12.258  14.311  1.00  0.00     0.039 A 
ATOM     37  C   UNL     1       9.330 -13.476  14.903  1.00  0.00     0.014 A 
ATOM     38  C   UNL     1       9.484 -11.058  14.826  1.00  0.00     0.014 A 
ATOM     39  C   UNL     1      10.232 -13.494  15.968  1.00  0.00     0.010 A 
ATOM     40  C   UNL     1      10.439 -11.085  15.836  1.00  0.00     0.010 A 
ATOM     41  C   UNL     1      10.825 -12.303  16.417  1.00  0.00    -0.014 A 
BRANCH  41  42
ATOM     42  C   UNL     1      11.847 -12.307  17.495  1.00  0.00     0.031 A 
ATOM     43  C   UNL     1      11.569 -11.612  18.798  1.00  0.00     0.074 A 
ATOM     44  C   UNL     1      13.047 -12.879  17.274  1.00  0.00     0.049 A 
ATOM     45  N   UNL     1      12.356 -11.434  19.828  1.00  0.00    -0.248 NA
ATOM     46  C   UNL     1      10.237 -11.008  18.946  1.00  0.00     0.031 C 
ATOM     47  C   UNL     1      13.450 -13.552  16.037  1.00  0.00     0.029 A 
ATOM     48  N   UNL     1      14.153 -12.981  18.081  1.00  0.00    -0.354 N 
ATOM     49  C   UNL     1      11.619 -10.690  20.743  1.00  0.00     0.074 A 
ATOM     50  C   UNL     1      10.352 -10.389  20.110  1.00  0.00     0.031 C 
ATOM     51  C   UNL     1      14.698 -14.024  16.180  1.00  0.00     0.029 A 
ATOM     52  C   UNL     1      15.204 -13.649  17.496  1.00  0.00     0.049 A 
ATOM     53  H   UNL     1      14.190 -12.612  18.992  1.00  0.00     0.167 HD
ATOM     54  C   UNL     1      11.955 -10.317  22.004  1.00  0.00     0.034 A 
ATOM     55  C   UNL     1      16.437 -13.920  17.966  1.00  0.00     0.034 A 
ATOM     56  C   UNL     1      13.222 -10.629  22.620  1.00  0.00     0.049 A 
ATOM     57  C   UNL     1      16.807 -13.461  19.352  1.00  0.00     0.074 A 
ATOM     58  C   UNL     1      13.654 -10.340  23.902  1.00  0.00     0.029 A 
ATOM     59  N   UNL     1      14.269 -11.295  21.992  1.00  0.00    -0.354 N 
ATOM     60  N   UNL     1      16.085 -12.793  20.222  1.00  0.00    -0.248 NA
ATOM     61  C   UNL     1      18.156 -13.799  19.821  1.00  0.00     0.031 C 
ATOM     62  C   UNL     1      14.980 -10.771  24.028  1.00  0.00     0.029 A 
ATOM     63  C   UNL     1      15.354 -11.398  22.850  1.00  0.00     0.049 A 
ATOM     64  H   UNL     1      14.243 -11.643  21.071  1.00  0.00     0.167 HD
ATOM     65  C   UNL     1      16.884 -12.660  21.355  1.00  0.00     0.074 A 
ATOM     66  C   UNL     1      18.136 -13.326  21.059  1.00  0.00     0.031 C 
ATOM     67  C   UNL     1      16.604 -12.050  22.535  1.00  0.00     0.034 A 
BRANCH  54  68
ATOM     68  C   UNL     1      10.936  -9.510  22.776  1.00  0.00     0.023 A 
ATOM     69  C   UNL     1       9.659 -10.023  23.067  1.00  0.00     0.031 A 
ATOM     70  C   UNL     1      11.218  -8.192  23.175  1.00  0.00     0.131 A 
ATOM     71  C   UNL     1       8.683  -9.195  23.640  1.00  0.00     0.055 A 
ATOM     72  C   UNL     1      10.271  -7.402  23.832  1.00  0.00     0.041 A 
ATOM     73  F   UNL     1      12.411  -7.637  22.910  1.00  0.00    -0.206 F 
ATOM     74  C   UNL     1       8.988  -7.895  24.049  1.00  0.00     0.022 A 
BRANCH  71  75
ATOM     75  S   UNL     1       6.966  -9.781  23.672  1.00  0.00     0.124 S 
ATOM     76  O   UNL     1       6.716 -10.037  22.256  1.00  0.00    -0.237 OA
ATOM     77  O   UNL     1       7.051 -10.957  24.530  1.00  0.00    -0.237 OA
ATOM     78  O   UNL     1       6.229  -8.650  24.232  1.00  0.00    -0.744 OA
ENDBRANCH  71  75
ENDBRANCH  54  68
BRANCH  55  79
ATOM     79  C   UNL     1      17.414 -14.668  17.125  1.00  0.00     0.023 A 
ATOM     80  C   UNL     1      17.845 -15.952  17.495  1.00  0.00     0.031 A 
ATOM     81  C   UNL     1      17.952 -14.102  15.957  1.00  0.00     0.131 A 
ATOM     82  C   UNL     1      18.815 -16.613  16.726  1.00  0.00     0.055 A 
ATOM     83  C   UNL     1      18.882 -14.783  15.169  1.00  0.00     0.041 A 
ATOM     84  F   UNL     1      17.568 -12.880  15.555  1.00  0.00    -0.206 F 
ATOM     85  C   UNL     1      19.327 -16.042  15.559  1.00  0.00     0.022 A 
BRANCH  82  86
ATOM     86  S   UNL     1      19.448 -18.208  17.312  1.00  0.00     0.124 S 
ATOM     87  O   UNL     1      20.007 -17.848  18.610  1.00  0.00    -0.237 OA
ATOM     88  O   UNL     1      18.238 -19.023  17.338  1.00  0.00    -0.237 OA
ATOM     89  O   UNL     1      20.425 -18.581  16.292  1.00  0.00    -0.744 OA
ENDBRANCH  82  86
ENDBRANCH  55  79
BRANCH  67  90
ATOM     90  C   UNL     1      17.664 -12.120  23.608  1.00  0.00     0.023 A 
ATOM     91  C   UNL     1      18.897 -11.458  23.476  1.00  0.00     0.031 A 
ATOM     92  C   UNL     1      17.440 -12.874  24.773  1.00  0.00     0.131 A 
ATOM     93  C   UNL     1      19.881 -11.608  24.466  1.00  0.00     0.055 A 
ATOM     94  C   UNL     1      18.399 -12.972  25.782  1.00  0.00     0.041 A 
ATOM     95  F   UNL     1      16.281 -13.530  24.951  1.00  0.00    -0.206 F 
ATOM     96  C   UNL     1      19.633 -12.347  25.625  1.00  0.00     0.022 A 
BRANCH  93  97
ATOM     97  S   UNL     1      21.525 -10.898  24.176  1.00  0.00     0.124 S 
ATOM     98  O   UNL     1      21.931 -11.566  22.944  1.00  0.00    -0.237 OA
ATOM     99  O   UNL     1      21.234  -9.473  24.064  1.00  0.00    -0.237 OA
ATOM    100  O   UNL     1      22.279 -11.284  25.367  1.00  0.00    -0.744 OA
ENDBRANCH  93  97
ENDBRANCH  67  90
ENDBRANCH  41  42
ENDBRANCH  33  36
ENDBRANCH  31  32
ENDBRANCH  30  31
ENDBRANCH   1  30
TORSDOF 17
