REMARK SMILES Cn1cc(S(=O)(=O)N[C@@H]2C=C[C@@H](C(=O)NCCCCNC(=O)c3ccc(-c4c5nc(c(-c6cc(S(=O)(=O)[O-])ccc6F)c6ccc([nH]6)c(-c6cc(S(=O)(=O)[O-])ccc6F)c6nc(c(-c7cc(S(=O)(=O)[O-])ccc7F)c7ccc4[nH]7)C=C6)C=C5)cc3)C2)cc1C(N)=O
REMARK SMILES IDX 17 1 16 2 15 3 13 4 14 5 12 7 9 8 10 9 86 10 11 11 8 12 5 14
REMARK SMILES IDX 6 15 7 16 4 17 1 18 2 19 3 20 88 21 87 22 89 23 90 24 91 25
REMARK SMILES IDX 18 28 19 29 20 30 21 31 22 33 23 34 24 35 85 36 25 37 84 38
REMARK SMILES IDX 26 39 27 40 28 41 78 42 29 43 83 44 77 45 79 46 30 47 82 48
REMARK SMILES IDX 76 49 75 50 31 52 63 53 43 54 62 55 44 56 47 57 61 58 80 59
REMARK SMILES IDX 45 60 46 61 60 63 81 64 48 65 32 66 33 67 41 68 34 69 40 70
REMARK SMILES IDX 42 71 39 72 35 73 36 74 37 75 38 76 64 77 65 78 73 79 66 80
REMARK SMILES IDX 72 81 74 82 71 83 67 84 68 85 69 86 70 87 49 88 50 89 58 90
REMARK SMILES IDX 51 91 57 92 59 93 56 94 52 95 53 96 54 97 55 98
REMARK H PARENT 15 6 8 13 90 26 90 27 20 32 79 51 47 62
REMARK Flexibility Score: inf
ROOT
ATOM      1  C   UNL     1      -2.747  -1.863  -2.634  1.00  0.00     0.023 C 
ENDROOT
BRANCH   1   2
ATOM      2  C   UNL     1      -3.695  -2.527  -1.645  1.00  0.00     0.116 C 
BRANCH   2   3
ATOM      3  N   UNL     1      -3.009  -3.432  -0.740  1.00  0.00    -0.356 N 
ATOM      4  C   UNL     1      -3.025  -3.499   0.622  1.00  0.00     0.226 C 
ATOM      5  O   UNL     1      -2.410  -4.424   1.161  1.00  0.00    -0.274 OA
ATOM      6  H   UNL     1      -2.442  -4.105  -1.181  1.00  0.00     0.163 HD
BRANCH   4   7
ATOM      7  C   UNL     1      -3.768  -2.473   1.482  1.00  0.00     0.103 C 
ATOM      8  C   UNL     1      -4.465  -0.119   1.226  1.00  0.00     0.093 C 
ATOM      9  C   UNL     1      -5.570  -1.083   0.942  1.00  0.00    -0.011 C 
ATOM     10  C   UNL     1      -3.233  -1.040   1.342  1.00  0.00     0.042 C 
ATOM     11  C   UNL     1      -5.215  -2.359   1.120  1.00  0.00    -0.016 C 
BRANCH   8  12
ATOM     12  N   UNL     1      -4.684   0.557   2.514  1.00  0.00    -0.204 NA
ATOM     13  H   UNL     1      -4.839  -0.169   3.214  1.00  0.00     0.142 HD
BRANCH  12  14
ATOM     14  S   UNL     1      -5.967   1.651   2.631  1.00  0.00     0.242 S 
ATOM     15  O   UNL     1      -6.087   2.347   1.371  1.00  0.00    -0.207 OA
ATOM     16  O   UNL     1      -5.807   2.346   3.888  1.00  0.00    -0.207 OA
BRANCH  14  17
ATOM     17  C   UNL     1      -7.439   0.771   2.813  1.00  0.00     0.100 A 
ATOM     18  C   UNL     1     -10.976   0.184   2.362  1.00  0.00     0.150 C 
ATOM     19  N   UNL     1      -9.558   0.121   2.651  1.00  0.00    -0.345 N 
ATOM     20  C   UNL     1      -8.700   1.175   2.437  1.00  0.00     0.107 A 
ATOM     21  C   UNL     1      -8.853  -0.983   3.105  1.00  0.00     0.107 A 
ATOM     22  C   UNL     1      -7.553  -0.542   3.324  1.00  0.00     0.055 A 
BRANCH  21  23
ATOM     23  C   UNL     1      -9.395  -2.314   3.287  1.00  0.00     0.265 C 
ATOM     24  N   UNL     1      -8.475  -3.322   3.244  1.00  0.00    -0.364 N 
ATOM     25  O   UNL     1     -10.584  -2.579   3.426  1.00  0.00    -0.268 OA
ATOM     26  H   UNL     1      -7.519  -3.112   3.131  1.00  0.00     0.160 HD
ATOM     27  H   UNL     1      -8.767  -4.259   3.325  1.00  0.00     0.160 HD
ENDBRANCH  21  23
ENDBRANCH  14  17
ENDBRANCH  12  14
ENDBRANCH   8  12
ENDBRANCH   4   7
ENDBRANCH   2   3
ENDBRANCH   1   2
BRANCH   1  28
ATOM     28  C   UNL     1      -2.238  -2.780  -3.741  1.00  0.00     0.023 C 
BRANCH  28  29
ATOM     29  C   UNL     1      -3.322  -3.478  -4.559  1.00  0.00     0.116 C 
BRANCH  29  30
ATOM     30  N   UNL     1      -4.291  -2.558  -5.141  1.00  0.00    -0.352 N 
ATOM     31  C   UNL     1      -4.735  -2.479  -6.441  1.00  0.00     0.251 C 
ATOM     32  H   UNL     1      -4.681  -1.902  -4.519  1.00  0.00     0.163 HD
ATOM     33  O   UNL     1      -5.482  -1.571  -6.786  1.00  0.00    -0.269 OA
BRANCH  31  34
ATOM     34  C   UNL     1      -4.259  -3.478  -7.419  1.00  0.00     0.039 A 
ATOM     35  C   UNL     1      -3.634  -3.035  -8.586  1.00  0.00     0.014 A 
ATOM     36  C   UNL     1      -4.348  -4.842  -7.131  1.00  0.00     0.014 A 
ATOM     37  C   UNL     1      -2.997  -3.960  -9.415  1.00  0.00     0.010 A 
ATOM     38  C   UNL     1      -3.659  -5.753  -7.923  1.00  0.00     0.010 A 
ATOM     39  C   UNL     1      -2.954  -5.317  -9.056  1.00  0.00    -0.014 A 
BRANCH  39  40
ATOM     40  C   UNL     1      -2.124  -6.291  -9.810  1.00  0.00     0.031 A 
ATOM     41  C   UNL     1      -2.773  -7.438 -10.528  1.00  0.00     0.074 A 
ATOM     42  C   UNL     1      -0.781  -6.197  -9.749  1.00  0.00     0.049 A 
ATOM     43  N   UNL     1      -2.218  -8.459 -11.127  1.00  0.00    -0.248 NA
ATOM     44  C   UNL     1      -4.244  -7.452 -10.546  1.00  0.00     0.031 C 
ATOM     45  C   UNL     1      -0.036  -5.155  -9.037  1.00  0.00     0.029 A 
ATOM     46  N   UNL     1       0.199  -7.002 -10.274  1.00  0.00    -0.354 N 
ATOM     47  C   UNL     1      -3.268  -9.248 -11.580  1.00  0.00     0.074 A 
ATOM     48  C   UNL     1      -4.492  -8.609 -11.143  1.00  0.00     0.031 C 
ATOM     49  C   UNL     1       1.280  -5.381  -9.175  1.00  0.00     0.029 A 
ATOM     50  C   UNL     1       1.475  -6.605  -9.945  1.00  0.00     0.049 A 
ATOM     51  H   UNL     1       0.008  -7.789 -10.833  1.00  0.00     0.167 HD
ATOM     52  C   UNL     1      -3.213 -10.391 -12.308  1.00  0.00     0.034 A 
ATOM     53  C   UNL     1       2.666  -7.174 -10.212  1.00  0.00     0.034 A 
ATOM     54  C   UNL     1      -1.985 -11.005 -12.750  1.00  0.00     0.049 A 
ATOM     55  C   UNL     1       2.700  -8.454 -11.004  1.00  0.00     0.074 A 
ATOM     56  C   UNL     1      -1.818 -12.110 -13.566  1.00  0.00     0.029 A 
ATOM     57  N   UNL     1      -0.712 -10.574 -12.400  1.00  0.00    -0.354 N 
ATOM     58  N   UNL     1       1.698  -9.156 -11.479  1.00  0.00    -0.248 NA
ATOM     59  C   UNL     1       4.025  -9.017 -11.296  1.00  0.00     0.031 C 
ATOM     60  C   UNL     1      -0.448 -12.382 -13.662  1.00  0.00     0.029 A 
ATOM     61  C   UNL     1       0.244 -11.413 -12.954  1.00  0.00     0.049 A 
ATOM     62  H   UNL     1      -0.516  -9.788 -11.841  1.00  0.00     0.167 HD
ATOM     63  C   UNL     1       2.273 -10.236 -12.140  1.00  0.00     0.074 A 
ATOM     64  C   UNL     1       3.709 -10.083 -12.016  1.00  0.00     0.031 C 
ATOM     65  C   UNL     1       1.671 -11.261 -12.794  1.00  0.00     0.034 A 
BRANCH  52  66
ATOM     66  C   UNL     1      -4.523 -11.058 -12.646  1.00  0.00     0.023 A 
ATOM     67  C   UNL     1      -5.473 -10.437 -13.475  1.00  0.00     0.031 A 
ATOM     68  C   UNL     1      -4.838 -12.319 -12.110  1.00  0.00     0.131 A 
ATOM     69  C   UNL     1      -6.721 -11.043 -13.685  1.00  0.00     0.055 A 
ATOM     70  C   UNL     1      -6.052 -12.951 -12.384  1.00  0.00     0.041 A 
ATOM     71  F   UNL     1      -3.977 -12.950 -11.297  1.00  0.00    -0.206 F 
ATOM     72  C   UNL     1      -7.008 -12.307 -13.164  1.00  0.00     0.022 A 
BRANCH  69  73
ATOM     73  S   UNL     1      -8.009 -10.097 -14.541  1.00  0.00     0.124 S 
ATOM     74  O   UNL     1      -8.152  -8.936 -13.666  1.00  0.00    -0.237 OA
ATOM     75  O   UNL     1      -7.403  -9.845 -15.843  1.00  0.00    -0.237 OA
ATOM     76  O   UNL     1      -9.154 -11.006 -14.550  1.00  0.00    -0.744 OA
ENDBRANCH  69  73
ENDBRANCH  52  66
BRANCH  53  77
ATOM     77  C   UNL     1       3.925  -6.563  -9.702  1.00  0.00     0.023 A 
ATOM     78  C   UNL     1       4.865  -6.006 -10.582  1.00  0.00     0.031 A 
ATOM     79  C   UNL     1       4.220  -6.559  -8.327  1.00  0.00     0.131 A 
ATOM     80  C   UNL     1       6.075  -5.500 -10.081  1.00  0.00     0.055 A 
ATOM     81  C   UNL     1       5.406  -6.017  -7.830  1.00  0.00     0.041 A 
ATOM     82  F   UNL     1       3.348  -7.072  -7.444  1.00  0.00    -0.206 F 
ATOM     83  C   UNL     1       6.347  -5.494  -8.711  1.00  0.00     0.022 A 
BRANCH  80  84
ATOM     84  S   UNL     1       7.321  -4.908 -11.258  1.00  0.00     0.124 S 
ATOM     85  O   UNL     1       7.548  -6.095 -12.075  1.00  0.00    -0.237 OA
ATOM     86  O   UNL     1       6.620  -3.806 -11.909  1.00  0.00    -0.237 OA
ATOM     87  O   UNL     1       8.438  -4.514 -10.402  1.00  0.00    -0.744 OA
ENDBRANCH  80  84
ENDBRANCH  53  77
BRANCH  65  88
ATOM     88  C   UNL     1       2.576 -12.279 -13.438  1.00  0.00     0.023 A 
ATOM     89  C   UNL     1       3.337 -13.173 -12.666  1.00  0.00     0.031 A 
ATOM     90  C   UNL     1       2.693 -12.340 -14.837  1.00  0.00     0.131 A 
ATOM     91  C   UNL     1       4.220 -14.062 -13.297  1.00  0.00     0.055 A 
ATOM     92  C   UNL     1       3.535 -13.261 -15.461  1.00  0.00     0.041 A 
ATOM     93  F   UNL     1       1.989 -11.506 -15.618  1.00  0.00    -0.206 F 
ATOM     94  C   UNL     1       4.313 -14.121 -14.691  1.00  0.00     0.022 A 
BRANCH  91  95
ATOM     95  S   UNL     1       5.301 -15.094 -12.270  1.00  0.00     0.124 S 
ATOM     96  O   UNL     1       6.086 -14.092 -11.555  1.00  0.00    -0.237 OA
ATOM     97  O   UNL     1       4.345 -15.847 -11.465  1.00  0.00    -0.237 OA
ATOM     98  O   UNL     1       6.048 -15.886 -13.245  1.00  0.00    -0.744 OA
ENDBRANCH  91  95
ENDBRANCH  65  88
ENDBRANCH  39  40
ENDBRANCH  31  34
ENDBRANCH  29  30
ENDBRANCH  28  29
ENDBRANCH   1  28
TORSDOF 18
