REMARK SMILES CC(C)N1C[C@@]2(CCCN(c3ccc(C(=O)NCCCCNC(=O)c4ccc(-c5c6nc(c(-c7cc(S(=O)(=O)[O-])ccc7F)c7ccc([nH]7)c(-c7cc(S(=O)(=O)[O-])ccc7F)c7nc(c(-c8cc(S(=O)(=O)[O-])ccc8F)c8ccc5[nH]8)C=C7)C=C6)cc4)cn3)C2)CCC1=O
REMARK SMILES IDX 20 1 19 2 18 3 17 4 15 5 16 6 14 8 11 9 12 10 89 11 13 12
REMARK SMILES IDX 88 13 10 14 4 15 5 16 93 17 6 18 92 19 94 20 7 21 90 22
REMARK SMILES IDX 91 23 8 24 9 25 2 26 1 27 3 28 21 29 22 30 23 31 24 33 25 34
REMARK SMILES IDX 26 35 87 36 27 37 86 38 28 39 29 40 30 41 80 42 31 43 85 44
REMARK SMILES IDX 79 45 81 46 32 47 84 48 78 49 77 50 33 52 65 53 45 54 64 55
REMARK SMILES IDX 46 56 49 57 63 58 82 59 47 60 48 61 62 63 83 64 50 65 34 66
REMARK SMILES IDX 35 67 43 68 36 69 42 70 44 71 41 72 37 73 38 74 39 75 40 76
REMARK SMILES IDX 66 77 67 78 75 79 68 80 74 81 76 82 73 83 69 84 70 85 71 86
REMARK SMILES IDX 72 87 51 88 52 89 60 90 53 91 59 92 61 93 58 94 54 95 55 96
REMARK SMILES IDX 56 97 57 98
REMARK H PARENT 17 7 22 32 81 51 49 62
REMARK Flexibility Score: inf
ROOT
ATOM      1  C   UNL     1      -7.684  -1.184   3.697  1.00  0.00     0.023 C 
ENDROOT
BRANCH   1   2
ATOM      2  C   UNL     1      -6.761  -0.417   2.750  1.00  0.00     0.023 C 
BRANCH   2   3
ATOM      3  C   UNL     1      -7.002   1.089   2.669  1.00  0.00     0.116 C 
BRANCH   3   4
ATOM      4  N   UNL     1      -6.717   1.777   3.921  1.00  0.00    -0.352 N 
ATOM      5  C   UNL     1      -5.922   2.877   4.141  1.00  0.00     0.252 C 
ATOM      6  O   UNL     1      -5.677   3.266   5.277  1.00  0.00    -0.269 OA
ATOM      7  H   UNL     1      -7.154   1.403   4.720  1.00  0.00     0.163 HD
BRANCH   5   8
ATOM      8  C   UNL     1      -5.321   3.572   2.997  1.00  0.00     0.058 A 
ATOM      9  C   UNL     1      -4.018   4.532   0.758  1.00  0.00     0.128 A 
ATOM     10  C   UNL     1      -5.412   4.580   0.825  1.00  0.00     0.048 A 
ATOM     11  N   UNL     1      -3.298   4.138   1.834  1.00  0.00    -0.239 NA
ATOM     12  C   UNL     1      -6.073   4.079   1.947  1.00  0.00     0.019 A 
ATOM     13  C   UNL     1      -3.949   3.688   2.933  1.00  0.00     0.127 A 
BRANCH   9  14
ATOM     14  N   UNL     1      -3.327   4.758  -0.418  1.00  0.00    -0.356 N 
ATOM     15  N   UNL     1      -0.912   1.023  -1.043  1.00  0.00    -0.340 N 
ATOM     16  C   UNL     1      -1.524   1.851  -2.083  1.00  0.00     0.128 C 
ATOM     17  C   UNL     1      -1.730   0.269  -0.203  1.00  0.00     0.222 C 
ATOM     18  C   UNL     1      -2.735   2.678  -1.629  1.00  0.00     0.006 C 
ATOM     19  C   UNL     1      -3.059   0.902   0.162  1.00  0.00     0.101 C 
ATOM     20  O   UNL     1      -1.391  -0.776   0.347  1.00  0.00    -0.275 OA
ATOM     21  C   UNL     1      -3.411   3.307  -2.882  1.00  0.00     0.012 C 
ATOM     22  C   UNL     1      -2.232   3.824  -0.703  1.00  0.00     0.127 C 
ATOM     23  C   UNL     1      -3.710   1.688  -0.960  1.00  0.00     0.020 C 
ATOM     24  C   UNL     1      -4.458   4.375  -2.542  1.00  0.00     0.022 C 
ATOM     25  C   UNL     1      -3.896   5.421  -1.581  1.00  0.00     0.118 C 
BRANCH  15  26
ATOM     26  C   UNL     1       0.558   0.845  -1.107  1.00  0.00     0.078 C 
ATOM     27  C   UNL     1       1.193  -0.027  -0.019  1.00  0.00     0.031 C 
ATOM     28  C   UNL     1       1.040   0.369  -2.482  1.00  0.00     0.031 C 
ENDBRANCH  15  26
ENDBRANCH   9  14
ENDBRANCH   5   8
ENDBRANCH   3   4
ENDBRANCH   2   3
ENDBRANCH   1   2
BRANCH   1  29
ATOM     29  C   UNL     1      -9.180  -1.034   3.434  1.00  0.00     0.116 C 
BRANCH  29  30
ATOM     30  N   UNL     1      -9.584  -1.480   2.109  1.00  0.00    -0.352 N 
ATOM     31  C   UNL     1     -10.634  -2.294   1.747  1.00  0.00     0.251 C 
ATOM     32  H   UNL     1      -9.027  -1.155   1.366  1.00  0.00     0.163 HD
ATOM     33  O   UNL     1     -10.756  -2.643   0.576  1.00  0.00    -0.269 OA
BRANCH  31  34
ATOM     34  C   UNL     1     -11.585  -2.777   2.775  1.00  0.00     0.039 A 
ATOM     35  C   UNL     1     -11.907  -4.137   2.810  1.00  0.00     0.014 A 
ATOM     36  C   UNL     1     -12.129  -1.904   3.719  1.00  0.00     0.014 A 
ATOM     37  C   UNL     1     -12.703  -4.634   3.847  1.00  0.00     0.010 A 
ATOM     38  C   UNL     1     -12.862  -2.412   4.790  1.00  0.00     0.010 A 
ATOM     39  C   UNL     1     -13.147  -3.784   4.873  1.00  0.00    -0.014 A 
BRANCH  39  40
ATOM     40  C   UNL     1     -13.891  -4.309   6.050  1.00  0.00     0.031 A 
ATOM     41  C   UNL     1     -15.302  -3.858   6.313  1.00  0.00     0.074 A 
ATOM     42  C   UNL     1     -13.269  -5.123   6.926  1.00  0.00     0.049 A 
ATOM     43  N   UNL     1     -16.076  -4.111   7.338  1.00  0.00    -0.248 NA
ATOM     44  C   UNL     1     -15.909  -2.980   5.303  1.00  0.00     0.031 C 
ATOM     45  C   UNL     1     -11.888  -5.599   6.805  1.00  0.00     0.029 A 
ATOM     46  N   UNL     1     -13.708  -5.685   8.100  1.00  0.00    -0.354 N 
ATOM     47  C   UNL     1     -17.255  -3.410   7.106  1.00  0.00     0.074 A 
ATOM     48  C   UNL     1     -17.067  -2.676   5.871  1.00  0.00     0.031 C 
ATOM     49  C   UNL     1     -11.602  -6.391   7.850  1.00  0.00     0.029 A 
ATOM     50  C   UNL     1     -12.757  -6.446   8.741  1.00  0.00     0.049 A 
ATOM     51  H   UNL     1     -14.619  -5.555   8.450  1.00  0.00     0.167 HD
ATOM     52  C   UNL     1     -18.394  -3.396   7.842  1.00  0.00     0.034 A 
ATOM     53  C   UNL     1     -12.802  -7.099   9.919  1.00  0.00     0.034 A 
ATOM     54  C   UNL     1     -18.571  -4.145   9.063  1.00  0.00     0.049 A 
ATOM     55  C   UNL     1     -14.072  -7.053  10.731  1.00  0.00     0.074 A 
ATOM     56  C   UNL     1     -19.702  -4.250   9.854  1.00  0.00     0.029 A 
ATOM     57  N   UNL     1     -17.588  -4.912   9.676  1.00  0.00    -0.354 N 
ATOM     58  N   UNL     1     -15.195  -6.424  10.472  1.00  0.00    -0.248 NA
ATOM     59  C   UNL     1     -14.082  -7.811  11.989  1.00  0.00     0.031 C 
ATOM     60  C   UNL     1     -19.385  -5.025  10.975  1.00  0.00     0.029 A 
ATOM     61  C   UNL     1     -18.078  -5.467  10.849  1.00  0.00     0.049 A 
ATOM     62  H   UNL     1     -16.676  -5.042   9.329  1.00  0.00     0.167 HD
ATOM     63  C   UNL     1     -16.055  -6.738  11.521  1.00  0.00     0.074 A 
ATOM     64  C   UNL     1     -15.325  -7.620  12.408  1.00  0.00     0.031 C 
ATOM     65  C   UNL     1     -17.335  -6.337  11.730  1.00  0.00     0.034 A 
BRANCH  52  66
ATOM     66  C   UNL     1     -19.525  -2.522   7.352  1.00  0.00     0.023 A 
ATOM     67  C   UNL     1     -20.151  -2.750   6.114  1.00  0.00     0.031 A 
ATOM     68  C   UNL     1     -19.963  -1.427   8.117  1.00  0.00     0.131 A 
ATOM     69  C   UNL     1     -21.119  -1.851   5.641  1.00  0.00     0.055 A 
ATOM     70  C   UNL     1     -20.987  -0.584   7.679  1.00  0.00     0.041 A 
ATOM     71  F   UNL     1     -19.391  -1.146   9.299  1.00  0.00    -0.206 F 
ATOM     72  C   UNL     1     -21.560  -0.784   6.427  1.00  0.00     0.022 A 
BRANCH  69  73
ATOM     73  S   UNL     1     -21.682  -2.011   3.925  1.00  0.00     0.124 S 
ATOM     74  O   UNL     1     -20.429  -1.866   3.189  1.00  0.00    -0.237 OA
ATOM     75  O   UNL     1     -22.280  -3.341   3.911  1.00  0.00    -0.237 OA
ATOM     76  O   UNL     1     -22.621  -0.902   3.767  1.00  0.00    -0.744 OA
ENDBRANCH  69  73
ENDBRANCH  52  66
BRANCH  53  77
ATOM     77  C   UNL     1     -11.610  -7.843  10.418  1.00  0.00     0.023 A 
ATOM     78  C   UNL     1     -11.639  -9.239  10.565  1.00  0.00     0.031 A 
ATOM     79  C   UNL     1     -10.437  -7.165  10.796  1.00  0.00     0.131 A 
ATOM     80  C   UNL     1     -10.537  -9.908  11.119  1.00  0.00     0.055 A 
ATOM     81  C   UNL     1      -9.324  -7.840  11.298  1.00  0.00     0.041 A 
ATOM     82  F   UNL     1     -10.355  -5.830  10.671  1.00  0.00    -0.206 F 
ATOM     83  C   UNL     1      -9.375  -9.220  11.475  1.00  0.00     0.022 A 
BRANCH  80  84
ATOM     84  S   UNL     1     -10.675 -11.687  11.444  1.00  0.00     0.124 S 
ATOM     85  O   UNL     1     -11.826 -11.737  12.339  1.00  0.00    -0.237 OA
ATOM     86  O   UNL     1     -10.880 -12.225  10.104  1.00  0.00    -0.237 OA
ATOM     87  O   UNL     1      -9.392 -12.021  12.058  1.00  0.00    -0.744 OA
ENDBRANCH  80  84
ENDBRANCH  53  77
BRANCH  65  88
ATOM     88  C   UNL     1     -18.037  -6.892  12.945  1.00  0.00     0.023 A 
ATOM     89  C   UNL     1     -17.651  -6.540  14.250  1.00  0.00     0.031 A 
ATOM     90  C   UNL     1     -19.105  -7.794  12.791  1.00  0.00     0.131 A 
ATOM     91  C   UNL     1     -18.294  -7.127  15.351  1.00  0.00     0.055 A 
ATOM     92  C   UNL     1     -19.778  -8.331  13.889  1.00  0.00     0.041 A 
ATOM     93  F   UNL     1     -19.514  -8.166  11.567  1.00  0.00    -0.206 F 
ATOM     94  C   UNL     1     -19.366  -8.007  15.178  1.00  0.00     0.022 A 
BRANCH  91  95
ATOM     95  S   UNL     1     -17.659  -6.787  17.015  1.00  0.00     0.124 S 
ATOM     96  O   UNL     1     -16.285  -7.272  16.921  1.00  0.00    -0.237 OA
ATOM     97  O   UNL     1     -17.818  -5.340  17.122  1.00  0.00    -0.237 OA
ATOM     98  O   UNL     1     -18.535  -7.571  17.884  1.00  0.00    -0.744 OA
ENDBRANCH  91  95
ENDBRANCH  65  88
ENDBRANCH  39  40
ENDBRANCH  31  34
ENDBRANCH  29  30
ENDBRANCH   1  29
TORSDOF 16
