REMARK SMILES COc1ccccc1NC(=O)N[C@@](C)(C(=O)NCCCCNC(=O)c1ccc(-c2c3nc(c(-c4cc(S(=O)(=O)[O-])ccc4F)c4ccc([nH]4)c(-c4cc(S(=O)(=O)[O-])ccc4F)c4nc(c(-c5cc(S(=O)(=O)[O-])ccc5F)c5ccc2[nH]5)C=C4)C=C3)cc1)C(F)(F)F
REMARK SMILES IDX 19 1 18 2 17 3 15 4 16 5 13 7 14 8 12 9 9 10 10 11 11 13
REMARK SMILES IDX 8 15 3 16 4 17 5 18 7 19 6 20 2 21 1 22 88 23 89 24 90 25
REMARK SMILES IDX 91 26 20 27 21 28 22 29 23 30 24 32 25 33 26 34 87 35 27 36
REMARK SMILES IDX 86 37 28 38 29 39 30 40 80 41 31 42 85 43 79 44 81 45 32 46
REMARK SMILES IDX 84 47 78 48 77 49 33 51 65 52 45 53 64 54 46 55 49 56 63 57
REMARK SMILES IDX 82 58 47 59 48 60 62 62 83 63 50 64 34 65 35 66 43 67 36 68
REMARK SMILES IDX 42 69 44 70 41 71 37 72 38 73 39 74 40 75 66 76 67 77 75 78
REMARK SMILES IDX 68 79 74 80 76 81 73 82 69 83 70 84 71 85 72 86 51 87 52 88
REMARK SMILES IDX 60 89 53 90 59 91 61 92 58 93 54 94 55 95 56 96 57 97
REMARK H PARENT 17 6 9 12 12 14 22 31 81 50 49 61
REMARK Flexibility Score: inf
ROOT
ATOM      1  C   UNL     1       8.347  -3.947   2.637  1.00  0.00     0.023 C 
ENDROOT
BRANCH   1   2
ATOM      2  C   UNL     1       7.012  -4.688   2.767  1.00  0.00     0.116 C 
BRANCH   2   3
ATOM      3  N   UNL     1       6.314  -4.220   3.945  1.00  0.00    -0.354 N 
ATOM      4  C   UNL     1       5.213  -3.493   4.226  1.00  0.00     0.255 C 
ATOM      5  O   UNL     1       5.130  -3.245   5.436  1.00  0.00    -0.272 OA
ATOM      6  H   UNL     1       6.768  -4.513   4.768  1.00  0.00     0.163 HD
BRANCH   4   7
ATOM      7  C   UNL     1       4.028  -3.266   3.250  1.00  0.00     0.213 C 
ATOM      8  C   UNL     1       3.366  -4.653   3.170  1.00  0.00     0.056 C 
BRANCH   7   9
ATOM      9  N   UNL     1       4.488  -2.850   1.880  1.00  0.00    -0.316 N 
ATOM     10  N   UNL     1       2.688  -1.975   0.561  1.00  0.00    -0.305 N 
ATOM     11  C   UNL     1       3.965  -2.325   0.763  1.00  0.00     0.320 C 
ATOM     12  H   UNL     1       2.608  -1.233  -0.081  1.00  0.00     0.172 HD
ATOM     13  O   UNL     1       4.785  -1.990  -0.101  1.00  0.00    -0.248 OA
ATOM     14  H   UNL     1       5.454  -3.009   1.773  1.00  0.00     0.166 HD
BRANCH  10  15
ATOM     15  C   UNL     1       1.436  -2.395   1.031  1.00  0.00     0.085 A 
ATOM     16  C   UNL     1       0.448  -1.426   1.291  1.00  0.00     0.142 A 
ATOM     17  C   UNL     1      -0.690  -1.763   2.027  1.00  0.00     0.048 A 
ATOM     18  C   UNL     1      -0.907  -3.088   2.402  1.00  0.00     0.004 A 
ATOM     19  C   UNL     1       1.140  -3.730   1.280  1.00  0.00     0.030 A 
ATOM     20  C   UNL     1      -0.018  -4.077   1.984  1.00  0.00     0.002 A 
BRANCH  16  21
ATOM     21  O   UNL     1       0.651  -0.092   1.039  1.00  0.00    -0.495 OA
ATOM     22  C   UNL     1       0.528   0.214  -0.349  1.00  0.00     0.278 C 
ENDBRANCH  16  21
ENDBRANCH  10  15
ENDBRANCH   7   9
BRANCH   7  23
ATOM     23  C   UNL     1       3.207  -2.201   4.029  1.00  0.00     0.420 C 
ATOM     24  F   UNL     1       3.951  -1.094   4.285  1.00  0.00    -0.168 F 
ATOM     25  F   UNL     1       2.128  -1.758   3.368  1.00  0.00    -0.168 F 
ATOM     26  F   UNL     1       2.724  -2.671   5.204  1.00  0.00    -0.168 F 
ENDBRANCH   7  23
ENDBRANCH   4   7
ENDBRANCH   2   3
ENDBRANCH   1   2
BRANCH   1  27
ATOM     27  C   UNL     1       9.180  -3.861   3.931  1.00  0.00     0.023 C 
BRANCH  27  28
ATOM     28  C   UNL     1       9.399  -5.169   4.688  1.00  0.00     0.116 C 
BRANCH  28  29
ATOM     29  N   UNL     1      10.068  -6.177   3.892  1.00  0.00    -0.352 N 
ATOM     30  C   UNL     1      11.097  -7.011   4.257  1.00  0.00     0.251 C 
ATOM     31  H   UNL     1       9.743  -6.278   2.968  1.00  0.00     0.163 HD
ATOM     32  O   UNL     1      11.619  -7.737   3.415  1.00  0.00    -0.269 OA
BRANCH  30  33
ATOM     33  C   UNL     1      11.597  -6.996   5.649  1.00  0.00     0.039 A 
ATOM     34  C   UNL     1      12.969  -6.844   5.863  1.00  0.00     0.014 A 
ATOM     35  C   UNL     1      10.723  -7.112   6.735  1.00  0.00     0.014 A 
ATOM     36  C   UNL     1      13.460  -6.752   7.166  1.00  0.00     0.010 A 
ATOM     37  C   UNL     1      11.209  -6.963   8.033  1.00  0.00     0.010 A 
ATOM     38  C   UNL     1      12.583  -6.781   8.262  1.00  0.00    -0.014 A 
BRANCH  38  39
ATOM     39  C   UNL     1      13.092  -6.626   9.651  1.00  0.00     0.031 A 
ATOM     40  C   UNL     1      12.989  -7.768  10.625  1.00  0.00     0.074 A 
ATOM     41  C   UNL     1      13.599  -5.442  10.047  1.00  0.00     0.049 A 
ATOM     42  N   UNL     1      13.326  -7.814  11.888  1.00  0.00    -0.248 NA
ATOM     43  C   UNL     1      12.398  -9.014  10.114  1.00  0.00     0.031 C 
ATOM     44  C   UNL     1      13.707  -4.247   9.208  1.00  0.00     0.029 A 
ATOM     45  N   UNL     1      14.108  -5.043  11.258  1.00  0.00    -0.354 N 
ATOM     46  C   UNL     1      12.976  -9.085  12.329  1.00  0.00     0.074 A 
ATOM     47  C   UNL     1      12.346  -9.755  11.210  1.00  0.00     0.031 C 
ATOM     48  C   UNL     1      14.261  -3.255   9.924  1.00  0.00     0.029 A 
ATOM     49  C   UNL     1      14.515  -3.728  11.281  1.00  0.00     0.049 A 
ATOM     50  H   UNL     1      14.176  -5.640  12.037  1.00  0.00     0.167 HD
ATOM     51  C   UNL     1      13.181  -9.649  13.547  1.00  0.00     0.034 A 
ATOM     52  C   UNL     1      15.024  -2.986  12.284  1.00  0.00     0.034 A 
ATOM     53  C   UNL     1      13.822  -8.969  14.646  1.00  0.00     0.049 A 
ATOM     54  C   UNL     1      15.243  -3.630  13.628  1.00  0.00     0.074 A 
ATOM     55  C   UNL     1      14.139  -9.463  15.901  1.00  0.00     0.029 A 
ATOM     56  N   UNL     1      14.238  -7.643  14.628  1.00  0.00    -0.354 N 
ATOM     57  N   UNL     1      14.965  -4.856  14.011  1.00  0.00    -0.248 NA
ATOM     58  C   UNL     1      15.857  -2.798  14.670  1.00  0.00     0.031 C 
ATOM     59  C   UNL     1      14.686  -8.421  16.659  1.00  0.00     0.029 A 
ATOM     60  C   UNL     1      14.779  -7.294  15.857  1.00  0.00     0.049 A 
ATOM     61  H   UNL     1      14.159  -7.038  13.855  1.00  0.00     0.167 HD
ATOM     62  C   UNL     1      15.396  -4.947  15.332  1.00  0.00     0.074 A 
ATOM     63  C   UNL     1      15.965  -3.658  15.672  1.00  0.00     0.031 C 
ATOM     64  C   UNL     1      15.331  -6.000  16.186  1.00  0.00     0.034 A 
BRANCH  51  65
ATOM     65  C   UNL     1      12.677 -11.059  13.750  1.00  0.00     0.023 A 
ATOM     66  C   UNL     1      13.172 -12.137  12.995  1.00  0.00     0.031 A 
ATOM     67  C   UNL     1      11.659 -11.325  14.683  1.00  0.00     0.131 A 
ATOM     68  C   UNL     1      12.590 -13.408  13.120  1.00  0.00     0.055 A 
ATOM     69  C   UNL     1      11.144 -12.611  14.865  1.00  0.00     0.041 A 
ATOM     70  F   UNL     1      11.132 -10.336  15.422  1.00  0.00    -0.206 F 
ATOM     71  C   UNL     1      11.597 -13.658  14.068  1.00  0.00     0.022 A 
BRANCH  68  72
ATOM     72  S   UNL     1      13.042 -14.688  11.916  1.00  0.00     0.124 S 
ATOM     73  O   UNL     1      12.668 -14.052  10.655  1.00  0.00    -0.237 OA
ATOM     74  O   UNL     1      14.472 -14.851  12.150  1.00  0.00    -0.237 OA
ATOM     75  O   UNL     1      12.212 -15.828  12.300  1.00  0.00    -0.744 OA
ENDBRANCH  68  72
ENDBRANCH  51  65
BRANCH  52  76
ATOM     76  C   UNL     1      15.355  -1.549  12.063  1.00  0.00     0.023 A 
ATOM     77  C   UNL     1      16.681  -1.092  12.114  1.00  0.00     0.031 A 
ATOM     78  C   UNL     1      14.340  -0.604  11.829  1.00  0.00     0.131 A 
ATOM     79  C   UNL     1      16.955   0.278  11.976  1.00  0.00     0.055 A 
ATOM     80  C   UNL     1      14.621   0.751  11.645  1.00  0.00     0.041 A 
ATOM     81  F   UNL     1      13.056  -0.990  11.763  1.00  0.00    -0.206 F 
ATOM     82  C   UNL     1      15.935   1.200  11.730  1.00  0.00     0.022 A 
BRANCH  79  83
ATOM     83  S   UNL     1      18.663   0.850  12.195  1.00  0.00     0.124 S 
ATOM     84  O   UNL     1      18.960   0.391  13.547  1.00  0.00    -0.237 OA
ATOM     85  O   UNL     1      19.355   0.154  11.114  1.00  0.00    -0.237 OA
ATOM     86  O   UNL     1      18.560   2.299  12.035  1.00  0.00    -0.744 OA
ENDBRANCH  79  83
ENDBRANCH  52  76
BRANCH  64  87
ATOM     87  C   UNL     1      15.931  -5.807  17.556  1.00  0.00     0.023 A 
ATOM     88  C   UNL     1      15.364  -4.926  18.495  1.00  0.00     0.031 A 
ATOM     89  C   UNL     1      17.095  -6.505  17.922  1.00  0.00     0.131 A 
ATOM     90  C   UNL     1      15.993  -4.727  19.733  1.00  0.00     0.055 A 
ATOM     91  C   UNL     1      17.684  -6.346  19.177  1.00  0.00     0.041 A 
ATOM     92  F   UNL     1      17.679  -7.357  17.064  1.00  0.00    -0.206 F 
ATOM     93  C   UNL     1      17.140  -5.443  20.086  1.00  0.00     0.022 A 
BRANCH  90  94
ATOM     94  S   UNL     1      15.342  -3.451  20.846  1.00  0.00     0.124 S 
ATOM     95  O   UNL     1      15.438  -2.251  20.021  1.00  0.00    -0.237 OA
ATOM     96  O   UNL     1      13.992  -3.932  21.117  1.00  0.00    -0.237 OA
ATOM     97  O   UNL     1      16.255  -3.493  21.988  1.00  0.00    -0.744 OA
ENDBRANCH  90  94
ENDBRANCH  64  87
ENDBRANCH  38  39
ENDBRANCH  30  33
ENDBRANCH  28  29
ENDBRANCH  27  28
ENDBRANCH   1  27
TORSDOF 18
