REMARK SMILES C[C@H]1[C@H](C(=O)NCCCCNC(=O)c2ccc(-c3c4nc(c(-c5cc(S(=O)(=O)[O-])ccc5F)c5ccc([nH]5)c(-c5cc(S(=O)(=O)[O-])ccc5F)c5nc(c(-c6cc(S(=O)(=O)[O-])ccc6F)c6ccc3[nH]6)C=C5)C=C4)cc2)CC[N@@H+]1Cc1ccc(C(F)(F)F)cc1
REMARK SMILES IDX 8 1 7 2 6 3 4 4 5 5 3 7 1 8 2 9 79 10 77 11 78 12 80 14
REMARK SMILES IDX 81 15 82 16 90 17 83 18 89 19 84 20 85 21 86 22 87 23 88 24
REMARK SMILES IDX 9 25 10 26 11 27 12 28 13 30 14 31 15 32 76 33 16 34 75 35
REMARK SMILES IDX 17 36 18 37 19 38 69 39 20 40 74 41 68 42 70 43 21 44 73 45
REMARK SMILES IDX 67 46 66 47 22 49 54 50 34 51 53 52 35 53 38 54 52 55 71 56
REMARK SMILES IDX 36 57 37 58 51 60 72 61 39 62 23 63 24 64 32 65 25 66 31 67
REMARK SMILES IDX 33 68 30 69 26 70 27 71 28 72 29 73 55 74 56 75 64 76 57 77
REMARK SMILES IDX 63 78 65 79 62 80 58 81 59 82 60 83 61 84 40 85 41 86 49 87
REMARK SMILES IDX 42 88 48 89 50 90 47 91 43 92 44 93 45 94 46 95
REMARK H PARENT 6 6 79 13 11 29 70 48 38 59
REMARK Flexibility Score: inf
ROOT
ATOM      1  C   UNL     1       0.710   0.694   4.131  1.00  0.00     0.023 C 
ENDROOT
BRANCH   1   2
ATOM      2  C   UNL     1      -0.330   1.404   3.256  1.00  0.00     0.116 C 
BRANCH   2   3
ATOM      3  N   UNL     1       0.267   2.432   2.433  1.00  0.00    -0.356 N 
ATOM      4  C   UNL     1       0.564   2.455   1.110  1.00  0.00     0.229 C 
ATOM      5  O   UNL     1       1.034   3.514   0.674  1.00  0.00    -0.275 OA
ATOM      6  H   UNL     1       0.497   3.258   2.917  1.00  0.00     0.163 HD
BRANCH   4   7
ATOM      7  C   UNL     1       0.299   1.313   0.133  1.00  0.00     0.142 C 
ATOM      8  C   UNL     1       2.075  -0.447  -0.094  1.00  0.00     0.076 C 
ATOM      9  C   UNL     1       0.696  -0.129   0.499  1.00  0.00     0.193 C 
ATOM     10  N   UNL     1      -0.302  -1.007  -0.154  1.00  0.00    -0.328 N 
ATOM     11  C   UNL     1      -1.141   1.199  -0.336  1.00  0.00     0.081 C 
ATOM     12  C   UNL     1      -1.130  -0.164  -1.012  1.00  0.00     0.263 C 
ATOM     13  H   UNL     1       0.198  -1.686  -0.728  1.00  0.00     0.348 HD
BRANCH  10  14
ATOM     14  C   UNL     1      -1.005  -1.995   0.687  1.00  0.00     0.299 C 
BRANCH  14  15
ATOM     15  C   UNL     1      -2.048  -1.514   1.683  1.00  0.00     0.006 A 
ATOM     16  C   UNL     1      -1.867  -1.713   3.059  1.00  0.00     0.010 A 
ATOM     17  C   UNL     1      -3.232  -0.882   1.276  1.00  0.00     0.010 A 
ATOM     18  C   UNL     1      -2.743  -1.132   3.985  1.00  0.00     0.013 A 
ATOM     19  C   UNL     1      -4.074  -0.252   2.196  1.00  0.00     0.013 A 
ATOM     20  C   UNL     1      -3.804  -0.323   3.562  1.00  0.00     0.056 A 
BRANCH  20  21
ATOM     21  C   UNL     1      -4.567   0.524   4.551  1.00  0.00     0.416 C 
ATOM     22  F   UNL     1      -4.880  -0.127   5.700  1.00  0.00    -0.166 F 
ATOM     23  F   UNL     1      -3.841   1.619   4.926  1.00  0.00    -0.166 F 
ATOM     24  F   UNL     1      -5.738   1.012   4.054  1.00  0.00    -0.166 F 
ENDBRANCH  20  21
ENDBRANCH  14  15
ENDBRANCH  10  14
ENDBRANCH   4   7
ENDBRANCH   2   3
ENDBRANCH   1   2
BRANCH   1  25
ATOM     25  C   UNL     1       0.858   1.262   5.550  1.00  0.00     0.023 C 
BRANCH  25  26
ATOM     26  C   UNL     1      -0.371   1.117   6.449  1.00  0.00     0.116 C 
BRANCH  26  27
ATOM     27  N   UNL     1      -0.790  -0.259   6.658  1.00  0.00    -0.352 N 
ATOM     28  C   UNL     1      -1.640  -0.782   7.614  1.00  0.00     0.251 C 
ATOM     29  H   UNL     1      -0.413  -0.914   6.026  1.00  0.00     0.163 HD
ATOM     30  O   UNL     1      -1.882  -1.976   7.611  1.00  0.00    -0.269 OA
BRANCH  28  31
ATOM     31  C   UNL     1      -2.175   0.097   8.683  1.00  0.00     0.039 A 
ATOM     32  C   UNL     1      -2.050  -0.344  10.005  1.00  0.00     0.014 A 
ATOM     33  C   UNL     1      -2.694   1.363   8.413  1.00  0.00     0.014 A 
ATOM     34  C   UNL     1      -2.305   0.539  11.054  1.00  0.00     0.010 A 
ATOM     35  C   UNL     1      -2.885   2.265   9.457  1.00  0.00     0.010 A 
ATOM     36  C   UNL     1      -2.643   1.874  10.782  1.00  0.00    -0.014 A 
BRANCH  36  37
ATOM     37  C   UNL     1      -2.616   2.895  11.858  1.00  0.00     0.031 A 
ATOM     38  C   UNL     1      -3.870   3.594  12.290  1.00  0.00     0.074 A 
ATOM     39  C   UNL     1      -1.422   3.247  12.378  1.00  0.00     0.049 A 
ATOM     40  N   UNL     1      -4.022   4.539  13.181  1.00  0.00    -0.248 NA
ATOM     41  C   UNL     1      -5.111   3.196  11.610  1.00  0.00     0.031 C 
ATOM     42  C   UNL     1      -0.130   2.680  11.978  1.00  0.00     0.029 A 
ATOM     43  N   UNL     1      -1.093   4.167  13.339  1.00  0.00    -0.354 N 
ATOM     44  C   UNL     1      -5.376   4.853  13.172  1.00  0.00     0.074 A 
ATOM     45  C   UNL     1      -5.987   4.035  12.144  1.00  0.00     0.031 C 
ATOM     46  C   UNL     1       0.846   3.249  12.703  1.00  0.00     0.029 A 
ATOM     47  C   UNL     1       0.258   4.244  13.592  1.00  0.00     0.049 A 
ATOM     48  H   UNL     1      -1.760   4.721  13.806  1.00  0.00     0.167 HD
ATOM     49  C   UNL     1      -6.045   5.730  13.963  1.00  0.00     0.034 A 
ATOM     50  C   UNL     1       0.947   5.032  14.440  1.00  0.00     0.034 A 
ATOM     51  C   UNL     1      -5.411   6.543  14.973  1.00  0.00     0.049 A 
ATOM     52  C   UNL     1       0.182   5.996  15.307  1.00  0.00     0.074 A 
ATOM     53  C   UNL     1      -5.993   7.430  15.863  1.00  0.00     0.029 A 
ATOM     54  N   UNL     1      -4.043   6.578  15.221  1.00  0.00    -0.354 N 
ATOM     55  N   UNL     1      -1.109   6.231  15.338  1.00  0.00    -0.248 NA
ATOM     56  C   UNL     1       0.965   6.789  16.263  1.00  0.00     0.031 C 
ATOM     57  C   UNL     1      -4.975   8.041  16.606  1.00  0.00     0.029 A 
ATOM     58  C   UNL     1      -3.761   7.489  16.228  1.00  0.00     0.049 A 
ATOM     59  H   UNL     1      -3.371   6.035  14.749  1.00  0.00     0.167 HD
ATOM     60  C   UNL     1      -1.297   7.182  16.335  1.00  0.00     0.074 A 
ATOM     61  C   UNL     1       0.012   7.463  16.890  1.00  0.00     0.031 C 
ATOM     62  C   UNL     1      -2.446   7.767  16.757  1.00  0.00     0.034 A 
BRANCH  49  63
ATOM     63  C   UNL     1      -7.532   5.864  13.736  1.00  0.00     0.023 A 
ATOM     64  C   UNL     1      -8.406   4.780  13.937  1.00  0.00     0.031 A 
ATOM     65  C   UNL     1      -8.081   7.072  13.273  1.00  0.00     0.131 A 
ATOM     66  C   UNL     1      -9.763   4.900  13.599  1.00  0.00     0.055 A 
ATOM     67  C   UNL     1      -9.447   7.210  13.014  1.00  0.00     0.041 A 
ATOM     68  F   UNL     1      -7.295   8.136  13.045  1.00  0.00    -0.206 F 
ATOM     69  C   UNL     1     -10.294   6.115  13.160  1.00  0.00     0.022 A 
BRANCH  66  70
ATOM     70  S   UNL     1     -10.790   3.405  13.600  1.00  0.00     0.124 S 
ATOM     71  O   UNL     1     -10.093   2.567  12.627  1.00  0.00    -0.237 OA
ATOM     72  O   UNL     1     -10.713   2.970  14.989  1.00  0.00    -0.237 OA
ATOM     73  O   UNL     1     -12.100   3.889  13.169  1.00  0.00    -0.744 OA
ENDBRANCH  66  70
ENDBRANCH  49  63
BRANCH  50  74
ATOM     74  C   UNL     1       2.432   4.942  14.515  1.00  0.00     0.023 A 
ATOM     75  C   UNL     1       3.070   4.463  15.670  1.00  0.00     0.031 A 
ATOM     76  C   UNL     1       3.237   5.354  13.439  1.00  0.00     0.131 A 
ATOM     77  C   UNL     1       4.471   4.446  15.739  1.00  0.00     0.055 A 
ATOM     78  C   UNL     1       4.630   5.294  13.495  1.00  0.00     0.041 A 
ATOM     79  F   UNL     1       2.676   5.807  12.306  1.00  0.00    -0.206 F 
ATOM     80  C   UNL     1       5.256   4.848  14.655  1.00  0.00     0.022 A 
BRANCH  77  81
ATOM     81  S   UNL     1       5.259   3.952  17.296  1.00  0.00     0.124 S 
ATOM     82  O   UNL     1       4.685   4.907  18.237  1.00  0.00    -0.237 OA
ATOM     83  O   UNL     1       4.814   2.569  17.434  1.00  0.00    -0.237 OA
ATOM     84  O   UNL     1       6.685   4.122  17.025  1.00  0.00    -0.744 OA
ENDBRANCH  77  81
ENDBRANCH  50  74
BRANCH  62  85
ATOM     85  C   UNL     1      -2.327   8.742  17.900  1.00  0.00     0.023 A 
ATOM     86  C   UNL     1      -1.684   9.983  17.746  1.00  0.00     0.031 A 
ATOM     87  C   UNL     1      -2.843   8.413  19.165  1.00  0.00     0.131 A 
ATOM     88  C   UNL     1      -1.526  10.828  18.855  1.00  0.00     0.055 A 
ATOM     89  C   UNL     1      -2.731   9.282  20.251  1.00  0.00     0.041 A 
ATOM     90  F   UNL     1      -3.464   7.239  19.366  1.00  0.00    -0.206 F 
ATOM     91  C   UNL     1      -2.058  10.492  20.102  1.00  0.00     0.022 A 
BRANCH  88  92
ATOM     92  S   UNL     1      -0.540  12.338  18.664  1.00  0.00     0.124 S 
ATOM     93  O   UNL     1       0.755  11.805  18.254  1.00  0.00    -0.237 OA
ATOM     94  O   UNL     1      -1.281  13.069  17.642  1.00  0.00    -0.237 OA
ATOM     95  O   UNL     1      -0.570  12.938  19.997  1.00  0.00    -0.744 OA
ENDBRANCH  88  92
ENDBRANCH  62  85
ENDBRANCH  36  37
ENDBRANCH  28  31
ENDBRANCH  26  27
ENDBRANCH  25  26
ENDBRANCH   1  25
TORSDOF 17
