REMARK SMILES Cc1ccc(-c2cc(Cl)ccc2Cl)c(C(=O)NCCCCNC(=O)c2ccc(-c3c4nc(c(-c5cc(S(=O)(=O)[O-])ccc5F)c5ccc([nH]5)c(-c5cc(S(=O)(=O)[O-])ccc5F)c5nc(c(-c6cc(S(=O)(=O)[O-])ccc6F)c6ccc3[nH]6)C=C5)C=C4)cc2)c1
REMARK SMILES IDX 20 1 19 2 18 3 17 4 15 5 16 6 14 8 1 9 2 10 3 11 88 12 4 13
REMARK SMILES IDX 5 14 6 15 7 16 12 17 8 18 11 19 13 20 9 21 10 22 21 23 22 24
REMARK SMILES IDX 23 25 24 27 25 28 26 29 87 30 27 31 86 32 28 33 29 34 30 35
REMARK SMILES IDX 80 36 31 37 85 38 79 39 81 40 32 41 84 42 78 43 77 44 33 46
REMARK SMILES IDX 65 47 45 48 64 49 46 50 49 51 63 52 82 53 47 54 48 55 62 57
REMARK SMILES IDX 83 58 50 59 34 60 35 61 43 62 36 63 42 64 44 65 41 66 37 67
REMARK SMILES IDX 38 68 39 69 40 70 66 71 67 72 75 73 68 74 74 75 76 76 73 77
REMARK SMILES IDX 69 78 70 79 71 80 72 81 51 82 52 83 60 84 53 85 59 86 61 87
REMARK SMILES IDX 58 88 54 89 55 90 56 91 57 92
REMARK H PARENT 17 7 22 26 81 45 49 56
REMARK Flexibility Score: inf
ROOT
ATOM      1  C   UNL     1       0.721   5.426  -1.890  1.00  0.00     0.023 C 
ENDROOT
BRANCH   1   2
ATOM      2  C   UNL     1       1.245   4.228  -1.090  1.00  0.00     0.023 C 
BRANCH   2   3
ATOM      3  C   UNL     1       0.536   3.991   0.256  1.00  0.00     0.116 C 
BRANCH   3   4
ATOM      4  N   UNL     1      -0.866   3.619   0.087  1.00  0.00    -0.352 N 
ATOM      5  C   UNL     1      -1.573   2.448  -0.047  1.00  0.00     0.251 C 
ATOM      6  O   UNL     1      -2.793   2.610  -0.124  1.00  0.00    -0.269 OA
ATOM      7  H   UNL     1      -1.454   4.407   0.064  1.00  0.00     0.163 HD
BRANCH   5   8
ATOM      8  C   UNL     1      -0.983   1.057  -0.102  1.00  0.00     0.047 A 
ATOM      9  C   UNL     1       2.494  -0.547  -0.234  1.00  0.00     0.044 C 
ATOM     10  C   UNL     1       0.999  -0.412  -0.185  1.00  0.00    -0.050 A 
ATOM     11  C   UNL     1       0.187  -1.535  -0.116  1.00  0.00     0.004 A 
ATOM     12  C   UNL     1       0.404   0.858  -0.206  1.00  0.00     0.018 A 
ATOM     13  C   UNL     1      -1.196  -1.381  -0.071  1.00  0.00     0.010 A 
ATOM     14  C   UNL     1      -1.812  -0.103  -0.056  1.00  0.00    -0.004 A 
BRANCH  14  15
ATOM     15  C   UNL     1      -3.295  -0.097  -0.027  1.00  0.00     0.003 A 
ATOM     16  C   UNL     1      -4.005   0.267  -1.191  1.00  0.00     0.030 A 
ATOM     17  C   UNL     1      -4.047  -0.495   1.098  1.00  0.00     0.049 A 
ATOM     18  C   UNL     1      -5.401   0.274  -1.213  1.00  0.00     0.041 A 
ATOM     19  C   UNL     1      -5.448  -0.508   1.062  1.00  0.00     0.023 A 
ATOM     20  Cl  UNL     1      -3.298  -1.007   2.573  1.00  0.00    -0.084 Cl
ATOM     21  Cl  UNL     1      -6.235   0.761  -2.638  1.00  0.00    -0.084 Cl
ATOM     22  C   UNL     1      -6.126  -0.116  -0.092  1.00  0.00     0.022 A 
ENDBRANCH  14  15
ENDBRANCH   5   8
ENDBRANCH   3   4
ENDBRANCH   2   3
ENDBRANCH   1   2
BRANCH   1  23
ATOM     23  C   UNL     1       1.011   6.774  -1.240  1.00  0.00     0.116 C 
BRANCH  23  24
ATOM     24  N   UNL     1       2.194   7.468  -1.730  1.00  0.00    -0.352 N 
ATOM     25  C   UNL     1       2.765   8.640  -1.250  1.00  0.00     0.251 C 
ATOM     26  H   UNL     1       2.648   7.053  -2.499  1.00  0.00     0.163 HD
ATOM     27  O   UNL     1       3.676   9.196  -1.838  1.00  0.00    -0.269 OA
BRANCH  25  28
ATOM     28  C   UNL     1       2.325   9.145   0.077  1.00  0.00     0.039 A 
ATOM     29  C   UNL     1       3.314   9.302   1.056  1.00  0.00     0.014 A 
ATOM     30  C   UNL     1       0.976   9.197   0.420  1.00  0.00     0.014 A 
ATOM     31  C   UNL     1       2.955   9.253   2.400  1.00  0.00     0.010 A 
ATOM     32  C   UNL     1       0.626   9.057   1.750  1.00  0.00     0.010 A 
ATOM     33  C   UNL     1       1.623   9.004   2.732  1.00  0.00    -0.014 A 
BRANCH  33  34
ATOM     34  C   UNL     1       1.217   8.502   4.042  1.00  0.00     0.031 A 
ATOM     35  C   UNL     1       0.464   9.353   4.985  1.00  0.00     0.074 A 
ATOM     36  C   UNL     1       1.516   7.229   4.388  1.00  0.00     0.049 A 
ATOM     37  N   UNL     1       0.380   9.124   6.252  1.00  0.00    -0.248 NA
ATOM     38  C   UNL     1      -0.181  10.601   4.589  1.00  0.00     0.031 C 
ATOM     39  C   UNL     1       0.993   6.463   5.516  1.00  0.00     0.029 A 
ATOM     40  N   UNL     1       2.583   6.464   3.918  1.00  0.00    -0.354 N 
ATOM     41  C   UNL     1      -0.546   9.991   6.778  1.00  0.00     0.074 A 
ATOM     42  C   UNL     1      -0.749  10.971   5.742  1.00  0.00     0.031 C 
ATOM     43  C   UNL     1       1.865   5.491   5.824  1.00  0.00     0.029 A 
ATOM     44  C   UNL     1       3.038   5.680   4.992  1.00  0.00     0.049 A 
ATOM     45  H   UNL     1       2.949   6.472   3.004  1.00  0.00     0.167 HD
ATOM     46  C   UNL     1      -1.124   9.686   7.974  1.00  0.00     0.034 A 
ATOM     47  C   UNL     1       4.318   5.788   5.450  1.00  0.00     0.034 A 
ATOM     48  C   UNL     1      -0.365   8.641   8.672  1.00  0.00     0.049 A 
ATOM     49  C   UNL     1       4.411   6.229   6.893  1.00  0.00     0.074 A 
ATOM     50  C   UNL     1      -0.598   7.304   8.945  1.00  0.00     0.029 A 
ATOM     51  N   UNL     1       0.971   8.877   8.997  1.00  0.00    -0.354 N 
ATOM     52  N   UNL     1       3.419   6.738   7.572  1.00  0.00    -0.248 NA
ATOM     53  C   UNL     1       5.637   6.144   7.679  1.00  0.00     0.031 C 
ATOM     54  C   UNL     1       0.636   6.719   9.348  1.00  0.00     0.029 A 
ATOM     55  C   UNL     1       1.607   7.708   9.369  1.00  0.00     0.049 A 
ATOM     56  H   UNL     1       1.403   9.761   8.966  1.00  0.00     0.167 HD
ATOM     57  C   UNL     1       3.848   7.083   8.830  1.00  0.00     0.074 A 
ATOM     58  C   UNL     1       5.236   6.653   8.856  1.00  0.00     0.031 C 
ATOM     59  C   UNL     1       3.025   7.712   9.727  1.00  0.00     0.034 A 
BRANCH  46  60
ATOM     60  C   UNL     1      -2.489  10.174   8.445  1.00  0.00     0.023 A 
ATOM     61  C   UNL     1      -3.030   9.643   9.640  1.00  0.00     0.031 A 
ATOM     62  C   UNL     1      -3.365  11.025   7.732  1.00  0.00     0.131 A 
ATOM     63  C   UNL     1      -4.349   9.936  10.052  1.00  0.00     0.055 A 
ATOM     64  C   UNL     1      -4.655  11.355   8.168  1.00  0.00     0.041 A 
ATOM     65  F   UNL     1      -3.062  11.551   6.543  1.00  0.00    -0.206 F 
ATOM     66  C   UNL     1      -5.160  10.803   9.328  1.00  0.00     0.022 A 
BRANCH  63  67
ATOM     67  S   UNL     1      -5.040   9.107  11.512  1.00  0.00     0.124 S 
ATOM     68  O   UNL     1      -4.974   7.700  11.127  1.00  0.00    -0.237 OA
ATOM     69  O   UNL     1      -4.134   9.535  12.571  1.00  0.00    -0.237 OA
ATOM     70  O   UNL     1      -6.395   9.653  11.603  1.00  0.00    -0.744 OA
ENDBRANCH  63  67
ENDBRANCH  46  60
BRANCH  47  71
ATOM     71  C   UNL     1       5.300   6.091   4.370  1.00  0.00     0.023 A 
ATOM     72  C   UNL     1       5.370   5.170   3.302  1.00  0.00     0.031 A 
ATOM     73  C   UNL     1       5.817   7.376   4.165  1.00  0.00     0.131 A 
ATOM     74  C   UNL     1       5.770   5.593   2.028  1.00  0.00     0.055 A 
ATOM     75  C   UNL     1       6.292   7.772   2.907  1.00  0.00     0.041 A 
ATOM     76  F   UNL     1       5.749   8.304   5.130  1.00  0.00    -0.206 F 
ATOM     77  C   UNL     1       6.224   6.896   1.820  1.00  0.00     0.022 A 
BRANCH  74  78
ATOM     78  S   UNL     1       5.412   4.517   0.604  1.00  0.00     0.124 S 
ATOM     79  O   UNL     1       6.647   3.751   0.481  1.00  0.00    -0.237 OA
ATOM     80  O   UNL     1       4.238   3.764   1.043  1.00  0.00    -0.237 OA
ATOM     81  O   UNL     1       5.141   5.462  -0.477  1.00  0.00    -0.744 OA
ENDBRANCH  74  78
ENDBRANCH  47  71
BRANCH  59  82
ATOM     82  C   UNL     1       3.456   8.326  11.050  1.00  0.00     0.023 A 
ATOM     83  C   UNL     1       4.793   8.560  11.407  1.00  0.00     0.031 A 
ATOM     84  C   UNL     1       2.497   8.769  11.996  1.00  0.00     0.131 A 
ATOM     85  C   UNL     1       5.139   9.104  12.659  1.00  0.00     0.055 A 
ATOM     86  C   UNL     1       2.838   9.384  13.207  1.00  0.00     0.041 A 
ATOM     87  F   UNL     1       1.179   8.636  11.783  1.00  0.00    -0.206 F 
ATOM     88  C   UNL     1       4.169   9.538  13.556  1.00  0.00     0.022 A 
BRANCH  85  89
ATOM     89  S   UNL     1       6.894   9.165  13.114  1.00  0.00     0.124 S 
ATOM     90  O   UNL     1       7.258   7.751  13.098  1.00  0.00    -0.237 OA
ATOM     91  O   UNL     1       7.467   9.977  12.046  1.00  0.00    -0.237 OA
ATOM     92  O   UNL     1       6.889   9.789  14.435  1.00  0.00    -0.744 OA
ENDBRANCH  85  89
ENDBRANCH  59  82
ENDBRANCH  33  34
ENDBRANCH  25  28
ENDBRANCH  23  24
ENDBRANCH   1  23
TORSDOF 15
