REMARK SMILES O=C(NCCCCNC(=O)[C@H]1Sc2[nH]c(=O)sc2[C@H]2c3cc(Br)cc(Br)c3OC(=O)[C@H]21)c1ccc(-c2c3nc(c(-c4cc(S(=O)(=O)[O-])ccc4F)c4ccc([nH]4)c(-c4cc(S(=O)(=O)[O-])ccc4F)c4nc(c(-c5cc(S(=O)(=O)[O-])ccc5F)c5ccc2[nH]5)C=C4)C=C3)cc1
REMARK SMILES IDX 4 1 3 2 1 3 2 4 32 6 33 7 94 8 34 9 93 10 35 11 36 12 37 13
REMARK SMILES IDX 87 14 38 15 92 16 86 17 88 18 39 19 91 20 85 21 84 22 40 24
REMARK SMILES IDX 72 25 52 26 71 27 53 28 56 29 70 30 89 31 54 32 55 33 69 35
REMARK SMILES IDX 90 36 57 37 41 38 42 39 50 40 43 41 49 42 51 43 48 44 44 45
REMARK SMILES IDX 45 46 46 47 47 48 73 49 74 50 82 51 75 52 81 53 83 54 80 55
REMARK SMILES IDX 76 56 77 57 78 58 79 59 58 60 59 61 67 62 60 63 66 64 68 65
REMARK SMILES IDX 65 66 61 67 62 68 63 69 64 70 5 71 6 72 7 73 8 74 9 75 10 77
REMARK SMILES IDX 11 78 12 79 31 80 13 81 19 82 29 83 14 84 18 85 20 86 28 87
REMARK SMILES IDX 30 88 15 89 17 91 21 92 27 93 16 94 22 95 25 96 23 97 24 98
REMARK SMILES IDX 26 99
REMARK H PARENT 3 5 88 23 56 34 8 76 14 90
REMARK Flexibility Score: inf
ROOT
ATOM      1  C   UNL     1       4.644   0.301   0.679  1.00  0.00     0.116 C 
ENDROOT
BRANCH   1   2
ATOM      2  N   UNL     1       3.239  -0.047   0.630  1.00  0.00    -0.352 N 
ATOM      3  O   UNL     1       1.239  -0.511  -0.186  1.00  0.00    -0.269 OA
ATOM      4  C   UNL     1       2.224   0.230  -0.250  1.00  0.00     0.251 C 
ATOM      5  H   UNL     1       2.950  -0.601   1.392  1.00  0.00     0.163 HD
BRANCH   4   6
ATOM      6  C   UNL     1       2.201   1.368  -1.210  1.00  0.00     0.039 A 
ATOM      7  C   UNL     1       3.307   2.104  -1.625  1.00  0.00     0.014 A 
ATOM      8  C   UNL     1       0.933   1.721  -1.721  1.00  0.00     0.014 A 
ATOM      9  C   UNL     1       3.145   3.192  -2.483  1.00  0.00     0.010 A 
ATOM     10  C   UNL     1       0.767   2.801  -2.589  1.00  0.00     0.010 A 
ATOM     11  C   UNL     1       1.877   3.549  -2.963  1.00  0.00    -0.014 A 
BRANCH  11  12
ATOM     12  C   UNL     1       1.813   4.548  -4.032  1.00  0.00     0.031 A 
ATOM     13  C   UNL     1       2.546   4.142  -5.262  1.00  0.00     0.074 A 
ATOM     14  C   UNL     1       1.125   5.708  -4.037  1.00  0.00     0.049 A 
ATOM     15  N   UNL     1       3.680   4.599  -5.680  1.00  0.00    -0.248 NA
ATOM     16  C   UNL     1       2.041   3.000  -6.034  1.00  0.00     0.031 C 
ATOM     17  C   UNL     1       0.169   6.211  -3.054  1.00  0.00     0.029 A 
ATOM     18  N   UNL     1       1.121   6.684  -4.998  1.00  0.00    -0.354 N 
ATOM     19  C   UNL     1       3.934   3.962  -6.889  1.00  0.00     0.074 A 
ATOM     20  C   UNL     1       2.985   2.882  -6.971  1.00  0.00     0.031 C 
ATOM     21  C   UNL     1      -0.455   7.308  -3.551  1.00  0.00     0.029 A 
ATOM     22  C   UNL     1       0.154   7.670  -4.822  1.00  0.00     0.049 A 
ATOM     23  H   UNL     1       1.752   6.688  -5.754  1.00  0.00     0.167 HD
ATOM     24  C   UNL     1       4.772   4.512  -7.811  1.00  0.00     0.034 A 
ATOM     25  C   UNL     1      -0.111   8.719  -5.650  1.00  0.00     0.034 A 
ATOM     26  C   UNL     1       5.622   5.516  -7.210  1.00  0.00     0.049 A 
ATOM     27  C   UNL     1       1.152   9.012  -6.367  1.00  0.00     0.074 A 
ATOM     28  C   UNL     1       6.546   5.522  -6.180  1.00  0.00     0.029 A 
ATOM     29  N   UNL     1       5.317   6.841  -7.427  1.00  0.00    -0.354 N 
ATOM     30  N   UNL     1       2.234   9.433  -5.771  1.00  0.00    -0.248 NA
ATOM     31  C   UNL     1       1.350   8.438  -7.687  1.00  0.00     0.031 C 
ATOM     32  C   UNL     1       6.343   6.766  -5.511  1.00  0.00     0.029 A 
ATOM     33  C   UNL     1       5.357   7.467  -6.207  1.00  0.00     0.049 A 
ATOM     34  H   UNL     1       5.109   7.259  -8.294  1.00  0.00     0.167 HD
ATOM     35  C   UNL     1       3.272   8.799  -6.433  1.00  0.00     0.074 A 
ATOM     36  C   UNL     1       2.676   8.284  -7.664  1.00  0.00     0.031 C 
ATOM     37  C   UNL     1       4.450   8.523  -5.803  1.00  0.00     0.034 A 
BRANCH  24  38
ATOM     38  C   UNL     1       4.582   4.422  -9.310  1.00  0.00     0.023 A 
ATOM     39  C   UNL     1       5.522   5.089 -10.122  1.00  0.00     0.031 A 
ATOM     40  C   UNL     1       3.403   3.998  -9.963  1.00  0.00     0.131 A 
ATOM     41  C   UNL     1       5.227   5.411 -11.458  1.00  0.00     0.055 A 
ATOM     42  C   UNL     1       3.142   4.263 -11.311  1.00  0.00     0.041 A 
ATOM     43  F   UNL     1       2.400   3.386  -9.324  1.00  0.00    -0.206 F 
ATOM     44  C   UNL     1       4.040   5.006 -12.058  1.00  0.00     0.022 A 
BRANCH  41  45
ATOM     45  S   UNL     1       6.352   6.521 -12.341  1.00  0.00     0.124 S 
ATOM     46  O   UNL     1       6.351   7.691 -11.469  1.00  0.00    -0.237 OA
ATOM     47  O   UNL     1       7.585   5.741 -12.369  1.00  0.00    -0.237 OA
ATOM     48  O   UNL     1       5.701   6.704 -13.636  1.00  0.00    -0.744 OA
ENDBRANCH  41  45
ENDBRANCH  24  38
BRANCH  25  49
ATOM     49  C   UNL     1      -1.431   9.282  -6.064  1.00  0.00     0.023 A 
ATOM     50  C   UNL     1      -1.542  10.469  -6.828  1.00  0.00     0.031 A 
ATOM     51  C   UNL     1      -2.601   8.501  -5.949  1.00  0.00     0.131 A 
ATOM     52  C   UNL     1      -2.768  10.817  -7.446  1.00  0.00     0.055 A 
ATOM     53  C   UNL     1      -3.809   8.849  -6.563  1.00  0.00     0.041 A 
ATOM     54  F   UNL     1      -2.591   7.322  -5.310  1.00  0.00    -0.206 F 
ATOM     55  C   UNL     1      -3.894  10.002  -7.326  1.00  0.00     0.022 A 
BRANCH  52  56
ATOM     56  S   UNL     1      -2.888  12.278  -8.533  1.00  0.00     0.124 S 
ATOM     57  O   UNL     1      -3.012  13.366  -7.570  1.00  0.00    -0.237 OA
ATOM     58  O   UNL     1      -1.643  12.221  -9.289  1.00  0.00    -0.237 OA
ATOM     59  O   UNL     1      -4.093  12.014  -9.322  1.00  0.00    -0.744 OA
ENDBRANCH  52  56
ENDBRANCH  25  49
BRANCH  37  60
ATOM     60  C   UNL     1       4.742   9.193  -4.479  1.00  0.00     0.023 A 
ATOM     61  C   UNL     1       4.014   8.975  -3.288  1.00  0.00     0.031 A 
ATOM     62  C   UNL     1       5.918   9.958  -4.401  1.00  0.00     0.131 A 
ATOM     63  C   UNL     1       4.481   9.518  -2.072  1.00  0.00     0.055 A 
ATOM     64  C   UNL     1       6.385  10.478  -3.195  1.00  0.00     0.041 A 
ATOM     65  F   UNL     1       6.667  10.168  -5.496  1.00  0.00    -0.206 F 
ATOM     66  C   UNL     1       5.668  10.258  -2.025  1.00  0.00     0.022 A 
BRANCH  63  67
ATOM     67  S   UNL     1       3.580   9.218  -0.515  1.00  0.00     0.124 S 
ATOM     68  O   UNL     1       2.294   9.867  -0.745  1.00  0.00    -0.237 OA
ATOM     69  O   UNL     1       3.558   7.761  -0.425  1.00  0.00    -0.237 OA
ATOM     70  O   UNL     1       4.417   9.869   0.496  1.00  0.00    -0.744 OA
ENDBRANCH  63  67
ENDBRANCH  37  60
ENDBRANCH  11  12
ENDBRANCH   4   6
ENDBRANCH   1   2
BRANCH   1  71
ATOM     71  C   UNL     1       4.973   1.600   1.415  1.00  0.00     0.023 C 
BRANCH  71  72
ATOM     72  C   UNL     1       4.546   1.653   2.881  1.00  0.00     0.023 C 
BRANCH  72  73
ATOM     73  C   UNL     1       5.038   0.505   3.749  1.00  0.00     0.116 C 
BRANCH  73  74
ATOM     74  N   UNL     1       6.460   0.483   3.978  1.00  0.00    -0.355 N 
ATOM     75  C   UNL     1       7.154   0.317   5.138  1.00  0.00     0.234 C 
ATOM     76  H   UNL     1       7.015   0.606   3.175  1.00  0.00     0.163 HD
ATOM     77  O   UNL     1       8.387   0.346   5.069  1.00  0.00    -0.274 OA
BRANCH  75  78
ATOM     78  C   UNL     1       6.457   0.162   6.503  1.00  0.00     0.157 C 
ATOM     79  S   UNL     1       5.820   1.805   6.996  1.00  0.00    -0.093 SA
ATOM     80  C   UNL     1       5.621  -1.100   6.821  1.00  0.00     0.135 C 
ATOM     81  C   UNL     1       4.186   1.512   7.315  1.00  0.00     0.091 A 
ATOM     82  C   UNL     1       4.076  -1.007   6.897  1.00  0.00     0.082 C 
ATOM     83  C   UNL     1       6.117  -2.306   6.037  1.00  0.00     0.317 C 
ATOM     84  N   UNL     1       3.386   2.583   7.580  1.00  0.00    -0.307 N 
ATOM     85  C   UNL     1       3.546   0.339   7.307  1.00  0.00     0.049 A 
ATOM     86  C   UNL     1       3.450  -1.610   5.648  1.00  0.00     0.007 A 
ATOM     87  O   UNL     1       5.178  -3.278   5.765  1.00  0.00    -0.425 OA
ATOM     88  O   UNL     1       7.303  -2.506   5.803  1.00  0.00    -0.251 OA
ATOM     89  C   UNL     1       2.076   2.316   7.844  1.00  0.00     0.305 A 
ATOM     90  H   UNL     1       3.737   3.503   7.581  1.00  0.00     0.171 HD
ATOM     91  S   UNL     1       1.892   0.561   7.882  1.00  0.00    -0.078 S 
ATOM     92  C   UNL     1       2.323  -1.116   4.973  1.00  0.00     0.024 A 
ATOM     93  C   UNL     1       4.029  -2.780   5.154  1.00  0.00     0.148 A 
ATOM     94  O   UNL     1       1.167   3.116   8.029  1.00  0.00    -0.257 OA
ATOM     95  C   UNL     1       1.794  -1.788   3.868  1.00  0.00     0.019 A 
ATOM     96  C   UNL     1       3.496  -3.463   4.053  1.00  0.00     0.062 A 
ATOM     97  Br  UNL     1       0.259  -1.086   3.020  1.00  0.00    -0.051 Br
ATOM     98  C   UNL     1       2.374  -2.960   3.400  1.00  0.00     0.035 A 
ATOM     99  Br  UNL     1       4.280  -5.063   3.409  1.00  0.00    -0.047 Br
ENDBRANCH  75  78
ENDBRANCH  73  74
ENDBRANCH  72  73
ENDBRANCH  71  72
ENDBRANCH   1  71
TORSDOF 14
