REMARK SMILES CCCCOC(=O)[C@@H]1[C@H]2c3ccccc3[C@H](c3ccccc32)[C@@H]1C(=O)NCCCCNC(=O)c1ccc(-c2c3nc(c(-c4cc(S(=O)(=O)[O-])ccc4F)c4ccc([nH]4)c(-c4cc(S(=O)(=O)[O-])ccc4F)c4nc(c(-c5cc(S(=O)(=O)[O-])ccc5F)c5ccc2[nH]5)C=C4)C=C3)cc1
REMARK SMILES IDX 27 1 26 2 24 3 25 4 23 6 8 7 9 8 22 9 10 10 16 11 21 12
REMARK SMILES IDX 17 13 15 14 11 15 20 16 18 17 14 18 12 19 19 20 13 21 6 22
REMARK SMILES IDX 7 23 5 24 4 25 3 26 2 27 1 28 28 29 29 30 30 31 31 32 32 33
REMARK SMILES IDX 33 35 34 36 35 37 96 38 36 39 95 40 37 41 38 42 39 43 89 44
REMARK SMILES IDX 40 45 94 46 88 47 90 48 41 49 93 50 87 51 86 52 42 54 74 55
REMARK SMILES IDX 54 56 73 57 55 58 58 59 72 60 91 61 56 62 57 63 71 65 92 66
REMARK SMILES IDX 59 67 43 68 44 69 52 70 45 71 51 72 53 73 50 74 46 75 47 76
REMARK SMILES IDX 48 77 49 78 75 79 76 80 84 81 77 82 83 83 85 84 82 85 78 86
REMARK SMILES IDX 79 87 80 88 81 89 60 90 61 91 69 92 62 93 68 94 70 95 67 96
REMARK SMILES IDX 63 97 64 98 65 99 66 100
REMARK H PARENT 26 5 31 34 90 53 58 64
REMARK Flexibility Score: inf
ROOT
ATOM      1  C   UNL     1      -6.708   2.159   1.835  1.00  0.00     0.116 C 
ENDROOT
BRANCH   1   2
ATOM      2  N   UNL     1      -5.763   2.449   2.892  1.00  0.00    -0.356 N 
ATOM      3  C   UNL     1      -4.478   2.074   3.075  1.00  0.00     0.224 C 
ATOM      4  O   UNL     1      -3.816   2.797   3.834  1.00  0.00    -0.275 OA
ATOM      5  H   UNL     1      -6.121   3.024   3.606  1.00  0.00     0.163 HD
BRANCH   3   6
ATOM      6  C   UNL     1      -3.805   0.836   2.487  1.00  0.00     0.105 C 
ATOM      7  C   UNL     1      -3.183   0.834   1.051  1.00  0.00     0.124 C 
ATOM      8  C   UNL     1      -3.479  -0.527   0.357  1.00  0.00     0.065 C 
ATOM      9  C   UNL     1      -4.986  -0.787   0.403  1.00  0.00    -0.036 A 
ATOM     10  C   UNL     1      -2.847  -1.589   1.274  1.00  0.00    -0.036 A 
ATOM     11  C   UNL     1      -4.484  -0.541   2.803  1.00  0.00     0.063 C 
ATOM     12  C   UNL     1      -5.795  -1.063  -0.691  1.00  0.00     0.004 A 
ATOM     13  C   UNL     1      -5.505  -0.871   1.722  1.00  0.00    -0.036 A 
ATOM     14  C   UNL     1      -3.377  -1.588   2.597  1.00  0.00    -0.036 A 
ATOM     15  C   UNL     1      -1.901  -2.528   0.892  1.00  0.00     0.004 A 
ATOM     16  C   UNL     1      -7.112  -1.472  -0.463  1.00  0.00     0.000 A 
ATOM     17  C   UNL     1      -6.790  -1.348   1.945  1.00  0.00     0.004 A 
ATOM     18  C   UNL     1      -2.953  -2.519   3.533  1.00  0.00     0.004 A 
ATOM     19  C   UNL     1      -1.480  -3.466   1.837  1.00  0.00     0.000 A 
ATOM     20  C   UNL     1      -7.596  -1.641   0.842  1.00  0.00     0.000 A 
ATOM     21  C   UNL     1      -1.998  -3.460   3.143  1.00  0.00     0.000 A 
BRANCH   7  22
ATOM     22  C   UNL     1      -3.346   1.954   0.051  1.00  0.00     0.310 C 
ATOM     23  O   UNL     1      -2.584   2.071  -0.903  1.00  0.00    -0.252 OA
BRANCH  22  24
ATOM     24  O   UNL     1      -4.402   2.752   0.280  1.00  0.00    -0.465 OA
BRANCH  24  25
ATOM     25  C   UNL     1      -4.667   3.805  -0.666  1.00  0.00     0.233 C 
BRANCH  25  26
ATOM     26  C   UNL     1      -4.527   5.157   0.029  1.00  0.00     0.041 C 
BRANCH  26  27
ATOM     27  C   UNL     1      -3.094   5.496   0.448  1.00  0.00     0.000 C 
ATOM     28  C   UNL     1      -2.182   5.786  -0.735  1.00  0.00     0.004 C 
ENDBRANCH  26  27
ENDBRANCH  25  26
ENDBRANCH  24  25
ENDBRANCH  22  24
ENDBRANCH   7  22
ENDBRANCH   3   6
ENDBRANCH   1   2
BRANCH   1  29
ATOM     29  C   UNL     1      -8.049   1.661   2.361  1.00  0.00     0.023 C 
BRANCH  29  30
ATOM     30  C   UNL     1      -9.206   2.635   2.184  1.00  0.00     0.023 C 
BRANCH  30  31
ATOM     31  C   UNL     1      -9.418   3.157   0.768  1.00  0.00     0.116 C 
BRANCH  31  32
ATOM     32  N   UNL     1      -9.499   2.141  -0.280  1.00  0.00    -0.352 N 
ATOM     33  C   UNL     1     -10.246   2.208  -1.443  1.00  0.00     0.251 C 
ATOM     34  H   UNL     1      -8.966   1.325  -0.144  1.00  0.00     0.163 HD
ATOM     35  O   UNL     1     -10.247   1.293  -2.257  1.00  0.00    -0.269 OA
BRANCH  33  36
ATOM     36  C   UNL     1     -11.095   3.405  -1.631  1.00  0.00     0.039 A 
ATOM     37  C   UNL     1     -10.506   4.665  -1.544  1.00  0.00     0.014 A 
ATOM     38  C   UNL     1     -12.484   3.259  -1.628  1.00  0.00     0.014 A 
ATOM     39  C   UNL     1     -11.301   5.747  -1.192  1.00  0.00     0.010 A 
ATOM     40  C   UNL     1     -13.287   4.378  -1.389  1.00  0.00     0.010 A 
ATOM     41  C   UNL     1     -12.699   5.613  -1.077  1.00  0.00    -0.014 A 
BRANCH  41  42
ATOM     42  C   UNL     1     -13.495   6.774  -0.587  1.00  0.00     0.031 A 
ATOM     43  C   UNL     1     -14.285   6.707   0.697  1.00  0.00     0.074 A 
ATOM     44  C   UNL     1     -13.418   7.939  -1.259  1.00  0.00     0.049 A 
ATOM     45  N   UNL     1     -14.947   7.661   1.303  1.00  0.00    -0.248 NA
ATOM     46  C   UNL     1     -14.353   5.409   1.386  1.00  0.00     0.031 C 
ATOM     47  C   UNL     1     -12.688   8.122  -2.513  1.00  0.00     0.029 A 
ATOM     48  N   UNL     1     -13.902   9.189  -0.968  1.00  0.00    -0.354 N 
ATOM     49  C   UNL     1     -15.541   7.073   2.415  1.00  0.00     0.074 A 
ATOM     50  C   UNL     1     -15.176   5.674   2.392  1.00  0.00     0.031 C 
ATOM     51  C   UNL     1     -12.686   9.421  -2.831  1.00  0.00     0.029 A 
ATOM     52  C   UNL     1     -13.491  10.154  -1.857  1.00  0.00     0.049 A 
ATOM     53  H   UNL     1     -14.487   9.376  -0.198  1.00  0.00     0.167 HD
ATOM     54  C   UNL     1     -16.311   7.649   3.371  1.00  0.00     0.034 A 
ATOM     55  C   UNL     1     -13.733  11.480  -1.897  1.00  0.00     0.034 A 
ATOM     56  C   UNL     1     -16.626   9.055   3.413  1.00  0.00     0.049 A 
ATOM     57  C   UNL     1     -14.574  12.101  -0.818  1.00  0.00     0.074 A 
ATOM     58  C   UNL     1     -17.340   9.742   4.381  1.00  0.00     0.029 A 
ATOM     59  N   UNL     1     -16.249   9.990   2.460  1.00  0.00    -0.354 N 
ATOM     60  N   UNL     1     -15.093  11.534   0.246  1.00  0.00    -0.248 NA
ATOM     61  C   UNL     1     -14.877  13.531  -0.947  1.00  0.00     0.031 C 
ATOM     62  C   UNL     1     -17.438  11.079   3.987  1.00  0.00     0.029 A 
ATOM     63  C   UNL     1     -16.743  11.240   2.799  1.00  0.00     0.049 A 
ATOM     64  H   UNL     1     -15.710   9.794   1.659  1.00  0.00     0.167 HD
ATOM     65  C   UNL     1     -15.802  12.534   0.903  1.00  0.00     0.074 A 
ATOM     66  C   UNL     1     -15.602  13.752   0.144  1.00  0.00     0.031 C 
ATOM     67  C   UNL     1     -16.564  12.444   2.023  1.00  0.00     0.034 A 
BRANCH  54  68
ATOM     68  C   UNL     1     -16.876   6.777   4.466  1.00  0.00     0.023 A 
ATOM     69  C   UNL     1     -18.268   6.593   4.567  1.00  0.00     0.031 A 
ATOM     70  C   UNL     1     -16.058   6.225   5.466  1.00  0.00     0.131 A 
ATOM     71  C   UNL     1     -18.801   5.888   5.655  1.00  0.00     0.055 A 
ATOM     72  C   UNL     1     -16.592   5.499   6.533  1.00  0.00     0.041 A 
ATOM     73  F   UNL     1     -14.724   6.372   5.414  1.00  0.00    -0.206 F 
ATOM     74  C   UNL     1     -17.970   5.337   6.635  1.00  0.00     0.022 A 
BRANCH  71  75
ATOM     75  S   UNL     1     -20.593   5.706   5.871  1.00  0.00     0.124 S 
ATOM     76  O   UNL     1     -20.759   4.258   5.768  1.00  0.00    -0.237 OA
ATOM     77  O   UNL     1     -20.800   6.264   7.205  1.00  0.00    -0.237 OA
ATOM     78  O   UNL     1     -21.160   6.478   4.771  1.00  0.00    -0.744 OA
ENDBRANCH  71  75
ENDBRANCH  54  68
BRANCH  55  79
ATOM     79  C   UNL     1     -13.117  12.281  -2.993  1.00  0.00     0.023 A 
ATOM     80  C   UNL     1     -13.413  11.996  -4.339  1.00  0.00     0.031 A 
ATOM     81  C   UNL     1     -12.097  13.206  -2.720  1.00  0.00     0.131 A 
ATOM     82  C   UNL     1     -12.619  12.540  -5.355  1.00  0.00     0.055 A 
ATOM     83  C   UNL     1     -11.366  13.814  -3.741  1.00  0.00     0.041 A 
ATOM     84  F   UNL     1     -11.774  13.502  -1.451  1.00  0.00    -0.206 F 
ATOM     85  C   UNL     1     -11.606  13.460  -5.066  1.00  0.00     0.022 A 
BRANCH  82  86
ATOM     86  S   UNL     1     -12.748  11.922  -7.057  1.00  0.00     0.124 S 
ATOM     87  O   UNL     1     -13.088  13.133  -7.796  1.00  0.00    -0.237 OA
ATOM     88  O   UNL     1     -11.402  11.398  -7.284  1.00  0.00    -0.237 OA
ATOM     89  O   UNL     1     -13.798  10.912  -6.978  1.00  0.00    -0.744 OA
ENDBRANCH  82  86
ENDBRANCH  55  79
BRANCH  67  90
ATOM     90  C   UNL     1     -17.297  13.679   2.481  1.00  0.00     0.023 A 
ATOM     91  C   UNL     1     -16.976  14.289   3.708  1.00  0.00     0.031 A 
ATOM     92  C   UNL     1     -18.395  14.174   1.756  1.00  0.00     0.131 A 
ATOM     93  C   UNL     1     -17.765  15.343   4.187  1.00  0.00     0.055 A 
ATOM     94  C   UNL     1     -19.156  15.248   2.220  1.00  0.00     0.041 A 
ATOM     95  F   UNL     1     -18.742  13.620   0.583  1.00  0.00    -0.206 F 
ATOM     96  C   UNL     1     -18.849  15.829   3.447  1.00  0.00     0.022 A 
BRANCH  93  97
ATOM     97  S   UNL     1     -17.463  16.073   5.819  1.00  0.00     0.124 S 
ATOM     98  O   UNL     1     -17.098  17.445   5.472  1.00  0.00    -0.237 OA
ATOM     99  O   UNL     1     -18.760  15.919   6.473  1.00  0.00    -0.237 OA
ATOM    100  O   UNL     1     -16.383  15.263   6.373  1.00  0.00    -0.744 OA
ENDBRANCH  93  97
ENDBRANCH  67  90
ENDBRANCH  41  42
ENDBRANCH  33  36
ENDBRANCH  31  32
ENDBRANCH  30  31
ENDBRANCH  29  30
ENDBRANCH   1  29
TORSDOF 19
