REMARK SMILES Cc1[nH]c(=O)sc1S(=O)(=O)NC1(CC(=O)NCCCCNC(=O)c2ccc(-c3c4nc(c(-c5cc(S(=O)(=O)[O-])ccc5F)c5ccc([nH]5)c(-c5cc(S(=O)(=O)[O-])ccc5F)c5nc(c(-c6cc(S(=O)(=O)[O-])ccc6F)c6ccc3[nH]6)C=C5)C=C4)cc2)CCC1
REMARK SMILES IDX 18 1 17 2 16 3 14 4 15 5 13 7 12 8 87 9 89 10 88 11 11 12
REMARK SMILES IDX 8 14 9 15 10 16 7 17 1 18 2 19 3 20 4 21 6 23 5 24 19 25
REMARK SMILES IDX 20 26 21 27 22 28 23 30 24 31 25 32 86 33 26 34 85 35 27 36
REMARK SMILES IDX 28 37 29 38 79 39 30 40 84 41 78 42 80 43 31 44 83 45 77 46
REMARK SMILES IDX 76 47 32 49 64 50 44 51 63 52 45 53 48 54 62 55 81 56 46 57
REMARK SMILES IDX 47 58 61 60 82 61 49 62 33 63 34 64 42 65 35 66 41 67 43 68
REMARK SMILES IDX 40 69 36 70 37 71 38 72 39 73 65 74 66 75 74 76 67 77 73 78
REMARK SMILES IDX 75 79 72 80 68 81 69 82 70 83 71 84 50 85 51 86 59 87 52 88
REMARK SMILES IDX 58 89 60 90 57 91 53 92 54 93 55 94 56 95
REMARK H PARENT 16 6 11 13 3 22 21 29 80 48 48 59
REMARK Flexibility Score: inf
ROOT
ATOM      1  C   UNL     1      -3.120   4.531  -0.573  1.00  0.00     0.023 C 
ENDROOT
BRANCH   1   2
ATOM      2  C   UNL     1      -2.541   4.349  -1.985  1.00  0.00     0.116 C 
BRANCH   2   3
ATOM      3  N   UNL     1      -1.124   4.632  -2.007  1.00  0.00    -0.356 N 
ATOM      4  C   UNL     1      -0.092   3.767  -1.832  1.00  0.00     0.221 C 
ATOM      5  O   UNL     1       1.035   4.223  -1.629  1.00  0.00    -0.275 OA
ATOM      6  H   UNL     1      -0.875   5.571  -2.169  1.00  0.00     0.163 HD
BRANCH   4   7
ATOM      7  C   UNL     1      -0.323   2.271  -1.833  1.00  0.00     0.123 C 
BRANCH   7   8
ATOM      8  C   UNL     1      -0.737   1.633  -0.485  1.00  0.00     0.042 C 
ATOM      9  C   UNL     1      -0.747   0.066  -0.651  1.00  0.00     0.024 C 
ATOM     10  C   UNL     1      -2.259   1.432  -0.143  1.00  0.00     0.024 C 
ATOM     11  C   UNL     1      -2.238   0.148  -0.979  1.00  0.00     0.004 C 
BRANCH   8  12
ATOM     12  N   UNL     1       0.167   2.201   0.585  1.00  0.00    -0.204 NA
ATOM     13  H   UNL     1       1.095   1.885   0.303  1.00  0.00     0.142 HD
BRANCH  12  14
ATOM     14  S   UNL     1       0.193   2.039   2.259  1.00  0.00     0.252 S 
ATOM     15  O   UNL     1      -1.100   2.513   2.712  1.00  0.00    -0.206 OA
ATOM     16  O   UNL     1       1.389   2.746   2.671  1.00  0.00    -0.206 OA
BRANCH  14  17
ATOM     17  C   UNL     1       0.384   0.367   2.655  1.00  0.00     0.158 A 
ATOM     18  C   UNL     1       2.133  -0.243   0.837  1.00  0.00     0.067 C 
ATOM     19  C   UNL     1       1.209  -0.470   1.994  1.00  0.00     0.046 A 
ATOM     20  N   UNL     1       1.092  -1.770   2.439  1.00  0.00    -0.315 N 
ATOM     21  C   UNL     1       0.216  -2.002   3.473  1.00  0.00     0.305 A 
ATOM     22  H   UNL     1       1.613  -2.500   2.034  1.00  0.00     0.170 HD
ATOM     23  S   UNL     1      -0.491  -0.462   3.930  1.00  0.00    -0.061 S 
ATOM     24  O   UNL     1      -0.041  -3.071   3.979  1.00  0.00    -0.257 OA
ENDBRANCH  14  17
ENDBRANCH  12  14
ENDBRANCH   8  12
ENDBRANCH   7   8
ENDBRANCH   4   7
ENDBRANCH   2   3
ENDBRANCH   1   2
BRANCH   1  25
ATOM     25  C   UNL     1      -3.510   5.948  -0.164  1.00  0.00     0.023 C 
BRANCH  25  26
ATOM     26  C   UNL     1      -4.662   6.516  -0.977  1.00  0.00     0.116 C 
BRANCH  26  27
ATOM     27  N   UNL     1      -5.896   5.726  -0.880  1.00  0.00    -0.352 N 
ATOM     28  C   UNL     1      -7.029   5.857  -1.673  1.00  0.00     0.251 C 
ATOM     29  H   UNL     1      -5.924   5.032  -0.183  1.00  0.00     0.163 HD
ATOM     30  O   UNL     1      -8.124   5.454  -1.308  1.00  0.00    -0.269 OA
BRANCH  28  31
ATOM     31  C   UNL     1      -6.832   6.459  -3.000  1.00  0.00     0.039 A 
ATOM     32  C   UNL     1      -7.554   7.562  -3.458  1.00  0.00     0.014 A 
ATOM     33  C   UNL     1      -5.739   5.961  -3.700  1.00  0.00     0.014 A 
ATOM     34  C   UNL     1      -7.099   8.215  -4.604  1.00  0.00     0.010 A 
ATOM     35  C   UNL     1      -5.175   6.736  -4.670  1.00  0.00     0.010 A 
ATOM     36  C   UNL     1      -5.888   7.807  -5.190  1.00  0.00    -0.014 A 
BRANCH  36  37
ATOM     37  C   UNL     1      -5.246   8.539  -6.277  1.00  0.00     0.031 A 
ATOM     38  C   UNL     1      -5.039   9.988  -5.999  1.00  0.00     0.074 A 
ATOM     39  C   UNL     1      -4.673   7.903  -7.328  1.00  0.00     0.049 A 
ATOM     40  N   UNL     1      -5.651  10.983  -6.545  1.00  0.00    -0.248 NA
ATOM     41  C   UNL     1      -4.188  10.382  -4.862  1.00  0.00     0.031 C 
ATOM     42  C   UNL     1      -4.545   6.460  -7.582  1.00  0.00     0.029 A 
ATOM     43  N   UNL     1      -3.987   8.430  -8.375  1.00  0.00    -0.354 N 
ATOM     44  C   UNL     1      -5.088  12.137  -6.008  1.00  0.00     0.074 A 
ATOM     45  C   UNL     1      -4.360  11.707  -4.845  1.00  0.00     0.031 C 
ATOM     46  C   UNL     1      -3.638   6.237  -8.562  1.00  0.00     0.029 A 
ATOM     47  C   UNL     1      -3.262   7.513  -9.140  1.00  0.00     0.049 A 
ATOM     48  H   UNL     1      -3.999   9.393  -8.580  1.00  0.00     0.167 HD
ATOM     49  C   UNL     1      -5.091  13.307  -6.710  1.00  0.00     0.034 A 
ATOM     50  C   UNL     1      -2.429   7.785 -10.186  1.00  0.00     0.034 A 
ATOM     51  C   UNL     1      -6.010  13.221  -7.826  1.00  0.00     0.049 A 
ATOM     52  C   UNL     1      -2.835   9.127 -10.683  1.00  0.00     0.074 A 
ATOM     53  C   UNL     1      -7.373  13.026  -7.936  1.00  0.00     0.029 A 
ATOM     54  N   UNL     1      -5.490  12.894  -9.060  1.00  0.00    -0.354 N 
ATOM     55  N   UNL     1      -4.011   9.358 -11.205  1.00  0.00    -0.248 NA
ATOM     56  C   UNL     1      -2.179  10.289 -10.099  1.00  0.00     0.031 C 
ATOM     57  C   UNL     1      -7.518  12.102  -9.014  1.00  0.00     0.029 A 
ATOM     58  C   UNL     1      -6.259  11.877  -9.579  1.00  0.00     0.049 A 
ATOM     59  H   UNL     1      -4.710  13.311  -9.492  1.00  0.00     0.167 HD
ATOM     60  C   UNL     1      -4.429  10.556 -10.644  1.00  0.00     0.074 A 
ATOM     61  C   UNL     1      -3.226  11.119 -10.024  1.00  0.00     0.031 C 
ATOM     62  C   UNL     1      -5.755  10.838 -10.463  1.00  0.00     0.034 A 
BRANCH  49  63
ATOM     63  C   UNL     1      -4.041  14.394  -6.629  1.00  0.00     0.023 A 
ATOM     64  C   UNL     1      -4.216  15.521  -7.458  1.00  0.00     0.031 A 
ATOM     65  C   UNL     1      -2.773  14.275  -6.020  1.00  0.00     0.131 A 
ATOM     66  C   UNL     1      -3.148  16.394  -7.734  1.00  0.00     0.055 A 
ATOM     67  C   UNL     1      -1.731  15.181  -6.249  1.00  0.00     0.041 A 
ATOM     68  F   UNL     1      -2.434  13.239  -5.247  1.00  0.00    -0.206 F 
ATOM     69  C   UNL     1      -1.903  16.229  -7.136  1.00  0.00     0.022 A 
BRANCH  66  70
ATOM     70  S   UNL     1      -3.366  17.642  -9.030  1.00  0.00     0.124 S 
ATOM     71  O   UNL     1      -3.814  16.827 -10.154  1.00  0.00    -0.237 OA
ATOM     72  O   UNL     1      -4.365  18.522  -8.433  1.00  0.00    -0.237 OA
ATOM     73  O   UNL     1      -2.032  18.219  -9.171  1.00  0.00    -0.744 OA
ENDBRANCH  66  70
ENDBRANCH  49  63
BRANCH  50  74
ATOM     74  C   UNL     1      -1.098   7.161 -10.475  1.00  0.00     0.023 A 
ATOM     75  C   UNL     1      -0.453   7.213 -11.735  1.00  0.00     0.031 A 
ATOM     76  C   UNL     1      -0.314   6.701  -9.391  1.00  0.00     0.131 A 
ATOM     77  C   UNL     1       0.906   6.819 -11.864  1.00  0.00     0.055 A 
ATOM     78  C   UNL     1       1.026   6.327  -9.523  1.00  0.00     0.041 A 
ATOM     79  F   UNL     1      -0.806   6.680  -8.142  1.00  0.00    -0.206 F 
ATOM     80  C   UNL     1       1.646   6.393 -10.759  1.00  0.00     0.022 A 
BRANCH  77  81
ATOM     81  S   UNL     1       1.774   6.910 -13.473  1.00  0.00     0.124 S 
ATOM     82  O   UNL     1       1.063   5.914 -14.267  1.00  0.00    -0.237 OA
ATOM     83  O   UNL     1       1.583   8.303 -13.856  1.00  0.00    -0.237 OA
ATOM     84  O   UNL     1       3.154   6.552 -13.140  1.00  0.00    -0.744 OA
ENDBRANCH  77  81
ENDBRANCH  50  74
BRANCH  62  85
ATOM     85  C   UNL     1      -6.788   9.910 -11.087  1.00  0.00     0.023 A 
ATOM     86  C   UNL     1      -6.933   8.528 -10.807  1.00  0.00     0.031 A 
ATOM     87  C   UNL     1      -7.759  10.507 -11.909  1.00  0.00     0.131 A 
ATOM     88  C   UNL     1      -8.019   7.805 -11.352  1.00  0.00     0.055 A 
ATOM     89  C   UNL     1      -8.843   9.797 -12.422  1.00  0.00     0.041 A 
ATOM     90  F   UNL     1      -7.692  11.818 -12.196  1.00  0.00    -0.206 F 
ATOM     91  C   UNL     1      -8.975   8.442 -12.149  1.00  0.00     0.022 A 
BRANCH  88  92
ATOM     92  S   UNL     1      -8.203   6.012 -11.058  1.00  0.00     0.124 S 
ATOM     93  O   UNL     1      -6.881   5.479 -11.367  1.00  0.00    -0.237 OA
ATOM     94  O   UNL     1      -8.601   5.957  -9.654  1.00  0.00    -0.237 OA
ATOM     95  O   UNL     1      -9.252   5.617 -12.001  1.00  0.00    -0.744 OA
ENDBRANCH  88  92
ENDBRANCH  62  85
ENDBRANCH  36  37
ENDBRANCH  28  31
ENDBRANCH  26  27
ENDBRANCH  25  26
ENDBRANCH   1  25
TORSDOF 18
