REMARK SMILES O=C(N[C@@H]1C=C[C@@H](C(=O)NCCCCNC(=O)c2ccc(-c3c4nc(c(-c5cc(S(=O)(=O)[O-])ccc5F)c5ccc([nH]5)c(-c5cc(S(=O)(=O)[O-])ccc5F)c5nc(c(-c6cc(S(=O)(=O)[O-])ccc6F)c6ccc3[nH]6)C=C5)C=C4)cc2)C1)Oc1ccccc1
REMARK SMILES IDX 12 1 11 2 10 3 8 4 9 5 7 7 4 8 5 9 81 10 6 11 3 12 1 13 2 14
REMARK SMILES IDX 82 16 83 17 84 18 88 19 85 20 87 21 86 22 13 23 14 24 15 25
REMARK SMILES IDX 16 26 17 28 18 29 19 30 80 31 20 32 79 33 21 34 22 35 23 36
REMARK SMILES IDX 73 37 24 38 78 39 72 40 74 41 25 42 77 43 71 44 70 45 26 47
REMARK SMILES IDX 58 48 38 49 57 50 39 51 42 52 56 53 75 54 40 55 41 56 55 58
REMARK SMILES IDX 76 59 43 60 27 61 28 62 36 63 29 64 35 65 37 66 34 67 30 68
REMARK SMILES IDX 31 69 32 70 33 71 59 72 60 73 68 74 61 75 67 76 69 77 66 78
REMARK SMILES IDX 62 79 63 80 64 81 65 82 44 83 45 84 53 85 46 86 52 87 54 88
REMARK SMILES IDX 51 89 47 90 48 91 49 92 50 93
REMARK H PARENT 10 6 3 15 15 27 74 46 42 57
REMARK Flexibility Score: inf
ROOT
ATOM      1  C   UNL     1       2.581   0.625   4.672  1.00  0.00     0.023 C 
ENDROOT
BRANCH   1   2
ATOM      2  C   UNL     1       3.818   1.503   4.487  1.00  0.00     0.116 C 
BRANCH   2   3
ATOM      3  N   UNL     1       4.992   0.908   5.087  1.00  0.00    -0.356 N 
ATOM      4  C   UNL     1       6.088   0.312   4.555  1.00  0.00     0.227 C 
ATOM      5  O   UNL     1       6.951  -0.061   5.360  1.00  0.00    -0.274 OA
ATOM      6  H   UNL     1       4.996   0.941   6.071  1.00  0.00     0.163 HD
BRANCH   4   7
ATOM      7  C   UNL     1       6.353   0.152   3.053  1.00  0.00     0.103 C 
ATOM      8  C   UNL     1       4.874   0.788   1.182  1.00  0.00     0.109 C 
ATOM      9  C   UNL     1       5.995   1.757   1.383  1.00  0.00    -0.006 C 
ATOM     10  C   UNL     1       5.248  -0.373   2.126  1.00  0.00     0.047 C 
ATOM     11  C   UNL     1       6.775   1.436   2.417  1.00  0.00    -0.016 C 
BRANCH   8  12
ATOM     12  N   UNL     1       4.827   0.434  -0.212  1.00  0.00    -0.315 N 
ATOM     13  O   UNL     1       4.216   0.403  -2.362  1.00  0.00    -0.224 OA
ATOM     14  C   UNL     1       4.031   0.872  -1.239  1.00  0.00     0.413 C 
ATOM     15  H   UNL     1       5.487  -0.246  -0.477  1.00  0.00     0.167 HD
BRANCH  14  16
ATOM     16  O   UNL     1       2.993   1.812  -1.038  1.00  0.00    -0.410 OA
BRANCH  16  17
ATOM     17  C   UNL     1       2.657   2.668   0.042  1.00  0.00     0.132 A 
ATOM     18  C   UNL     1       1.417   2.492   0.651  1.00  0.00     0.047 A 
ATOM     19  C   UNL     1       3.535   3.664   0.455  1.00  0.00     0.047 A 
ATOM     20  C   UNL     1       1.097   3.266   1.767  1.00  0.00     0.004 A 
ATOM     21  C   UNL     1       3.230   4.402   1.597  1.00  0.00     0.004 A 
ATOM     22  C   UNL     1       2.017   4.197   2.258  1.00  0.00     0.000 A 
ENDBRANCH  16  17
ENDBRANCH  14  16
ENDBRANCH   8  12
ENDBRANCH   4   7
ENDBRANCH   2   3
ENDBRANCH   1   2
BRANCH   1  23
ATOM     23  C   UNL     1       2.117   0.491   6.125  1.00  0.00     0.023 C 
BRANCH  23  24
ATOM     24  C   UNL     1       1.774   1.804   6.821  1.00  0.00     0.116 C 
BRANCH  24  25
ATOM     25  N   UNL     1       0.682   2.514   6.173  1.00  0.00    -0.352 N 
ATOM     26  C   UNL     1      -0.437   3.083   6.738  1.00  0.00     0.251 C 
ATOM     27  H   UNL     1       0.753   2.599   5.195  1.00  0.00     0.163 HD
ATOM     28  O   UNL     1      -1.332   3.502   6.016  1.00  0.00    -0.269 OA
BRANCH  26  29
ATOM     29  C   UNL     1      -0.561   3.149   8.214  1.00  0.00     0.039 A 
ATOM     30  C   UNL     1      -1.767   2.772   8.809  1.00  0.00     0.014 A 
ATOM     31  C   UNL     1       0.513   3.560   9.008  1.00  0.00     0.014 A 
ATOM     32  C   UNL     1      -1.870   2.740  10.203  1.00  0.00     0.010 A 
ATOM     33  C   UNL     1       0.433   3.452  10.395  1.00  0.00     0.010 A 
ATOM     34  C   UNL     1      -0.759   3.040  11.009  1.00  0.00    -0.014 A 
BRANCH  34  35
ATOM     35  C   UNL     1      -0.828   2.925  12.492  1.00  0.00     0.031 A 
ATOM     36  C   UNL     1      -0.634   4.143  13.356  1.00  0.00     0.074 A 
ATOM     37  C   UNL     1      -1.010   1.717  13.063  1.00  0.00     0.049 A 
ATOM     38  N   UNL     1      -0.594   4.235  14.661  1.00  0.00    -0.248 NA
ATOM     39  C   UNL     1      -0.431   5.421  12.659  1.00  0.00     0.031 C 
ATOM     40  C   UNL     1      -1.176   0.456  12.336  1.00  0.00     0.029 A 
ATOM     41  N   UNL     1      -1.084   1.347  14.383  1.00  0.00    -0.354 N 
ATOM     42  C   UNL     1      -0.354   5.576  14.941  1.00  0.00     0.074 A 
ATOM     43  C   UNL     1      -0.191   6.245  13.667  1.00  0.00     0.031 C 
ATOM     44  C   UNL     1      -1.364  -0.539  13.217  1.00  0.00     0.029 A 
ATOM     45  C   UNL     1      -1.281  -0.003  14.572  1.00  0.00     0.049 A 
ATOM     46  H   UNL     1      -1.004   1.988  15.127  1.00  0.00     0.167 HD
ATOM     47  C   UNL     1      -0.300   6.197  16.146  1.00  0.00     0.034 A 
ATOM     48  C   UNL     1      -1.372  -0.728  15.705  1.00  0.00     0.034 A 
ATOM     49  C   UNL     1      -0.471   5.518  17.408  1.00  0.00     0.049 A 
ATOM     50  C   UNL     1      -1.266  -0.021  17.034  1.00  0.00     0.074 A 
ATOM     51  C   UNL     1      -0.481   6.059  18.682  1.00  0.00     0.029 A 
ATOM     52  N   UNL     1      -0.653   4.149  17.559  1.00  0.00    -0.354 N 
ATOM     53  N   UNL     1      -1.085   1.257  17.279  1.00  0.00    -0.248 NA
ATOM     54  C   UNL     1      -1.389  -0.853  18.238  1.00  0.00     0.031 C 
ATOM     55  C   UNL     1      -0.591   5.012  19.604  1.00  0.00     0.029 A 
ATOM     56  C   UNL     1      -0.741   3.825  18.905  1.00  0.00     0.049 A 
ATOM     57  H   UNL     1      -0.712   3.503  16.819  1.00  0.00     0.167 HD
ATOM     58  C   UNL     1      -1.108   1.383  18.666  1.00  0.00     0.074 A 
ATOM     59  C   UNL     1      -1.337   0.057  19.199  1.00  0.00     0.031 C 
ATOM     60  C   UNL     1      -0.960   2.497  19.429  1.00  0.00     0.034 A 
BRANCH  47  61
ATOM     61  C   UNL     1      -0.022   7.683  16.152  1.00  0.00     0.023 A 
ATOM     62  C   UNL     1      -0.898   8.601  15.546  1.00  0.00     0.031 A 
ATOM     63  C   UNL     1       1.144   8.188  16.754  1.00  0.00     0.131 A 
ATOM     64  C   UNL     1      -0.559   9.962  15.489  1.00  0.00     0.055 A 
ATOM     65  C   UNL     1       1.433   9.555  16.771  1.00  0.00     0.041 A 
ATOM     66  F   UNL     1       2.031   7.361  17.329  1.00  0.00    -0.206 F 
ATOM     67  C   UNL     1       0.587  10.449  16.122  1.00  0.00     0.022 A 
BRANCH  64  68
ATOM     68  S   UNL     1      -1.559  11.059  14.448  1.00  0.00     0.124 S 
ATOM     69  O   UNL     1      -1.428  10.423  13.139  1.00  0.00    -0.237 OA
ATOM     70  O   UNL     1      -2.874  10.974  15.072  1.00  0.00    -0.237 OA
ATOM     71  O   UNL     1      -0.891  12.353  14.573  1.00  0.00    -0.744 OA
ENDBRANCH  64  68
ENDBRANCH  47  61
BRANCH  48  72
ATOM     72  C   UNL     1      -1.565  -2.207  15.646  1.00  0.00     0.023 A 
ATOM     73  C   UNL     1      -2.721  -2.806  16.172  1.00  0.00     0.031 A 
ATOM     74  C   UNL     1      -0.574  -3.048  15.112  1.00  0.00     0.131 A 
ATOM     75  C   UNL     1      -2.834  -4.205  16.201  1.00  0.00     0.055 A 
ATOM     76  C   UNL     1      -0.717  -4.437  15.088  1.00  0.00     0.041 A 
ATOM     77  F   UNL     1       0.551  -2.529  14.594  1.00  0.00    -0.206 F 
ATOM     78  C   UNL     1      -1.847  -5.024  15.649  1.00  0.00     0.022 A 
BRANCH  75  79
ATOM     79  S   UNL     1      -4.249  -4.944  17.063  1.00  0.00     0.124 S 
ATOM     80  O   UNL     1      -4.100  -4.393  18.404  1.00  0.00    -0.237 OA
ATOM     81  O   UNL     1      -5.375  -4.441  16.283  1.00  0.00    -0.237 OA
ATOM     82  O   UNL     1      -4.005  -6.380  16.946  1.00  0.00    -0.744 OA
ENDBRANCH  75  79
ENDBRANCH  48  72
BRANCH  60  83
ATOM     83  C   UNL     1      -1.093   2.330  20.924  1.00  0.00     0.023 A 
ATOM     84  C   UNL     1      -0.175   1.573  21.674  1.00  0.00     0.031 A 
ATOM     85  C   UNL     1      -2.167   2.929  21.608  1.00  0.00     0.131 A 
ATOM     86  C   UNL     1      -0.382   1.384  23.049  1.00  0.00     0.055 A 
ATOM     87  C   UNL     1      -2.329   2.794  22.987  1.00  0.00     0.041 A 
ATOM     88  F   UNL     1      -3.078   3.660  20.945  1.00  0.00    -0.206 F 
ATOM     89  C   UNL     1      -1.442   2.005  23.713  1.00  0.00     0.022 A 
BRANCH  86  90
ATOM     90  S   UNL     1       0.694   0.227  23.940  1.00  0.00     0.124 S 
ATOM     91  O   UNL     1       0.492  -1.011  23.194  1.00  0.00    -0.237 OA
ATOM     92  O   UNL     1       2.006   0.849  23.799  1.00  0.00    -0.237 OA
ATOM     93  O   UNL     1       0.150   0.229  25.297  1.00  0.00    -0.744 OA
ENDBRANCH  86  90
ENDBRANCH  60  83
ENDBRANCH  34  35
ENDBRANCH  26  29
ENDBRANCH  24  25
ENDBRANCH  23  24
ENDBRANCH   1  23
TORSDOF 17
