REMARK SMILES CCC(CC)NC(=O)NC[C@H]1CC[C@H](C(=O)NCCCCNC(=O)c2ccc(-c3c4nc(c(-c5cc(S(=O)(=O)[O-])ccc5F)c5ccc([nH]5)c(-c5cc(S(=O)(=O)[O-])ccc5F)c5nc(c(-c6cc(S(=O)(=O)[O-])ccc6F)c6ccc3[nH]6)C=C5)C=C4)cc2)O1
REMARK SMILES IDX 19 1 18 2 17 3 15 4 16 5 14 7 11 8 12 9 88 10 13 11 10 12
REMARK SMILES IDX 9 13 6 14 7 15 8 17 3 19 2 20 1 21 4 22 5 23 20 24 21 25
REMARK SMILES IDX 22 26 23 27 24 29 25 30 26 31 87 32 27 33 86 34 28 35 29 36
REMARK SMILES IDX 30 37 80 38 31 39 85 40 79 41 81 42 32 43 84 44 78 45 77 46
REMARK SMILES IDX 33 48 65 49 45 50 64 51 46 52 49 53 63 54 82 55 47 56 48 57
REMARK SMILES IDX 62 59 83 60 50 61 34 62 35 63 43 64 36 65 42 66 44 67 41 68
REMARK SMILES IDX 37 69 38 70 39 71 40 72 66 73 67 74 75 75 68 76 74 77 76 78
REMARK SMILES IDX 73 79 69 80 70 81 71 82 72 83 51 84 52 85 60 86 53 87 59 88
REMARK SMILES IDX 61 89 58 90 54 91 55 92 56 93 57 94
REMARK H PARENT 17 6 6 16 9 18 22 28 81 47 49 58
REMARK Flexibility Score: inf
ROOT
ATOM      1  C   UNL     1       1.527   3.733   1.522  1.00  0.00     0.023 C 
ENDROOT
BRANCH   1   2
ATOM      2  C   UNL     1       2.356   2.534   1.064  1.00  0.00     0.116 C 
BRANCH   2   3
ATOM      3  N   UNL     1       3.447   2.931   0.202  1.00  0.00    -0.354 N 
ATOM      4  C   UNL     1       4.755   3.176   0.495  1.00  0.00     0.249 C 
ATOM      5  O   UNL     1       5.497   3.484  -0.445  1.00  0.00    -0.272 OA
ATOM      6  H   UNL     1       3.208   3.042  -0.747  1.00  0.00     0.163 HD
BRANCH   4   7
ATOM      7  C   UNL     1       5.309   3.162   1.946  1.00  0.00     0.207 C 
ATOM      8  C   UNL     1       4.377   2.544   4.015  1.00  0.00     0.138 C 
ATOM      9  C   UNL     1       4.110   4.029   3.837  1.00  0.00     0.037 C 
ATOM     10  O   UNL     1       4.984   2.068   2.800  1.00  0.00    -0.363 OA
ATOM     11  C   UNL     1       5.000   4.447   2.695  1.00  0.00     0.045 C 
BRANCH   8  12
ATOM     12  C   UNL     1       5.258   2.246   5.244  1.00  0.00     0.149 C 
BRANCH  12  13
ATOM     13  N   UNL     1       4.499   1.548   6.276  1.00  0.00    -0.336 N 
ATOM     14  N   UNL     1       4.937  -0.767   6.057  1.00  0.00    -0.335 N 
ATOM     15  C   UNL     1       4.282   0.268   6.591  1.00  0.00     0.315 C 
ATOM     16  H   UNL     1       4.555  -1.639   6.307  1.00  0.00     0.165 HD
ATOM     17  O   UNL     1       3.425   0.029   7.446  1.00  0.00    -0.249 OA
ATOM     18  H   UNL     1       4.037   2.168   6.886  1.00  0.00     0.165 HD
BRANCH  14  19
ATOM     19  C   UNL     1       6.099  -0.880   5.181  1.00  0.00     0.083 C 
BRANCH  19  20
ATOM     20  C   UNL     1       7.381  -0.606   5.990  1.00  0.00     0.021 C 
ATOM     21  C   UNL     1       8.611  -0.401   5.119  1.00  0.00     0.006 C 
ENDBRANCH  19  20
BRANCH  19  22
ATOM     22  C   UNL     1       6.093  -2.233   4.441  1.00  0.00     0.021 C 
ATOM     23  C   UNL     1       6.336  -3.464   5.306  1.00  0.00     0.006 C 
ENDBRANCH  19  22
ENDBRANCH  14  19
ENDBRANCH  12  13
ENDBRANCH   8  12
ENDBRANCH   4   7
ENDBRANCH   2   3
ENDBRANCH   1   2
BRANCH   1  24
ATOM     24  C   UNL     1       0.415   4.165   0.571  1.00  0.00     0.023 C 
BRANCH  24  25
ATOM     25  C   UNL     1      -0.658   3.118   0.304  1.00  0.00     0.116 C 
BRANCH  25  26
ATOM     26  N   UNL     1      -1.299   2.606   1.506  1.00  0.00    -0.352 N 
ATOM     27  C   UNL     1      -2.607   2.198   1.666  1.00  0.00     0.251 C 
ATOM     28  H   UNL     1      -0.728   2.542   2.305  1.00  0.00     0.163 HD
ATOM     29  O   UNL     1      -3.021   1.868   2.767  1.00  0.00    -0.269 OA
BRANCH  27  30
ATOM     30  C   UNL     1      -3.508   2.224   0.492  1.00  0.00     0.039 A 
ATOM     31  C   UNL     1      -4.732   2.887   0.596  1.00  0.00     0.014 A 
ATOM     32  C   UNL     1      -3.103   1.667  -0.723  1.00  0.00     0.014 A 
ATOM     33  C   UNL     1      -5.512   3.071  -0.548  1.00  0.00     0.010 A 
ATOM     34  C   UNL     1      -3.842   1.920  -1.873  1.00  0.00     0.010 A 
ATOM     35  C   UNL     1      -5.049   2.633  -1.799  1.00  0.00    -0.014 A 
BRANCH  35  36
ATOM     36  C   UNL     1      -5.803   2.911  -3.048  1.00  0.00     0.031 A 
ATOM     37  C   UNL     1      -6.340   1.769  -3.866  1.00  0.00     0.074 A 
ATOM     38  C   UNL     1      -5.924   4.180  -3.488  1.00  0.00     0.049 A 
ATOM     39  N   UNL     1      -6.922   1.790  -5.037  1.00  0.00    -0.248 NA
ATOM     40  C   UNL     1      -6.162   0.421  -3.305  1.00  0.00     0.031 C 
ATOM     41  C   UNL     1      -5.398   5.366  -2.807  1.00  0.00     0.029 A 
ATOM     42  N   UNL     1      -6.514   4.684  -4.619  1.00  0.00    -0.354 N 
ATOM     43  C   UNL     1      -7.161   0.460  -5.363  1.00  0.00     0.074 A 
ATOM     44  C   UNL     1      -6.603  -0.341  -4.293  1.00  0.00     0.031 C 
ATOM     45  C   UNL     1      -5.707   6.458  -3.524  1.00  0.00     0.029 A 
ATOM     46  C   UNL     1      -6.413   6.052  -4.734  1.00  0.00     0.049 A 
ATOM     47  H   UNL     1      -6.967   4.120  -5.287  1.00  0.00     0.167 HD
ATOM     48  C   UNL     1      -7.809  -0.046  -6.442  1.00  0.00     0.034 A 
ATOM     49  C   UNL     1      -6.831   6.881  -5.711  1.00  0.00     0.034 A 
ATOM     50  C   UNL     1      -8.378   0.769  -7.487  1.00  0.00     0.049 A 
ATOM     51  C   UNL     1      -7.547   6.297  -6.902  1.00  0.00     0.074 A 
ATOM     52  C   UNL     1      -9.109   0.369  -8.592  1.00  0.00     0.029 A 
ATOM     53  N   UNL     1      -8.276   2.153  -7.558  1.00  0.00    -0.354 N 
ATOM     54  N   UNL     1      -7.812   5.040  -7.171  1.00  0.00    -0.248 NA
ATOM     55  C   UNL     1      -8.028   7.245  -7.916  1.00  0.00     0.031 C 
ATOM     56  C   UNL     1      -9.400   1.503  -9.359  1.00  0.00     0.029 A 
ATOM     57  C   UNL     1      -8.909   2.619  -8.700  1.00  0.00     0.049 A 
ATOM     58  H   UNL     1      -7.821   2.720  -6.894  1.00  0.00     0.167 HD
ATOM     59  C   UNL     1      -8.518   5.050  -8.371  1.00  0.00     0.074 A 
ATOM     60  C   UNL     1      -8.646   6.438  -8.766  1.00  0.00     0.031 C 
ATOM     61  C   UNL     1      -9.019   4.007  -9.082  1.00  0.00     0.034 A 
BRANCH  48  62
ATOM     62  C   UNL     1      -7.910  -1.549  -6.546  1.00  0.00     0.023 A 
ATOM     63  C   UNL     1      -8.600  -2.309  -5.585  1.00  0.00     0.031 A 
ATOM     64  C   UNL     1      -7.274  -2.237  -7.594  1.00  0.00     0.131 A 
ATOM     65  C   UNL     1      -8.565  -3.710  -5.641  1.00  0.00     0.055 A 
ATOM     66  C   UNL     1      -7.315  -3.629  -7.692  1.00  0.00     0.041 A 
ATOM     67  F   UNL     1      -6.583  -1.568  -8.531  1.00  0.00    -0.206 F 
ATOM     68  C   UNL     1      -7.949  -4.375  -6.703  1.00  0.00     0.022 A 
BRANCH  65  69
ATOM     69  S   UNL     1      -9.206  -4.647  -4.227  1.00  0.00     0.124 S 
ATOM     70  O   UNL     1      -8.358  -4.157  -3.142  1.00  0.00    -0.237 OA
ATOM     71  O   UNL     1     -10.604  -4.236  -4.182  1.00  0.00    -0.237 OA
ATOM     72  O   UNL     1      -8.976  -6.040  -4.607  1.00  0.00    -0.744 OA
ENDBRANCH  65  69
ENDBRANCH  48  62
BRANCH  49  73
ATOM     73  C   UNL     1      -6.584   8.348  -5.616  1.00  0.00     0.023 A 
ATOM     74  C   UNL     1      -7.649   9.252  -5.482  1.00  0.00     0.031 A 
ATOM     75  C   UNL     1      -5.281   8.870  -5.696  1.00  0.00     0.131 A 
ATOM     76  C   UNL     1      -7.399  10.633  -5.478  1.00  0.00     0.055 A 
ATOM     77  C   UNL     1      -5.032  10.243  -5.643  1.00  0.00     0.041 A 
ATOM     78  F   UNL     1      -4.226   8.048  -5.816  1.00  0.00    -0.206 F 
ATOM     79  C   UNL     1      -6.097  11.134  -5.547  1.00  0.00     0.022 A 
BRANCH  76  80
ATOM     80  S   UNL     1      -8.811  11.771  -5.459  1.00  0.00     0.124 S 
ATOM     81  O   UNL     1      -9.534  11.368  -6.660  1.00  0.00    -0.237 OA
ATOM     82  O   UNL     1      -9.445  11.444  -4.187  1.00  0.00    -0.237 OA
ATOM     83  O   UNL     1      -8.185  13.090  -5.521  1.00  0.00    -0.744 OA
ENDBRANCH  76  80
ENDBRANCH  49  73
BRANCH  61  84
ATOM     84  C   UNL     1      -9.790   4.342 -10.333  1.00  0.00     0.023 A 
ATOM     85  C   UNL     1      -9.159   4.876 -11.470  1.00  0.00     0.031 A 
ATOM     86  C   UNL     1     -11.179   4.130 -10.383  1.00  0.00     0.131 A 
ATOM     87  C   UNL     1      -9.924   5.227 -12.592  1.00  0.00     0.055 A 
ATOM     88  C   UNL     1     -11.927   4.430 -11.521  1.00  0.00     0.041 A 
ATOM     89  F   UNL     1     -11.831   3.623  -9.323  1.00  0.00    -0.206 F 
ATOM     90  C   UNL     1     -11.301   4.993 -12.630  1.00  0.00     0.022 A 
BRANCH  87  91
ATOM     91  S   UNL     1      -9.107   6.068 -13.975  1.00  0.00     0.124 S 
ATOM     92  O   UNL     1      -8.586   7.271 -13.334  1.00  0.00    -0.237 OA
ATOM     93  O   UNL     1      -8.111   5.087 -14.394  1.00  0.00    -0.237 OA
ATOM     94  O   UNL     1     -10.192   6.293 -14.929  1.00  0.00    -0.744 OA
ENDBRANCH  87  91
ENDBRANCH  61  84
ENDBRANCH  35  36
ENDBRANCH  27  30
ENDBRANCH  25  26
ENDBRANCH  24  25
ENDBRANCH   1  24
TORSDOF 19
