REMARK SMILES NS(=O)(=O)c1ccc(-n2nc(C(=O)NCCCCNC(=O)c3ccc(-c4c5nc(c(-c6cc(S(=O)(=O)[O-])ccc6F)c6ccc([nH]6)c(-c6cc(S(=O)(=O)[O-])ccc6F)c6nc(c(-c7cc(S(=O)(=O)[O-])ccc7F)c7ccc4[nH]7)C=C6)C=C5)cc3)cc2-c2ccc(Cl)s2)cc1
REMARK SMILES IDX 16 1 15 2 14 3 12 4 13 5 11 7 9 8 10 9 86 10 85 11 8 12 5 13
REMARK SMILES IDX 6 14 94 15 7 16 93 17 2 18 3 19 4 20 1 21 87 24 88 25 92 26
REMARK SMILES IDX 89 27 90 28 91 29 17 30 18 31 19 32 20 33 21 35 22 36 23 37
REMARK SMILES IDX 84 38 24 39 83 40 25 41 26 42 27 43 77 44 28 45 82 46 76 47
REMARK SMILES IDX 78 48 29 49 81 50 75 51 74 52 30 54 62 55 42 56 61 57 43 58
REMARK SMILES IDX 46 59 60 60 79 61 44 62 45 63 59 65 80 66 47 67 31 68 32 69
REMARK SMILES IDX 40 70 33 71 39 72 41 73 38 74 34 75 35 76 36 77 37 78 63 79
REMARK SMILES IDX 64 80 72 81 65 82 71 83 73 84 70 85 66 86 67 87 68 88 69 89
REMARK SMILES IDX 48 90 49 91 57 92 50 93 56 94 58 95 55 96 51 97 52 98 53 99
REMARK SMILES IDX 54 100
REMARK H PARENT 14 6 1 22 1 23 19 34 78 53 46 64
REMARK Flexibility Score: inf
ROOT
ATOM      1  C   UNL     1       5.265 -10.868   3.098  1.00  0.00     0.023 C 
ENDROOT
BRANCH   1   2
ATOM      2  C   UNL     1       3.762 -10.842   3.399  1.00  0.00     0.116 C 
BRANCH   2   3
ATOM      3  N   UNL     1       3.447 -10.047   4.570  1.00  0.00    -0.351 N 
ATOM      4  C   UNL     1       3.084  -8.731   4.761  1.00  0.00     0.271 C 
ATOM      5  O   UNL     1       2.893  -8.403   5.936  1.00  0.00    -0.267 OA
ATOM      6  H   UNL     1       3.506 -10.557   5.410  1.00  0.00     0.163 HD
BRANCH   4   7
ATOM      7  C   UNL     1       2.917  -7.771   3.643  1.00  0.00     0.151 A 
ATOM      8  N   UNL     1       2.294  -5.941   2.678  1.00  0.00    -0.231 N 
ATOM      9  N   UNL     1       2.514  -6.502   3.889  1.00  0.00    -0.162 NA
ATOM     10  C   UNL     1       2.745  -6.751   1.655  1.00  0.00     0.085 A 
ATOM     11  C   UNL     1       3.153  -7.920   2.256  1.00  0.00     0.066 A 
BRANCH   8  12
ATOM     12  C   UNL     1       1.747  -4.637   2.562  1.00  0.00     0.065 A 
ATOM     13  C   UNL     1       0.954  -2.011   2.111  1.00  0.00     0.082 A 
ATOM     14  C   UNL     1       0.399  -3.037   1.342  1.00  0.00     0.024 A 
ATOM     15  C   UNL     1       1.849  -2.295   3.150  1.00  0.00     0.024 A 
ATOM     16  C   UNL     1       0.809  -4.353   1.557  1.00  0.00     0.030 A 
ATOM     17  C   UNL     1       2.225  -3.619   3.396  1.00  0.00     0.030 A 
BRANCH  13  18
ATOM     18  S   UNL     1       0.539  -0.333   1.738  1.00  0.00     0.238 S 
ATOM     19  O   UNL     1       1.230   0.556   2.631  1.00  0.00    -0.207 OA
ATOM     20  O   UNL     1      -0.888  -0.242   1.490  1.00  0.00    -0.207 OA
BRANCH  18  21
ATOM     21  N   UNL     1       1.275  -0.119   0.240  1.00  0.00    -0.225 NA
ATOM     22  H   UNL     1       1.104   0.831  -0.090  1.00  0.00     0.137 HD
ATOM     23  H   UNL     1       0.888  -0.785  -0.428  1.00  0.00     0.137 HD
ENDBRANCH  18  21
ENDBRANCH  13  18
ENDBRANCH   8  12
BRANCH  10  24
ATOM     24  C   UNL     1       2.885  -6.406   0.273  1.00  0.00     0.054 A 
ATOM     25  C   UNL     1       2.313  -7.056  -0.803  1.00  0.00     0.024 A 
ATOM     26  S   UNL     1       3.936  -5.147  -0.231  1.00  0.00    -0.122 S 
ATOM     27  C   UNL     1       2.748  -6.515  -2.050  1.00  0.00     0.033 A 
ATOM     28  C   UNL     1       3.632  -5.485  -1.859  1.00  0.00     0.094 A 
ATOM     29  Cl  UNL     1       4.426  -4.574  -3.079  1.00  0.00    -0.072 Cl
ENDBRANCH  10  24
ENDBRANCH   4   7
ENDBRANCH   2   3
ENDBRANCH   1   2
BRANCH   1  30
ATOM     30  C   UNL     1       6.085 -11.849   3.956  1.00  0.00     0.023 C 
BRANCH  30  31
ATOM     31  C   UNL     1       5.782 -13.332   3.739  1.00  0.00     0.116 C 
BRANCH  31  32
ATOM     32  N   UNL     1       6.053 -13.790   2.373  1.00  0.00    -0.352 N 
ATOM     33  C   UNL     1       5.607 -14.951   1.758  1.00  0.00     0.251 C 
ATOM     34  H   UNL     1       6.621 -13.202   1.825  1.00  0.00     0.163 HD
ATOM     35  O   UNL     1       6.229 -15.439   0.822  1.00  0.00    -0.269 OA
BRANCH  33  36
ATOM     36  C   UNL     1       4.355 -15.564   2.238  1.00  0.00     0.039 A 
ATOM     37  C   UNL     1       4.185 -16.945   2.367  1.00  0.00     0.014 A 
ATOM     38  C   UNL     1       3.341 -14.689   2.609  1.00  0.00     0.014 A 
ATOM     39  C   UNL     1       3.013 -17.422   2.958  1.00  0.00     0.010 A 
ATOM     40  C   UNL     1       2.288 -15.142   3.356  1.00  0.00     0.010 A 
ATOM     41  C   UNL     1       2.075 -16.509   3.469  1.00  0.00    -0.014 A 
BRANCH  41  42
ATOM     42  C   UNL     1       0.915 -16.940   4.245  1.00  0.00     0.031 A 
ATOM     43  C   UNL     1       1.265 -17.767   5.429  1.00  0.00     0.074 A 
ATOM     44  C   UNL     1      -0.324 -16.425   4.068  1.00  0.00     0.049 A 
ATOM     45  N   UNL     1       1.117 -19.041   5.574  1.00  0.00    -0.248 NA
ATOM     46  C   UNL     1       2.054 -17.141   6.504  1.00  0.00     0.031 C 
ATOM     47  C   UNL     1      -0.732 -15.345   3.158  1.00  0.00     0.029 A 
ATOM     48  N   UNL     1      -1.475 -16.679   4.749  1.00  0.00    -0.354 N 
ATOM     49  C   UNL     1       1.523 -19.319   6.876  1.00  0.00     0.074 A 
ATOM     50  C   UNL     1       2.321 -18.195   7.279  1.00  0.00     0.031 C 
ATOM     51  C   UNL     1      -1.954 -14.886   3.507  1.00  0.00     0.029 A 
ATOM     52  C   UNL     1      -2.498 -15.755   4.534  1.00  0.00     0.049 A 
ATOM     53  H   UNL     1      -1.577 -17.454   5.347  1.00  0.00     0.167 HD
ATOM     54  C   UNL     1       0.910 -20.296   7.603  1.00  0.00     0.034 A 
ATOM     55  C   UNL     1      -3.710 -15.697   5.151  1.00  0.00     0.034 A 
ATOM     56  C   UNL     1       0.114 -21.143   6.739  1.00  0.00     0.049 A 
ATOM     57  C   UNL     1      -3.961 -17.056   5.689  1.00  0.00     0.074 A 
ATOM     58  C   UNL     1       0.376 -21.936   5.639  1.00  0.00     0.029 A 
ATOM     59  N   UNL     1      -1.246 -20.921   6.721  1.00  0.00    -0.354 N 
ATOM     60  N   UNL     1      -4.084 -18.115   4.933  1.00  0.00    -0.248 NA
ATOM     61  C   UNL     1      -3.584 -17.322   7.068  1.00  0.00     0.031 C 
ATOM     62  C   UNL     1      -0.737 -21.737   4.768  1.00  0.00     0.029 A 
ATOM     63  C   UNL     1      -1.666 -20.917   5.415  1.00  0.00     0.049 A 
ATOM     64  H   UNL     1      -1.819 -20.788   7.511  1.00  0.00     0.167 HD
ATOM     65  C   UNL     1      -3.387 -19.114   5.598  1.00  0.00     0.074 A 
ATOM     66  C   UNL     1      -3.193 -18.595   6.951  1.00  0.00     0.031 C 
ATOM     67  C   UNL     1      -2.788 -20.136   4.915  1.00  0.00     0.034 A 
BRANCH  54  68
ATOM     68  C   UNL     1       0.671 -20.249   9.103  1.00  0.00     0.023 A 
ATOM     69  C   UNL     1      -0.038 -21.330   9.667  1.00  0.00     0.031 A 
ATOM     70  C   UNL     1       0.823 -19.121   9.942  1.00  0.00     0.131 A 
ATOM     71  C   UNL     1      -0.653 -21.218  10.926  1.00  0.00     0.055 A 
ATOM     72  C   UNL     1       0.263 -19.040  11.221  1.00  0.00     0.041 A 
ATOM     73  F   UNL     1       1.439 -18.000   9.556  1.00  0.00    -0.206 F 
ATOM     74  C   UNL     1      -0.511 -20.077  11.707  1.00  0.00     0.022 A 
BRANCH  71  75
ATOM     75  S   UNL     1      -1.798 -22.524  11.440  1.00  0.00     0.124 S 
ATOM     76  O   UNL     1      -2.729 -22.551  10.317  1.00  0.00    -0.237 OA
ATOM     77  O   UNL     1      -0.905 -23.670  11.568  1.00  0.00    -0.237 OA
ATOM     78  O   UNL     1      -2.347 -22.017  12.695  1.00  0.00    -0.744 OA
ENDBRANCH  71  75
ENDBRANCH  54  68
BRANCH  55  79
ATOM     79  C   UNL     1      -4.415 -14.465   5.623  1.00  0.00     0.023 A 
ATOM     80  C   UNL     1      -5.800 -14.410   5.901  1.00  0.00     0.031 A 
ATOM     81  C   UNL     1      -3.647 -13.353   6.041  1.00  0.00     0.131 A 
ATOM     82  C   UNL     1      -6.354 -13.284   6.565  1.00  0.00     0.055 A 
ATOM     83  C   UNL     1      -4.197 -12.248   6.696  1.00  0.00     0.041 A 
ATOM     84  F   UNL     1      -2.312 -13.341   5.896  1.00  0.00    -0.206 F 
ATOM     85  C   UNL     1      -5.554 -12.212   6.968  1.00  0.00     0.022 A 
BRANCH  82  86
ATOM     86  S   UNL     1      -8.133 -13.215   6.971  1.00  0.00     0.124 S 
ATOM     87  O   UNL     1      -8.758 -13.281   5.655  1.00  0.00    -0.237 OA
ATOM     88  O   UNL     1      -8.302 -14.381   7.830  1.00  0.00    -0.237 OA
ATOM     89  O   UNL     1      -8.280 -11.927   7.653  1.00  0.00    -0.744 OA
ENDBRANCH  82  86
ENDBRANCH  55  79
BRANCH  67  90
ATOM     90  C   UNL     1      -3.197 -20.394   3.477  1.00  0.00     0.023 A 
ATOM     91  C   UNL     1      -3.023 -19.504   2.391  1.00  0.00     0.031 A 
ATOM     92  C   UNL     1      -3.665 -21.690   3.190  1.00  0.00     0.131 A 
ATOM     93  C   UNL     1      -3.311 -19.938   1.077  1.00  0.00     0.055 A 
ATOM     94  C   UNL     1      -3.924 -22.120   1.891  1.00  0.00     0.041 A 
ATOM     95  F   UNL     1      -3.832 -22.584   4.178  1.00  0.00    -0.206 F 
ATOM     96  C   UNL     1      -3.749 -21.244   0.829  1.00  0.00     0.022 A 
BRANCH  93  97
ATOM     97  S   UNL     1      -3.125 -18.813  -0.349  1.00  0.00     0.124 S 
ATOM     98  O   UNL     1      -3.879 -17.630   0.052  1.00  0.00    -0.237 OA
ATOM     99  O   UNL     1      -1.677 -18.648  -0.440  1.00  0.00    -0.237 OA
ATOM    100  O   UNL     1      -3.719 -19.564  -1.458  1.00  0.00    -0.744 OA
ENDBRANCH  93  97
ENDBRANCH  67  90
ENDBRANCH  41  42
ENDBRANCH  33  36
ENDBRANCH  31  32
ENDBRANCH  30  31
ENDBRANCH   1  30
TORSDOF 18
