REMARK SMILES CCc1cc(N2CCC(O)(C(=O)NCCCCNC(=O)c3ccc(-c4c5nc(c(-c6cc(S(=O)(=O)[O-])ccc6F)c6ccc([nH]6)c(-c6cc(S(=O)(=O)[O-])ccc6F)c6nc(c(-c7cc(S(=O)(=O)[O-])ccc7F)c7ccc4[nH]7)C=C6)C=C5)cc3)CC2)nc(N2CCOCC2)n1
REMARK SMILES IDX 16 1 15 2 14 3 13 4 11 5 12 6 9 8 6 9 7 10 85 11 8 12 84 13
REMARK SMILES IDX 5 14 3 15 4 16 94 17 87 18 86 19 2 20 1 21 88 22 89 23 93 24
REMARK SMILES IDX 90 25 92 26 91 27 10 28 17 30 18 31 19 32 20 34 21 35 22 36
REMARK SMILES IDX 83 37 23 38 82 39 24 40 25 41 26 42 76 43 27 44 81 45 75 46
REMARK SMILES IDX 77 47 28 48 80 49 74 50 73 51 29 53 61 54 41 55 60 56 42 57
REMARK SMILES IDX 45 58 59 59 78 60 43 61 44 62 58 64 79 65 46 66 30 67 31 68
REMARK SMILES IDX 39 69 32 70 38 71 40 72 37 73 33 74 34 75 35 76 36 77 62 78
REMARK SMILES IDX 63 79 71 80 64 81 70 82 72 83 69 84 65 85 66 86 67 87 68 88
REMARK SMILES IDX 47 89 48 90 56 91 49 92 55 93 57 94 54 95 50 96 51 97 52 98
REMARK SMILES IDX 53 99
REMARK H PARENT 13 7 10 29 18 33 77 52 45 63
REMARK Flexibility Score: inf
ROOT
ATOM      1  C   UNL     1       0.850  -4.680   9.510  1.00  0.00     0.023 C 
ENDROOT
BRANCH   1   2
ATOM      2  C   UNL     1       1.474  -3.817   8.414  1.00  0.00     0.023 C 
BRANCH   2   3
ATOM      3  C   UNL     1       2.940  -4.133   8.120  1.00  0.00     0.116 C 
BRANCH   3   4
ATOM      4  N   UNL     1       3.076  -5.438   7.504  1.00  0.00    -0.354 N 
ATOM      5  C   UNL     1       3.341  -5.773   6.206  1.00  0.00     0.252 C 
ATOM      6  O   UNL     1       3.378  -6.977   5.937  1.00  0.00    -0.272 OA
ATOM      7  H   UNL     1       2.959  -6.201   8.115  1.00  0.00     0.163 HD
BRANCH   5   8
ATOM      8  C   UNL     1       3.586  -4.675   5.132  1.00  0.00     0.146 C 
ATOM      9  N   UNL     1       3.012  -3.453   2.593  1.00  0.00    -0.356 N 
ATOM     10  C   UNL     1       2.572  -2.793   3.808  1.00  0.00     0.121 C 
ATOM     11  C   UNL     1       4.112  -4.402   2.642  1.00  0.00     0.121 C 
ATOM     12  C   UNL     1       2.332  -3.826   4.897  1.00  0.00     0.067 C 
ATOM     13  C   UNL     1       3.977  -5.369   3.809  1.00  0.00     0.067 C 
BRANCH   9  14
ATOM     14  C   UNL     1       2.127  -3.503   1.532  1.00  0.00     0.134 A 
ATOM     15  C   UNL     1       0.917  -2.408  -0.168  1.00  0.00     0.048 A 
ATOM     16  C   UNL     1       1.739  -2.325   0.932  1.00  0.00     0.071 A 
ATOM     17  N   UNL     1       0.510  -3.602  -0.648  1.00  0.00    -0.218 NA
ATOM     18  C   UNL     1       0.880  -4.703   0.027  1.00  0.00     0.227 A 
ATOM     19  N   UNL     1       1.683  -4.686   1.100  1.00  0.00    -0.196 NA
BRANCH  15  20
ATOM     20  C   UNL     1       0.431  -1.188  -0.910  1.00  0.00     0.053 C 
ATOM     21  C   UNL     1       0.801   0.167  -0.310  1.00  0.00     0.011 C 
ENDBRANCH  15  20
BRANCH  18  22
ATOM     22  N   UNL     1       0.463  -5.927  -0.400  1.00  0.00    -0.336 N 
ATOM     23  C   UNL     1      -0.351  -6.747   0.484  1.00  0.00     0.148 C 
ATOM     24  C   UNL     1       0.459  -6.281  -1.804  1.00  0.00     0.148 C 
ATOM     25  C   UNL     1       0.012  -8.224   0.270  1.00  0.00     0.181 C 
ATOM     26  C   UNL     1       0.836  -7.771  -1.904  1.00  0.00     0.181 C 
ATOM     27  O   UNL     1      -0.053  -8.594  -1.123  1.00  0.00    -0.378 OA
ENDBRANCH  18  22
ENDBRANCH   9  14
BRANCH   8  28
ATOM     28  O   UNL     1       4.652  -3.827   5.589  1.00  0.00    -0.380 OA
ATOM     29  H   UNL     1       4.391  -3.399   6.419  1.00  0.00     0.212 HD
ENDBRANCH   8  28
ENDBRANCH   5   8
ENDBRANCH   3   4
ENDBRANCH   2   3
ENDBRANCH   1   2
BRANCH   1  30
ATOM     30  C   UNL     1       1.575  -4.634  10.848  1.00  0.00     0.116 C 
BRANCH  30  31
ATOM     31  N   UNL     1       1.688  -3.284  11.375  1.00  0.00    -0.352 N 
ATOM     32  C   UNL     1       1.500  -2.841  12.659  1.00  0.00     0.251 C 
ATOM     33  H   UNL     1       1.933  -2.592  10.719  1.00  0.00     0.163 HD
ATOM     34  O   UNL     1       1.470  -1.631  12.881  1.00  0.00    -0.269 OA
BRANCH  32  35
ATOM     35  C   UNL     1       1.304  -3.812  13.757  1.00  0.00     0.039 A 
ATOM     36  C   UNL     1       0.339  -3.540  14.729  1.00  0.00     0.014 A 
ATOM     37  C   UNL     1       2.068  -4.980  13.836  1.00  0.00     0.014 A 
ATOM     38  C   UNL     1       0.115  -4.459  15.755  1.00  0.00     0.010 A 
ATOM     39  C   UNL     1       1.780  -5.936  14.807  1.00  0.00     0.010 A 
ATOM     40  C   UNL     1       0.815  -5.677  15.790  1.00  0.00    -0.014 A 
BRANCH  40  41
ATOM     41  C   UNL     1       0.564  -6.665  16.871  1.00  0.00     0.031 A 
ATOM     42  C   UNL     1       1.662  -7.024  17.838  1.00  0.00     0.074 A 
ATOM     43  C   UNL     1      -0.646  -7.250  16.971  1.00  0.00     0.049 A 
ATOM     44  N   UNL     1       1.636  -7.856  18.848  1.00  0.00    -0.248 NA
ATOM     45  C   UNL     1       2.970  -6.387  17.621  1.00  0.00     0.031 C 
ATOM     46  C   UNL     1      -1.773  -7.019  16.063  1.00  0.00     0.029 A 
ATOM     47  N   UNL     1      -1.136  -8.152  17.881  1.00  0.00    -0.354 N 
ATOM     48  C   UNL     1       2.920  -7.843  19.384  1.00  0.00     0.074 A 
ATOM     49  C   UNL     1       3.717  -6.983  18.537  1.00  0.00     0.031 C 
ATOM     50  C   UNL     1      -2.832  -7.725  16.488  1.00  0.00     0.029 A 
ATOM     51  C   UNL     1      -2.452  -8.494  17.669  1.00  0.00     0.049 A 
ATOM     52  H   UNL     1      -0.596  -8.521  18.617  1.00  0.00     0.167 HD
ATOM     53  C   UNL     1       3.384  -8.467  20.495  1.00  0.00     0.034 A 
ATOM     54  C   UNL     1      -3.260  -9.332  18.348  1.00  0.00     0.034 A 
ATOM     55  C   UNL     1       2.572  -9.319  21.331  1.00  0.00     0.049 A 
ATOM     56  C   UNL     1      -2.715 -10.030  19.569  1.00  0.00     0.074 A 
ATOM     57  C   UNL     1       2.924  -9.966  22.503  1.00  0.00     0.029 A 
ATOM     58  N   UNL     1       1.246  -9.652  21.079  1.00  0.00    -0.354 N 
ATOM     59  N   UNL     1      -1.514  -9.960  20.098  1.00  0.00    -0.248 NA
ATOM     60  C   UNL     1      -3.643 -10.904  20.295  1.00  0.00     0.031 C 
ATOM     61  C   UNL     1       1.840 -10.748  22.916  1.00  0.00     0.029 A 
ATOM     62  C   UNL     1       0.778 -10.520  22.055  1.00  0.00     0.049 A 
ATOM     63  H   UNL     1       0.716  -9.320  20.319  1.00  0.00     0.167 HD
ATOM     64  C   UNL     1      -1.555 -10.759  21.238  1.00  0.00     0.074 A 
ATOM     65  C   UNL     1      -2.906 -11.272  21.332  1.00  0.00     0.031 C 
ATOM     66  C   UNL     1      -0.568 -11.042  22.127  1.00  0.00     0.034 A 
BRANCH  53  67
ATOM     67  C   UNL     1       4.841  -8.267  20.848  1.00  0.00     0.023 A 
ATOM     68  C   UNL     1       5.364  -6.994  21.141  1.00  0.00     0.031 A 
ATOM     69  C   UNL     1       5.729  -9.358  20.862  1.00  0.00     0.131 A 
ATOM     70  C   UNL     1       6.742  -6.832  21.355  1.00  0.00     0.055 A 
ATOM     71  C   UNL     1       7.083  -9.203  21.165  1.00  0.00     0.041 A 
ATOM     72  F   UNL     1       5.298 -10.594  20.568  1.00  0.00    -0.206 F 
ATOM     73  C   UNL     1       7.601  -7.932  21.397  1.00  0.00     0.022 A 
BRANCH  70  74
ATOM     74  S   UNL     1       7.416  -5.149  21.419  1.00  0.00     0.124 S 
ATOM     75  O   UNL     1       7.010  -4.619  20.120  1.00  0.00    -0.237 OA
ATOM     76  O   UNL     1       6.741  -4.583  22.581  1.00  0.00    -0.237 OA
ATOM     77  O   UNL     1       8.854  -5.362  21.574  1.00  0.00    -0.744 OA
ENDBRANCH  70  74
ENDBRANCH  53  67
BRANCH  54  78
ATOM     78  C   UNL     1      -4.664  -9.563  17.900  1.00  0.00     0.023 A 
ATOM     79  C   UNL     1      -5.754  -9.214  18.714  1.00  0.00     0.031 A 
ATOM     80  C   UNL     1      -4.937 -10.186  16.669  1.00  0.00     0.131 A 
ATOM     81  C   UNL     1      -7.059  -9.539  18.315  1.00  0.00     0.055 A 
ATOM     82  C   UNL     1      -6.241 -10.453  16.249  1.00  0.00     0.041 A 
ATOM     83  F   UNL     1      -3.933 -10.539  15.849  1.00  0.00    -0.206 F 
ATOM     84  C   UNL     1      -7.311 -10.143  17.081  1.00  0.00     0.022 A 
BRANCH  81  85
ATOM     85  S   UNL     1      -8.421  -9.251  19.479  1.00  0.00     0.124 S 
ATOM     86  O   UNL     1      -7.999 -10.039  20.631  1.00  0.00    -0.237 OA
ATOM     87  O   UNL     1      -8.379  -7.802  19.642  1.00  0.00    -0.237 OA
ATOM     88  O   UNL     1      -9.591  -9.762  18.766  1.00  0.00    -0.744 OA
ENDBRANCH  81  85
ENDBRANCH  54  78
BRANCH  66  89
ATOM     89  C   UNL     1      -0.939 -11.920  23.301  1.00  0.00     0.023 A 
ATOM     90  C   UNL     1      -1.370 -13.247  23.125  1.00  0.00     0.031 A 
ATOM     91  C   UNL     1      -0.907 -11.407  24.610  1.00  0.00     0.131 A 
ATOM     92  C   UNL     1      -1.836 -13.983  24.225  1.00  0.00     0.055 A 
ATOM     93  C   UNL     1      -1.294 -12.172  25.711  1.00  0.00     0.041 A 
ATOM     94  F   UNL     1      -0.508 -10.146  24.842  1.00  0.00    -0.206 F 
ATOM     95  C   UNL     1      -1.783 -13.461  25.520  1.00  0.00     0.022 A 
BRANCH  92  96
ATOM     96  S   UNL     1      -2.651 -15.575  23.921  1.00  0.00     0.124 S 
ATOM     97  O   UNL     1      -3.704 -15.202  22.982  1.00  0.00    -0.237 OA
ATOM     98  O   UNL     1      -1.565 -16.381  23.372  1.00  0.00    -0.237 OA
ATOM     99  O   UNL     1      -3.116 -15.981  25.246  1.00  0.00    -0.744 OA
ENDBRANCH  92  96
ENDBRANCH  66  89
ENDBRANCH  40  41
ENDBRANCH  32  35
ENDBRANCH  30  31
ENDBRANCH   1  30
TORSDOF 18
