REMARK SMILES CC1(C)OC(=O)C(/C=N/[C@@H](CCC(N)=O)C(=O)NCCCCNC(=O)c2ccc(-c3c4nc(c(-c5cc(S(=O)(=O)[O-])ccc5F)c5ccc([nH]5)c(-c5cc(S(=O)(=O)[O-])ccc5F)c5nc(c(-c6cc(S(=O)(=O)[O-])ccc6F)c6ccc3[nH]6)C=C5)C=C4)cc2)C(=O)O1
REMARK SMILES IDX 20 1 19 2 18 3 16 4 17 5 10 7 9 8 8 9 7 10 1 11 2 12 3 13
REMARK SMILES IDX 4 14 91 15 5 16 89 17 6 18 90 19 11 20 12 21 13 22 14 23
REMARK SMILES IDX 15 24 21 27 22 28 23 29 24 30 25 32 26 33 27 34 88 35 28 36
REMARK SMILES IDX 87 37 29 38 30 39 31 40 81 41 32 42 86 43 80 44 82 45 33 46
REMARK SMILES IDX 85 47 79 48 78 49 34 51 66 52 46 53 65 54 47 55 50 56 64 57
REMARK SMILES IDX 83 58 48 59 49 60 63 62 84 63 51 64 35 65 36 66 44 67 37 68
REMARK SMILES IDX 43 69 45 70 42 71 38 72 39 73 40 74 41 75 67 76 68 77 76 78
REMARK SMILES IDX 69 79 75 80 77 81 74 82 70 83 71 84 72 85 73 86 52 87 53 88
REMARK SMILES IDX 61 89 54 90 60 91 62 92 59 93 55 94 56 95 57 96 58 97
REMARK H PARENT 18 6 14 25 14 26 23 31 82 50 50 61
REMARK Flexibility Score: inf
ROOT
ATOM      1  C   UNL     1       2.034   0.765   2.662  1.00  0.00     0.023 C 
ENDROOT
BRANCH   1   2
ATOM      2  C   UNL     1       1.307   1.728   3.586  1.00  0.00     0.116 C 
BRANCH   2   3
ATOM      3  N   UNL     1       1.845   3.061   3.564  1.00  0.00    -0.354 N 
ATOM      4  C   UNL     1       1.284   4.215   3.104  1.00  0.00     0.244 C 
ATOM      5  O   UNL     1       1.907   5.266   3.294  1.00  0.00    -0.273 OA
ATOM      6  H   UNL     1       2.751   3.153   3.937  1.00  0.00     0.163 HD
BRANCH   4   7
ATOM      7  C   UNL     1      -0.063   4.229   2.354  1.00  0.00     0.194 C 
BRANCH   7   8
ATOM      8  N   UNL     1       0.001   3.389   1.136  1.00  0.00    -0.283 NA
ATOM      9  C   UNL     1      -0.713   2.359   0.904  1.00  0.00     0.105 C 
BRANCH   9  10
ATOM     10  C   UNL     1      -0.587   1.615  -0.404  1.00  0.00     0.250 C 
ATOM     11  C   UNL     1      -0.340  -2.015   0.892  1.00  0.00     0.106 C 
ATOM     12  C   UNL     1      -0.238  -1.193  -0.391  1.00  0.00     0.252 C 
ATOM     13  C   UNL     1       0.081  -2.103  -1.575  1.00  0.00     0.106 C 
ATOM     14  O   UNL     1       0.859  -0.299  -0.237  1.00  0.00    -0.422 OA
ATOM     15  O   UNL     1      -1.519  -0.614  -0.645  1.00  0.00    -0.422 OA
ATOM     16  C   UNL     1       0.741   0.986  -0.602  1.00  0.00     0.329 C 
ATOM     17  C   UNL     1      -1.739   0.704  -0.591  1.00  0.00     0.329 C 
ATOM     18  O   UNL     1       1.726   1.611  -0.978  1.00  0.00    -0.251 OA
ATOM     19  O   UNL     1      -2.887   1.138  -0.655  1.00  0.00    -0.251 OA
ENDBRANCH   9  10
ENDBRANCH   7   8
BRANCH   7  20
ATOM     20  C   UNL     1      -1.371   4.266   3.163  1.00  0.00     0.047 C 
BRANCH  20  21
ATOM     21  C   UNL     1      -1.750   3.156   4.147  1.00  0.00     0.102 C 
BRANCH  21  22
ATOM     22  C   UNL     1      -0.972   3.157   5.444  1.00  0.00     0.217 C 
ATOM     23  N   UNL     1      -1.098   2.012   6.176  1.00  0.00    -0.370 N 
ATOM     24  O   UNL     1      -0.298   4.093   5.849  1.00  0.00    -0.275 OA
ATOM     25  H   UNL     1      -1.645   1.268   5.835  1.00  0.00     0.159 HD
ATOM     26  H   UNL     1      -0.642   1.930   7.045  1.00  0.00     0.159 HD
ENDBRANCH  21  22
ENDBRANCH  20  21
ENDBRANCH   7  20
ENDBRANCH   4   7
ENDBRANCH   2   3
ENDBRANCH   1   2
BRANCH   1  27
ATOM     27  C   UNL     1       3.109  -0.084   3.331  1.00  0.00     0.023 C 
BRANCH  27  28
ATOM     28  C   UNL     1       2.651  -0.887   4.545  1.00  0.00     0.116 C 
BRANCH  28  29
ATOM     29  N   UNL     1       1.478  -1.721   4.307  1.00  0.00    -0.352 N 
ATOM     30  C   UNL     1       1.208  -2.968   4.835  1.00  0.00     0.251 C 
ATOM     31  H   UNL     1       0.798  -1.352   3.698  1.00  0.00     0.163 HD
ATOM     32  O   UNL     1       0.214  -3.587   4.490  1.00  0.00    -0.269 OA
BRANCH  30  33
ATOM     33  C   UNL     1       2.185  -3.535   5.789  1.00  0.00     0.039 A 
ATOM     34  C   UNL     1       2.816  -4.742   5.482  1.00  0.00     0.014 A 
ATOM     35  C   UNL     1       2.581  -2.781   6.896  1.00  0.00     0.014 A 
ATOM     36  C   UNL     1       3.923  -5.143   6.234  1.00  0.00     0.010 A 
ATOM     37  C   UNL     1       3.730  -3.141   7.587  1.00  0.00     0.010 A 
ATOM     38  C   UNL     1       4.424  -4.316   7.253  1.00  0.00    -0.014 A 
BRANCH  38  39
ATOM     39  C   UNL     1       5.680  -4.641   7.980  1.00  0.00     0.031 A 
ATOM     40  C   UNL     1       5.643  -4.855   9.468  1.00  0.00     0.074 A 
ATOM     41  C   UNL     1       6.858  -4.635   7.324  1.00  0.00     0.049 A 
ATOM     42  N   UNL     1       6.633  -5.003  10.309  1.00  0.00    -0.248 NA
ATOM     43  C   UNL     1       4.313  -4.857  10.094  1.00  0.00     0.031 C 
ATOM     44  C   UNL     1       7.032  -4.380   5.891  1.00  0.00     0.029 A 
ATOM     45  N   UNL     1       8.138  -4.832   7.779  1.00  0.00    -0.354 N 
ATOM     46  C   UNL     1       6.048  -5.085  11.568  1.00  0.00     0.074 A 
ATOM     47  C   UNL     1       4.623  -4.906  11.380  1.00  0.00     0.031 C 
ATOM     48  C   UNL     1       8.337  -4.457   5.584  1.00  0.00     0.029 A 
ATOM     49  C   UNL     1       9.099  -4.723   6.800  1.00  0.00     0.049 A 
ATOM     50  H   UNL     1       8.349  -5.033   8.720  1.00  0.00     0.167 HD
ATOM     51  C   UNL     1       6.639  -5.314  12.767  1.00  0.00     0.034 A 
ATOM     52  C   UNL     1      10.441  -4.816   6.876  1.00  0.00     0.034 A 
ATOM     53  C   UNL     1       8.056  -5.521  12.932  1.00  0.00     0.049 A 
ATOM     54  C   UNL     1      11.078  -5.088   8.215  1.00  0.00     0.074 A 
ATOM     55  C   UNL     1       8.756  -5.826  14.087  1.00  0.00     0.029 A 
ATOM     56  N   UNL     1       8.994  -5.445  11.910  1.00  0.00    -0.354 N 
ATOM     57  N   UNL     1      10.505  -5.214   9.391  1.00  0.00    -0.248 NA
ATOM     58  C   UNL     1      12.538  -5.241   8.237  1.00  0.00     0.031 C 
ATOM     59  C   UNL     1      10.118  -5.885  13.773  1.00  0.00     0.029 A 
ATOM     60  C   UNL     1      10.265  -5.679  12.410  1.00  0.00     0.049 A 
ATOM     61  H   UNL     1       8.786  -5.252  10.967  1.00  0.00     0.167 HD
ATOM     62  C   UNL     1      11.535  -5.491  10.285  1.00  0.00     0.074 A 
ATOM     63  C   UNL     1      12.760  -5.524   9.512  1.00  0.00     0.031 C 
ATOM     64  C   UNL     1      11.475  -5.705  11.624  1.00  0.00     0.034 A 
BRANCH  51  65
ATOM     65  C   UNL     1       5.746  -5.333  13.983  1.00  0.00     0.023 A 
ATOM     66  C   UNL     1       4.721  -6.285  14.128  1.00  0.00     0.031 A 
ATOM     67  C   UNL     1       5.885  -4.359  14.988  1.00  0.00     0.131 A 
ATOM     68  C   UNL     1       3.819  -6.187  15.197  1.00  0.00     0.055 A 
ATOM     69  C   UNL     1       5.038  -4.321  16.097  1.00  0.00     0.041 A 
ATOM     70  F   UNL     1       6.832  -3.412  14.896  1.00  0.00    -0.206 F 
ATOM     71  C   UNL     1       3.986  -5.228  16.197  1.00  0.00     0.022 A 
BRANCH  68  72
ATOM     72  S   UNL     1       2.336  -7.230  15.170  1.00  0.00     0.124 S 
ATOM     73  O   UNL     1       1.695  -6.797  13.930  1.00  0.00    -0.237 OA
ATOM     74  O   UNL     1       2.896  -8.576  15.163  1.00  0.00    -0.237 OA
ATOM     75  O   UNL     1       1.630  -6.853  16.393  1.00  0.00    -0.744 OA
ENDBRANCH  68  72
ENDBRANCH  51  65
BRANCH  52  76
ATOM     76  C   UNL     1      11.283  -4.651   5.657  1.00  0.00     0.023 A 
ATOM     77  C   UNL     1      12.017  -5.729   5.138  1.00  0.00     0.031 A 
ATOM     78  C   UNL     1      11.398  -3.404   5.018  1.00  0.00     0.131 A 
ATOM     79  C   UNL     1      12.870  -5.531   4.041  1.00  0.00     0.055 A 
ATOM     80  C   UNL     1      12.214  -3.223   3.899  1.00  0.00     0.041 A 
ATOM     81  F   UNL     1      10.709  -2.344   5.469  1.00  0.00    -0.206 F 
ATOM     82  C   UNL     1      12.966  -4.288   3.412  1.00  0.00     0.022 A 
BRANCH  79  83
ATOM     83  S   UNL     1      13.911  -6.912   3.493  1.00  0.00     0.124 S 
ATOM     84  O   UNL     1      14.669  -7.212   4.702  1.00  0.00    -0.237 OA
ATOM     85  O   UNL     1      12.915  -7.902   3.097  1.00  0.00    -0.237 OA
ATOM     86  O   UNL     1      14.687  -6.338   2.395  1.00  0.00    -0.744 OA
ENDBRANCH  79  83
ENDBRANCH  52  76
BRANCH  64  87
ATOM     87  C   UNL     1      12.767  -6.044  12.320  1.00  0.00     0.023 A 
ATOM     88  C   UNL     1      13.791  -5.096  12.484  1.00  0.00     0.031 A 
ATOM     89  C   UNL     1      12.975  -7.341  12.822  1.00  0.00     0.131 A 
ATOM     90  C   UNL     1      14.998  -5.472  13.093  1.00  0.00     0.055 A 
ATOM     91  C   UNL     1      14.158  -7.695  13.472  1.00  0.00     0.041 A 
ATOM     92  F   UNL     1      12.029  -8.284  12.690  1.00  0.00    -0.206 F 
ATOM     93  C   UNL     1      15.182  -6.761  13.600  1.00  0.00     0.022 A 
BRANCH  90  94
ATOM     94  S   UNL     1      16.357  -4.272  13.148  1.00  0.00     0.124 S 
ATOM     95  O   UNL     1      16.582  -4.003  11.731  1.00  0.00    -0.237 OA
ATOM     96  O   UNL     1      15.777  -3.178  13.920  1.00  0.00    -0.237 OA
ATOM     97  O   UNL     1      17.431  -5.002  13.819  1.00  0.00    -0.744 OA
ENDBRANCH  90  94
ENDBRANCH  64  87
ENDBRANCH  38  39
ENDBRANCH  30  33
ENDBRANCH  28  29
ENDBRANCH  27  28
ENDBRANCH   1  27
TORSDOF 19
