REMARK SMILES O=C(NCCCCNC(=O)c1ccccc1-c1ccccc1C(=O)N1CC[NH+](Cc2ccc3c(c2)OCO3)CC1)c1ccc(-c2c3nc(c(-c4cc(S(=O)(=O)[O-])ccc4F)c4ccc([nH]4)c(-c4cc(S(=O)(=O)[O-])ccc4F)c4nc(c(-c5cc(S(=O)(=O)[O-])ccc5F)c5ccc2[nH]5)C=C4)C=C3)cc1
REMARK SMILES IDX 6 1 5 2 4 3 3 4 1 5 2 6 41 8 42 9 103 10 43 11 102 12 44 13
REMARK SMILES IDX 45 14 46 15 96 16 47 17 101 18 95 19 97 20 48 21 100 22
REMARK SMILES IDX 94 23 93 24 49 26 81 27 61 28 80 29 62 30 65 31 79 32 98 33
REMARK SMILES IDX 63 34 64 35 78 37 99 38 66 39 50 40 51 41 59 42 52 43 58 44
REMARK SMILES IDX 60 45 57 46 53 47 54 48 55 49 56 50 82 51 83 52 91 53 84 54
REMARK SMILES IDX 90 55 92 56 89 57 85 58 86 59 87 60 88 61 67 62 68 63 76 64
REMARK SMILES IDX 69 65 75 66 77 67 74 68 70 69 71 70 72 71 73 72 7 73 8 74
REMARK SMILES IDX 9 75 10 77 11 78 12 79 16 80 13 81 15 82 14 83 17 84 18 85
REMARK SMILES IDX 22 86 19 87 21 88 20 89 23 90 24 91 25 92 26 93 40 94 27 95
REMARK SMILES IDX 39 96 28 97 29 99 30 100 31 101 35 102 32 103 34 104 33 105
REMARK SMILES IDX 36 106 38 107 37 108
REMARK H PARENT 3 7 97 25 65 36 8 76 28 98
REMARK Flexibility Score: inf
ROOT
ATOM      1  C   UNL     1       3.803   3.662  -0.626  1.00  0.00     0.023 C 
ENDROOT
BRANCH   1   2
ATOM      2  C   UNL     1       4.522   2.394  -1.087  1.00  0.00     0.023 C 
BRANCH   2   3
ATOM      3  C   UNL     1       4.327   1.198  -0.166  1.00  0.00     0.116 C 
BRANCH   3   4
ATOM      4  N   UNL     1       2.919   0.950   0.123  1.00  0.00    -0.352 N 
ATOM      5  O   UNL     1       0.978  -0.197   0.064  1.00  0.00    -0.269 OA
ATOM      6  C   UNL     1       2.182  -0.189  -0.091  1.00  0.00     0.251 C 
ATOM      7  H   UNL     1       2.430   1.703   0.528  1.00  0.00     0.163 HD
BRANCH   6   8
ATOM      8  C   UNL     1       2.909  -1.392  -0.529  1.00  0.00     0.039 A 
ATOM      9  C   UNL     1       4.033  -1.811   0.188  1.00  0.00     0.014 A 
ATOM     10  C   UNL     1       2.505  -2.046  -1.693  1.00  0.00     0.014 A 
ATOM     11  C   UNL     1       4.830  -2.816  -0.331  1.00  0.00     0.010 A 
ATOM     12  C   UNL     1       3.258  -3.122  -2.161  1.00  0.00     0.010 A 
ATOM     13  C   UNL     1       4.431  -3.503  -1.489  1.00  0.00    -0.014 A 
BRANCH  13  14
ATOM     14  C   UNL     1       5.195  -4.700  -1.903  1.00  0.00     0.031 A 
ATOM     15  C   UNL     1       5.944  -4.738  -3.201  1.00  0.00     0.074 A 
ATOM     16  C   UNL     1       5.197  -5.753  -1.062  1.00  0.00     0.049 A 
ATOM     17  N   UNL     1       6.632  -5.721  -3.719  1.00  0.00    -0.248 NA
ATOM     18  C   UNL     1       5.912  -3.524  -4.031  1.00  0.00     0.031 C 
ATOM     19  C   UNL     1       4.486  -5.800   0.223  1.00  0.00     0.029 A 
ATOM     20  N   UNL     1       5.816  -6.970  -1.139  1.00  0.00    -0.354 N 
ATOM     21  C   UNL     1       7.098  -5.260  -4.945  1.00  0.00     0.074 A 
ATOM     22  C   UNL     1       6.600  -3.909  -5.100  1.00  0.00     0.031 C 
ATOM     23  C   UNL     1       4.746  -6.966   0.828  1.00  0.00     0.029 A 
ATOM     24  C   UNL     1       5.564  -7.782  -0.058  1.00  0.00     0.049 A 
ATOM     25  H   UNL     1       6.386  -7.239  -1.896  1.00  0.00     0.167 HD
ATOM     26  C   UNL     1       7.865  -5.916  -5.849  1.00  0.00     0.034 A 
ATOM     27  C   UNL     1       5.918  -9.057   0.177  1.00  0.00     0.034 A 
ATOM     28  C   UNL     1       8.353  -7.261  -5.655  1.00  0.00     0.049 A 
ATOM     29  C   UNL     1       6.745  -9.763  -0.861  1.00  0.00     0.074 A 
ATOM     30  C   UNL     1       9.181  -8.005  -6.479  1.00  0.00     0.029 A 
ATOM     31  N   UNL     1       8.051  -8.070  -4.565  1.00  0.00    -0.354 N 
ATOM     32  N   UNL     1       7.198  -9.302  -2.005  1.00  0.00    -0.248 NA
ATOM     33  C   UNL     1       7.106 -11.155  -0.581  1.00  0.00     0.031 C 
ATOM     34  C   UNL     1       9.321  -9.281  -5.924  1.00  0.00     0.029 A 
ATOM     35  C   UNL     1       8.642  -9.315  -4.716  1.00  0.00     0.049 A 
ATOM     36  H   UNL     1       7.497  -7.798  -3.798  1.00  0.00     0.167 HD
ATOM     37  C   UNL     1       7.909 -10.349  -2.576  1.00  0.00     0.074 A 
ATOM     38  C   UNL     1       7.851 -11.451  -1.635  1.00  0.00     0.031 C 
ATOM     39  C   UNL     1       8.547 -10.403  -3.772  1.00  0.00     0.034 A 
BRANCH  26  40
ATOM     40  C   UNL     1       8.182  -5.219  -7.149  1.00  0.00     0.023 A 
ATOM     41  C   UNL     1       9.015  -4.089  -7.210  1.00  0.00     0.031 A 
ATOM     42  C   UNL     1       7.659  -5.719  -8.357  1.00  0.00     0.131 A 
ATOM     43  C   UNL     1       9.271  -3.475  -8.448  1.00  0.00     0.055 A 
ATOM     44  C   UNL     1       7.967  -5.141  -9.590  1.00  0.00     0.041 A 
ATOM     45  F   UNL     1       6.841  -6.783  -8.357  1.00  0.00    -0.206 F 
ATOM     46  C   UNL     1       8.773  -4.008  -9.639  1.00  0.00     0.022 A 
BRANCH  43  47
ATOM     47  S   UNL     1      10.200  -1.917  -8.475  1.00  0.00     0.124 S 
ATOM     48  O   UNL     1       9.335  -1.044  -7.685  1.00  0.00    -0.237 OA
ATOM     49  O   UNL     1      11.466  -2.292  -7.857  1.00  0.00    -0.237 OA
ATOM     50  O   UNL     1      10.275  -1.586  -9.897  1.00  0.00    -0.744 OA
ENDBRANCH  43  47
ENDBRANCH  26  40
BRANCH  27  51
ATOM     51  C   UNL     1       5.449  -9.756   1.406  1.00  0.00     0.023 A 
ATOM     52  C   UNL     1       6.359 -10.246   2.354  1.00  0.00     0.031 A 
ATOM     53  C   UNL     1       4.077  -9.976   1.634  1.00  0.00     0.131 A 
ATOM     54  C   UNL     1       5.892 -10.973   3.459  1.00  0.00     0.055 A 
ATOM     55  C   UNL     1       3.614 -10.644   2.767  1.00  0.00     0.041 A 
ATOM     56  F   UNL     1       3.162  -9.526   0.760  1.00  0.00    -0.206 F 
ATOM     57  C   UNL     1       4.525 -11.162   3.680  1.00  0.00     0.022 A 
BRANCH  54  58
ATOM     58  S   UNL     1       7.105 -11.765   4.549  1.00  0.00     0.124 S 
ATOM     59  O   UNL     1       7.901 -12.535   3.600  1.00  0.00    -0.237 OA
ATOM     60  O   UNL     1       7.765 -10.612   5.153  1.00  0.00    -0.237 OA
ATOM     61  O   UNL     1       6.278 -12.556   5.458  1.00  0.00    -0.744 OA
ENDBRANCH  54  58
ENDBRANCH  27  51
BRANCH  39  62
ATOM     62  C   UNL     1       9.245 -11.698  -4.097  1.00  0.00     0.023 A 
ATOM     63  C   UNL     1       8.521 -12.881  -4.329  1.00  0.00     0.031 A 
ATOM     64  C   UNL     1      10.649 -11.759  -4.132  1.00  0.00     0.131 A 
ATOM     65  C   UNL     1       9.205 -14.089  -4.521  1.00  0.00     0.055 A 
ATOM     66  C   UNL     1      11.323 -12.953  -4.386  1.00  0.00     0.041 A 
ATOM     67  F   UNL     1      11.386 -10.659  -3.913  1.00  0.00    -0.206 F 
ATOM     68  C   UNL     1      10.601 -14.130  -4.567  1.00  0.00     0.022 A 
BRANCH  65  69
ATOM     69  S   UNL     1       8.245 -15.625  -4.608  1.00  0.00     0.124 S 
ATOM     70  O   UNL     1       7.569 -15.633  -3.315  1.00  0.00    -0.237 OA
ATOM     71  O   UNL     1       7.393 -15.396  -5.771  1.00  0.00    -0.237 OA
ATOM     72  O   UNL     1       9.265 -16.657  -4.782  1.00  0.00    -0.744 OA
ENDBRANCH  65  69
ENDBRANCH  39  62
ENDBRANCH  13  14
ENDBRANCH   6   8
ENDBRANCH   3   4
ENDBRANCH   2   3
ENDBRANCH   1   2
BRANCH   1  73
ATOM     73  C   UNL     1       4.002   3.975   0.852  1.00  0.00     0.116 C 
BRANCH  73  74
ATOM     74  N   UNL     1       5.401   4.194   1.122  1.00  0.00    -0.352 N 
ATOM     75  C   UNL     1       5.975   5.419   1.275  1.00  0.00     0.251 C 
ATOM     76  H   UNL     1       5.982   3.403   1.201  1.00  0.00     0.163 HD
ATOM     77  O   UNL     1       7.079   5.630   0.783  1.00  0.00    -0.269 OA
BRANCH  75  78
ATOM     78  C   UNL     1       5.246   6.483   2.015  1.00  0.00     0.047 A 
ATOM     79  C   UNL     1       5.345   7.768   1.451  1.00  0.00     0.014 A 
ATOM     80  C   UNL     1       4.548   6.282   3.231  1.00  0.00    -0.005 A 
ATOM     81  C   UNL     1       4.736   8.863   2.056  1.00  0.00     0.001 A 
ATOM     82  C   UNL     1       3.933   7.417   3.812  1.00  0.00     0.009 A 
ATOM     83  C   UNL     1       4.021   8.686   3.233  1.00  0.00     0.001 A 
BRANCH  80  84
ATOM     84  C   UNL     1       4.362   4.979   3.924  1.00  0.00    -0.005 A 
ATOM     85  C   UNL     1       3.018   4.542   4.086  1.00  0.00     0.009 A 
ATOM     86  C   UNL     1       5.383   4.113   4.381  1.00  0.00     0.047 A 
ATOM     87  C   UNL     1       2.692   3.296   4.625  1.00  0.00     0.001 A 
ATOM     88  C   UNL     1       5.032   2.856   4.930  1.00  0.00     0.014 A 
ATOM     89  C   UNL     1       3.703   2.448   5.045  1.00  0.00     0.001 A 
BRANCH  86  90
ATOM     90  C   UNL     1       6.847   4.308   4.155  1.00  0.00     0.254 C 
ATOM     91  O   UNL     1       7.511   3.306   3.877  1.00  0.00    -0.269 OA
ATOM     92  N   UNL     1       7.417   5.574   4.175  1.00  0.00    -0.327 N 
ATOM     93  C   UNL     1       8.654   5.758   3.428  1.00  0.00     0.181 C 
ATOM     94  C   UNL     1       7.220   6.547   5.241  1.00  0.00     0.181 C 
ATOM     95  C   UNL     1       8.782   7.193   2.879  1.00  0.00     0.284 C 
ATOM     96  C   UNL     1       7.488   8.011   4.801  1.00  0.00     0.284 C 
ATOM     97  N   UNL     1       8.570   8.287   3.844  1.00  0.00    -0.328 N 
ATOM     98  H   UNL     1       8.199   9.066   3.299  1.00  0.00     0.348 HD
BRANCH  97  99
ATOM     99  C   UNL     1       9.790   8.902   4.370  1.00  0.00     0.299 C 
BRANCH  99 100
ATOM    100  C   UNL     1      10.668   7.943   5.137  1.00  0.00     0.010 A 
ATOM    101  C   UNL     1      10.387   7.672   6.494  1.00  0.00     0.013 A 
ATOM    102  C   UNL     1      11.580   7.143   4.429  1.00  0.00     0.060 A 
ATOM    103  C   UNL     1      10.862   6.506   7.095  1.00  0.00     0.051 A 
ATOM    104  C   UNL     1      11.969   5.968   5.024  1.00  0.00     0.166 A 
ATOM    105  C   UNL     1      11.591   5.643   6.307  1.00  0.00     0.165 A 
ATOM    106  O   UNL     1      12.581   4.932   4.387  1.00  0.00    -0.454 OA
ATOM    107  O   UNL     1      11.919   4.359   6.621  1.00  0.00    -0.454 OA
ATOM    108  C   UNL     1      12.264   3.866   5.306  1.00  0.00     0.468 C 
ENDBRANCH  99 100
ENDBRANCH  97  99
ENDBRANCH  86  90
ENDBRANCH  80  84
ENDBRANCH  75  78
ENDBRANCH  73  74
ENDBRANCH   1  73
TORSDOF 18
