REMARK SMILES Nn1c(S[C@@H](C(=O)NCCCCNC(=O)c2ccc(-c3c4nc(c(-c5cc(S(=O)(=O)[O-])ccc5F)c5ccc([nH]5)c(-c5cc(S(=O)(=O)[O-])ccc5F)c5nc(c(-c6cc(S(=O)(=O)[O-])ccc6F)c6ccc3[nH]6)C=C5)C=C4)cc2)c2ccccc2)nc2ccc(Br)cc2c1=O
REMARK SMILES IDX 10 1 9 2 8 3 6 4 7 5 5 7 4 8 3 9 2 10 93 11 85 12 92 13
REMARK SMILES IDX 94 14 86 15 91 16 87 17 89 18 88 19 90 20 1 21 79 24 80 25
REMARK SMILES IDX 84 26 81 27 83 28 82 29 11 30 12 31 13 32 14 33 15 35 16 36
REMARK SMILES IDX 17 37 78 38 18 39 77 40 19 41 20 42 21 43 71 44 22 45 76 46
REMARK SMILES IDX 70 47 72 48 23 49 75 50 69 51 68 52 24 54 56 55 36 56 55 57
REMARK SMILES IDX 37 58 40 59 54 60 73 61 38 62 39 63 53 65 74 66 41 67 25 68
REMARK SMILES IDX 26 69 34 70 27 71 33 72 35 73 32 74 28 75 29 76 30 77 31 78
REMARK SMILES IDX 57 79 58 80 66 81 59 82 65 83 67 84 64 85 60 86 61 87 62 88
REMARK SMILES IDX 63 89 42 90 43 91 51 92 44 93 50 94 52 95 49 96 45 97 46 98
REMARK SMILES IDX 47 99 48 100
REMARK H PARENT 8 6 1 22 1 23 13 34 72 53 40 64
REMARK Flexibility Score: inf
ROOT
ATOM      1  C   UNL     1       4.616   3.283  -0.852  1.00  0.00     0.023 C 
ENDROOT
BRANCH   1   2
ATOM      2  C   UNL     1       4.998   1.832  -1.155  1.00  0.00     0.116 C 
BRANCH   2   3
ATOM      3  N   UNL     1       4.430   0.876  -0.222  1.00  0.00    -0.355 N 
ATOM      4  C   UNL     1       3.422  -0.044  -0.369  1.00  0.00     0.238 C 
ATOM      5  O   UNL     1       3.357  -0.876   0.544  1.00  0.00    -0.273 OA
ATOM      6  H   UNL     1       4.840   0.889   0.673  1.00  0.00     0.163 HD
BRANCH   4   7
ATOM      7  C   UNL     1       2.525  -0.087  -1.643  1.00  0.00     0.174 C 
BRANCH   7   8
ATOM      8  S   UNL     1       1.825   1.533  -2.042  1.00  0.00    -0.068 SA
BRANCH   8   9
ATOM      9  C   UNL     1       0.490   1.975  -1.004  1.00  0.00     0.191 A 
ATOM     10  N   UNL     1       0.101   1.321   0.162  1.00  0.00    -0.202 N 
ATOM     11  C   UNL     1      -1.033   1.707   0.886  1.00  0.00     0.280 A 
ATOM     12  N   UNL     1      -0.139   3.020  -1.449  1.00  0.00    -0.222 NA
ATOM     13  C   UNL     1      -1.744   2.892   0.390  1.00  0.00     0.069 A 
ATOM     14  O   UNL     1      -1.451   1.108   1.876  1.00  0.00    -0.267 OA
ATOM     15  C   UNL     1      -1.246   3.509  -0.753  1.00  0.00     0.079 A 
ATOM     16  C   UNL     1      -2.881   3.378   1.045  1.00  0.00     0.031 A 
ATOM     17  C   UNL     1      -1.890   4.649  -1.238  1.00  0.00     0.030 A 
ATOM     18  C   UNL     1      -3.518   4.507   0.539  1.00  0.00     0.018 A 
ATOM     19  C   UNL     1      -3.025   5.150  -0.595  1.00  0.00     0.018 A 
ATOM     20  Br  UNL     1      -5.071   5.168   1.390  1.00  0.00    -0.051 Br
BRANCH  10  21
ATOM     21  N   UNL     1       0.793   0.219   0.683  1.00  0.00    -0.334 N 
ATOM     22  H   UNL     1       1.601  -0.113   0.230  1.00  0.00     0.178 HD
ATOM     23  H   UNL     1       0.471  -0.222   1.502  1.00  0.00     0.178 HD
ENDBRANCH  10  21
ENDBRANCH   8   9
ENDBRANCH   7   8
BRANCH   7  24
ATOM     24  C   UNL     1       1.588  -1.300  -1.809  1.00  0.00    -0.025 A 
ATOM     25  C   UNL     1       2.048  -2.590  -1.485  1.00  0.00     0.005 A 
ATOM     26  C   UNL     1       0.283  -1.205  -2.336  1.00  0.00     0.005 A 
ATOM     27  C   UNL     1       1.223  -3.713  -1.607  1.00  0.00     0.000 A 
ATOM     28  C   UNL     1      -0.545  -2.325  -2.451  1.00  0.00     0.000 A 
ATOM     29  C   UNL     1      -0.078  -3.579  -2.078  1.00  0.00     0.000 A 
ENDBRANCH   7  24
ENDBRANCH   4   7
ENDBRANCH   2   3
ENDBRANCH   1   2
BRANCH   1  30
ATOM     30  C   UNL     1       5.012   3.801   0.529  1.00  0.00     0.023 C 
BRANCH  30  31
ATOM     31  C   UNL     1       6.488   3.684   0.883  1.00  0.00     0.116 C 
BRANCH  31  32
ATOM     32  N   UNL     1       7.370   4.362  -0.054  1.00  0.00    -0.352 N 
ATOM     33  C   UNL     1       8.478   5.143   0.202  1.00  0.00     0.251 C 
ATOM     34  H   UNL     1       7.145   4.247  -1.006  1.00  0.00     0.163 HD
ATOM     35  O   UNL     1       9.054   5.704  -0.721  1.00  0.00    -0.269 OA
BRANCH  33  36
ATOM     36  C   UNL     1       8.926   5.340   1.600  1.00  0.00     0.039 A 
ATOM     37  C   UNL     1       8.995   4.266   2.487  1.00  0.00     0.014 A 
ATOM     38  C   UNL     1       9.226   6.632   2.042  1.00  0.00     0.014 A 
ATOM     39  C   UNL     1       9.165   4.506   3.846  1.00  0.00     0.010 A 
ATOM     40  C   UNL     1       9.492   6.859   3.396  1.00  0.00     0.010 A 
ATOM     41  C   UNL     1       9.401   5.808   4.320  1.00  0.00    -0.014 A 
BRANCH  41  42
ATOM     42  C   UNL     1       9.539   6.034   5.785  1.00  0.00     0.031 A 
ATOM     43  C   UNL     1       8.534   6.865   6.539  1.00  0.00     0.074 A 
ATOM     44  C   UNL     1      10.539   5.423   6.449  1.00  0.00     0.049 A 
ATOM     45  N   UNL     1       8.462   7.099   7.824  1.00  0.00    -0.248 NA
ATOM     46  C   UNL     1       7.477   7.522   5.754  1.00  0.00     0.031 C 
ATOM     47  C   UNL     1      11.570   4.596   5.822  1.00  0.00     0.029 A 
ATOM     48  N   UNL     1      10.838   5.371   7.788  1.00  0.00    -0.354 N 
ATOM     49  C   UNL     1       7.366   7.938   8.002  1.00  0.00     0.074 A 
ATOM     50  C   UNL     1       6.825   8.203   6.687  1.00  0.00     0.031 C 
ATOM     51  C   UNL     1      12.348   4.068   6.776  1.00  0.00     0.029 A 
ATOM     52  C   UNL     1      11.919   4.570   8.079  1.00  0.00     0.049 A 
ATOM     53  H   UNL     1      10.329   5.860   8.474  1.00  0.00     0.167 HD
ATOM     54  C   UNL     1       6.850   8.425   9.156  1.00  0.00     0.034 A 
ATOM     55  C   UNL     1      12.505   4.272   9.257  1.00  0.00     0.034 A 
ATOM     56  C   UNL     1       7.386   8.135  10.462  1.00  0.00     0.049 A 
ATOM     57  C   UNL     1      11.920   4.839  10.524  1.00  0.00     0.074 A 
ATOM     58  C   UNL     1       6.914   8.559  11.691  1.00  0.00     0.029 A 
ATOM     59  N   UNL     1       8.500   7.347  10.714  1.00  0.00    -0.354 N 
ATOM     60  N   UNL     1      10.854   5.590  10.675  1.00  0.00    -0.248 NA
ATOM     61  C   UNL     1      12.610   4.519  11.782  1.00  0.00     0.031 C 
ATOM     62  C   UNL     1       7.773   8.078  12.680  1.00  0.00     0.029 A 
ATOM     63  C   UNL     1       8.744   7.295  12.077  1.00  0.00     0.049 A 
ATOM     64  H   UNL     1       9.038   6.893  10.026  1.00  0.00     0.167 HD
ATOM     65  C   UNL     1      10.738   5.820  12.043  1.00  0.00     0.074 A 
ATOM     66  C   UNL     1      11.823   5.103  12.678  1.00  0.00     0.031 C 
ATOM     67  C   UNL     1       9.820   6.567  12.707  1.00  0.00     0.034 A 
BRANCH  54  68
ATOM     68  C   UNL     1       5.632   9.314   9.087  1.00  0.00     0.023 A 
ATOM     69  C   UNL     1       5.708  10.650   9.525  1.00  0.00     0.031 A 
ATOM     70  C   UNL     1       4.374   8.807   8.717  1.00  0.00     0.131 A 
ATOM     71  C   UNL     1       4.542  11.422   9.615  1.00  0.00     0.055 A 
ATOM     72  C   UNL     1       3.221   9.592   8.772  1.00  0.00     0.041 A 
ATOM     73  F   UNL     1       4.248   7.539   8.292  1.00  0.00    -0.206 F 
ATOM     74  C   UNL     1       3.300  10.902   9.235  1.00  0.00     0.022 A 
BRANCH  71  75
ATOM     75  S   UNL     1       4.579  13.106  10.287  1.00  0.00     0.124 S 
ATOM     76  O   UNL     1       4.061  13.887   9.165  1.00  0.00    -0.237 OA
ATOM     77  O   UNL     1       3.684  12.996  11.435  1.00  0.00    -0.237 OA
ATOM     78  O   UNL     1       5.985  13.329  10.601  1.00  0.00    -0.744 OA
ENDBRANCH  71  75
ENDBRANCH  54  68
BRANCH  55  79
ATOM     79  C   UNL     1      13.678   3.349   9.268  1.00  0.00     0.023 A 
ATOM     80  C   UNL     1      14.857   3.673   8.572  1.00  0.00     0.031 A 
ATOM     81  C   UNL     1      13.592   2.082   9.867  1.00  0.00     0.131 A 
ATOM     82  C   UNL     1      15.865   2.712   8.422  1.00  0.00     0.055 A 
ATOM     83  C   UNL     1      14.632   1.155   9.781  1.00  0.00     0.041 A 
ATOM     84  F   UNL     1      12.483   1.722  10.531  1.00  0.00    -0.206 F 
ATOM     85  C   UNL     1      15.767   1.461   9.037  1.00  0.00     0.022 A 
BRANCH  82  86
ATOM     86  S   UNL     1      17.258   2.999   7.295  1.00  0.00     0.124 S 
ATOM     87  O   UNL     1      18.399   2.944   8.203  1.00  0.00    -0.237 OA
ATOM     88  O   UNL     1      17.131   1.875   6.371  1.00  0.00    -0.237 OA
ATOM     89  O   UNL     1      16.971   4.309   6.719  1.00  0.00    -0.744 OA
ENDBRANCH  82  86
ENDBRANCH  55  79
BRANCH  67  90
ATOM     90  C   UNL     1       9.924   6.669  14.210  1.00  0.00     0.023 A 
ATOM     91  C   UNL     1       8.884   6.180  15.024  1.00  0.00     0.031 A 
ATOM     92  C   UNL     1      10.969   7.383  14.822  1.00  0.00     0.131 A 
ATOM     93  C   UNL     1       8.892   6.445  16.399  1.00  0.00     0.055 A 
ATOM     94  C   UNL     1      10.995   7.604  16.200  1.00  0.00     0.041 A 
ATOM     95  F   UNL     1      11.977   7.879  14.088  1.00  0.00    -0.206 F 
ATOM     96  C   UNL     1       9.945   7.148  16.992  1.00  0.00     0.022 A 
BRANCH  93  97
ATOM     97  S   UNL     1       7.494   5.969  17.453  1.00  0.00     0.124 S 
ATOM     98  O   UNL     1       8.125   5.046  18.393  1.00  0.00    -0.237 OA
ATOM     99  O   UNL     1       7.083   7.252  18.018  1.00  0.00    -0.237 OA
ATOM    100  O   UNL     1       6.545   5.360  16.526  1.00  0.00    -0.744 OA
ENDBRANCH  93  97
ENDBRANCH  67  90
ENDBRANCH  41  42
ENDBRANCH  33  36
ENDBRANCH  31  32
ENDBRANCH  30  31
ENDBRANCH   1  30
TORSDOF 18
