REMARK SMILES CC1(C)O[C@](C)([C@H](O)C2CCCCC2)CC[C@H]1C(=O)NCCCCNC(=O)c1ccc(-c2c3nc(c(-c4cc(S(=O)(=O)[O-])ccc4F)c4ccc([nH]4)c(-c4cc(S(=O)(=O)[O-])ccc4F)c4nc(c(-c5cc(S(=O)(=O)[O-])ccc5F)c5ccc2[nH]5)C=C4)C=C3)cc1
REMARK SMILES IDX 23 1 22 2 21 3 20 4 18 5 19 6 17 8 1 9 2 10 3 11 4 12 5 13
REMARK SMILES IDX 16 14 6 15 15 16 7 17 9 18 10 19 14 20 11 21 13 22 12 23
REMARK SMILES IDX 8 24 24 26 25 27 26 28 27 30 28 31 29 32 90 33 30 34 89 35
REMARK SMILES IDX 31 36 32 37 33 38 83 39 34 40 88 41 82 42 84 43 35 44 87 45
REMARK SMILES IDX 81 46 80 47 36 49 68 50 48 51 67 52 49 53 52 54 66 55 85 56
REMARK SMILES IDX 50 57 51 58 65 60 86 61 53 62 37 63 38 64 46 65 39 66 45 67
REMARK SMILES IDX 47 68 44 69 40 70 41 71 42 72 43 73 69 74 70 75 78 76 71 77
REMARK SMILES IDX 77 78 79 79 76 80 72 81 73 82 74 83 75 84 54 85 55 86 63 87
REMARK SMILES IDX 56 88 62 89 64 90 61 91 57 92 58 93 59 94 60 95
REMARK H PARENT 20 7 8 25 25 29 84 48 52 59
REMARK Flexibility Score: inf
ROOT
ATOM      1  C   UNL     1      -8.129   4.448  -0.441  1.00  0.00     0.023 C 
ENDROOT
BRANCH   1   2
ATOM      2  C   UNL     1      -6.959   3.693   0.168  1.00  0.00     0.023 C 
BRANCH   2   3
ATOM      3  C   UNL     1      -5.731   4.548   0.475  1.00  0.00     0.116 C 
BRANCH   3   4
ATOM      4  N   UNL     1      -5.869   5.229   1.745  1.00  0.00    -0.356 N 
ATOM      5  C   UNL     1      -5.238   5.058   2.934  1.00  0.00     0.226 C 
ATOM      6  O   UNL     1      -5.665   5.718   3.887  1.00  0.00    -0.275 OA
ATOM      7  H   UNL     1      -6.543   5.946   1.746  1.00  0.00     0.163 HD
BRANCH   5   8
ATOM      8  C   UNL     1      -4.037   4.133   3.135  1.00  0.00     0.110 C 
ATOM      9  C   UNL     1      -5.331   1.919   2.429  1.00  0.00     0.043 C 
ATOM     10  C   UNL     1      -4.344   2.624   3.359  1.00  0.00     0.075 C 
ATOM     11  C   UNL     1      -4.968   2.471   4.769  1.00  0.00     0.043 C 
ATOM     12  O   UNL     1      -3.140   1.833   3.404  1.00  0.00    -0.366 OA
ATOM     13  C   UNL     1      -2.114   2.032   2.420  1.00  0.00     0.092 C 
ATOM     14  C   UNL     1      -2.852   4.467   2.225  1.00  0.00     0.019 C 
ATOM     15  C   UNL     1      -2.534   1.678   0.977  1.00  0.00     0.045 C 
ATOM     16  C   UNL     1      -1.685   3.516   2.471  1.00  0.00     0.039 C 
BRANCH  13  17
ATOM     17  C   UNL     1      -0.885   1.146   2.857  1.00  0.00     0.149 C 
BRANCH  17  18
ATOM     18  C   UNL     1      -1.178  -0.270   3.447  1.00  0.00     0.021 C 
ATOM     19  C   UNL     1      -2.124  -1.199   2.669  1.00  0.00     0.006 C 
ATOM     20  C   UNL     1       0.130  -1.029   3.778  1.00  0.00     0.006 C 
ATOM     21  C   UNL     1      -1.483  -1.868   1.458  1.00  0.00     0.000 C 
ATOM     22  C   UNL     1       0.764  -1.757   2.590  1.00  0.00     0.000 C 
ATOM     23  C   UNL     1      -0.236  -2.646   1.863  1.00  0.00     0.000 C 
ENDBRANCH  17  18
BRANCH  17  24
ATOM     24  O   UNL     1       0.096   1.079   1.820  1.00  0.00    -0.390 OA
ATOM     25  H   UNL     1      -0.267   0.594   1.062  1.00  0.00     0.211 HD
ENDBRANCH  17  24
ENDBRANCH  13  17
ENDBRANCH   5   8
ENDBRANCH   3   4
ENDBRANCH   2   3
ENDBRANCH   1   2
BRANCH   1  26
ATOM     26  C   UNL     1      -7.809   5.170  -1.738  1.00  0.00     0.116 C 
BRANCH  26  27
ATOM     27  N   UNL     1      -7.168   4.323  -2.737  1.00  0.00    -0.352 N 
ATOM     28  C   UNL     1      -7.392   4.307  -4.095  1.00  0.00     0.251 C 
ATOM     29  H   UNL     1      -6.496   3.688  -2.401  1.00  0.00     0.163 HD
ATOM     30  O   UNL     1      -6.845   3.477  -4.812  1.00  0.00    -0.269 OA
BRANCH  28  31
ATOM     31  C   UNL     1      -8.347   5.286  -4.644  1.00  0.00     0.039 A 
ATOM     32  C   UNL     1      -9.452   4.827  -5.361  1.00  0.00     0.014 A 
ATOM     33  C   UNL     1      -8.215   6.636  -4.308  1.00  0.00     0.014 A 
ATOM     34  C   UNL     1     -10.477   5.720  -5.672  1.00  0.00     0.010 A 
ATOM     35  C   UNL     1      -9.280   7.495  -4.530  1.00  0.00     0.010 A 
ATOM     36  C   UNL     1     -10.420   7.048  -5.217  1.00  0.00    -0.014 A 
BRANCH  36  37
ATOM     37  C   UNL     1     -11.531   8.001  -5.459  1.00  0.00     0.031 A 
ATOM     38  C   UNL     1     -11.272   9.245  -6.261  1.00  0.00     0.074 A 
ATOM     39  C   UNL     1     -12.729   7.798  -4.878  1.00  0.00     0.049 A 
ATOM     40  N   UNL     1     -12.061  10.261  -6.495  1.00  0.00    -0.248 NA
ATOM     41  C   UNL     1      -9.923   9.387  -6.829  1.00  0.00     0.031 C 
ATOM     42  C   UNL     1     -13.073   6.665  -4.014  1.00  0.00     0.029 A 
ATOM     43  N   UNL     1     -13.877   8.548  -4.911  1.00  0.00    -0.354 N 
ATOM     44  C   UNL     1     -11.293  11.176  -7.208  1.00  0.00     0.074 A 
ATOM     45  C   UNL     1      -9.958  10.624  -7.296  1.00  0.00     0.031 C 
ATOM     46  C   UNL     1     -14.349   6.787  -3.616  1.00  0.00     0.029 A 
ATOM     47  C   UNL     1     -14.904   8.021  -4.163  1.00  0.00     0.049 A 
ATOM     48  H   UNL     1     -13.958   9.385  -5.423  1.00  0.00     0.167 HD
ATOM     49  C   UNL     1     -11.674  12.353  -7.762  1.00  0.00     0.034 A 
ATOM     50  C   UNL     1     -16.148   8.486  -3.938  1.00  0.00     0.034 A 
ATOM     51  C   UNL     1     -13.020  12.864  -7.689  1.00  0.00     0.049 A 
ATOM     52  C   UNL     1     -16.567   9.776  -4.592  1.00  0.00     0.074 A 
ATOM     53  C   UNL     1     -13.550  13.992  -8.288  1.00  0.00     0.029 A 
ATOM     54  N   UNL     1     -14.051  12.278  -6.962  1.00  0.00    -0.354 N 
ATOM     55  N   UNL     1     -15.856  10.595  -5.332  1.00  0.00    -0.248 NA
ATOM     56  C   UNL     1     -17.960  10.196  -4.393  1.00  0.00     0.031 C 
ATOM     57  C   UNL     1     -14.882  14.121  -7.876  1.00  0.00     0.029 A 
ATOM     58  C   UNL     1     -15.205  13.037  -7.075  1.00  0.00     0.049 A 
ATOM     59  H   UNL     1     -13.973  11.446  -6.443  1.00  0.00     0.167 HD
ATOM     60  C   UNL     1     -16.721  11.619  -5.705  1.00  0.00     0.074 A 
ATOM     61  C   UNL     1     -18.010  11.304  -5.120  1.00  0.00     0.031 C 
ATOM     62  C   UNL     1     -16.476  12.716  -6.466  1.00  0.00     0.034 A 
BRANCH  49  63
ATOM     63  C   UNL     1     -10.608  13.159  -8.468  1.00  0.00     0.023 A 
ATOM     64  C   UNL     1      -9.902  12.645  -9.570  1.00  0.00     0.031 A 
ATOM     65  C   UNL     1     -10.241  14.428  -7.989  1.00  0.00     0.131 A 
ATOM     66  C   UNL     1      -8.798  13.342 -10.083  1.00  0.00     0.055 A 
ATOM     67  C   UNL     1      -9.202  15.162  -8.568  1.00  0.00     0.041 A 
ATOM     68  F   UNL     1     -10.863  14.966  -6.928  1.00  0.00    -0.206 F 
ATOM     69  C   UNL     1      -8.459  14.610  -9.607  1.00  0.00     0.022 A 
BRANCH  66  70
ATOM     70  S   UNL     1      -7.702  12.484 -11.248  1.00  0.00     0.124 S 
ATOM     71  O   UNL     1      -7.311  11.309 -10.472  1.00  0.00    -0.237 OA
ATOM     72  O   UNL     1      -8.582  12.236 -12.383  1.00  0.00    -0.237 OA
ATOM     73  O   UNL     1      -6.630  13.448 -11.485  1.00  0.00    -0.744 OA
ENDBRANCH  66  70
ENDBRANCH  49  63
BRANCH  50  74
ATOM     74  C   UNL     1     -17.080   7.730  -3.056  1.00  0.00     0.023 A 
ATOM     75  C   UNL     1     -18.210   7.084  -3.579  1.00  0.00     0.031 A 
ATOM     76  C   UNL     1     -16.851   7.646  -1.671  1.00  0.00     0.131 A 
ATOM     77  C   UNL     1     -19.088   6.405  -2.719  1.00  0.00     0.055 A 
ATOM     78  C   UNL     1     -17.705   6.936  -0.825  1.00  0.00     0.041 A 
ATOM     79  F   UNL     1     -15.775   8.235  -1.125  1.00  0.00    -0.206 F 
ATOM     80  C   UNL     1     -18.836   6.318  -1.347  1.00  0.00     0.022 A 
BRANCH  77  81
ATOM     81  S   UNL     1     -20.592   5.667  -3.414  1.00  0.00     0.124 S 
ATOM     82  O   UNL     1     -21.276   6.837  -3.952  1.00  0.00    -0.237 OA
ATOM     83  O   UNL     1     -20.046   4.735  -4.396  1.00  0.00    -0.237 OA
ATOM     84  O   UNL     1     -21.232   5.044  -2.257  1.00  0.00    -0.744 OA
ENDBRANCH  77  81
ENDBRANCH  50  74
BRANCH  62  85
ATOM     85  C   UNL     1     -17.641  13.636  -6.732  1.00  0.00     0.023 A 
ATOM     86  C   UNL     1     -18.219  14.409  -5.710  1.00  0.00     0.031 A 
ATOM     87  C   UNL     1     -18.180  13.736  -8.027  1.00  0.00     0.131 A 
ATOM     88  C   UNL     1     -19.334  15.213  -5.991  1.00  0.00     0.055 A 
ATOM     89  C   UNL     1     -19.253  14.581  -8.311  1.00  0.00     0.041 A 
ATOM     90  F   UNL     1     -17.665  13.018  -9.038  1.00  0.00    -0.206 F 
ATOM     91  C   UNL     1     -19.844  15.316  -7.288  1.00  0.00     0.022 A 
BRANCH  88  92
ATOM     92  S   UNL     1     -20.161  16.062  -4.619  1.00  0.00     0.124 S 
ATOM     93  O   UNL     1     -20.545  14.947  -3.759  1.00  0.00    -0.237 OA
ATOM     94  O   UNL     1     -19.106  16.930  -4.106  1.00  0.00    -0.237 OA
ATOM     95  O   UNL     1     -21.273  16.757  -5.267  1.00  0.00    -0.744 OA
ENDBRANCH  88  92
ENDBRANCH  62  85
ENDBRANCH  36  37
ENDBRANCH  28  31
ENDBRANCH  26  27
ENDBRANCH   1  26
TORSDOF 17
