REMARK SMILES C=CC[N@@H+](CC(=O)NCCCCNC(=O)c1ccc(-c2c3nc(c(-c4cc(S(=O)(=O)[O-])ccc4F)c4ccc([nH]4)c(-c4cc(S(=O)(=O)[O-])ccc4F)c4nc(c(-c5cc(S(=O)(=O)[O-])ccc5F)c5ccc2[nH]5)C=C4)C=C3)cc1)[C@@H]1CCC[C@H](C(C)(C)C)CC1
REMARK SMILES IDX 9 1 8 2 6 3 7 4 5 6 4 7 3 9 2 10 1 11 79 12 80 13 81 14
REMARK SMILES IDX 82 15 89 17 88 18 83 19 84 21 85 22 86 23 87 24 10 25 11 26
REMARK SMILES IDX 12 27 13 28 14 29 15 31 16 32 17 33 78 34 18 35 77 36 19 37
REMARK SMILES IDX 20 38 21 39 71 40 22 41 76 42 70 43 72 44 23 45 75 46 69 47
REMARK SMILES IDX 68 48 24 50 56 51 36 52 55 53 37 54 40 55 54 56 73 57 38 58
REMARK SMILES IDX 39 59 53 61 74 62 41 63 25 64 26 65 34 66 27 67 33 68 35 69
REMARK SMILES IDX 32 70 28 71 29 72 30 73 31 74 57 75 58 76 66 77 59 78 65 79
REMARK SMILES IDX 67 80 64 81 60 82 61 83 62 84 63 85 42 86 43 87 51 88 44 89
REMARK SMILES IDX 50 90 52 91 49 92 45 93 46 94 47 95 48 96
REMARK H PARENT 8 5 4 8 13 30 72 49 40 60
REMARK Flexibility Score: 90.00
ROOT
ATOM      1  C   UNL     1      -2.860   0.626  -1.220  1.00  0.00     0.116 C 
ENDROOT
BRANCH   1   2
ATOM      2  N   UNL     1      -3.687   0.006  -0.215  1.00  0.00    -0.351 N 
ATOM      3  C   UNL     1      -3.811   0.264   1.114  1.00  0.00     0.275 C 
ATOM      4  O   UNL     1      -4.692  -0.375   1.699  1.00  0.00    -0.269 OA
ATOM      5  H   UNL     1      -4.257  -0.726  -0.546  1.00  0.00     0.163 HD
BRANCH   3   6
ATOM      6  C   UNL     1      -2.999   1.349   1.842  1.00  0.00     0.364 C 
BRANCH   6   7
ATOM      7  N   UNL     1      -1.583   1.080   2.164  1.00  0.00    -0.321 N 
ATOM      8  H   UNL     1      -1.474   1.629   3.016  1.00  0.00     0.349 HD
BRANCH   7   9
ATOM      9  C   UNL     1      -0.634   1.683   1.238  1.00  0.00     0.291 C 
BRANCH   9  10
ATOM     10  C   UNL     1       0.829   1.530   1.536  1.00  0.00     0.025 C 
ATOM     11  C   UNL     1       1.673   0.812   0.779  1.00  0.00     0.010 C 
ENDBRANCH   9  10
ENDBRANCH   7   9
BRANCH   7  12
ATOM     12  C   UNL     1      -1.191  -0.112   2.935  1.00  0.00     0.184 C 
BRANCH  12  13
ATOM     13  C   UNL     1      -1.238  -1.430   2.156  1.00  0.00     0.065 C 
BRANCH  13  14
ATOM     14  C   UNL     1      -1.006  -2.660   3.028  1.00  0.00     0.006 C 
BRANCH  14  15
ATOM     15  C   UNL     1      -2.305  -3.224   3.600  1.00  0.00     0.004 CG0
ATOM     16  G   UNL     1      -2.966  -2.458   4.772  1.00  0.00     0.000 G0
ENDBRANCH  14  15
ENDBRANCH  13  14
ENDBRANCH  12  13
BRANCH  12  17
ATOM     17  C   UNL     1      -1.806  -0.159   4.350  1.00  0.00     0.065 C 
BRANCH  17  18
ATOM     18  C   UNL     1      -3.104  -0.933   4.541  1.00  0.00     0.010 C 
BRANCH  18  19
ATOM     19  C   UNL     1      -2.966  -2.458   4.772  1.00  0.00    -0.005 CG0
ATOM     20  G   UNL     1      -2.305  -3.224   3.600  1.00  0.00     0.000 G0
BRANCH  19  21
ATOM     21  C   UNL     1      -4.352  -3.118   5.191  1.00  0.00    -0.035 C 
ATOM     22  C   UNL     1      -4.173  -4.622   5.496  1.00  0.00     0.011 C 
ATOM     23  C   UNL     1      -4.906  -2.463   6.477  1.00  0.00     0.011 C 
ATOM     24  C   UNL     1      -5.431  -2.980   4.095  1.00  0.00     0.011 C 
ENDBRANCH  19  21
ENDBRANCH  18  19
ENDBRANCH  17  18
ENDBRANCH  12  17
ENDBRANCH   7  12
ENDBRANCH   6   7
ENDBRANCH   3   6
ENDBRANCH   1   2
BRANCH   1  25
ATOM     25  C   UNL     1      -1.606  -0.201  -1.501  1.00  0.00     0.023 C 
BRANCH  25  26
ATOM     26  C   UNL     1      -1.818  -1.464  -2.322  1.00  0.00     0.023 C 
BRANCH  26  27
ATOM     27  C   UNL     1      -2.388  -1.232  -3.709  1.00  0.00     0.116 C 
BRANCH  27  28
ATOM     28  N   UNL     1      -1.620  -0.286  -4.509  1.00  0.00    -0.352 N 
ATOM     29  C   UNL     1      -1.338  -0.352  -5.855  1.00  0.00     0.251 C 
ATOM     30  H   UNL     1      -1.260   0.495  -4.029  1.00  0.00     0.163 HD
ATOM     31  O   UNL     1      -0.604   0.476  -6.383  1.00  0.00    -0.269 OA
BRANCH  29  32
ATOM     32  C   UNL     1      -1.903  -1.476  -6.627  1.00  0.00     0.039 A 
ATOM     33  C   UNL     1      -1.045  -2.307  -7.349  1.00  0.00     0.014 A 
ATOM     34  C   UNL     1      -3.262  -1.772  -6.515  1.00  0.00     0.014 A 
ATOM     35  C   UNL     1      -1.542  -3.495  -7.890  1.00  0.00     0.010 A 
ATOM     36  C   UNL     1      -3.728  -2.997  -6.968  1.00  0.00     0.010 A 
ATOM     37  C   UNL     1      -2.874  -3.872  -7.661  1.00  0.00    -0.014 A 
BRANCH  37  38
ATOM     38  C   UNL     1      -3.437  -5.150  -8.166  1.00  0.00     0.031 A 
ATOM     39  C   UNL     1      -4.603  -5.100  -9.115  1.00  0.00     0.074 A 
ATOM     40  C   UNL     1      -2.982  -6.331  -7.703  1.00  0.00     0.049 A 
ATOM     41  N   UNL     1      -5.399  -6.059  -9.507  1.00  0.00    -0.248 NA
ATOM     42  C   UNL     1      -4.950  -3.773  -9.647  1.00  0.00     0.031 C 
ATOM     43  C   UNL     1      -1.876  -6.508  -6.758  1.00  0.00     0.029 A 
ATOM     44  N   UNL     1      -3.408  -7.611  -7.954  1.00  0.00    -0.354 N 
ATOM     45  C   UNL     1      -6.366  -5.444 -10.295  1.00  0.00     0.074 A 
ATOM     46  C   UNL     1      -6.090  -4.024 -10.269  1.00  0.00     0.031 C 
ATOM     47  C   UNL     1      -1.698  -7.820  -6.529  1.00  0.00     0.029 A 
ATOM     48  C   UNL     1      -2.706  -8.575  -7.265  1.00  0.00     0.049 A 
ATOM     49  H   UNL     1      -4.147  -7.821  -8.569  1.00  0.00     0.167 HD
ATOM     50  C   UNL     1      -7.376  -6.015 -10.998  1.00  0.00     0.034 A 
ATOM     51  C   UNL     1      -2.872  -9.912  -7.224  1.00  0.00     0.034 A 
ATOM     52  C   UNL     1      -7.603  -7.436 -11.049  1.00  0.00     0.049 A 
ATOM     53  C   UNL     1      -3.989 -10.528  -8.031  1.00  0.00     0.074 A 
ATOM     54  C   UNL     1      -8.574  -8.134 -11.745  1.00  0.00     0.029 A 
ATOM     55  N   UNL     1      -6.833  -8.382 -10.385  1.00  0.00    -0.354 N 
ATOM     56  N   UNL     1      -4.897  -9.935  -8.772  1.00  0.00    -0.248 NA
ATOM     57  C   UNL     1      -4.098 -11.993  -8.004  1.00  0.00     0.031 C 
ATOM     58  C   UNL     1      -8.411  -9.498 -11.477  1.00  0.00     0.029 A 
ATOM     59  C   UNL     1      -7.304  -9.655 -10.659  1.00  0.00     0.049 A 
ATOM     60  H   UNL     1      -6.064  -8.178  -9.805  1.00  0.00     0.167 HD
ATOM     61  C   UNL     1      -5.656 -10.959  -9.333  1.00  0.00     0.074 A 
ATOM     62  C   UNL     1      -5.100 -12.204  -8.846  1.00  0.00     0.031 C 
ATOM     63  C   UNL     1      -6.714 -10.880 -10.178  1.00  0.00     0.034 A 
BRANCH  50  64
ATOM     64  C   UNL     1      -8.301  -5.089 -11.748  1.00  0.00     0.023 A 
ATOM     65  C   UNL     1      -7.830  -4.263 -12.784  1.00  0.00     0.031 A 
ATOM     66  C   UNL     1      -9.655  -4.983 -11.387  1.00  0.00     0.131 A 
ATOM     67  C   UNL     1      -8.678  -3.304 -13.355  1.00  0.00     0.055 A 
ATOM     68  C   UNL     1     -10.518  -4.089 -12.024  1.00  0.00     0.041 A 
ATOM     69  F   UNL     1     -10.158  -5.730 -10.391  1.00  0.00    -0.206 F 
ATOM     70  C   UNL     1     -10.026  -3.229 -13.002  1.00  0.00     0.022 A 
BRANCH  67  71
ATOM     71  S   UNL     1      -7.950  -2.053 -14.448  1.00  0.00     0.124 S 
ATOM     72  O   UNL     1      -7.028  -1.374 -13.541  1.00  0.00    -0.237 OA
ATOM     73  O   UNL     1      -7.337  -2.864 -15.493  1.00  0.00    -0.237 OA
ATOM     74  O   UNL     1      -9.100  -1.256 -14.869  1.00  0.00    -0.744 OA
ENDBRANCH  67  71
ENDBRANCH  50  64
BRANCH  51  75
ATOM     75  C   UNL     1      -1.973 -10.770  -6.400  1.00  0.00     0.023 A 
ATOM     76  C   UNL     1      -1.122 -11.706  -7.009  1.00  0.00     0.031 A 
ATOM     77  C   UNL     1      -1.990 -10.711  -4.996  1.00  0.00     0.131 A 
ATOM     78  C   UNL     1      -0.366 -12.585  -6.218  1.00  0.00     0.055 A 
ATOM     79  C   UNL     1      -1.197 -11.553  -4.213  1.00  0.00     0.041 A 
ATOM     80  F   UNL     1      -2.779  -9.828  -4.363  1.00  0.00    -0.206 F 
ATOM     81  C   UNL     1      -0.390 -12.509  -4.824  1.00  0.00     0.022 A 
BRANCH  78  82
ATOM     82  S   UNL     1       0.575 -13.900  -7.042  1.00  0.00     0.124 S 
ATOM     83  O   UNL     1      -0.466 -14.577  -7.806  1.00  0.00    -0.237 OA
ATOM     84  O   UNL     1       1.546 -13.134  -7.817  1.00  0.00    -0.237 OA
ATOM     85  O   UNL     1       1.133 -14.666  -5.929  1.00  0.00    -0.744 OA
ENDBRANCH  78  82
ENDBRANCH  51  75
BRANCH  63  86
ATOM     86  C   UNL     1      -7.277 -12.178 -10.693  1.00  0.00     0.023 A 
ATOM     87  C   UNL     1      -8.004 -13.051  -9.869  1.00  0.00     0.031 A 
ATOM     88  C   UNL     1      -7.085 -12.534 -12.040  1.00  0.00     0.131 A 
ATOM     89  C   UNL     1      -8.481 -14.263 -10.391  1.00  0.00     0.055 A 
ATOM     90  C   UNL     1      -7.601 -13.718 -12.565  1.00  0.00     0.041 A 
ATOM     91  F   UNL     1      -6.398 -11.730 -12.867  1.00  0.00    -0.206 F 
ATOM     92  C   UNL     1      -8.296 -14.595 -11.736  1.00  0.00     0.022 A 
BRANCH  89  93
ATOM     93  S   UNL     1      -9.299 -15.432  -9.272  1.00  0.00     0.124 S 
ATOM     94  O   UNL     1      -8.244 -15.717  -8.305  1.00  0.00    -0.237 OA
ATOM     95  O   UNL     1     -10.426 -14.650  -8.773  1.00  0.00    -0.237 OA
ATOM     96  O   UNL     1      -9.659 -16.548 -10.144  1.00  0.00    -0.744 OA
ENDBRANCH  89  93
ENDBRANCH  63  86
ENDBRANCH  37  38
ENDBRANCH  29  32
ENDBRANCH  27  28
ENDBRANCH  26  27
ENDBRANCH  25  26
ENDBRANCH   1  25
TORSDOF 19
