REMARK SMILES Cc1c(CC(=O)NCCCCNC(=O)c2ccc(-c3c4nc(c(-c5cc(S(=O)(=O)[O-])ccc5F)c5ccc([nH]5)c(-c5cc(S(=O)(=O)[O-])ccc5F)c5nc(c(-c6cc(S(=O)(=O)[O-])ccc6F)c6ccc3[nH]6)C=C5)C=C4)cc2)cc(-c2ccccc2)cc1-c1ccccc1
REMARK SMILES IDX 10 1 9 2 8 3 7 4 5 5 6 6 4 8 3 9 1 10 2 11 87 12 78 13 86 14
REMARK SMILES IDX 79 15 88 16 89 17 93 18 90 19 92 20 91 21 80 22 81 23 85 24
REMARK SMILES IDX 82 25 84 26 83 27 11 28 12 29 13 30 14 32 15 33 16 34 77 35
REMARK SMILES IDX 17 36 76 37 18 38 19 39 20 40 70 41 21 42 75 43 69 44 71 45
REMARK SMILES IDX 22 46 74 47 68 48 67 49 23 51 55 52 35 53 54 54 36 55 39 56
REMARK SMILES IDX 53 57 72 58 37 59 38 60 52 62 73 63 40 64 24 65 25 66 33 67
REMARK SMILES IDX 26 68 32 69 34 70 31 71 27 72 28 73 29 74 30 75 56 76 57 77
REMARK SMILES IDX 65 78 58 79 64 80 66 81 63 82 59 83 60 84 61 85 62 86 41 87
REMARK SMILES IDX 42 88 50 89 43 90 49 91 51 92 48 93 44 94 45 95 46 96 47 97
REMARK H PARENT 7 7 12 31 71 50 39 61
REMARK Flexibility Score: inf
ROOT
ATOM      1  C   UNL     1      -0.298  -0.568   4.455  1.00  0.00     0.023 C 
ENDROOT
BRANCH   1   2
ATOM      2  C   UNL     1       0.563  -0.347   3.210  1.00  0.00     0.023 C 
BRANCH   2   3
ATOM      3  C   UNL     1       1.522  -1.497   2.861  1.00  0.00     0.116 C 
BRANCH   3   4
ATOM      4  N   UNL     1       0.834  -2.726   2.485  1.00  0.00    -0.356 N 
ATOM      5  C   UNL     1       0.570  -3.227   1.242  1.00  0.00     0.224 C 
ATOM      6  O   UNL     1      -0.038  -4.299   1.159  1.00  0.00    -0.275 OA
ATOM      7  H   UNL     1       0.511  -3.274   3.236  1.00  0.00     0.163 HD
BRANCH   5   8
ATOM      8  C   UNL     1       1.028  -2.489  -0.013  1.00  0.00     0.135 C 
BRANCH   8   9
ATOM      9  C   UNL     1       0.340  -1.151  -0.206  1.00  0.00    -0.035 A 
ATOM     10  C   UNL     1       2.547   0.119  -0.408  1.00  0.00     0.045 C 
ATOM     11  C   UNL     1       1.036   0.079  -0.302  1.00  0.00    -0.040 A 
ATOM     12  C   UNL     1       0.291   1.289  -0.325  1.00  0.00    -0.015 A 
ATOM     13  C   UNL     1      -1.072  -1.156  -0.218  1.00  0.00     0.013 A 
ATOM     14  C   UNL     1      -1.118   1.235  -0.294  1.00  0.00     0.017 A 
ATOM     15  C   UNL     1      -1.819   0.025  -0.254  1.00  0.00    -0.017 A 
BRANCH  12  16
ATOM     16  C   UNL     1       0.933   2.615  -0.305  1.00  0.00    -0.018 A 
ATOM     17  C   UNL     1       0.872   3.410   0.852  1.00  0.00     0.009 A 
ATOM     18  C   UNL     1       1.659   3.095  -1.406  1.00  0.00     0.009 A 
ATOM     19  C   UNL     1       1.532   4.639   0.914  1.00  0.00     0.001 A 
ATOM     20  C   UNL     1       2.326   4.321  -1.341  1.00  0.00     0.001 A 
ATOM     21  C   UNL     1       2.262   5.091  -0.182  1.00  0.00     0.000 A 
ENDBRANCH  12  16
BRANCH  15  22
ATOM     22  C   UNL     1      -3.289  -0.010  -0.227  1.00  0.00    -0.018 A 
ATOM     23  C   UNL     1      -3.983  -0.688   0.791  1.00  0.00     0.009 A 
ATOM     24  C   UNL     1      -4.041   0.623  -1.229  1.00  0.00     0.009 A 
ATOM     25  C   UNL     1      -5.380  -0.737   0.800  1.00  0.00     0.001 A 
ATOM     26  C   UNL     1      -5.438   0.572  -1.223  1.00  0.00     0.001 A 
ATOM     27  C   UNL     1      -6.106  -0.110  -0.209  1.00  0.00     0.000 A 
ENDBRANCH  15  22
ENDBRANCH   8   9
ENDBRANCH   5   8
ENDBRANCH   3   4
ENDBRANCH   2   3
ENDBRANCH   1   2
BRANCH   1  28
ATOM     28  C   UNL     1       0.501  -0.631   5.747  1.00  0.00     0.116 C 
BRANCH  28  29
ATOM     29  N   UNL     1       0.658   0.624   6.464  1.00  0.00    -0.352 N 
ATOM     30  C   UNL     1       1.410   0.890   7.604  1.00  0.00     0.251 C 
ATOM     31  H   UNL     1       0.165   1.390   6.092  1.00  0.00     0.163 HD
ATOM     32  O   UNL     1       1.298   1.947   8.192  1.00  0.00    -0.269 OA
BRANCH  30  33
ATOM     33  C   UNL     1       2.451  -0.089   8.033  1.00  0.00     0.039 A 
ATOM     34  C   UNL     1       3.723   0.409   8.346  1.00  0.00     0.014 A 
ATOM     35  C   UNL     1       2.259  -1.460   7.907  1.00  0.00     0.014 A 
ATOM     36  C   UNL     1       4.829  -0.437   8.273  1.00  0.00     0.010 A 
ATOM     37  C   UNL     1       3.357  -2.270   7.704  1.00  0.00     0.010 A 
ATOM     38  C   UNL     1       4.644  -1.746   7.828  1.00  0.00    -0.014 A 
BRANCH  38  39
ATOM     39  C   UNL     1       5.728  -2.601   7.362  1.00  0.00     0.031 A 
ATOM     40  C   UNL     1       6.177  -3.750   8.182  1.00  0.00     0.074 A 
ATOM     41  C   UNL     1       6.290  -2.392   6.148  1.00  0.00     0.049 A 
ATOM     42  N   UNL     1       7.391  -4.189   8.206  1.00  0.00    -0.248 NA
ATOM     43  C   UNL     1       5.283  -4.496   9.065  1.00  0.00     0.031 C 
ATOM     44  C   UNL     1       7.229  -3.278   5.462  1.00  0.00     0.029 A 
ATOM     45  N   UNL     1       6.276  -1.259   5.335  1.00  0.00    -0.354 N 
ATOM     46  C   UNL     1       7.372  -5.418   8.826  1.00  0.00     0.074 A 
ATOM     47  C   UNL     1       6.060  -5.524   9.421  1.00  0.00     0.031 C 
ATOM     48  C   UNL     1       7.927  -2.556   4.570  1.00  0.00     0.029 A 
ATOM     49  C   UNL     1       7.557  -1.167   4.772  1.00  0.00     0.049 A 
ATOM     50  H   UNL     1       5.520  -0.647   5.187  1.00  0.00     0.167 HD
ATOM     51  C   UNL     1       8.396  -6.297   8.635  1.00  0.00     0.034 A 
ATOM     52  C   UNL     1       8.437  -0.145   4.992  1.00  0.00     0.034 A 
ATOM     53  C   UNL     1       9.391  -5.772   7.706  1.00  0.00     0.049 A 
ATOM     54  C   UNL     1       9.783  -0.621   5.506  1.00  0.00     0.074 A 
ATOM     55  C   UNL     1       9.607  -5.998   6.356  1.00  0.00     0.029 A 
ATOM     56  N   UNL     1      10.162  -4.671   8.052  1.00  0.00    -0.354 N 
ATOM     57  N   UNL     1       9.974  -1.786   6.061  1.00  0.00    -0.248 NA
ATOM     58  C   UNL     1      11.007   0.174   5.461  1.00  0.00     0.031 C 
ATOM     59  C   UNL     1      10.496  -5.005   5.882  1.00  0.00     0.029 A 
ATOM     60  C   UNL     1      10.837  -4.189   6.947  1.00  0.00     0.049 A 
ATOM     61  H   UNL     1      10.221  -4.288   8.957  1.00  0.00     0.167 HD
ATOM     62  C   UNL     1      11.288  -1.917   6.438  1.00  0.00     0.074 A 
ATOM     63  C   UNL     1      11.895  -0.662   6.030  1.00  0.00     0.031 C 
ATOM     64  C   UNL     1      11.742  -3.053   7.054  1.00  0.00     0.034 A 
BRANCH  51  65
ATOM     65  C   UNL     1       8.323  -7.757   9.018  1.00  0.00     0.023 A 
ATOM     66  C   UNL     1       8.974  -8.714   8.212  1.00  0.00     0.031 A 
ATOM     67  C   UNL     1       7.627  -8.270  10.127  1.00  0.00     0.131 A 
ATOM     68  C   UNL     1       8.827 -10.093   8.442  1.00  0.00     0.055 A 
ATOM     69  C   UNL     1       7.437  -9.644  10.332  1.00  0.00     0.041 A 
ATOM     70  F   UNL     1       7.132  -7.460  11.076  1.00  0.00    -0.206 F 
ATOM     71  C   UNL     1       8.026 -10.566   9.476  1.00  0.00     0.022 A 
BRANCH  68  72
ATOM     72  S   UNL     1       9.706 -11.255   7.362  1.00  0.00     0.124 S 
ATOM     73  O   UNL     1       9.172 -10.920   6.046  1.00  0.00    -0.237 OA
ATOM     74  O   UNL     1      11.101 -10.905   7.602  1.00  0.00    -0.237 OA
ATOM     75  O   UNL     1       9.303 -12.564   7.876  1.00  0.00    -0.744 OA
ENDBRANCH  68  72
ENDBRANCH  51  65
BRANCH  52  76
ATOM     76  C   UNL     1       7.800   1.151   5.352  1.00  0.00     0.023 A 
ATOM     77  C   UNL     1       6.935   1.732   4.403  1.00  0.00     0.031 A 
ATOM     78  C   UNL     1       7.704   1.582   6.682  1.00  0.00     0.131 A 
ATOM     79  C   UNL     1       5.897   2.577   4.820  1.00  0.00     0.055 A 
ATOM     80  C   UNL     1       6.702   2.474   7.085  1.00  0.00     0.041 A 
ATOM     81  F   UNL     1       8.483   1.046   7.632  1.00  0.00    -0.206 F 
ATOM     82  C   UNL     1       5.764   2.938   6.162  1.00  0.00     0.022 A 
BRANCH  79  83
ATOM     83  S   UNL     1       4.580   2.971   3.625  1.00  0.00     0.124 S 
ATOM     84  O   UNL     1       5.191   4.046   2.853  1.00  0.00    -0.237 OA
ATOM     85  O   UNL     1       4.402   1.698   2.929  1.00  0.00    -0.237 OA
ATOM     86  O   UNL     1       3.456   3.360   4.473  1.00  0.00    -0.744 OA
ENDBRANCH  79  83
ENDBRANCH  52  76
BRANCH  64  87
ATOM     87  C   UNL     1      13.093  -3.262   7.718  1.00  0.00     0.023 A 
ATOM     88  C   UNL     1      14.009  -2.232   7.964  1.00  0.00     0.031 A 
ATOM     89  C   UNL     1      13.482  -4.542   8.199  1.00  0.00     0.131 A 
ATOM     90  C   UNL     1      15.252  -2.485   8.577  1.00  0.00     0.055 A 
ATOM     91  C   UNL     1      14.685  -4.779   8.872  1.00  0.00     0.041 A 
ATOM     92  F   UNL     1      12.706  -5.625   8.052  1.00  0.00    -0.206 F 
ATOM     93  C   UNL     1      15.589  -3.748   9.053  1.00  0.00     0.022 A 
BRANCH  90  94
ATOM     94  S   UNL     1      16.446  -1.126   8.683  1.00  0.00     0.124 S 
ATOM     95  O   UNL     1      16.668  -0.811   7.274  1.00  0.00    -0.237 OA
ATOM     96  O   UNL     1      15.711  -0.124   9.447  1.00  0.00    -0.237 OA
ATOM     97  O   UNL     1      17.588  -1.721   9.374  1.00  0.00    -0.744 OA
ENDBRANCH  90  94
ENDBRANCH  64  87
ENDBRANCH  38  39
ENDBRANCH  30  33
ENDBRANCH  28  29
ENDBRANCH   1  28
TORSDOF 17
