REMARK SMILES Cc1nc(C)n(CC[C@H]2CCC[C@@]2([NH2+]C(C)C)C(=O)NCCCCNC(=O)c2ccc(-c3c4nc(c(-c5cc(S(=O)(=O)[O-])ccc5F)c5ccc([nH]5)c(-c5cc(S(=O)(=O)[O-])ccc5F)c5nc(c(-c6cc(S(=O)(=O)[O-])ccc6F)c6ccc3[nH]6)C=C5)C=C4)cc2)n1
REMARK SMILES IDX 22 1 21 2 20 3 18 4 19 5 13 7 9 8 10 9 11 10 12 11 8 12 7 13
REMARK SMILES IDX 6 14 1 15 2 16 3 17 91 18 4 19 5 20 14 21 15 24 16 25 17 26
REMARK SMILES IDX 23 27 24 28 25 29 26 30 27 32 28 33 29 34 90 35 30 36 89 37
REMARK SMILES IDX 31 38 32 39 33 40 83 41 34 42 88 43 82 44 84 45 35 46 87 47
REMARK SMILES IDX 81 48 80 49 36 51 68 52 48 53 67 54 49 55 52 56 66 57 85 58
REMARK SMILES IDX 50 59 51 60 65 62 86 63 53 64 37 65 38 66 46 67 39 68 45 69
REMARK SMILES IDX 47 70 44 71 40 72 41 73 42 74 43 75 69 76 70 77 78 78 71 79
REMARK SMILES IDX 77 80 79 81 76 82 72 83 73 84 74 85 75 86 54 87 55 88 63 89
REMARK SMILES IDX 56 90 62 91 64 92 61 93 57 94 58 95 59 96 60 97
REMARK H PARENT 20 6 14 22 14 23 25 31 84 50 52 61
REMARK Flexibility Score: inf
ROOT
ATOM      1  C   UNL     1       1.837   0.105  -9.878  1.00  0.00     0.023 C 
ENDROOT
BRANCH   1   2
ATOM      2  C   UNL     1       1.882  -1.405  -9.432  1.00  0.00     0.116 C 
BRANCH   2   3
ATOM      3  N   UNL     1       2.593  -1.879  -8.216  1.00  0.00    -0.351 N 
ATOM      4  C   UNL     1       2.478  -2.240  -6.907  1.00  0.00     0.281 C 
ATOM      5  O   UNL     1       3.500  -2.856  -6.525  1.00  0.00    -0.268 OA
ATOM      6  H   UNL     1       3.544  -1.971  -8.457  1.00  0.00     0.163 HD
BRANCH   4   7
ATOM      7  C   UNL     1       1.292  -2.163  -5.828  1.00  0.00     0.178 C 
ATOM      8  C   UNL     1       0.236  -1.028  -5.702  1.00  0.00     0.062 C 
ATOM      9  C   UNL     1      -1.111  -1.745  -5.452  1.00  0.00     0.011 C 
ATOM     10  C   UNL     1      -0.998  -3.140  -6.023  1.00  0.00     0.008 C 
ATOM     11  C   UNL     1       0.476  -3.482  -6.011  1.00  0.00     0.079 C 
BRANCH   8  12
ATOM     12  C   UNL     1       0.162   0.005  -6.817  1.00  0.00     0.034 C 
BRANCH  12  13
ATOM     13  C   UNL     1       1.018   1.283  -6.599  1.00  0.00     0.147 C 
BRANCH  13  14
ATOM     14  N   UNL     1       2.448   1.193  -6.389  1.00  0.00    -0.250 N 
ATOM     15  C   UNL     1       5.584  -0.210  -7.169  1.00  0.00     0.092 C 
ATOM     16  C   UNL     1       4.431   0.575  -6.663  1.00  0.00     0.147 A 
ATOM     17  N   UNL     1       4.474   1.376  -5.559  1.00  0.00    -0.217 NA
ATOM     18  N   UNL     1       3.228   0.535  -7.241  1.00  0.00    -0.156 NA
ATOM     19  C   UNL     1       3.225   1.781  -5.424  1.00  0.00     0.124 A 
ATOM     20  C   UNL     1       2.692   2.649  -4.360  1.00  0.00     0.089 C 
ENDBRANCH  13  14
ENDBRANCH  12  13
ENDBRANCH   8  12
BRANCH   7  21
ATOM     21  N   UNL     1       1.871  -2.371  -4.413  1.00  0.00    -0.331 N 
ATOM     22  H   UNL     1       2.489  -3.182  -4.450  1.00  0.00     0.347 HD
ATOM     23  H   UNL     1       1.055  -2.473  -3.810  1.00  0.00     0.347 HD
BRANCH  21  24
ATOM     24  C   UNL     1       2.636  -1.261  -3.825  1.00  0.00     0.176 C 
ATOM     25  C   UNL     1       2.094  -0.900  -2.433  1.00  0.00     0.075 C 
ATOM     26  C   UNL     1       4.125  -1.582  -3.689  1.00  0.00     0.075 C 
ENDBRANCH  21  24
ENDBRANCH   7  21
ENDBRANCH   4   7
ENDBRANCH   2   3
ENDBRANCH   1   2
BRANCH   1  27
ATOM     27  C   UNL     1       3.098   0.972 -10.128  1.00  0.00     0.023 C 
BRANCH  27  28
ATOM     28  C   UNL     1       3.573   1.224 -11.562  1.00  0.00     0.116 C 
BRANCH  28  29
ATOM     29  N   UNL     1       2.564   1.782 -12.470  1.00  0.00    -0.352 N 
ATOM     30  C   UNL     1       2.376   1.465 -13.806  1.00  0.00     0.251 C 
ATOM     31  H   UNL     1       1.954   2.454 -12.089  1.00  0.00     0.163 HD
ATOM     32  O   UNL     1       1.736   2.190 -14.562  1.00  0.00    -0.269 OA
BRANCH  30  33
ATOM     33  C   UNL     1       2.976   0.209 -14.278  1.00  0.00     0.039 A 
ATOM     34  C   UNL     1       3.937   0.196 -15.294  1.00  0.00     0.014 A 
ATOM     35  C   UNL     1       2.738  -0.902 -13.476  1.00  0.00     0.014 A 
ATOM     36  C   UNL     1       4.759  -0.922 -15.415  1.00  0.00     0.010 A 
ATOM     37  C   UNL     1       3.652  -1.923 -13.498  1.00  0.00     0.010 A 
ATOM     38  C   UNL     1       4.642  -1.962 -14.482  1.00  0.00    -0.014 A 
BRANCH  38  39
ATOM     39  C   UNL     1       5.619  -3.047 -14.427  1.00  0.00     0.031 A 
ATOM     40  C   UNL     1       7.050  -2.649 -14.270  1.00  0.00     0.074 A 
ATOM     41  C   UNL     1       5.234  -4.326 -14.227  1.00  0.00     0.049 A 
ATOM     42  N   UNL     1       8.019  -2.820 -15.108  1.00  0.00    -0.248 NA
ATOM     43  C   UNL     1       7.440  -1.868 -13.085  1.00  0.00     0.031 C 
ATOM     44  C   UNL     1       3.875  -4.841 -14.018  1.00  0.00     0.029 A 
ATOM     45  N   UNL     1       6.003  -5.422 -14.005  1.00  0.00    -0.354 N 
ATOM     46  C   UNL     1       9.182  -2.388 -14.468  1.00  0.00     0.074 A 
ATOM     47  C   UNL     1       8.731  -1.631 -13.331  1.00  0.00     0.031 C 
ATOM     48  C   UNL     1       3.938  -6.054 -13.434  1.00  0.00     0.029 A 
ATOM     49  C   UNL     1       5.323  -6.483 -13.421  1.00  0.00     0.049 A 
ATOM     50  H   UNL     1       6.959  -5.461 -14.237  1.00  0.00     0.167 HD
ATOM     51  C   UNL     1      10.410  -2.882 -14.809  1.00  0.00     0.034 A 
ATOM     52  C   UNL     1       5.855  -7.631 -12.933  1.00  0.00     0.034 A 
ATOM     53  C   UNL     1      10.336  -3.613 -16.057  1.00  0.00     0.049 A 
ATOM     54  C   UNL     1       7.171  -7.800 -13.599  1.00  0.00     0.074 A 
ATOM     55  C   UNL     1       9.930  -3.297 -17.340  1.00  0.00     0.029 A 
ATOM     56  N   UNL     1      10.325  -4.991 -16.001  1.00  0.00    -0.354 N 
ATOM     57  N   UNL     1       7.299  -7.963 -14.890  1.00  0.00    -0.248 NA
ATOM     58  C   UNL     1       8.356  -7.285 -12.927  1.00  0.00     0.031 C 
ATOM     59  C   UNL     1       9.186  -4.437 -17.770  1.00  0.00     0.029 A 
ATOM     60  C   UNL     1       9.272  -5.414 -16.775  1.00  0.00     0.049 A 
ATOM     61  H   UNL     1      10.953  -5.562 -15.502  1.00  0.00     0.167 HD
ATOM     62  C   UNL     1       8.379  -7.169 -15.249  1.00  0.00     0.074 A 
ATOM     63  C   UNL     1       9.058  -6.871 -13.988  1.00  0.00     0.031 C 
ATOM     64  C   UNL     1       8.459  -6.583 -16.483  1.00  0.00     0.034 A 
BRANCH  51  65
ATOM     65  C   UNL     1      11.611  -3.030 -13.887  1.00  0.00     0.023 A 
ATOM     66  C   UNL     1      12.772  -3.621 -14.432  1.00  0.00     0.031 A 
ATOM     67  C   UNL     1      11.606  -2.895 -12.483  1.00  0.00     0.131 A 
ATOM     68  C   UNL     1      13.778  -4.154 -13.607  1.00  0.00     0.055 A 
ATOM     69  C   UNL     1      12.644  -3.365 -11.668  1.00  0.00     0.041 A 
ATOM     70  F   UNL     1      10.573  -2.386 -11.805  1.00  0.00    -0.206 F 
ATOM     71  C   UNL     1      13.720  -4.033 -12.224  1.00  0.00     0.022 A 
BRANCH  68  72
ATOM     72  S   UNL     1      15.062  -5.184 -14.369  1.00  0.00     0.124 S 
ATOM     73  O   UNL     1      14.260  -6.137 -15.130  1.00  0.00    -0.237 OA
ATOM     74  O   UNL     1      15.809  -4.202 -15.148  1.00  0.00    -0.237 OA
ATOM     75  O   UNL     1      15.773  -5.742 -13.222  1.00  0.00    -0.744 OA
ENDBRANCH  68  72
ENDBRANCH  51  65
BRANCH  52  76
ATOM     76  C   UNL     1       5.388  -8.375 -11.734  1.00  0.00     0.023 A 
ATOM     77  C   UNL     1       5.669  -9.737 -11.520  1.00  0.00     0.031 A 
ATOM     78  C   UNL     1       4.801  -7.670 -10.655  1.00  0.00     0.131 A 
ATOM     79  C   UNL     1       5.359 -10.339 -10.277  1.00  0.00     0.055 A 
ATOM     80  C   UNL     1       4.489  -8.271  -9.434  1.00  0.00     0.041 A 
ATOM     81  F   UNL     1       4.580  -6.347 -10.727  1.00  0.00    -0.206 F 
ATOM     82  C   UNL     1       4.774  -9.611  -9.237  1.00  0.00     0.022 A 
BRANCH  79  83
ATOM     83  S   UNL     1       5.805 -12.077  -9.966  1.00  0.00     0.124 S 
ATOM     84  O   UNL     1       4.884 -12.794 -10.839  1.00  0.00    -0.237 OA
ATOM     85  O   UNL     1       7.214 -12.110 -10.341  1.00  0.00    -0.237 OA
ATOM     86  O   UNL     1       5.551 -12.244  -8.534  1.00  0.00    -0.744 OA
ENDBRANCH  79  83
ENDBRANCH  52  76
BRANCH  64  87
ATOM     87  C   UNL     1       7.484  -7.009 -17.566  1.00  0.00     0.023 A 
ATOM     88  C   UNL     1       6.076  -6.919 -17.466  1.00  0.00     0.031 A 
ATOM     89  C   UNL     1       8.023  -7.366 -18.815  1.00  0.00     0.131 A 
ATOM     90  C   UNL     1       5.268  -7.183 -18.591  1.00  0.00     0.055 A 
ATOM     91  C   UNL     1       7.222  -7.607 -19.931  1.00  0.00     0.041 A 
ATOM     92  F   UNL     1       9.353  -7.437 -18.987  1.00  0.00    -0.206 F 
ATOM     93  C   UNL     1       5.840  -7.520 -19.822  1.00  0.00     0.022 A 
BRANCH  90  94
ATOM     94  S   UNL     1       3.450  -7.100 -18.476  1.00  0.00     0.124 S 
ATOM     95  O   UNL     1       3.147  -7.844 -17.259  1.00  0.00    -0.237 OA
ATOM     96  O   UNL     1       3.200  -5.662 -18.426  1.00  0.00    -0.237 OA
ATOM     97  O   UNL     1       3.002  -7.749 -19.711  1.00  0.00    -0.744 OA
ENDBRANCH  90  94
ENDBRANCH  64  87
ENDBRANCH  38  39
ENDBRANCH  30  33
ENDBRANCH  28  29
ENDBRANCH  27  28
ENDBRANCH   1  27
TORSDOF 19
