REMARK SMILES COc1cc([C@H]([NH3+])CC(=O)NCCCCNC(=O)c2ccc(-c3c4nc(c(-c5cc(S(=O)(=O)[O-])ccc5F)c5ccc([nH]5)c(-c5cc(S(=O)(=O)[O-])ccc5F)c5nc(c(-c6cc(S(=O)(=O)[O-])ccc6F)c6ccc3[nH]6)C=C5)C=C4)cc2)c([N+](=O)[O-])cc1OC
REMARK SMILES IDX 13 1 12 2 11 3 9 4 10 5 8 7 6 8 5 9 3 10 4 11 87 12 86 13
REMARK SMILES IDX 82 14 2 15 1 16 88 17 89 18 83 19 84 20 85 21 7 22 14 26
REMARK SMILES IDX 15 27 16 28 17 29 18 31 19 32 20 33 81 34 21 35 80 36 22 37
REMARK SMILES IDX 23 38 24 39 74 40 25 41 79 42 73 43 75 44 26 45 78 46 72 47
REMARK SMILES IDX 71 48 27 50 59 51 39 52 58 53 40 54 43 55 57 56 76 57 41 58
REMARK SMILES IDX 42 59 56 61 77 62 44 63 28 64 29 65 37 66 30 67 36 68 38 69
REMARK SMILES IDX 35 70 31 71 32 72 33 73 34 74 60 75 61 76 69 77 62 78 68 79
REMARK SMILES IDX 70 80 67 81 63 82 64 83 65 84 66 85 45 86 46 87 54 88 47 89
REMARK SMILES IDX 53 90 55 91 52 92 48 93 49 94 50 95 51 96
REMARK H PARENT 11 6 7 23 7 24 7 25 16 30 75 49 43 60
REMARK Flexibility Score: inf
ROOT
ATOM      1  C   UNL     1       1.529  -0.519   4.214  1.00  0.00     0.023 C 
ENDROOT
BRANCH   1   2
ATOM      2  C   UNL     1       0.018  -0.744   4.168  1.00  0.00     0.116 C 
BRANCH   2   3
ATOM      3  N   UNL     1      -0.551  -0.658   5.496  1.00  0.00    -0.356 N 
ATOM      4  C   UNL     1      -1.134   0.421   6.091  1.00  0.00     0.226 C 
ATOM      5  O   UNL     1      -1.387   0.377   7.295  1.00  0.00    -0.275 OA
ATOM      6  H   UNL     1      -0.513  -1.481   6.036  1.00  0.00     0.163 HD
BRANCH   4   7
ATOM      7  C   UNL     1      -1.524   1.623   5.258  1.00  0.00     0.170 C 
BRANCH   7   8
ATOM      8  C   UNL     1      -0.476   2.747   5.235  1.00  0.00     0.228 C 
BRANCH   8   9
ATOM      9  C   UNL     1      -1.156   4.025   4.743  1.00  0.00     0.091 A 
ATOM     10  C   UNL     1      -2.034   5.338   2.847  1.00  0.00     0.161 A 
ATOM     11  C   UNL     1      -1.300   4.255   3.354  1.00  0.00     0.067 A 
ATOM     12  C   UNL     1      -2.696   6.206   3.717  1.00  0.00     0.167 A 
ATOM     13  C   UNL     1      -2.556   6.007   5.094  1.00  0.00     0.136 A 
ATOM     14  C   UNL     1      -1.795   4.940   5.600  1.00  0.00     0.282 A 
BRANCH  10  15
ATOM     15  O   UNL     1      -2.176   5.427   1.489  1.00  0.00    -0.493 OA
ATOM     16  C   UNL     1      -0.985   5.898   0.855  1.00  0.00     0.278 C 
ENDBRANCH  10  15
BRANCH  12  17
ATOM     17  O   UNL     1      -3.511   7.261   3.417  1.00  0.00    -0.493 OA
ATOM     18  C   UNL     1      -3.707   7.605   2.054  1.00  0.00     0.278 C 
ENDBRANCH  12  17
BRANCH  14  19
ATOM     19  N   UNL     1      -1.738   4.819   7.056  1.00  0.00     0.063 N 
ATOM     20  O   UNL     1      -0.626   4.672   7.576  1.00  0.00    -0.258 OA
ATOM     21  O   UNL     1      -2.806   4.937   7.672  1.00  0.00    -0.258 OA
ENDBRANCH  14  19
ENDBRANCH   8   9
BRANCH   8  22
ATOM     22  N   UNL     1       0.696   2.441   4.410  1.00  0.00    -0.351 N 
ATOM     23  H   UNL     1       0.405   2.313   3.441  1.00  0.00     0.345 HD
ATOM     24  H   UNL     1       1.135   1.585   4.748  1.00  0.00     0.345 HD
ATOM     25  H   UNL     1       1.362   3.210   4.467  1.00  0.00     0.345 HD
ENDBRANCH   8  22
ENDBRANCH   7   8
ENDBRANCH   4   7
ENDBRANCH   2   3
ENDBRANCH   1   2
BRANCH   1  26
ATOM     26  C   UNL     1       2.347  -1.759   4.555  1.00  0.00     0.023 C 
BRANCH  26  27
ATOM     27  C   UNL     1       2.180  -2.919   3.587  1.00  0.00     0.116 C 
BRANCH  27  28
ATOM     28  N   UNL     1       2.421  -2.556   2.199  1.00  0.00    -0.352 N 
ATOM     29  C   UNL     1       3.014  -3.305   1.207  1.00  0.00     0.251 C 
ATOM     30  H   UNL     1       2.121  -1.657   1.933  1.00  0.00     0.163 HD
ATOM     31  O   UNL     1       3.241  -2.808   0.116  1.00  0.00    -0.269 OA
BRANCH  29  32
ATOM     32  C   UNL     1       3.412  -4.698   1.510  1.00  0.00     0.039 A 
ATOM     33  C   UNL     1       4.699  -5.115   1.171  1.00  0.00     0.014 A 
ATOM     34  C   UNL     1       2.542  -5.558   2.185  1.00  0.00     0.014 A 
ATOM     35  C   UNL     1       5.137  -6.377   1.575  1.00  0.00     0.010 A 
ATOM     36  C   UNL     1       3.012  -6.774   2.667  1.00  0.00     0.010 A 
ATOM     37  C   UNL     1       4.313  -7.198   2.364  1.00  0.00    -0.014 A 
BRANCH  37  38
ATOM     38  C   UNL     1       4.806  -8.501   2.878  1.00  0.00     0.031 A 
ATOM     39  C   UNL     1       4.137  -9.781   2.456  1.00  0.00     0.074 A 
ATOM     40  C   UNL     1       5.825  -8.521   3.761  1.00  0.00     0.049 A 
ATOM     41  N   UNL     1       4.415 -11.011   2.801  1.00  0.00    -0.248 NA
ATOM     42  C   UNL     1       2.981  -9.660   1.553  1.00  0.00     0.031 C 
ATOM     43  C   UNL     1       6.501  -7.336   4.298  1.00  0.00     0.029 A 
ATOM     44  N   UNL     1       6.470  -9.569   4.366  1.00  0.00    -0.354 N 
ATOM     45  C   UNL     1       3.466 -11.807   2.170  1.00  0.00     0.074 A 
ATOM     46  C   UNL     1       2.564 -10.915   1.476  1.00  0.00     0.031 C 
ATOM     47  C   UNL     1       7.488  -7.727   5.121  1.00  0.00     0.029 A 
ATOM     48  C   UNL     1       7.492  -9.183   5.204  1.00  0.00     0.049 A 
ATOM     49  H   UNL     1       6.226 -10.511   4.214  1.00  0.00     0.167 HD
ATOM     50  C   UNL     1       3.372 -13.159   2.150  1.00  0.00     0.034 A 
ATOM     51  C   UNL     1       8.334  -9.920   5.954  1.00  0.00     0.034 A 
ATOM     52  C   UNL     1       4.296 -14.033   2.832  1.00  0.00     0.049 A 
ATOM     53  C   UNL     1       8.220 -11.423   5.900  1.00  0.00     0.074 A 
ATOM     54  C   UNL     1       4.344 -15.415   2.818  1.00  0.00     0.029 A 
ATOM     55  N   UNL     1       5.329 -13.608   3.659  1.00  0.00    -0.354 N 
ATOM     56  N   UNL     1       7.368 -12.163   5.228  1.00  0.00    -0.248 NA
ATOM     57  C   UNL     1       9.191 -12.188   6.690  1.00  0.00     0.031 C 
ATOM     58  C   UNL     1       5.358 -15.827   3.688  1.00  0.00     0.029 A 
ATOM     59  C   UNL     1       5.997 -14.703   4.186  1.00  0.00     0.049 A 
ATOM     60  H   UNL     1       5.553 -12.668   3.843  1.00  0.00     0.167 HD
ATOM     61  C   UNL     1       7.719 -13.483   5.497  1.00  0.00     0.074 A 
ATOM     62  C   UNL     1       8.877 -13.433   6.367  1.00  0.00     0.031 C 
ATOM     63  C   UNL     1       7.139 -14.633   5.067  1.00  0.00     0.034 A 
BRANCH  50  64
ATOM     64  C   UNL     1       2.224 -13.770   1.382  1.00  0.00     0.023 A 
ATOM     65  C   UNL     1       2.092 -13.607  -0.009  1.00  0.00     0.031 A 
ATOM     66  C   UNL     1       1.239 -14.517   2.051  1.00  0.00     0.131 A 
ATOM     67  C   UNL     1       0.970 -14.125  -0.673  1.00  0.00     0.055 A 
ATOM     68  C   UNL     1       0.166 -15.098   1.373  1.00  0.00     0.041 A 
ATOM     69  F   UNL     1       1.298 -14.688   3.381  1.00  0.00    -0.206 F 
ATOM     70  C   UNL     1       0.019 -14.892   0.004  1.00  0.00     0.022 A 
BRANCH  67  71
ATOM     71  S   UNL     1       0.703 -13.673  -2.409  1.00  0.00     0.124 S 
ATOM     72  O   UNL     1       0.607 -12.217  -2.324  1.00  0.00    -0.237 OA
ATOM     73  O   UNL     1       1.898 -14.197  -3.059  1.00  0.00    -0.237 OA
ATOM     74  O   UNL     1      -0.544 -14.353  -2.753  1.00  0.00    -0.744 OA
ENDBRANCH  67  71
ENDBRANCH  50  64
BRANCH  51  75
ATOM     75  C   UNL     1       9.355  -9.262   6.821  1.00  0.00     0.023 A 
ATOM     76  C   UNL     1      10.728  -9.450   6.598  1.00  0.00     0.031 A 
ATOM     77  C   UNL     1       8.970  -8.475   7.921  1.00  0.00     0.131 A 
ATOM     78  C   UNL     1      11.665  -8.907   7.492  1.00  0.00     0.055 A 
ATOM     79  C   UNL     1       9.906  -7.888   8.774  1.00  0.00     0.041 A 
ATOM     80  F   UNL     1       7.670  -8.256   8.178  1.00  0.00    -0.206 F 
ATOM     81  C   UNL     1      11.264  -8.117   8.571  1.00  0.00     0.022 A 
BRANCH  78  82
ATOM     82  S   UNL     1      13.416  -9.332   7.280  1.00  0.00     0.124 S 
ATOM     83  O   UNL     1      13.376 -10.789   7.322  1.00  0.00    -0.237 OA
ATOM     84  O   UNL     1      13.716  -8.736   5.983  1.00  0.00    -0.237 OA
ATOM     85  O   UNL     1      14.062  -8.691   8.424  1.00  0.00    -0.744 OA
ENDBRANCH  78  82
ENDBRANCH  51  75
BRANCH  63  86
ATOM     86  C   UNL     1       7.778 -15.925   5.516  1.00  0.00     0.023 A 
ATOM     87  C   UNL     1       7.798 -16.306   6.869  1.00  0.00     0.031 A 
ATOM     88  C   UNL     1       8.400 -16.772   4.581  1.00  0.00     0.131 A 
ATOM     89  C   UNL     1       8.489 -17.462   7.259  1.00  0.00     0.055 A 
ATOM     90  C   UNL     1       9.025 -17.958   4.967  1.00  0.00     0.041 A 
ATOM     91  F   UNL     1       8.412 -16.458   3.276  1.00  0.00    -0.206 F 
ATOM     92  C   UNL     1       9.088 -18.300   6.315  1.00  0.00     0.022 A 
BRANCH  89  93
ATOM     93  S   UNL     1       8.695 -17.795   9.030  1.00  0.00     0.124 S 
ATOM     94  O   UNL     1       9.357 -16.579   9.492  1.00  0.00    -0.237 OA
ATOM     95  O   UNL     1       7.317 -17.978   9.475  1.00  0.00    -0.237 OA
ATOM     96  O   UNL     1       9.521 -19.000   9.059  1.00  0.00    -0.744 OA
ENDBRANCH  89  93
ENDBRANCH  63  86
ENDBRANCH  37  38
ENDBRANCH  29  32
ENDBRANCH  27  28
ENDBRANCH  26  27
ENDBRANCH   1  26
TORSDOF 20
