REMARK SMILES CC(C)[C@@H](C)[N@@H+]1[C@@H](C(=O)NCCCCNC(=O)c2ccc(-c3c4nc(c(-c5cc(S(=O)(=O)[O-])ccc5F)c5ccc([nH]5)c(-c5cc(S(=O)(=O)[O-])ccc5F)c5nc(c(-c6cc(S(=O)(=O)[O-])ccc6F)c6ccc3[nH]6)C=C5)C=C4)cc2)C[C@H]2CCCC[C@H]21
REMARK SMILES IDX 13 1 12 2 11 3 10 4 8 5 9 6 7 8 6 9 87 10 81 12 82 13 86 14
REMARK SMILES IDX 83 15 85 16 84 17 4 18 5 19 2 20 1 21 3 22 14 23 15 24 16 25
REMARK SMILES IDX 17 27 18 28 19 29 80 30 20 31 79 32 21 33 22 34 23 35 73 36
REMARK SMILES IDX 24 37 78 38 72 39 74 40 25 41 77 42 71 43 70 44 26 46 58 47
REMARK SMILES IDX 38 48 57 49 39 50 42 51 56 52 75 53 40 54 41 55 55 57 76 58
REMARK SMILES IDX 43 59 27 60 28 61 36 62 29 63 35 64 37 65 34 66 30 67 31 68
REMARK SMILES IDX 32 69 33 70 59 71 60 72 68 73 61 74 67 75 69 76 66 77 62 78
REMARK SMILES IDX 63 79 64 80 65 81 44 82 45 83 53 84 46 85 52 86 54 87 51 88
REMARK SMILES IDX 47 89 48 90 49 91 50 92
REMARK H PARENT 10 7 6 11 15 26 74 45 42 56
REMARK Flexibility Score: inf
ROOT
ATOM      1  C   UNL     1      -5.725   2.607  -4.250  1.00  0.00     0.023 C 
ENDROOT
BRANCH   1   2
ATOM      2  C   UNL     1      -4.777   2.786  -3.071  1.00  0.00     0.023 C 
BRANCH   2   3
ATOM      3  C   UNL     1      -3.520   1.920  -3.111  1.00  0.00     0.116 C 
BRANCH   3   4
ATOM      4  N   UNL     1      -2.549   2.392  -4.082  1.00  0.00    -0.351 N 
ATOM      5  C   UNL     1      -1.297   2.912  -3.984  1.00  0.00     0.278 C 
ATOM      6  O   UNL     1      -0.754   3.190  -5.064  1.00  0.00    -0.268 OA
ATOM      7  H   UNL     1      -2.865   2.319  -5.011  1.00  0.00     0.163 HD
BRANCH   5   8
ATOM      8  C   UNL     1      -0.523   3.208  -2.685  1.00  0.00     0.275 C 
ATOM      9  N   UNL     1      -1.151   2.776  -1.426  1.00  0.00    -0.320 N 
ATOM     10  C   UNL     1      -1.329   3.944  -0.554  1.00  0.00     0.188 C 
ATOM     11  H   UNL     1      -2.094   2.442  -1.624  1.00  0.00     0.349 HD
ATOM     12  C   UNL     1      -0.275   4.717  -2.536  1.00  0.00     0.085 C 
ATOM     13  C   UNL     1      -0.256   4.919  -1.026  1.00  0.00     0.054 C 
ATOM     14  C   UNL     1      -2.746   4.511  -0.779  1.00  0.00     0.065 C 
ATOM     15  C   UNL     1      -0.474   6.355  -0.554  1.00  0.00     0.010 C 
ATOM     16  C   UNL     1      -2.934   5.921  -0.234  1.00  0.00     0.006 C 
ATOM     17  C   UNL     1      -1.887   6.874  -0.800  1.00  0.00     0.001 C 
BRANCH   9  18
ATOM     18  C   UNL     1      -0.809   1.448  -0.871  1.00  0.00     0.184 C 
ATOM     19  C   UNL     1      -1.572   1.192   0.443  1.00  0.00     0.075 C 
BRANCH  18  20
ATOM     20  C   UNL     1       0.715   1.079  -0.800  1.00  0.00     0.041 C 
ATOM     21  C   UNL     1       1.099   0.165   0.374  1.00  0.00     0.013 C 
ATOM     22  C   UNL     1       1.184   0.349  -2.078  1.00  0.00     0.013 C 
ENDBRANCH  18  20
ENDBRANCH   9  18
ENDBRANCH   5   8
ENDBRANCH   3   4
ENDBRANCH   2   3
ENDBRANCH   1   2
BRANCH   1  23
ATOM     23  C   UNL     1      -6.222   1.186  -4.475  1.00  0.00     0.116 C 
BRANCH  23  24
ATOM     24  N   UNL     1      -6.858   0.602  -3.306  1.00  0.00    -0.352 N 
ATOM     25  C   UNL     1      -8.043  -0.106  -3.227  1.00  0.00     0.251 C 
ATOM     26  H   UNL     1      -6.380   0.727  -2.454  1.00  0.00     0.163 HD
ATOM     27  O   UNL     1      -8.491  -0.439  -2.144  1.00  0.00    -0.269 OA
BRANCH  25  28
ATOM     28  C   UNL     1      -8.773  -0.408  -4.479  1.00  0.00     0.039 A 
ATOM     29  C   UNL     1     -10.131  -0.097  -4.559  1.00  0.00     0.014 A 
ATOM     30  C   UNL     1      -8.097  -0.927  -5.584  1.00  0.00     0.014 A 
ATOM     31  C   UNL     1     -10.794  -0.228  -5.782  1.00  0.00     0.010 A 
ATOM     32  C   UNL     1      -8.735  -0.974  -6.819  1.00  0.00     0.010 A 
ATOM     33  C   UNL     1     -10.089  -0.622  -6.931  1.00  0.00    -0.014 A 
BRANCH  33  34
ATOM     34  C   UNL     1     -10.744  -0.682  -8.263  1.00  0.00     0.031 A 
ATOM     35  C   UNL     1     -10.839  -1.998  -8.986  1.00  0.00     0.074 A 
ATOM     36  C   UNL     1     -11.172   0.452  -8.853  1.00  0.00     0.049 A 
ATOM     37  N   UNL     1     -11.265  -2.250 -10.197  1.00  0.00    -0.248 NA
ATOM     38  C   UNL     1     -10.350  -3.180  -8.262  1.00  0.00     0.031 C 
ATOM     39  C   UNL     1     -11.084   1.794  -8.273  1.00  0.00     0.029 A 
ATOM     40  N   UNL     1     -11.754   0.660 -10.078  1.00  0.00    -0.354 N 
ATOM     41  C   UNL     1     -11.074  -3.615 -10.387  1.00  0.00     0.074 A 
ATOM     42  C   UNL     1     -10.432  -4.119  -9.192  1.00  0.00     0.031 C 
ATOM     43  C   UNL     1     -11.614   2.680  -9.132  1.00  0.00     0.029 A 
ATOM     44  C   UNL     1     -12.041   1.980 -10.339  1.00  0.00     0.049 A 
ATOM     45  H   UNL     1     -11.949  -0.068 -10.712  1.00  0.00     0.167 HD
ATOM     46  C   UNL     1     -11.423  -4.381 -11.450  1.00  0.00     0.034 A 
ATOM     47  C   UNL     1     -12.577   2.560 -11.431  1.00  0.00     0.034 A 
ATOM     48  C   UNL     1     -12.085  -3.864 -12.623  1.00  0.00     0.049 A 
ATOM     49  C   UNL     1     -12.965   1.689 -12.598  1.00  0.00     0.074 A 
ATOM     50  C   UNL     1     -12.541  -4.555 -13.732  1.00  0.00     0.029 A 
ATOM     51  N   UNL     1     -12.386  -2.525 -12.839  1.00  0.00    -0.354 N 
ATOM     52  N   UNL     1     -12.822   0.392 -12.744  1.00  0.00    -0.248 NA
ATOM     53  C   UNL     1     -13.597   2.358 -13.742  1.00  0.00     0.031 C 
ATOM     54  C   UNL     1     -13.067  -3.629 -14.641  1.00  0.00     0.029 A 
ATOM     55  C   UNL     1     -13.001  -2.367 -14.071  1.00  0.00     0.049 A 
ATOM     56  H   UNL     1     -12.191  -1.794 -12.209  1.00  0.00     0.167 HD
ATOM     57  C   UNL     1     -13.375   0.087 -13.985  1.00  0.00     0.074 A 
ATOM     58  C   UNL     1     -13.864   1.334 -14.538  1.00  0.00     0.031 C 
ATOM     59  C   UNL     1     -13.475  -1.114 -14.609  1.00  0.00     0.034 A 
BRANCH  46  60
ATOM     60  C   UNL     1     -11.074  -5.848 -11.389  1.00  0.00     0.023 A 
ATOM     61  C   UNL     1     -11.613  -6.694 -10.403  1.00  0.00     0.031 A 
ATOM     62  C   UNL     1     -10.155  -6.402 -12.297  1.00  0.00     0.131 A 
ATOM     63  C   UNL     1     -11.164  -8.018 -10.292  1.00  0.00     0.055 A 
ATOM     64  C   UNL     1      -9.778  -7.746 -12.236  1.00  0.00     0.041 A 
ATOM     65  F   UNL     1      -9.591  -5.642 -13.249  1.00  0.00    -0.206 F 
ATOM     66  C   UNL     1     -10.270  -8.558 -11.218  1.00  0.00     0.022 A 
BRANCH  63  67
ATOM     67  S   UNL     1     -11.650  -8.975  -8.830  1.00  0.00     0.124 S 
ATOM     68  O   UNL     1     -11.100  -8.160  -7.749  1.00  0.00    -0.237 OA
ATOM     69  O   UNL     1     -13.104  -8.999  -8.937  1.00  0.00    -0.237 OA
ATOM     70  O   UNL     1     -10.988 -10.263  -9.028  1.00  0.00    -0.744 OA
ENDBRANCH  63  67
ENDBRANCH  46  60
BRANCH  47  71
ATOM     71  C   UNL     1     -12.779   4.036 -11.482  1.00  0.00     0.023 A 
ATOM     72  C   UNL     1     -14.070   4.585 -11.526  1.00  0.00     0.031 A 
ATOM     73  C   UNL     1     -11.685   4.917 -11.525  1.00  0.00     0.131 A 
ATOM     74  C   UNL     1     -14.236   5.973 -11.656  1.00  0.00     0.055 A 
ATOM     75  C   UNL     1     -11.855   6.300 -11.606  1.00  0.00     0.041 A 
ATOM     76  F   UNL     1     -10.430   4.443 -11.476  1.00  0.00    -0.206 F 
ATOM     77  C   UNL     1     -13.138   6.835 -11.686  1.00  0.00     0.022 A 
BRANCH  74  78
ATOM     78  S   UNL     1     -15.914   6.631 -11.863  1.00  0.00     0.124 S 
ATOM     79  O   UNL     1     -16.363   5.931 -13.062  1.00  0.00    -0.237 OA
ATOM     80  O   UNL     1     -16.551   6.235 -10.612  1.00  0.00    -0.237 OA
ATOM     81  O   UNL     1     -15.698   8.068 -12.023  1.00  0.00    -0.744 OA
ENDBRANCH  74  78
ENDBRANCH  47  71
BRANCH  59  82
ATOM     82  C   UNL     1     -14.183  -1.134 -15.940  1.00  0.00     0.023 A 
ATOM     83  C   UNL     1     -13.630  -0.528 -17.081  1.00  0.00     0.031 A 
ATOM     84  C   UNL     1     -15.436  -1.760 -16.062  1.00  0.00     0.131 A 
ATOM     85  C   UNL     1     -14.352  -0.517 -18.284  1.00  0.00     0.055 A 
ATOM     86  C   UNL     1     -16.125  -1.794 -17.274  1.00  0.00     0.041 A 
ATOM     87  F   UNL     1     -16.009  -2.353 -15.002  1.00  0.00    -0.206 F 
ATOM     88  C   UNL     1     -15.589  -1.159 -18.391  1.00  0.00     0.022 A 
BRANCH  85  89
ATOM     89  S   UNL     1     -13.691   0.420 -19.689  1.00  0.00     0.124 S 
ATOM     90  O   UNL     1     -13.602   1.769 -19.139  1.00  0.00    -0.237 OA
ATOM     91  O   UNL     1     -12.420  -0.250 -19.942  1.00  0.00    -0.237 OA
ATOM     92  O   UNL     1     -14.703   0.240 -20.728  1.00  0.00    -0.744 OA
ENDBRANCH  85  89
ENDBRANCH  59  82
ENDBRANCH  33  34
ENDBRANCH  25  28
ENDBRANCH  23  24
ENDBRANCH   1  23
TORSDOF 16
