REMARK SMILES Cc1ccc(F)cc1NC(=O)c1nn(C)cc1C(=O)NCCCCNC(=O)c1ccc(-c2c3nc(c(-c4cc(S(=O)(=O)[O-])ccc4F)c4ccc([nH]4)c(-c4cc(S(=O)(=O)[O-])ccc4F)c4nc(c(-c5cc(S(=O)(=O)[O-])ccc5F)c5ccc2[nH]5)C=C4)C=C3)cc1
REMARK SMILES IDX 23 1 22 2 21 3 20 4 18 5 19 6 17 8 12 9 13 10 14 11 16 12
REMARK SMILES IDX 15 13 10 14 9 15 11 17 8 18 1 19 2 20 3 21 4 22 7 23 5 24
REMARK SMILES IDX 6 25 24 26 25 27 26 28 27 30 28 31 29 32 90 33 30 34 89 35
REMARK SMILES IDX 31 36 32 37 33 38 83 39 34 40 88 41 82 42 84 43 35 44 87 45
REMARK SMILES IDX 81 46 80 47 36 49 68 50 48 51 67 52 49 53 52 54 66 55 85 56
REMARK SMILES IDX 50 57 51 58 65 60 86 61 53 62 37 63 38 64 46 65 39 66 45 67
REMARK SMILES IDX 47 68 44 69 40 70 41 71 42 72 43 73 69 74 70 75 78 76 71 77
REMARK SMILES IDX 77 78 79 79 76 80 72 81 73 82 74 83 75 84 54 85 55 86 63 87
REMARK SMILES IDX 56 88 62 89 64 90 61 91 57 92 58 93 59 94 60 95
REMARK H PARENT 20 7 9 16 25 29 84 48 52 59
REMARK Flexibility Score: inf
ROOT
ATOM      1  C   UNL     1      -3.732   1.155  -2.880  1.00  0.00     0.023 C 
ENDROOT
BRANCH   1   2
ATOM      2  C   UNL     1      -3.951   0.019  -1.887  1.00  0.00     0.023 C 
BRANCH   2   3
ATOM      3  C   UNL     1      -3.611  -1.383  -2.383  1.00  0.00     0.116 C 
BRANCH   3   4
ATOM      4  N   UNL     1      -2.199  -1.597  -2.651  1.00  0.00    -0.352 N 
ATOM      5  C   UNL     1      -1.270  -2.448  -2.100  1.00  0.00     0.255 C 
ATOM      6  O   UNL     1      -0.123  -2.410  -2.556  1.00  0.00    -0.269 OA
ATOM      7  H   UNL     1      -1.837  -1.023  -3.365  1.00  0.00     0.163 HD
BRANCH   5   8
ATOM      8  C   UNL     1      -1.601  -3.321  -0.987  1.00  0.00     0.090 A 
ATOM      9  C   UNL     1      -0.702  -3.801   0.029  1.00  0.00     0.163 A 
ATOM     10  N   UNL     1      -1.359  -4.533   0.954  1.00  0.00    -0.167 NA
ATOM     11  N   UNL     1      -2.623  -4.551   0.524  1.00  0.00    -0.274 N 
ATOM     12  C   UNL     1      -2.796  -3.947  -0.681  1.00  0.00     0.123 A 
ATOM     13  C   UNL     1      -3.649  -5.137   1.351  1.00  0.00     0.173 C 
BRANCH   9  14
ATOM     14  C   UNL     1       0.748  -3.607   0.152  1.00  0.00     0.277 C 
ATOM     15  N   UNL     1       1.313  -2.351   0.245  1.00  0.00    -0.320 N 
ATOM     16  H   UNL     1       2.296  -2.364   0.201  1.00  0.00     0.170 HD
ATOM     17  O   UNL     1       1.522  -4.569   0.163  1.00  0.00    -0.267 OA
BRANCH  15  18
ATOM     18  C   UNL     1       0.781  -1.057   0.388  1.00  0.00     0.047 A 
ATOM     19  C   UNL     1       3.060  -0.001  -0.246  1.00  0.00     0.046 C 
ATOM     20  C   UNL     1       1.590   0.063   0.087  1.00  0.00    -0.027 A 
ATOM     21  C   UNL     1       1.019   1.353   0.105  1.00  0.00     0.008 A 
ATOM     22  C   UNL     1      -0.313   1.542   0.459  1.00  0.00     0.039 A 
ATOM     23  C   UNL     1      -0.527  -0.835   0.831  1.00  0.00     0.065 A 
ATOM     24  C   UNL     1      -1.063   0.448   0.848  1.00  0.00     0.125 A 
ATOM     25  F   UNL     1      -2.330   0.623   1.246  1.00  0.00    -0.207 F 
ENDBRANCH  15  18
ENDBRANCH   9  14
ENDBRANCH   5   8
ENDBRANCH   3   4
ENDBRANCH   2   3
ENDBRANCH   1   2
BRANCH   1  26
ATOM     26  C   UNL     1      -4.377   0.969  -4.248  1.00  0.00     0.116 C 
BRANCH  26  27
ATOM     27  N   UNL     1      -5.818   0.758  -4.196  1.00  0.00    -0.352 N 
ATOM     28  C   UNL     1      -6.793   1.315  -4.995  1.00  0.00     0.251 C 
ATOM     29  H   UNL     1      -6.136   0.138  -3.500  1.00  0.00     0.163 HD
ATOM     30  O   UNL     1      -7.979   1.096  -4.771  1.00  0.00    -0.269 OA
BRANCH  28  31
ATOM     31  C   UNL     1      -6.385   2.215  -6.094  1.00  0.00     0.039 A 
ATOM     32  C   UNL     1      -6.931   3.499  -6.163  1.00  0.00     0.014 A 
ATOM     33  C   UNL     1      -5.396   1.815  -6.995  1.00  0.00     0.014 A 
ATOM     34  C   UNL     1      -6.414   4.419  -7.081  1.00  0.00     0.010 A 
ATOM     35  C   UNL     1      -4.834   2.753  -7.853  1.00  0.00     0.010 A 
ATOM     36  C   UNL     1      -5.328   4.069  -7.898  1.00  0.00    -0.014 A 
BRANCH  36  37
ATOM     37  C   UNL     1      -4.680   5.039  -8.822  1.00  0.00     0.031 A 
ATOM     38  C   UNL     1      -4.675   4.749 -10.299  1.00  0.00     0.074 A 
ATOM     39  C   UNL     1      -4.002   6.098  -8.333  1.00  0.00     0.049 A 
ATOM     40  N   UNL     1      -3.992   5.323 -11.254  1.00  0.00    -0.248 NA
ATOM     41  C   UNL     1      -5.522   3.634 -10.752  1.00  0.00     0.031 C 
ATOM     42  C   UNL     1      -3.915   6.472  -6.920  1.00  0.00     0.029 A 
ATOM     43  N   UNL     1      -3.229   7.040  -8.969  1.00  0.00    -0.354 N 
ATOM     44  C   UNL     1      -4.291   4.613 -12.412  1.00  0.00     0.074 A 
ATOM     45  C   UNL     1      -5.192   3.546 -12.032  1.00  0.00     0.031 C 
ATOM     46  C   UNL     1      -3.137   7.560  -6.798  1.00  0.00     0.029 A 
ATOM     47  C   UNL     1      -2.619   7.930  -8.111  1.00  0.00     0.049 A 
ATOM     48  H   UNL     1      -3.121   7.076  -9.947  1.00  0.00     0.167 HD
ATOM     49  C   UNL     1      -3.860   4.839 -13.676  1.00  0.00     0.034 A 
ATOM     50  C   UNL     1      -1.721   8.908  -8.353  1.00  0.00     0.034 A 
ATOM     51  C   UNL     1      -3.004   5.936 -14.044  1.00  0.00     0.049 A 
ATOM     52  C   UNL     1      -1.260   9.139  -9.774  1.00  0.00     0.074 A 
ATOM     53  C   UNL     1      -2.575   6.304 -15.307  1.00  0.00     0.029 A 
ATOM     54  N   UNL     1      -2.446   6.843 -13.153  1.00  0.00    -0.354 N 
ATOM     55  N   UNL     1      -1.590   8.485 -10.865  1.00  0.00    -0.248 NA
ATOM     56  C   UNL     1      -0.312  10.239 -10.002  1.00  0.00     0.031 C 
ATOM     57  C   UNL     1      -1.708   7.393 -15.175  1.00  0.00     0.029 A 
ATOM     58  C   UNL     1      -1.658   7.753 -13.838  1.00  0.00     0.049 A 
ATOM     59  H   UNL     1      -2.590   6.840 -12.180  1.00  0.00     0.167 HD
ATOM     60  C   UNL     1      -0.930   9.130 -11.908  1.00  0.00     0.074 A 
ATOM     61  C   UNL     1      -0.183  10.220 -11.320  1.00  0.00     0.031 C 
ATOM     62  C   UNL     1      -0.944   8.851 -13.235  1.00  0.00     0.034 A 
BRANCH  49  63
ATOM     63  C   UNL     1      -4.284   3.870 -14.750  1.00  0.00     0.023 A 
ATOM     64  C   UNL     1      -5.626   3.736 -15.143  1.00  0.00     0.031 A 
ATOM     65  C   UNL     1      -3.322   3.077 -15.401  1.00  0.00     0.131 A 
ATOM     66  C   UNL     1      -5.976   2.793 -16.120  1.00  0.00     0.055 A 
ATOM     67  C   UNL     1      -3.667   2.194 -16.425  1.00  0.00     0.041 A 
ATOM     68  F   UNL     1      -2.028   3.148 -15.051  1.00  0.00    -0.206 F 
ATOM     69  C   UNL     1      -5.003   2.040 -16.783  1.00  0.00     0.022 A 
BRANCH  66  70
ATOM     70  S   UNL     1      -7.734   2.489 -16.440  1.00  0.00     0.124 S 
ATOM     71  O   UNL     1      -8.187   1.991 -15.143  1.00  0.00    -0.237 OA
ATOM     72  O   UNL     1      -8.220   3.809 -16.822  1.00  0.00    -0.237 OA
ATOM     73  O   UNL     1      -7.721   1.495 -17.512  1.00  0.00    -0.744 OA
ENDBRANCH  66  70
ENDBRANCH  49  63
BRANCH  50  74
ATOM     74  C   UNL     1      -1.161   9.732  -7.239  1.00  0.00     0.023 A 
ATOM     75  C   UNL     1      -1.350  11.123  -7.206  1.00  0.00     0.031 A 
ATOM     76  C   UNL     1      -0.354   9.156  -6.241  1.00  0.00     0.131 A 
ATOM     77  C   UNL     1      -0.683  11.900  -6.245  1.00  0.00     0.055 A 
ATOM     78  C   UNL     1       0.254   9.926  -5.246  1.00  0.00     0.041 A 
ATOM     79  F   UNL     1      -0.139   7.831  -6.220  1.00  0.00    -0.206 F 
ATOM     80  C   UNL     1       0.107  11.309  -5.257  1.00  0.00     0.022 A 
BRANCH  77  81
ATOM     81  S   UNL     1      -0.754  13.707  -6.391  1.00  0.00     0.124 S 
ATOM     82  O   UNL     1      -0.291  13.911  -7.759  1.00  0.00    -0.237 OA
ATOM     83  O   UNL     1      -2.167  13.973  -6.144  1.00  0.00    -0.237 OA
ATOM     84  O   UNL     1       0.158  14.168  -5.347  1.00  0.00    -0.744 OA
ENDBRANCH  77  81
ENDBRANCH  50  74
BRANCH  62  85
ATOM     85  C   UNL     1      -0.206   9.791 -14.153  1.00  0.00     0.023 A 
ATOM     86  C   UNL     1       1.196   9.862 -14.180  1.00  0.00     0.031 A 
ATOM     87  C   UNL     1      -0.931  10.604 -15.044  1.00  0.00     0.131 A 
ATOM     88  C   UNL     1       1.831  10.754 -15.059  1.00  0.00     0.055 A 
ATOM     89  C   UNL     1      -0.294  11.450 -15.951  1.00  0.00     0.041 A 
ATOM     90  F   UNL     1      -2.273  10.573 -15.058  1.00  0.00    -0.206 F 
ATOM     91  C   UNL     1       1.095  11.534 -15.956  1.00  0.00     0.022 A 
BRANCH  88  92
ATOM     92  S   UNL     1       3.635  10.920 -14.982  1.00  0.00     0.124 S 
ATOM     93  O   UNL     1       3.838  11.399 -13.619  1.00  0.00    -0.237 OA
ATOM     94  O   UNL     1       4.087   9.560 -15.254  1.00  0.00    -0.237 OA
ATOM     95  O   UNL     1       3.935  11.892 -16.033  1.00  0.00    -0.744 OA
ENDBRANCH  88  92
ENDBRANCH  62  85
ENDBRANCH  36  37
ENDBRANCH  28  31
ENDBRANCH  26  27
ENDBRANCH   1  26
TORSDOF 16
