REMARK SMILES Cc1cc(NCc2ccc(C(=O)NCCCCNC(=O)c3ccc(-c4c5nc(c(-c6cc(S(=O)(=O)[O-])ccc6F)c6ccc([nH]6)c(-c6cc(S(=O)(=O)[O-])ccc6F)c6nc(c(-c7cc(S(=O)(=O)[O-])ccc7F)c7ccc4[nH]7)C=C6)C=C5)cc3)o2)ccc1F
REMARK SMILES IDX 15 1 14 2 13 3 11 4 12 5 10 7 7 8 8 9 84 10 9 11 6 12 5 13
REMARK SMILES IDX 4 15 1 16 2 17 3 18 87 19 86 20 88 21 85 22 16 23 17 24
REMARK SMILES IDX 18 25 19 26 20 28 21 29 22 30 83 31 23 32 82 33 24 34 25 35
REMARK SMILES IDX 26 36 76 37 27 38 81 39 75 40 77 41 28 42 80 43 74 44 73 45
REMARK SMILES IDX 29 47 61 48 41 49 60 50 42 51 45 52 59 53 78 54 43 55 44 56
REMARK SMILES IDX 58 58 79 59 46 60 30 61 31 62 39 63 32 64 38 65 40 66 37 67
REMARK SMILES IDX 33 68 34 69 35 70 36 71 62 72 63 73 71 74 64 75 70 76 72 77
REMARK SMILES IDX 69 78 65 79 66 80 67 81 68 82 47 83 48 84 56 85 49 86 55 87
REMARK SMILES IDX 57 88 54 89 50 90 51 91 52 92 53 93
REMARK H PARENT 13 6 5 14 18 27 77 46 45 57
REMARK Flexibility Score: inf
ROOT
ATOM      1  C   UNL     1      -7.273   0.456   6.122  1.00  0.00     0.023 C 
ENDROOT
BRANCH   1   2
ATOM      2  C   UNL     1      -8.210   0.951   5.017  1.00  0.00     0.116 C 
BRANCH   2   3
ATOM      3  N   UNL     1      -7.679   2.134   4.378  1.00  0.00    -0.349 N 
ATOM      4  C   UNL     1      -6.818   2.272   3.318  1.00  0.00     0.286 C 
ATOM      5  O   UNL     1      -6.526   3.436   3.014  1.00  0.00    -0.266 OA
ATOM      6  H   UNL     1      -7.987   2.984   4.770  1.00  0.00     0.163 HD
BRANCH   4   7
ATOM      7  C   UNL     1      -6.298   1.125   2.592  1.00  0.00     0.191 A 
ATOM      8  C   UNL     1      -5.237   0.237   0.856  1.00  0.00     0.124 A 
ATOM      9  C   UNL     1      -5.612  -0.818   1.651  1.00  0.00     0.048 A 
ATOM     10  O   UNL     1      -5.648   1.407   1.413  1.00  0.00    -0.454 OA
ATOM     11  C   UNL     1      -6.267  -0.249   2.773  1.00  0.00     0.056 A 
BRANCH   8  12
ATOM     12  C   UNL     1      -4.502   0.353  -0.429  1.00  0.00     0.188 C 
BRANCH  12  13
ATOM     13  N   UNL     1      -3.238   1.062  -0.320  1.00  0.00    -0.378 N 
ATOM     14  H   UNL     1      -3.272   2.043  -0.395  1.00  0.00     0.161 HD
BRANCH  13  15
ATOM     15  C   UNL     1      -1.996   0.496  -0.121  1.00  0.00     0.035 A 
ATOM     16  C   UNL     1       1.607   1.780   0.030  1.00  0.00     0.047 C 
ATOM     17  C   UNL     1       0.430   0.856   0.013  1.00  0.00    -0.013 A 
ATOM     18  C   UNL     1      -0.879   1.349  -0.082  1.00  0.00     0.032 A 
ATOM     19  C   UNL     1       0.617  -0.523   0.062  1.00  0.00     0.126 A 
ATOM     20  C   UNL     1      -0.465  -1.392   0.027  1.00  0.00     0.041 A 
ATOM     21  F   UNL     1       1.857  -1.028   0.132  1.00  0.00    -0.207 F 
ATOM     22  C   UNL     1      -1.763  -0.882  -0.072  1.00  0.00     0.029 A 
ENDBRANCH  13  15
ENDBRANCH  12  13
ENDBRANCH   8  12
ENDBRANCH   4   7
ENDBRANCH   2   3
ENDBRANCH   1   2
BRANCH   1  23
ATOM     23  C   UNL     1      -7.302   1.295   7.410  1.00  0.00     0.023 C 
BRANCH  23  24
ATOM     24  C   UNL     1      -8.644   1.263   8.123  1.00  0.00     0.116 C 
BRANCH  24  25
ATOM     25  N   UNL     1      -9.022  -0.103   8.480  1.00  0.00    -0.352 N 
ATOM     26  C   UNL     1     -10.156  -0.531   9.130  1.00  0.00     0.251 C 
ATOM     27  H   UNL     1      -8.384  -0.807   8.222  1.00  0.00     0.163 HD
ATOM     28  O   UNL     1     -10.141  -1.634   9.690  1.00  0.00    -0.269 OA
BRANCH  26  29
ATOM     29  C   UNL     1     -11.354   0.315   9.087  1.00  0.00     0.039 A 
ATOM     30  C   UNL     1     -12.257   0.436  10.149  1.00  0.00     0.014 A 
ATOM     31  C   UNL     1     -11.582   0.976   7.886  1.00  0.00     0.014 A 
ATOM     32  C   UNL     1     -13.394   1.231   9.991  1.00  0.00     0.010 A 
ATOM     33  C   UNL     1     -12.563   1.913   7.807  1.00  0.00     0.010 A 
ATOM     34  C   UNL     1     -13.534   1.953   8.808  1.00  0.00    -0.014 A 
BRANCH  34  35
ATOM     35  C   UNL     1     -14.720   2.675   8.387  1.00  0.00     0.031 A 
ATOM     36  C   UNL     1     -15.139   3.902   9.063  1.00  0.00     0.074 A 
ATOM     37  C   UNL     1     -15.228   2.263   7.202  1.00  0.00     0.049 A 
ATOM     38  N   UNL     1     -16.356   4.313   9.090  1.00  0.00    -0.248 NA
ATOM     39  C   UNL     1     -14.214   4.768   9.790  1.00  0.00     0.031 C 
ATOM     40  C   UNL     1     -16.050   2.974   6.244  1.00  0.00     0.029 A 
ATOM     41  N   UNL     1     -15.081   0.987   6.636  1.00  0.00    -0.354 N 
ATOM     42  C   UNL     1     -16.314   5.627   9.504  1.00  0.00     0.074 A 
ATOM     43  C   UNL     1     -15.006   5.806  10.090  1.00  0.00     0.031 C 
ATOM     44  C   UNL     1     -16.550   2.086   5.363  1.00  0.00     0.029 A 
ATOM     45  C   UNL     1     -16.194   0.752   5.832  1.00  0.00     0.049 A 
ATOM     46  H   UNL     1     -14.328   0.370   6.781  1.00  0.00     0.167 HD
ATOM     47  C   UNL     1     -17.289   6.481   9.080  1.00  0.00     0.034 A 
ATOM     48  C   UNL     1     -17.059  -0.274   6.085  1.00  0.00     0.034 A 
ATOM     49  C   UNL     1     -18.188   5.784   8.156  1.00  0.00     0.049 A 
ATOM     50  C   UNL     1     -18.411   0.273   6.471  1.00  0.00     0.074 A 
ATOM     51  C   UNL     1     -18.197   5.727   6.772  1.00  0.00     0.029 A 
ATOM     52  N   UNL     1     -18.989   4.740   8.601  1.00  0.00    -0.354 N 
ATOM     53  N   UNL     1     -18.589   1.478   6.935  1.00  0.00    -0.248 NA
ATOM     54  C   UNL     1     -19.658  -0.472   6.359  1.00  0.00     0.031 C 
ATOM     55  C   UNL     1     -18.986   4.620   6.382  1.00  0.00     0.029 A 
ATOM     56  C   UNL     1     -19.464   4.003   7.527  1.00  0.00     0.049 A 
ATOM     57  H   UNL     1     -19.191   4.550   9.545  1.00  0.00     0.167 HD
ATOM     58  C   UNL     1     -19.914   1.684   7.197  1.00  0.00     0.074 A 
ATOM     59  C   UNL     1     -20.544   0.437   6.804  1.00  0.00     0.031 C 
ATOM     60  C   UNL     1     -20.360   2.865   7.721  1.00  0.00     0.034 A 
BRANCH  47  61
ATOM     61  C   UNL     1     -17.234   7.994   9.194  1.00  0.00     0.023 A 
ATOM     62  C   UNL     1     -16.481   8.698  10.161  1.00  0.00     0.031 A 
ATOM     63  C   UNL     1     -17.962   8.804   8.289  1.00  0.00     0.131 A 
ATOM     64  C   UNL     1     -16.406  10.108  10.146  1.00  0.00     0.055 A 
ATOM     65  C   UNL     1     -17.914  10.201   8.299  1.00  0.00     0.041 A 
ATOM     66  F   UNL     1     -18.734   8.278   7.329  1.00  0.00    -0.206 F 
ATOM     67  C   UNL     1     -17.121  10.862   9.219  1.00  0.00     0.022 A 
BRANCH  64  68
ATOM     68  S   UNL     1     -15.322  11.018  11.287  1.00  0.00     0.124 S 
ATOM     69  O   UNL     1     -14.530  11.841  10.374  1.00  0.00    -0.237 OA
ATOM     70  O   UNL     1     -16.277  11.751  12.112  1.00  0.00    -0.237 OA
ATOM     71  O   UNL     1     -14.572   9.967  11.969  1.00  0.00    -0.744 OA
ENDBRANCH  64  68
ENDBRANCH  47  61
BRANCH  48  72
ATOM     72  C   UNL     1     -16.407  -1.467   6.710  1.00  0.00     0.023 A 
ATOM     73  C   UNL     1     -16.322  -1.597   8.107  1.00  0.00     0.031 A 
ATOM     74  C   UNL     1     -15.497  -2.202   5.918  1.00  0.00     0.131 A 
ATOM     75  C   UNL     1     -15.262  -2.335   8.669  1.00  0.00     0.055 A 
ATOM     76  C   UNL     1     -14.437  -2.914   6.483  1.00  0.00     0.041 A 
ATOM     77  F   UNL     1     -15.556  -2.129   4.577  1.00  0.00    -0.206 F 
ATOM     78  C   UNL     1     -14.293  -2.947   7.865  1.00  0.00     0.022 A 
BRANCH  75  79
ATOM     79  S   UNL     1     -15.041  -2.385  10.473  1.00  0.00     0.124 S 
ATOM     80  O   UNL     1     -15.710  -3.638  10.809  1.00  0.00    -0.237 OA
ATOM     81  O   UNL     1     -13.588  -2.395  10.624  1.00  0.00    -0.237 OA
ATOM     82  O   UNL     1     -15.696  -1.165  10.923  1.00  0.00    -0.744 OA
ENDBRANCH  75  79
ENDBRANCH  48  72
BRANCH  60  83
ATOM     83  C   UNL     1     -21.702   3.115   8.372  1.00  0.00     0.023 A 
ATOM     84  C   UNL     1     -22.052   4.449   8.701  1.00  0.00     0.031 A 
ATOM     85  C   UNL     1     -22.581   2.124   8.835  1.00  0.00     0.131 A 
ATOM     86  C   UNL     1     -23.179   4.747   9.474  1.00  0.00     0.055 A 
ATOM     87  C   UNL     1     -23.763   2.430   9.521  1.00  0.00     0.041 A 
ATOM     88  F   UNL     1     -22.314   0.818   8.711  1.00  0.00    -0.206 F 
ATOM     89  C   UNL     1     -24.058   3.743   9.860  1.00  0.00     0.022 A 
BRANCH  86  90
ATOM     90  S   UNL     1     -23.424   6.417  10.140  1.00  0.00     0.124 S 
ATOM     91  O   UNL     1     -24.491   6.924   9.282  1.00  0.00    -0.237 OA
ATOM     92  O   UNL     1     -23.811   6.142  11.523  1.00  0.00    -0.237 OA
ATOM     93  O   UNL     1     -22.121   7.048   9.978  1.00  0.00    -0.744 OA
ENDBRANCH  86  90
ENDBRANCH  60  83
ENDBRANCH  34  35
ENDBRANCH  26  29
ENDBRANCH  24  25
ENDBRANCH  23  24
ENDBRANCH   1  23
TORSDOF 17
