REMARK SMILES CC(C)(C)OC(=O)N1CCC[C@H]1C(=O)N1CCC[C@H]1C(=O)N1CCC[C@@H]1C(=O)NCCCCNC(=O)c1ccc(-c2c3nc(c(-c4cc(S(=O)(=O)[O-])ccc4F)c4ccc([nH]4)c(-c4cc(S(=O)(=O)[O-])ccc4F)c4nc(c(-c5cc(S(=O)(=O)[O-])ccc5F)c5ccc2[nH]5)C=C4)C=C3)cc1
REMARK SMILES IDX 27 1 28 2 29 3 26 5 22 6 23 7 24 8 25 9 20 10 21 11 19 12
REMARK SMILES IDX 15 13 16 14 17 15 18 16 13 17 14 18 12 19 8 20 9 21 10 22
REMARK SMILES IDX 11 23 6 24 7 25 5 26 2 27 1 28 3 29 4 30 30 31 31 32 32 33
REMARK SMILES IDX 33 34 34 35 35 36 36 38 37 39 38 40 99 41 39 42 98 43 40 44
REMARK SMILES IDX 41 45 42 46 92 47 43 48 97 49 91 50 93 51 44 52 96 53 90 54
REMARK SMILES IDX 89 55 45 57 77 58 57 59 76 60 58 61 61 62 75 63 94 64 59 65
REMARK SMILES IDX 60 66 74 68 95 69 62 70 46 71 47 72 55 73 48 74 54 75 56 76
REMARK SMILES IDX 53 77 49 78 50 79 51 80 52 81 78 82 79 83 87 84 80 85 86 86
REMARK SMILES IDX 88 87 85 88 81 89 82 90 83 91 84 92 63 93 64 94 72 95 65 96
REMARK SMILES IDX 71 97 73 98 70 99 66 100 67 101 68 102 69 103
REMARK H PARENT 29 4 34 37 93 56 61 67
REMARK Flexibility Score: inf
ROOT
ATOM      1  C   UNL     1       1.147   6.295   6.501  1.00  0.00     0.242 C 
ATOM      2  O   UNL     1       1.875   7.221   6.885  1.00  0.00    -0.273 OA
ATOM      3  N   UNL     1       1.794   5.226   5.960  1.00  0.00    -0.354 N 
ATOM      4  H   UNL     1       2.775   5.308   5.965  1.00  0.00     0.163 HD
ENDROOT
BRANCH   1   5
ATOM      5  C   UNL     1      -0.392   6.479   6.524  1.00  0.00     0.174 C 
ATOM      6  N   UNL     1      -1.219   5.446   7.137  1.00  0.00    -0.329 N 
ATOM      7  C   UNL     1      -2.506   5.415   6.473  1.00  0.00     0.120 C 
ATOM      8  C   UNL     1      -2.149   5.656   5.027  1.00  0.00     0.024 C 
ATOM      9  C   UNL     1      -0.988   6.653   5.113  1.00  0.00     0.037 C 
BRANCH   6  10
ATOM     10  C   UNL     1      -1.063   5.107   8.466  1.00  0.00     0.246 C 
ATOM     11  O   UNL     1      -0.434   5.831   9.239  1.00  0.00    -0.272 OA
BRANCH  10  12
ATOM     12  C   UNL     1      -1.652   3.738   8.909  1.00  0.00     0.174 C 
ATOM     13  N   UNL     1      -1.021   2.657   8.129  1.00  0.00    -0.329 N 
ATOM     14  C   UNL     1       0.275   2.409   8.744  1.00  0.00     0.120 C 
ATOM     15  C   UNL     1      -0.082   2.387  10.225  1.00  0.00     0.024 C 
ATOM     16  C   UNL     1      -1.249   3.381  10.356  1.00  0.00     0.037 C 
BRANCH  13  17
ATOM     17  C   UNL     1      -1.779   1.939   7.224  1.00  0.00     0.246 C 
ATOM     18  O   UNL     1      -2.920   2.337   6.948  1.00  0.00    -0.272 OA
BRANCH  17  19
ATOM     19  C   UNL     1      -1.304   0.648   6.511  1.00  0.00     0.178 C 
ATOM     20  N   UNL     1      -0.432   0.856   5.353  1.00  0.00    -0.296 N 
ATOM     21  C   UNL     1       0.887   0.432   5.730  1.00  0.00     0.124 C 
ATOM     22  C   UNL     1       0.702  -0.712   6.705  1.00  0.00     0.024 C 
ATOM     23  C   UNL     1      -0.605  -0.385   7.411  1.00  0.00     0.037 C 
BRANCH  20  24
ATOM     24  C   UNL     1      -0.979   1.121   4.077  1.00  0.00     0.410 C 
ATOM     25  O   UNL     1      -2.162   1.391   3.954  1.00  0.00    -0.224 OA
BRANCH  24  26
ATOM     26  O   UNL     1      -0.112   1.077   3.000  1.00  0.00    -0.444 OA
BRANCH  26  27
ATOM     27  C   UNL     1      -0.477   1.266   1.551  1.00  0.00     0.106 C 
ATOM     28  C   UNL     1       0.203   0.197   0.656  1.00  0.00     0.056 C 
ATOM     29  C   UNL     1       0.081   2.614   1.057  1.00  0.00     0.056 C 
ATOM     30  C   UNL     1      -1.971   1.182   1.245  1.00  0.00     0.056 C 
ENDBRANCH  26  27
ENDBRANCH  24  26
ENDBRANCH  20  24
ENDBRANCH  17  19
ENDBRANCH  13  17
ENDBRANCH  10  12
ENDBRANCH   6  10
ENDBRANCH   1   5
BRANCH   3  31
ATOM     31  C   UNL     1       1.310   3.995   5.380  1.00  0.00     0.116 C 
BRANCH  31  32
ATOM     32  C   UNL     1       1.656   3.855   3.894  1.00  0.00     0.023 C 
BRANCH  32  33
ATOM     33  C   UNL     1       3.064   3.350   3.491  1.00  0.00     0.023 C 
BRANCH  33  34
ATOM     34  C   UNL     1       3.433   1.873   3.763  1.00  0.00     0.116 C 
BRANCH  34  35
ATOM     35  N   UNL     1       2.572   0.916   3.082  1.00  0.00    -0.352 N 
ATOM     36  C   UNL     1       2.490  -0.459   3.059  1.00  0.00     0.251 C 
ATOM     37  H   UNL     1       1.899   1.348   2.509  1.00  0.00     0.163 HD
ATOM     38  O   UNL     1       1.482  -1.018   2.628  1.00  0.00    -0.269 OA
BRANCH  36  39
ATOM     39  C   UNL     1       3.450  -1.376   3.638  1.00  0.00     0.039 A 
ATOM     40  C   UNL     1       3.525  -2.637   3.015  1.00  0.00     0.014 A 
ATOM     41  C   UNL     1       4.150  -1.098   4.804  1.00  0.00     0.014 A 
ATOM     42  C   UNL     1       4.424  -3.571   3.470  1.00  0.00     0.010 A 
ATOM     43  C   UNL     1       5.087  -2.008   5.237  1.00  0.00     0.010 A 
ATOM     44  C   UNL     1       5.270  -3.194   4.513  1.00  0.00    -0.014 A 
BRANCH  44  45
ATOM     45  C   UNL     1       6.552  -3.874   4.658  1.00  0.00     0.031 A 
ATOM     46  C   UNL     1       6.812  -4.712   5.850  1.00  0.00     0.074 A 
ATOM     47  C   UNL     1       7.472  -3.557   3.728  1.00  0.00     0.049 A 
ATOM     48  N   UNL     1       7.896  -5.356   6.164  1.00  0.00    -0.248 NA
ATOM     49  C   UNL     1       5.730  -4.801   6.843  1.00  0.00     0.031 C 
ATOM     50  C   UNL     1       7.250  -2.631   2.603  1.00  0.00     0.029 A 
ATOM     51  N   UNL     1       8.765  -3.950   3.573  1.00  0.00    -0.354 N 
ATOM     52  C   UNL     1       7.633  -5.940   7.393  1.00  0.00     0.074 A 
ATOM     53  C   UNL     1       6.313  -5.507   7.800  1.00  0.00     0.031 C 
ATOM     54  C   UNL     1       8.359  -2.562   1.858  1.00  0.00     0.029 A 
ATOM     55  C   UNL     1       9.372  -3.405   2.466  1.00  0.00     0.049 A 
ATOM     56  H   UNL     1       9.221  -4.564   4.192  1.00  0.00     0.167 HD
ATOM     57  C   UNL     1       8.438  -6.779   8.085  1.00  0.00     0.034 A 
ATOM     58  C   UNL     1      10.615  -3.593   1.998  1.00  0.00     0.034 A 
ATOM     59  C   UNL     1       9.758  -7.128   7.615  1.00  0.00     0.049 A 
ATOM     60  C   UNL     1      11.466  -4.566   2.762  1.00  0.00     0.074 A 
ATOM     61  C   UNL     1      10.684  -7.985   8.175  1.00  0.00     0.029 A 
ATOM     62  N   UNL     1      10.342  -6.613   6.456  1.00  0.00    -0.354 N 
ATOM     63  N   UNL     1      11.185  -5.199   3.882  1.00  0.00    -0.248 NA
ATOM     64  C   UNL     1      12.772  -4.882   2.190  1.00  0.00     0.031 C 
ATOM     65  C   UNL     1      11.845  -7.940   7.393  1.00  0.00     0.029 A 
ATOM     66  C   UNL     1      11.620  -7.120   6.295  1.00  0.00     0.049 A 
ATOM     67  H   UNL     1       9.907  -5.980   5.840  1.00  0.00     0.167 HD
ATOM     68  C   UNL     1      12.275  -6.018   4.136  1.00  0.00     0.074 A 
ATOM     69  C   UNL     1      13.197  -5.814   3.030  1.00  0.00     0.031 C 
ATOM     70  C   UNL     1      12.506  -6.858   5.181  1.00  0.00     0.034 A 
BRANCH  57  71
ATOM     71  C   UNL     1       7.911  -7.320   9.390  1.00  0.00     0.023 A 
ATOM     72  C   UNL     1       6.715  -8.062   9.448  1.00  0.00     0.031 A 
ATOM     73  C   UNL     1       8.564  -7.042  10.602  1.00  0.00     0.131 A 
ATOM     74  C   UNL     1       6.167  -8.421  10.688  1.00  0.00     0.055 A 
ATOM     75  C   UNL     1       8.059  -7.481  11.829  1.00  0.00     0.041 A 
ATOM     76  F   UNL     1       9.690  -6.311  10.621  1.00  0.00    -0.206 F 
ATOM     77  C   UNL     1       6.845  -8.161  11.879  1.00  0.00     0.022 A 
BRANCH  74  78
ATOM     78  S   UNL     1       4.479  -9.088  10.728  1.00  0.00     0.124 S 
ATOM     79  O   UNL     1       3.715  -7.986  10.149  1.00  0.00    -0.237 OA
ATOM     80  O   UNL     1       4.593 -10.287   9.906  1.00  0.00    -0.237 OA
ATOM     81  O   UNL     1       4.238  -9.325  12.150  1.00  0.00    -0.744 OA
ENDBRANCH  74  78
ENDBRANCH  57  71
BRANCH  58  82
ATOM     82  C   UNL     1      11.066  -2.922   0.750  1.00  0.00     0.023 A 
ATOM     83  C   UNL     1      11.374  -3.671  -0.396  1.00  0.00     0.031 A 
ATOM     84  C   UNL     1      11.176  -1.521   0.667  1.00  0.00     0.131 A 
ATOM     85  C   UNL     1      11.829  -3.025  -1.555  1.00  0.00     0.055 A 
ATOM     86  C   UNL     1      11.577  -0.879  -0.506  1.00  0.00     0.041 A 
ATOM     87  F   UNL     1      10.865  -0.752   1.723  1.00  0.00    -0.206 F 
ATOM     88  C   UNL     1      11.921  -1.634  -1.623  1.00  0.00     0.022 A 
BRANCH  85  89
ATOM     89  S   UNL     1      12.381  -4.043  -2.950  1.00  0.00     0.124 S 
ATOM     90  O   UNL     1      13.368  -4.909  -2.315  1.00  0.00    -0.237 OA
ATOM     91  O   UNL     1      11.138  -4.684  -3.366  1.00  0.00    -0.237 OA
ATOM     92  O   UNL     1      12.922  -3.065  -3.891  1.00  0.00    -0.744 OA
ENDBRANCH  85  89
ENDBRANCH  58  82
BRANCH  70  93
ATOM     93  C   UNL     1      13.805  -7.616   5.128  1.00  0.00     0.023 A 
ATOM     94  C   UNL     1      15.040  -6.950   5.184  1.00  0.00     0.031 A 
ATOM     95  C   UNL     1      13.804  -9.011   4.967  1.00  0.00     0.131 A 
ATOM     96  C   UNL     1      16.223  -7.668   4.981  1.00  0.00     0.055 A 
ATOM     97  C   UNL     1      14.991  -9.733   4.856  1.00  0.00     0.041 A 
ATOM     98  F   UNL     1      12.649  -9.693   4.905  1.00  0.00    -0.206 F 
ATOM     99  C   UNL     1      16.209  -9.058   4.840  1.00  0.00     0.022 A 
BRANCH  96 100
ATOM    100  S   UNL     1      17.761  -6.738   4.748  1.00  0.00     0.124 S 
ATOM    101  O   UNL     1      17.422  -5.877   3.619  1.00  0.00    -0.237 OA
ATOM    102  O   UNL     1      17.918  -6.069   6.035  1.00  0.00    -0.237 OA
ATOM    103  O   UNL     1      18.747  -7.777   4.463  1.00  0.00    -0.744 OA
ENDBRANCH  96 100
ENDBRANCH  70  93
ENDBRANCH  44  45
ENDBRANCH  36  39
ENDBRANCH  34  35
ENDBRANCH  33  34
ENDBRANCH  32  33
ENDBRANCH  31  32
ENDBRANCH   3  31
TORSDOF 21
