REMARK SMILES O=C(COc1ccc(N2C[C@@H](C(=O)NCCCCNC(=O)c3ccc(-c4c5nc(c(-c6cc(S(=O)(=O)[O-])ccc6F)c6ccc([nH]6)c(-c6cc(S(=O)(=O)[O-])ccc6F)c6nc(c(-c7cc(S(=O)(=O)[O-])ccc7F)c7ccc4[nH]7)C=C6)C=C5)cc3)CC2=O)cc1)Nc1ccc(Cl)cc1Cl
REMARK SMILES IDX 15 1 14 2 12 3 13 4 11 6 9 7 10 8 86 9 85 10 87 11 8 12 5 13
REMARK SMILES IDX 6 14 89 15 7 16 88 17 4 18 3 19 2 20 1 21 90 22 91 24 92 25
REMARK SMILES IDX 97 26 93 27 96 28 98 29 94 30 95 31 16 32 17 33 18 34 19 35
REMARK SMILES IDX 20 36 21 38 22 39 23 40 84 41 24 42 83 43 25 44 26 45 27 46
REMARK SMILES IDX 77 47 28 48 82 49 76 50 78 51 29 52 81 53 75 54 74 55 30 57
REMARK SMILES IDX 62 58 42 59 61 60 43 61 46 62 60 63 79 64 44 65 45 66 59 68
REMARK SMILES IDX 80 69 47 70 31 71 32 72 40 73 33 74 39 75 41 76 38 77 34 78
REMARK SMILES IDX 35 79 36 80 37 81 63 82 64 83 72 84 65 85 71 86 73 87 70 88
REMARK SMILES IDX 66 89 67 90 68 91 69 92 48 93 49 94 57 95 50 96 56 97 58 98
REMARK SMILES IDX 55 99 51 100 52 101 53 102 54 103
REMARK H PARENT 14 5 90 23 19 37 78 56 46 67
REMARK Flexibility Score: inf
ROOT
ATOM      1  C   UNL     1      -1.458   6.290   4.062  1.00  0.00     0.116 C 
ENDROOT
BRANCH   1   2
ATOM      2  N   UNL     1      -1.124   7.692   4.240  1.00  0.00    -0.356 N 
ATOM      3  C   UNL     1       0.064   8.333   4.379  1.00  0.00     0.225 C 
ATOM      4  O   UNL     1       0.038   9.563   4.476  1.00  0.00    -0.275 OA
ATOM      5  H   UNL     1      -1.906   8.290   4.265  1.00  0.00     0.163 HD
BRANCH   3   6
ATOM      6  C   UNL     1       1.399   7.615   4.408  1.00  0.00     0.107 C 
ATOM      7  N   UNL     1       2.103   5.586   3.442  1.00  0.00    -0.312 N 
ATOM      8  C   UNL     1       1.756   6.940   3.094  1.00  0.00     0.139 C 
ATOM      9  C   UNL     1       1.960   5.318   4.802  1.00  0.00     0.227 C 
ATOM     10  C   UNL     1       1.514   6.568   5.503  1.00  0.00     0.116 C 
ATOM     11  O   UNL     1       2.180   4.268   5.392  1.00  0.00    -0.274 OA
BRANCH   7  12
ATOM     12  C   UNL     1       2.458   4.615   2.482  1.00  0.00     0.044 A 
ATOM     13  C   UNL     1       3.277   2.582   0.715  1.00  0.00     0.120 A 
ATOM     14  C   UNL     1       3.732   3.890   0.542  1.00  0.00     0.048 A 
ATOM     15  C   UNL     1       2.394   2.300   1.752  1.00  0.00     0.048 A 
ATOM     16  C   UNL     1       3.294   4.913   1.399  1.00  0.00     0.030 A 
ATOM     17  C   UNL     1       2.000   3.305   2.632  1.00  0.00     0.030 A 
BRANCH  13  18
ATOM     18  O   UNL     1       3.844   1.593  -0.046  1.00  0.00    -0.484 OA
BRANCH  18  19
ATOM     19  C   UNL     1       2.912   0.870  -0.850  1.00  0.00     0.329 C 
BRANCH  19  20
ATOM     20  C   UNL     1       2.042  -0.161  -0.122  1.00  0.00     0.262 C 
ATOM     21  O   UNL     1       0.833  -0.217  -0.324  1.00  0.00    -0.271 OA
ATOM     22  N   UNL     1       2.753  -0.902   0.815  1.00  0.00    -0.322 N 
ATOM     23  H   UNL     1       3.727  -0.768   0.855  1.00  0.00     0.170 HD
BRANCH  22  24
ATOM     24  C   UNL     1       2.184  -1.835   1.716  1.00  0.00     0.060 A 
ATOM     25  C   UNL     1       2.716  -1.821   3.017  1.00  0.00     0.029 A 
ATOM     26  C   UNL     1       1.146  -2.741   1.425  1.00  0.00     0.066 A 
ATOM     27  C   UNL     1       2.169  -2.622   4.025  1.00  0.00     0.023 A 
ATOM     28  C   UNL     1       0.592  -3.532   2.441  1.00  0.00     0.043 A 
ATOM     29  Cl  UNL     1       0.629  -3.111  -0.185  1.00  0.00    -0.082 Cl
ATOM     30  C   UNL     1       1.098  -3.460   3.735  1.00  0.00     0.042 A 
ATOM     31  Cl  UNL     1       0.423  -4.442   4.976  1.00  0.00    -0.084 Cl
ENDBRANCH  22  24
ENDBRANCH  19  20
ENDBRANCH  18  19
ENDBRANCH  13  18
ENDBRANCH   7  12
ENDBRANCH   3   6
ENDBRANCH   1   2
BRANCH   1  32
ATOM     32  C   UNL     1      -2.247   5.724   5.244  1.00  0.00     0.023 C 
BRANCH  32  33
ATOM     33  C   UNL     1      -3.629   6.345   5.461  1.00  0.00     0.023 C 
BRANCH  33  34
ATOM     34  C   UNL     1      -4.569   6.296   4.260  1.00  0.00     0.116 C 
BRANCH  34  35
ATOM     35  N   UNL     1      -4.826   4.943   3.793  1.00  0.00    -0.352 N 
ATOM     36  C   UNL     1      -6.024   4.344   3.482  1.00  0.00     0.251 C 
ATOM     37  H   UNL     1      -4.029   4.376   3.683  1.00  0.00     0.163 HD
ATOM     38  O   UNL     1      -6.054   3.141   3.237  1.00  0.00    -0.269 OA
BRANCH  36  39
ATOM     39  C   UNL     1      -7.272   5.139   3.483  1.00  0.00     0.039 A 
ATOM     40  C   UNL     1      -8.405   4.615   4.112  1.00  0.00     0.014 A 
ATOM     41  C   UNL     1      -7.324   6.401   2.885  1.00  0.00     0.014 A 
ATOM     42  C   UNL     1      -9.564   5.389   4.208  1.00  0.00     0.010 A 
ATOM     43  C   UNL     1      -8.454   7.199   3.048  1.00  0.00     0.010 A 
ATOM     44  C   UNL     1      -9.585   6.705   3.716  1.00  0.00    -0.014 A 
BRANCH  44  45
ATOM     45  C   UNL     1     -10.776   7.578   3.896  1.00  0.00     0.031 A 
ATOM     46  C   UNL     1     -11.530   8.086   2.697  1.00  0.00     0.074 A 
ATOM     47  C   UNL     1     -11.138   7.966   5.136  1.00  0.00     0.049 A 
ATOM     48  N   UNL     1     -12.537   8.919   2.643  1.00  0.00    -0.248 NA
ATOM     49  C   UNL     1     -11.067   7.617   1.382  1.00  0.00     0.031 C 
ATOM     50  C   UNL     1     -10.463   7.573   6.375  1.00  0.00     0.029 A 
ATOM     51  N   UNL     1     -12.155   8.784   5.561  1.00  0.00    -0.354 N 
ATOM     52  C   UNL     1     -12.823   9.084   1.292  1.00  0.00     0.074 A 
ATOM     53  C   UNL     1     -11.838   8.314   0.561  1.00  0.00     0.031 C 
ATOM     54  C   UNL     1     -11.099   8.127   7.419  1.00  0.00     0.029 A 
ATOM     55  C   UNL     1     -12.195   8.956   6.926  1.00  0.00     0.049 A 
ATOM     56  H   UNL     1     -12.797   9.208   4.947  1.00  0.00     0.167 HD
ATOM     57  C   UNL     1     -13.826   9.792   0.716  1.00  0.00     0.034 A 
ATOM     58  C   UNL     1     -13.010   9.707   7.694  1.00  0.00     0.034 A 
ATOM     59  C   UNL     1     -14.806  10.546   1.460  1.00  0.00     0.049 A 
ATOM     60  C   UNL     1     -14.100  10.511   7.028  1.00  0.00     0.074 A 
ATOM     61  C   UNL     1     -15.894  11.255   0.981  1.00  0.00     0.029 A 
ATOM     62  N   UNL     1     -14.812  10.699   2.841  1.00  0.00    -0.354 N 
ATOM     63  N   UNL     1     -14.387  10.616   5.751  1.00  0.00    -0.248 NA
ATOM     64  C   UNL     1     -14.980  11.289   7.909  1.00  0.00     0.031 C 
ATOM     65  C   UNL     1     -16.513  11.893   2.061  1.00  0.00     0.029 A 
ATOM     66  C   UNL     1     -15.864  11.517   3.226  1.00  0.00     0.049 A 
ATOM     67  H   UNL     1     -14.164  10.287   3.458  1.00  0.00     0.167 HD
ATOM     68  C   UNL     1     -15.503  11.445   5.680  1.00  0.00     0.074 A 
ATOM     69  C   UNL     1     -15.844  11.799   7.043  1.00  0.00     0.031 C 
ATOM     70  C   UNL     1     -16.189  11.871   4.588  1.00  0.00     0.034 A 
BRANCH  57  71
ATOM     71  C   UNL     1     -13.893   9.801  -0.794  1.00  0.00     0.023 A 
ATOM     72  C   UNL     1     -14.095   8.622  -1.532  1.00  0.00     0.031 A 
ATOM     73  C   UNL     1     -13.729  11.001  -1.508  1.00  0.00     0.131 A 
ATOM     74  C   UNL     1     -14.048   8.654  -2.934  1.00  0.00     0.055 A 
ATOM     75  C   UNL     1     -13.770  11.041  -2.904  1.00  0.00     0.041 A 
ATOM     76  F   UNL     1     -13.511  12.158  -0.862  1.00  0.00    -0.206 F 
ATOM     77  C   UNL     1     -13.914   9.860  -3.626  1.00  0.00     0.022 A 
BRANCH  74  78
ATOM     78  S   UNL     1     -14.013   7.081  -3.836  1.00  0.00     0.124 S 
ATOM     79  O   UNL     1     -12.820   6.449  -3.277  1.00  0.00    -0.237 OA
ATOM     80  O   UNL     1     -15.288   6.477  -3.467  1.00  0.00    -0.237 OA
ATOM     81  O   UNL     1     -13.896   7.489  -5.234  1.00  0.00    -0.744 OA
ENDBRANCH  74  78
ENDBRANCH  57  71
BRANCH  58  82
ATOM     82  C   UNL     1     -12.829   9.752   9.174  1.00  0.00     0.023 A 
ATOM     83  C   UNL     1     -13.826   9.276  10.040  1.00  0.00     0.031 A 
ATOM     84  C   UNL     1     -11.674  10.315   9.747  1.00  0.00     0.131 A 
ATOM     85  C   UNL     1     -13.674   9.416  11.428  1.00  0.00     0.055 A 
ATOM     86  C   UNL     1     -11.502  10.400  11.129  1.00  0.00     0.041 A 
ATOM     87  F   UNL     1     -10.687  10.783   8.966  1.00  0.00    -0.206 F 
ATOM     88  C   UNL     1     -12.513   9.962  11.979  1.00  0.00     0.022 A 
BRANCH  85  89
ATOM     89  S   UNL     1     -15.061   8.959  12.504  1.00  0.00     0.124 S 
ATOM     90  O   UNL     1     -16.127   9.813  11.993  1.00  0.00    -0.237 OA
ATOM     91  O   UNL     1     -15.196   7.532  12.234  1.00  0.00    -0.237 OA
ATOM     92  O   UNL     1     -14.578   9.295  13.842  1.00  0.00    -0.744 OA
ENDBRANCH  85  89
ENDBRANCH  58  82
BRANCH  70  93
ATOM     93  C   UNL     1     -17.407  12.729   4.833  1.00  0.00     0.023 A 
ATOM     94  C   UNL     1     -17.310  14.020   5.381  1.00  0.00     0.031 A 
ATOM     95  C   UNL     1     -18.689  12.238   4.521  1.00  0.00     0.131 A 
ATOM     96  C   UNL     1     -18.476  14.753   5.653  1.00  0.00     0.055 A 
ATOM     97  C   UNL     1     -19.839  12.998   4.734  1.00  0.00     0.041 A 
ATOM     98  F   UNL     1     -18.842  11.011   3.999  1.00  0.00    -0.206 F 
ATOM     99  C   UNL     1     -19.738  14.258   5.316  1.00  0.00     0.022 A 
BRANCH  96 100
ATOM    100  S   UNL     1     -18.327  16.328   6.542  1.00  0.00     0.124 S 
ATOM    101  O   UNL     1     -17.669  15.917   7.778  1.00  0.00    -0.237 OA
ATOM    102  O   UNL     1     -17.521  17.129   5.626  1.00  0.00    -0.237 OA
ATOM    103  O   UNL     1     -19.713  16.768   6.694  1.00  0.00    -0.744 OA
ENDBRANCH  96 100
ENDBRANCH  70  93
ENDBRANCH  44  45
ENDBRANCH  36  39
ENDBRANCH  34  35
ENDBRANCH  33  34
ENDBRANCH  32  33
ENDBRANCH   1  32
TORSDOF 19
