REMARK SMILES O=C(NCCCCNC(=O)c1cc(O)cc(-c2cc(O)ccc2Cl)c1)c1ccc(-c2c3nc(c(-c4cc(S(=O)(=O)[O-])ccc4F)c4ccc([nH]4)c(-c4cc(S(=O)(=O)[O-])ccc4F)c4nc(c(-c5cc(S(=O)(=O)[O-])ccc5F)c5ccc2[nH]5)C=C4)C=C3)cc1
REMARK SMILES IDX 5 1 4 2 3 3 1 4 2 5 26 7 27 8 88 9 28 10 87 11 29 12 30 13
REMARK SMILES IDX 31 14 81 15 32 16 86 17 80 18 82 19 33 20 85 21 79 22 78 23
REMARK SMILES IDX 34 25 66 26 46 27 65 28 47 29 50 30 64 31 83 32 48 33 49 34
REMARK SMILES IDX 63 36 84 37 51 38 35 39 36 40 44 41 37 42 43 43 45 44 42 45
REMARK SMILES IDX 38 46 39 47 40 48 41 49 67 50 68 51 76 52 69 53 75 54 77 55
REMARK SMILES IDX 74 56 70 57 71 58 72 59 73 60 52 61 53 62 61 63 54 64 60 65
REMARK SMILES IDX 62 66 59 67 55 68 56 69 57 70 58 71 6 72 7 73 8 74 9 75
REMARK SMILES IDX 10 77 11 78 12 79 25 80 13 81 16 82 15 83 14 84 17 86 18 87
REMARK SMILES IDX 23 88 19 89 22 90 24 91 21 92 20 93
REMARK H PARENT 3 6 82 24 50 35 8 76 14 85 20 94
REMARK Flexibility Score: inf
ROOT
ATOM      1  C   UNL     1       5.034   2.752   0.317  1.00  0.00     0.023 C 
ENDROOT
BRANCH   1   2
ATOM      2  C   UNL     1       4.666   1.293   0.555  1.00  0.00     0.116 C 
BRANCH   2   3
ATOM      3  N   UNL     1       3.229   1.073   0.604  1.00  0.00    -0.352 N 
ATOM      4  O   UNL     1       1.256   0.176  -0.015  1.00  0.00    -0.269 OA
ATOM      5  C   UNL     1       2.481   0.135  -0.067  1.00  0.00     0.251 C 
ATOM      6  H   UNL     1       2.725   1.676   1.196  1.00  0.00     0.163 HD
BRANCH   5   7
ATOM      7  C   UNL     1       3.163  -0.906  -0.866  1.00  0.00     0.039 A 
ATOM      8  C   UNL     1       4.243  -1.615  -0.332  1.00  0.00     0.014 A 
ATOM      9  C   UNL     1       2.711  -1.178  -2.160  1.00  0.00     0.014 A 
ATOM     10  C   UNL     1       4.940  -2.516  -1.129  1.00  0.00     0.010 A 
ATOM     11  C   UNL     1       3.367  -2.138  -2.935  1.00  0.00     0.010 A 
ATOM     12  C   UNL     1       4.494  -2.805  -2.429  1.00  0.00    -0.014 A 
BRANCH  12  13
ATOM     13  C   UNL     1       5.150  -3.892  -3.197  1.00  0.00     0.031 A 
ATOM     14  C   UNL     1       5.928  -3.605  -4.449  1.00  0.00     0.074 A 
ATOM     15  C   UNL     1       5.020  -5.154  -2.742  1.00  0.00     0.049 A 
ATOM     16  N   UNL     1       6.536  -4.444  -5.246  1.00  0.00    -0.248 NA
ATOM     17  C   UNL     1       6.035  -2.198  -4.864  1.00  0.00     0.031 C 
ATOM     18  C   UNL     1       4.272  -5.540  -1.540  1.00  0.00     0.029 A 
ATOM     19  N   UNL     1       5.503  -6.343  -3.224  1.00  0.00    -0.354 N 
ATOM     20  C   UNL     1       7.081  -3.677  -6.269  1.00  0.00     0.074 A 
ATOM     21  C   UNL     1       6.720  -2.301  -5.997  1.00  0.00     0.031 C 
ATOM     22  C   UNL     1       4.362  -6.866  -1.371  1.00  0.00     0.029 A 
ATOM     23  C   UNL     1       5.112  -7.435  -2.483  1.00  0.00     0.049 A 
ATOM     24  H   UNL     1       6.075  -6.409  -4.022  1.00  0.00     0.167 HD
ATOM     25  C   UNL     1       7.813  -4.090  -7.332  1.00  0.00     0.034 A 
ATOM     26  C   UNL     1       5.299  -8.751  -2.697  1.00  0.00     0.034 A 
ATOM     27  C   UNL     1       8.174  -5.467  -7.573  1.00  0.00     0.049 A 
ATOM     28  C   UNL     1       6.077  -9.178  -3.911  1.00  0.00     0.074 A 
ATOM     29  C   UNL     1       8.993  -5.981  -8.564  1.00  0.00     0.029 A 
ATOM     30  N   UNL     1       7.723  -6.551  -6.831  1.00  0.00    -0.354 N 
ATOM     31  N   UNL     1       6.640  -8.430  -4.832  1.00  0.00    -0.248 NA
ATOM     32  C   UNL     1       6.242 -10.621  -4.118  1.00  0.00     0.031 C 
ATOM     33  C   UNL     1       8.977  -7.377  -8.466  1.00  0.00     0.029 A 
ATOM     34  C   UNL     1       8.202  -7.733  -7.374  1.00  0.00     0.049 A 
ATOM     35  H   UNL     1       7.147  -6.488  -6.035  1.00  0.00     0.167 HD
ATOM     36  C   UNL     1       7.231  -9.315  -5.726  1.00  0.00     0.074 A 
ATOM     37  C   UNL     1       6.982 -10.649  -5.216  1.00  0.00     0.031 C 
ATOM     38  C   UNL     1       7.914  -9.053  -6.868  1.00  0.00     0.034 A 
BRANCH  25  39
ATOM     39  C   UNL     1       8.238  -3.059  -8.347  1.00  0.00     0.023 A 
ATOM     40  C   UNL     1       9.200  -2.077  -8.056  1.00  0.00     0.031 A 
ATOM     41  C   UNL     1       7.696  -3.091  -9.644  1.00  0.00     0.131 A 
ATOM     42  C   UNL     1       9.565  -1.145  -9.041  1.00  0.00     0.055 A 
ATOM     43  C   UNL     1       8.103  -2.197 -10.636  1.00  0.00     0.041 A 
ATOM     44  F   UNL     1       6.761  -3.998  -9.970  1.00  0.00    -0.206 F 
ATOM     45  C   UNL     1       9.039  -1.212 -10.335  1.00  0.00     0.022 A 
BRANCH  42  46
ATOM     46  S   UNL     1      10.684   0.209  -8.590  1.00  0.00     0.124 S 
ATOM     47  O   UNL     1       9.915   0.898  -7.556  1.00  0.00    -0.237 OA
ATOM     48  O   UNL     1      11.873  -0.502  -8.134  1.00  0.00    -0.237 OA
ATOM     49  O   UNL     1      10.844   0.954  -9.838  1.00  0.00    -0.744 OA
ENDBRANCH  42  46
ENDBRANCH  25  39
BRANCH  26  50
ATOM     50  C   UNL     1       4.684  -9.756  -1.786  1.00  0.00     0.023 A 
ATOM     51  C   UNL     1       5.475 -10.642  -1.040  1.00  0.00     0.031 A 
ATOM     52  C   UNL     1       3.285  -9.873  -1.683  1.00  0.00     0.131 A 
ATOM     53  C   UNL     1       4.863 -11.634  -0.258  1.00  0.00     0.055 A 
ATOM     54  C   UNL     1       2.681 -10.823  -0.860  1.00  0.00     0.041 A 
ATOM     55  F   UNL     1       2.482  -9.049  -2.375  1.00  0.00    -0.206 F 
ATOM     56  C   UNL     1       3.472 -11.722  -0.153  1.00  0.00     0.022 A 
BRANCH  53  57
ATOM     57  S   UNL     1       5.913 -12.878   0.541  1.00  0.00     0.124 S 
ATOM     58  O   UNL     1       6.692 -13.380  -0.585  1.00  0.00    -0.237 OA
ATOM     59  O   UNL     1       6.640 -12.074   1.518  1.00  0.00    -0.237 OA
ATOM     60  O   UNL     1       4.951 -13.822   1.105  1.00  0.00    -0.744 OA
ENDBRANCH  53  57
ENDBRANCH  26  50
BRANCH  38  61
ATOM     61  C   UNL     1       8.438 -10.245  -7.626  1.00  0.00     0.023 A 
ATOM     62  C   UNL     1       7.565 -11.131  -8.281  1.00  0.00     0.031 A 
ATOM     63  C   UNL     1       9.816 -10.514  -7.667  1.00  0.00     0.131 A 
ATOM     64  C   UNL     1       8.076 -12.277  -8.906  1.00  0.00     0.055 A 
ATOM     65  C   UNL     1      10.324 -11.627  -8.338  1.00  0.00     0.041 A 
ATOM     66  F   UNL     1      10.690  -9.701  -7.053  1.00  0.00    -0.206 F 
ATOM     67  C   UNL     1       9.451 -12.522  -8.952  1.00  0.00     0.022 A 
BRANCH  64  68
ATOM     68  S   UNL     1       6.912 -13.486  -9.592  1.00  0.00     0.124 S 
ATOM     69  O   UNL     1       6.181 -13.910  -8.402  1.00  0.00    -0.237 OA
ATOM     70  O   UNL     1       6.158 -12.686 -10.552  1.00  0.00    -0.237 OA
ATOM     71  O   UNL     1       7.782 -14.502 -10.182  1.00  0.00    -0.744 OA
ENDBRANCH  64  68
ENDBRANCH  38  61
ENDBRANCH  12  13
ENDBRANCH   5   7
ENDBRANCH   2   3
ENDBRANCH   1   2
BRANCH   1  72
ATOM     72  C   UNL     1       4.523   3.733   1.368  1.00  0.00     0.023 C 
BRANCH  72  73
ATOM     73  C   UNL     1       4.858   3.371   2.811  1.00  0.00     0.116 C 
BRANCH  73  74
ATOM     74  N   UNL     1       6.290   3.352   3.068  1.00  0.00    -0.352 N 
ATOM     75  C   UNL     1       7.015   4.103   3.959  1.00  0.00     0.251 C 
ATOM     76  H   UNL     1       6.809   2.712   2.529  1.00  0.00     0.163 HD
ATOM     77  O   UNL     1       8.241   4.070   3.965  1.00  0.00    -0.269 OA
BRANCH  75  78
ATOM     78  C   UNL     1       6.304   4.988   4.899  1.00  0.00     0.044 A 
ATOM     79  C   UNL     1       5.324   4.473   5.751  1.00  0.00     0.060 A 
ATOM     80  C   UNL     1       6.613   6.352   4.896  1.00  0.00     0.023 A 
ATOM     81  C   UNL     1       4.585   5.355   6.522  1.00  0.00     0.116 A 
ATOM     82  C   UNL     1       5.886   7.245   5.700  1.00  0.00    -0.012 A 
ATOM     83  C   UNL     1       4.845   6.723   6.489  1.00  0.00     0.055 A 
BRANCH  81  84
ATOM     84  O   UNL     1       3.568   4.919   7.319  1.00  0.00    -0.508 OA
ATOM     85  H   UNL     1       3.368   4.005   7.364  1.00  0.00     0.293 HD
ENDBRANCH  81  84
BRANCH  82  86
ATOM     86  C   UNL     1       6.186   8.689   5.686  1.00  0.00     0.004 A 
ATOM     87  C   UNL     1       6.108   9.395   4.466  1.00  0.00     0.056 A 
ATOM     88  C   UNL     1       6.553   9.414   6.841  1.00  0.00     0.049 A 
ATOM     89  C   UNL     1       6.373  10.762   4.416  1.00  0.00     0.116 A 
ATOM     90  C   UNL     1       6.805  10.790   6.777  1.00  0.00     0.025 A 
ATOM     91  Cl  UNL     1       6.753   8.658   8.387  1.00  0.00    -0.084 Cl
ATOM     92  C   UNL     1       6.712  11.465   5.562  1.00  0.00     0.048 A 
BRANCH  89  93
ATOM     93  O   UNL     1       6.309  11.457   3.245  1.00  0.00    -0.508 OA
ATOM     94  H   UNL     1       6.083  11.016   2.450  1.00  0.00     0.293 HD
ENDBRANCH  89  93
ENDBRANCH  82  86
ENDBRANCH  75  78
ENDBRANCH  73  74
ENDBRANCH  72  73
ENDBRANCH   1  72
TORSDOF 17
