REMARK SMILES Cc1ccc(S(=O)(=O)N(CC(=O)NCCCCNC(=O)c2ccc(-c3c4nc(c(-c5cc(S(=O)(=O)[O-])ccc5F)c5ccc([nH]5)c(-c5cc(S(=O)(=O)[O-])ccc5F)c5nc(c(-c6cc(S(=O)(=O)[O-])ccc6F)c6ccc3[nH]6)C=C5)C=C4)cc2)c2cc(Cl)cc(Cl)c2)cc1
REMARK SMILES IDX 15 1 14 2 13 3 11 4 12 5 10 7 9 8 6 9 7 10 8 11 5 12 1 13
REMARK SMILES IDX 2 14 3 15 93 16 4 17 92 18 84 19 85 20 91 21 86 22 89 23
REMARK SMILES IDX 87 24 88 25 90 26 16 27 17 28 18 29 19 30 20 32 21 33 22 34
REMARK SMILES IDX 83 35 23 36 82 37 24 38 25 39 26 40 76 41 27 42 81 43 75 44
REMARK SMILES IDX 77 45 28 46 80 47 74 48 73 49 29 51 61 52 41 53 60 54 42 55
REMARK SMILES IDX 45 56 59 57 78 58 43 59 44 60 58 62 79 63 46 64 30 65 31 66
REMARK SMILES IDX 39 67 32 68 38 69 40 70 37 71 33 72 34 73 35 74 36 75 62 76
REMARK SMILES IDX 63 77 71 78 64 79 70 80 72 81 69 82 65 83 66 84 67 85 68 86
REMARK SMILES IDX 47 87 48 88 56 89 49 90 55 91 57 92 54 93 50 94 51 95 52 96
REMARK SMILES IDX 53 97
REMARK H PARENT 13 6 18 31 77 50 45 61
REMARK Flexibility Score: inf
ROOT
ATOM      1  C   UNL     1      -4.197   1.066  -3.408  1.00  0.00     0.023 C 
ENDROOT
BRANCH   1   2
ATOM      2  C   UNL     1      -2.965   1.827  -2.900  1.00  0.00     0.116 C 
BRANCH   2   3
ATOM      3  N   UNL     1      -3.195   3.218  -2.507  1.00  0.00    -0.355 N 
ATOM      4  C   UNL     1      -3.376   3.795  -1.283  1.00  0.00     0.240 C 
ATOM      5  O   UNL     1      -3.314   5.030  -1.229  1.00  0.00    -0.273 OA
ATOM      6  H   UNL     1      -3.226   3.850  -3.261  1.00  0.00     0.163 HD
BRANCH   4   7
ATOM      7  C   UNL     1      -3.681   3.016  -0.007  1.00  0.00     0.235 C 
BRANCH   7   8
ATOM      8  N   UNL     1      -4.292   1.682  -0.215  1.00  0.00    -0.257 N 
BRANCH   8   9
ATOM      9  S   UNL     1      -3.522   0.370   0.607  1.00  0.00     0.264 S 
ATOM     10  O   UNL     1      -4.192  -0.839   0.159  1.00  0.00    -0.201 OA
ATOM     11  O   UNL     1      -3.547   0.711   2.019  1.00  0.00    -0.201 OA
BRANCH   9  12
ATOM     12  C   UNL     1      -1.779   0.199   0.193  1.00  0.00     0.088 A 
ATOM     13  C   UNL     1       2.503  -0.419  -0.001  1.00  0.00     0.044 C 
ATOM     14  C   UNL     1       1.018  -0.213   0.022  1.00  0.00    -0.051 A 
ATOM     15  C   UNL     1       0.140  -1.300   0.079  1.00  0.00     0.005 A 
ATOM     16  C   UNL     1       0.485   1.073  -0.021  1.00  0.00     0.005 A 
ATOM     17  C   UNL     1      -1.246  -1.098   0.160  1.00  0.00     0.022 A 
ATOM     18  C   UNL     1      -0.897   1.277   0.069  1.00  0.00     0.022 A 
ENDBRANCH   9  12
ENDBRANCH   8   9
BRANCH   8  19
ATOM     19  C   UNL     1      -5.768   1.762  -0.129  1.00  0.00     0.055 A 
ATOM     20  C   UNL     1      -6.428   2.688  -0.961  1.00  0.00     0.047 A 
ATOM     21  C   UNL     1      -6.533   1.098   0.836  1.00  0.00     0.047 A 
ATOM     22  C   UNL     1      -7.783   2.974  -0.800  1.00  0.00     0.044 A 
ATOM     23  C   UNL     1      -7.900   1.371   0.969  1.00  0.00     0.044 A 
ATOM     24  Cl  UNL     1      -8.524   4.184  -1.776  1.00  0.00    -0.084 Cl
ATOM     25  C   UNL     1      -8.527   2.320   0.168  1.00  0.00     0.041 A 
ATOM     26  Cl  UNL     1      -8.822   0.553   2.173  1.00  0.00    -0.084 Cl
ENDBRANCH   8  19
ENDBRANCH   7   8
ENDBRANCH   4   7
ENDBRANCH   2   3
ENDBRANCH   1   2
BRANCH   1  27
ATOM     27  C   UNL     1      -4.772   1.548  -4.733  1.00  0.00     0.023 C 
BRANCH  27  28
ATOM     28  C   UNL     1      -3.857   1.325  -5.932  1.00  0.00     0.116 C 
BRANCH  28  29
ATOM     29  N   UNL     1      -4.192   0.165  -6.762  1.00  0.00    -0.352 N 
ATOM     30  C   UNL     1      -3.762  -0.144  -8.047  1.00  0.00     0.251 C 
ATOM     31  H   UNL     1      -4.807  -0.486  -6.353  1.00  0.00     0.163 HD
ATOM     32  O   UNL     1      -4.149  -1.145  -8.643  1.00  0.00    -0.269 OA
BRANCH  30  33
ATOM     33  C   UNL     1      -2.670   0.666  -8.642  1.00  0.00     0.039 A 
ATOM     34  C   UNL     1      -1.481  -0.017  -8.927  1.00  0.00     0.014 A 
ATOM     35  C   UNL     1      -2.676   2.045  -8.492  1.00  0.00     0.014 A 
ATOM     36  C   UNL     1      -0.271   0.621  -8.693  1.00  0.00     0.010 A 
ATOM     37  C   UNL     1      -1.492   2.639  -8.118  1.00  0.00     0.010 A 
ATOM     38  C   UNL     1      -0.308   1.892  -8.133  1.00  0.00    -0.014 A 
BRANCH  38  39
ATOM     39  C   UNL     1       0.834   2.538  -7.515  1.00  0.00     0.031 A 
ATOM     40  C   UNL     1       1.546   3.563  -8.289  1.00  0.00     0.074 A 
ATOM     41  C   UNL     1       1.160   2.271  -6.231  1.00  0.00     0.049 A 
ATOM     42  N   UNL     1       2.705   4.022  -7.984  1.00  0.00    -0.248 NA
ATOM     43  C   UNL     1       1.027   4.095  -9.547  1.00  0.00     0.031 C 
ATOM     44  C   UNL     1       2.065   3.018  -5.362  1.00  0.00     0.029 A 
ATOM     45  N   UNL     1       0.915   1.089  -5.532  1.00  0.00    -0.354 N 
ATOM     46  C   UNL     1       2.941   5.108  -8.790  1.00  0.00     0.074 A 
ATOM     47  C   UNL     1       1.954   5.012  -9.832  1.00  0.00     0.031 C 
ATOM     48  C   UNL     1       2.512   2.204  -4.393  1.00  0.00     0.029 A 
ATOM     49  C   UNL     1       2.039   0.869  -4.703  1.00  0.00     0.049 A 
ATOM     50  H   UNL     1       0.116   0.519  -5.603  1.00  0.00     0.167 HD
ATOM     51  C   UNL     1       3.854   6.025  -8.370  1.00  0.00     0.034 A 
ATOM     52  C   UNL     1       2.836  -0.222  -4.916  1.00  0.00     0.034 A 
ATOM     53  C   UNL     1       4.681   5.461  -7.290  1.00  0.00     0.049 A 
ATOM     54  C   UNL     1       4.240   0.132  -5.381  1.00  0.00     0.074 A 
ATOM     55  C   UNL     1       4.769   5.644  -5.921  1.00  0.00     0.029 A 
ATOM     56  N   UNL     1       5.388   4.295  -7.557  1.00  0.00    -0.354 N 
ATOM     57  N   UNL     1       4.675   1.346  -5.592  1.00  0.00    -0.248 NA
ATOM     58  C   UNL     1       5.242  -0.876  -5.718  1.00  0.00     0.031 C 
ATOM     59  C   UNL     1       5.481   4.529  -5.371  1.00  0.00     0.029 A 
ATOM     60  C   UNL     1       5.874   3.701  -6.408  1.00  0.00     0.049 A 
ATOM     61  H   UNL     1       5.527   3.933  -8.462  1.00  0.00     0.167 HD
ATOM     62  C   UNL     1       5.934   1.308  -6.140  1.00  0.00     0.074 A 
ATOM     63  C   UNL     1       6.238  -0.115  -6.204  1.00  0.00     0.031 C 
ATOM     64  C   UNL     1       6.606   2.440  -6.532  1.00  0.00     0.034 A 
BRANCH  51  65
ATOM     65  C   UNL     1       3.873   7.486  -8.786  1.00  0.00     0.023 A 
ATOM     66  C   UNL     1       4.744   8.365  -8.107  1.00  0.00     0.031 A 
ATOM     67  C   UNL     1       3.010   8.114  -9.716  1.00  0.00     0.131 A 
ATOM     68  C   UNL     1       4.709   9.758  -8.327  1.00  0.00     0.055 A 
ATOM     69  C   UNL     1       2.999   9.494  -9.958  1.00  0.00     0.041 A 
ATOM     70  F   UNL     1       2.093   7.455 -10.425  1.00  0.00    -0.206 F 
ATOM     71  C   UNL     1       3.843  10.328  -9.255  1.00  0.00     0.022 A 
BRANCH  68  72
ATOM     72  S   UNL     1       5.771  10.839  -7.335  1.00  0.00     0.124 S 
ATOM     73  O   UNL     1       5.299  10.572  -5.980  1.00  0.00    -0.237 OA
ATOM     74  O   UNL     1       7.104  10.352  -7.667  1.00  0.00    -0.237 OA
ATOM     75  O   UNL     1       5.460  12.177  -7.841  1.00  0.00    -0.744 OA
ENDBRANCH  68  72
ENDBRANCH  51  65
BRANCH  52  76
ATOM     76  C   UNL     1       2.025  -1.411  -5.336  1.00  0.00     0.023 A 
ATOM     77  C   UNL     1       0.988  -1.788  -4.454  1.00  0.00     0.031 A 
ATOM     78  C   UNL     1       1.897  -1.767  -6.686  1.00  0.00     0.131 A 
ATOM     79  C   UNL     1      -0.238  -2.232  -4.971  1.00  0.00     0.055 A 
ATOM     80  C   UNL     1       0.709  -2.324  -7.176  1.00  0.00     0.041 A 
ATOM     81  F   UNL     1       2.843  -1.433  -7.576  1.00  0.00    -0.206 F 
ATOM     82  C   UNL     1      -0.391  -2.489  -6.332  1.00  0.00     0.022 A 
BRANCH  79  83
ATOM     83  S   UNL     1      -1.698  -2.093  -3.897  1.00  0.00     0.124 S 
ATOM     84  O   UNL     1      -1.569  -3.270  -3.047  1.00  0.00    -0.237 OA
ATOM     85  O   UNL     1      -1.469  -0.802  -3.249  1.00  0.00    -0.237 OA
ATOM     86  O   UNL     1      -2.824  -2.095  -4.828  1.00  0.00    -0.744 OA
ENDBRANCH  79  83
ENDBRANCH  52  76
BRANCH  64  87
ATOM     87  C   UNL     1       8.004   2.451  -7.138  1.00  0.00     0.023 A 
ATOM     88  C   UNL     1       8.935   1.426  -6.916  1.00  0.00     0.031 A 
ATOM     89  C   UNL     1       8.479   3.528  -7.930  1.00  0.00     0.131 A 
ATOM     90  C   UNL     1      10.184   1.414  -7.567  1.00  0.00     0.055 A 
ATOM     91  C   UNL     1       9.747   3.551  -8.520  1.00  0.00     0.041 A 
ATOM     92  F   UNL     1       7.737   4.613  -8.187  1.00  0.00    -0.206 F 
ATOM     93  C   UNL     1      10.601   2.475  -8.365  1.00  0.00     0.022 A 
BRANCH  90  94
ATOM     94  S   UNL     1      11.229  -0.053  -7.391  1.00  0.00     0.124 S 
ATOM     95  O   UNL     1      11.334  -0.193  -5.942  1.00  0.00    -0.237 OA
ATOM     96  O   UNL     1      10.429  -1.070  -8.068  1.00  0.00    -0.237 OA
ATOM     97  O   UNL     1      12.466   0.321  -8.072  1.00  0.00    -0.744 OA
ENDBRANCH  90  94
ENDBRANCH  64  87
ENDBRANCH  38  39
ENDBRANCH  30  33
ENDBRANCH  28  29
ENDBRANCH  27  28
ENDBRANCH   1  27
TORSDOF 18
