REMARK SMILES Cc1ccc(Cl)c(Nc2ccccc2C(=O)NCCCCNC(=O)c2ccc(-c3c4nc(c(-c5cc(S(=O)(=O)[O-])ccc5F)c5ccc([nH]5)c(-c5cc(S(=O)(=O)[O-])ccc5F)c5nc(c(-c6cc(S(=O)(=O)[O-])ccc6F)c6ccc3[nH]6)C=C5)C=C4)cc2)c1Cl
REMARK SMILES IDX 20 1 19 2 18 3 17 4 15 5 16 6 14 8 9 9 10 10 11 11 13 12
REMARK SMILES IDX 12 13 8 14 7 16 1 17 2 18 3 19 88 20 4 21 89 22 5 23 6 24
REMARK SMILES IDX 21 25 22 26 23 27 24 29 25 30 26 31 87 32 27 33 86 34 28 35
REMARK SMILES IDX 29 36 30 37 80 38 31 39 85 40 79 41 81 42 32 43 84 44 78 45
REMARK SMILES IDX 77 46 33 48 65 49 45 50 64 51 46 52 49 53 63 54 82 55 47 56
REMARK SMILES IDX 48 57 62 59 83 60 50 61 34 62 35 63 43 64 36 65 42 66 44 67
REMARK SMILES IDX 41 68 37 69 38 70 39 71 40 72 66 73 67 74 75 75 68 76 74 77
REMARK SMILES IDX 76 78 73 79 69 80 70 81 71 82 72 83 51 84 52 85 60 86 53 87
REMARK SMILES IDX 59 88 61 89 58 90 54 91 55 92 56 93 57 94
REMARK H PARENT 17 7 8 15 22 28 81 47 49 58
REMARK Flexibility Score: inf
ROOT
ATOM      1  C   UNL     1      -2.766  -0.243   3.127  1.00  0.00     0.023 C 
ENDROOT
BRANCH   1   2
ATOM      2  C   UNL     1      -2.477  -1.563   2.407  1.00  0.00     0.023 C 
BRANCH   2   3
ATOM      3  C   UNL     1      -1.255  -1.600   1.499  1.00  0.00     0.116 C 
BRANCH   3   4
ATOM      4  N   UNL     1       0.022  -1.531   2.167  1.00  0.00    -0.352 N 
ATOM      5  C   UNL     1       1.235  -2.075   1.807  1.00  0.00     0.253 C 
ATOM      6  O   UNL     1       2.215  -1.774   2.494  1.00  0.00    -0.269 OA
ATOM      7  H   UNL     1       0.027  -1.017   3.006  1.00  0.00     0.163 HD
BRANCH   5   8
ATOM      8  C   UNL     1       1.403  -3.103   0.733  1.00  0.00     0.063 A 
ATOM      9  C   UNL     1       0.883  -3.087  -0.579  1.00  0.00     0.051 A 
ATOM     10  C   UNL     1       1.107  -4.224  -1.393  1.00  0.00     0.027 A 
ATOM     11  C   UNL     1       1.878  -5.306  -0.969  1.00  0.00     0.002 A 
ATOM     12  C   UNL     1       2.207  -4.196   1.134  1.00  0.00     0.016 A 
ATOM     13  C   UNL     1       2.452  -5.281   0.291  1.00  0.00     0.001 A 
BRANCH   9  14
ATOM     14  N   UNL     1       0.248  -2.014  -1.236  1.00  0.00    -0.352 N 
ATOM     15  H   UNL     1      -0.460  -2.309  -1.853  1.00  0.00     0.167 HD
BRANCH  14  16
ATOM     16  C   UNL     1       0.401  -0.606  -1.206  1.00  0.00     0.077 A 
ATOM     17  C   UNL     1       2.802   2.193  -0.129  1.00  0.00     0.046 C 
ATOM     18  C   UNL     1       1.573   1.466  -0.605  1.00  0.00    -0.030 A 
ATOM     19  C   UNL     1       0.396   2.197  -0.827  1.00  0.00     0.006 A 
ATOM     20  C   UNL     1       1.579   0.071  -0.832  1.00  0.00     0.069 A 
ATOM     21  C   UNL     1      -0.751   1.563  -1.290  1.00  0.00     0.023 A 
ATOM     22  Cl  UNL     1       3.110  -0.759  -0.804  1.00  0.00    -0.082 Cl
ATOM     23  C   UNL     1      -0.744   0.183  -1.481  1.00  0.00     0.066 A 
ATOM     24  Cl  UNL     1      -2.222  -0.565  -2.006  1.00  0.00    -0.082 Cl
ENDBRANCH  14  16
ENDBRANCH   9  14
ENDBRANCH   5   8
ENDBRANCH   3   4
ENDBRANCH   2   3
ENDBRANCH   1   2
BRANCH   1  25
ATOM     25  C   UNL     1      -2.717   1.051   2.312  1.00  0.00     0.116 C 
BRANCH  25  26
ATOM     26  N   UNL     1      -3.530   1.055   1.106  1.00  0.00    -0.352 N 
ATOM     27  C   UNL     1      -4.279   2.080   0.560  1.00  0.00     0.251 C 
ATOM     28  H   UNL     1      -3.549   0.207   0.607  1.00  0.00     0.163 HD
ATOM     29  O   UNL     1      -4.885   1.903  -0.484  1.00  0.00    -0.269 OA
BRANCH  27  30
ATOM     30  C   UNL     1      -4.386   3.379   1.269  1.00  0.00     0.039 A 
ATOM     31  C   UNL     1      -5.659   3.911   1.500  1.00  0.00     0.014 A 
ATOM     32  C   UNL     1      -3.254   4.050   1.738  1.00  0.00     0.014 A 
ATOM     33  C   UNL     1      -5.802   5.053   2.294  1.00  0.00     0.010 A 
ATOM     34  C   UNL     1      -3.403   5.153   2.580  1.00  0.00     0.010 A 
ATOM     35  C   UNL     1      -4.679   5.651   2.889  1.00  0.00    -0.014 A 
BRANCH  35  36
ATOM     36  C   UNL     1      -4.827   6.756   3.877  1.00  0.00     0.031 A 
ATOM     37  C   UNL     1      -4.267   8.122   3.587  1.00  0.00     0.074 A 
ATOM     38  C   UNL     1      -5.393   6.499   5.076  1.00  0.00     0.049 A 
ATOM     39  N   UNL     1      -4.230   9.181   4.356  1.00  0.00    -0.248 NA
ATOM     40  C   UNL     1      -3.639   8.314   2.272  1.00  0.00     0.031 C 
ATOM     41  C   UNL     1      -5.918   5.199   5.501  1.00  0.00     0.029 A 
ATOM     42  N   UNL     1      -5.606   7.309   6.166  1.00  0.00    -0.354 N 
ATOM     43  C   UNL     1      -3.558  10.158   3.628  1.00  0.00     0.074 A 
ATOM     44  C   UNL     1      -3.170   9.549   2.373  1.00  0.00     0.031 C 
ATOM     45  C   UNL     1      -6.401   5.302   6.750  1.00  0.00     0.029 A 
ATOM     46  C   UNL     1      -6.186   6.662   7.235  1.00  0.00     0.049 A 
ATOM     47  H   UNL     1      -5.366   8.263   6.181  1.00  0.00     0.167 HD
ATOM     48  C   UNL     1      -3.301  11.444   3.972  1.00  0.00     0.034 A 
ATOM     49  C   UNL     1      -6.499   7.106   8.469  1.00  0.00     0.034 A 
ATOM     50  C   UNL     1      -3.718  12.044   5.217  1.00  0.00     0.049 A 
ATOM     51  C   UNL     1      -6.231   8.552   8.811  1.00  0.00     0.074 A 
ATOM     52  C   UNL     1      -3.575  13.359   5.628  1.00  0.00     0.029 A 
ATOM     53  N   UNL     1      -4.353  11.373   6.253  1.00  0.00    -0.354 N 
ATOM     54  N   UNL     1      -5.665   9.482   8.077  1.00  0.00    -0.248 NA
ATOM     55  C   UNL     1      -6.664   9.013  10.137  1.00  0.00     0.031 C 
ATOM     56  C   UNL     1      -4.066  13.467   6.934  1.00  0.00     0.029 A 
ATOM     57  C   UNL     1      -4.584  12.239   7.311  1.00  0.00     0.049 A 
ATOM     58  H   UNL     1      -4.601  10.420   6.239  1.00  0.00     0.167 HD
ATOM     59  C   UNL     1      -5.712  10.646   8.840  1.00  0.00     0.074 A 
ATOM     60  C   UNL     1      -6.374  10.304  10.081  1.00  0.00     0.031 C 
ATOM     61  C   UNL     1      -5.253  11.888   8.540  1.00  0.00     0.034 A 
BRANCH  48  62
ATOM     62  C   UNL     1      -2.511  12.287   3.000  1.00  0.00     0.023 A 
ATOM     63  C   UNL     1      -3.016  12.629   1.734  1.00  0.00     0.031 A 
ATOM     64  C   UNL     1      -1.236  12.764   3.352  1.00  0.00     0.131 A 
ATOM     65  C   UNL     1      -2.228  13.376   0.845  1.00  0.00     0.055 A 
ATOM     66  C   UNL     1      -0.487  13.569   2.491  1.00  0.00     0.041 A 
ATOM     67  F   UNL     1      -0.694  12.454   4.541  1.00  0.00    -0.206 F 
ATOM     68  C   UNL     1      -0.978  13.870   1.225  1.00  0.00     0.022 A 
BRANCH  65  69
ATOM     69  S   UNL     1      -2.815  13.603  -0.855  1.00  0.00     0.124 S 
ATOM     70  O   UNL     1      -2.876  12.223  -1.331  1.00  0.00    -0.237 OA
ATOM     71  O   UNL     1      -4.098  14.269  -0.662  1.00  0.00    -0.237 OA
ATOM     72  O   UNL     1      -1.773  14.422  -1.472  1.00  0.00    -0.744 OA
ENDBRANCH  65  69
ENDBRANCH  48  62
BRANCH  49  73
ATOM     73  C   UNL     1      -7.089   6.186   9.486  1.00  0.00     0.023 A 
ATOM     74  C   UNL     1      -8.377   6.404  10.002  1.00  0.00     0.031 A 
ATOM     75  C   UNL     1      -6.346   5.113  10.008  1.00  0.00     0.131 A 
ATOM     76  C   UNL     1      -8.856   5.605  11.053  1.00  0.00     0.055 A 
ATOM     77  C   UNL     1      -6.850   4.283  11.011  1.00  0.00     0.041 A 
ATOM     78  F   UNL     1      -5.112   4.853   9.546  1.00  0.00    -0.206 F 
ATOM     79  C   UNL     1      -8.106   4.539  11.553  1.00  0.00     0.022 A 
BRANCH  76  80
ATOM     80  S   UNL     1     -10.429   6.055  11.838  1.00  0.00     0.124 S 
ATOM     81  O   UNL     1     -10.191   7.446  12.206  1.00  0.00    -0.237 OA
ATOM     82  O   UNL     1     -11.380   5.831  10.754  1.00  0.00    -0.237 OA
ATOM     83  O   UNL     1     -10.529   5.120  12.957  1.00  0.00    -0.744 OA
ENDBRANCH  76  80
ENDBRANCH  49  73
BRANCH  61  84
ATOM     84  C   UNL     1      -5.516  12.979   9.549  1.00  0.00     0.023 A 
ATOM     85  C   UNL     1      -4.914  12.980  10.819  1.00  0.00     0.031 A 
ATOM     86  C   UNL     1      -6.399  14.028   9.234  1.00  0.00     0.131 A 
ATOM     87  C   UNL     1      -5.250  13.975  11.750  1.00  0.00     0.055 A 
ATOM     88  C   UNL     1      -6.682  15.048  10.143  1.00  0.00     0.041 A 
ATOM     89  F   UNL     1      -7.003  14.076   8.036  1.00  0.00    -0.206 F 
ATOM     90  C   UNL     1      -6.118  15.018  11.414  1.00  0.00     0.022 A 
BRANCH  87  91
ATOM     91  S   UNL     1      -4.612  13.836  13.443  1.00  0.00     0.124 S 
ATOM     92  O   UNL     1      -5.105  12.524  13.847  1.00  0.00    -0.237 OA
ATOM     93  O   UNL     1      -3.170  13.940  13.241  1.00  0.00    -0.237 OA
ATOM     94  O   UNL     1      -5.224  14.969  14.134  1.00  0.00    -0.744 OA
ENDBRANCH  87  91
ENDBRANCH  61  84
ENDBRANCH  35  36
ENDBRANCH  27  30
ENDBRANCH  25  26
ENDBRANCH   1  25
TORSDOF 16
