REMARK SMILES COCCN1C(=O)C[C@H](C(=O)NCCCCNC(=O)c2ccc(-c3c4nc(c(-c5cc(S(=O)(=O)[O-])ccc5F)c5ccc([nH]5)c(-c5cc(S(=O)(=O)[O-])ccc5F)c5nc(c(-c6cc(S(=O)(=O)[O-])ccc6F)c6ccc3[nH]6)C=C5)C=C4)cc2)[C@@H]1c1ccccc1N1CCOCC1
REMARK SMILES IDX 14 1 13 2 12 3 10 4 11 5 9 7 5 8 6 9 83 10 7 11 8 12 4 13
REMARK SMILES IDX 3 14 2 15 1 16 84 17 85 18 89 19 86 20 88 21 87 22 90 23
REMARK SMILES IDX 91 24 95 25 92 26 94 27 93 28 15 29 16 30 17 31 18 32 19 34
REMARK SMILES IDX 20 35 21 36 82 37 22 38 81 39 23 40 24 41 25 42 75 43 26 44
REMARK SMILES IDX 80 45 74 46 76 47 27 48 79 49 73 50 72 51 28 53 60 54 40 55
REMARK SMILES IDX 59 56 41 57 44 58 58 59 77 60 42 61 43 62 57 64 78 65 45 66
REMARK SMILES IDX 29 67 30 68 38 69 31 70 37 71 39 72 36 73 32 74 33 75 34 76
REMARK SMILES IDX 35 77 61 78 62 79 70 80 63 81 69 82 71 83 68 84 64 85 65 86
REMARK SMILES IDX 66 87 67 88 46 89 47 90 55 91 48 92 54 93 56 94 53 95 49 96
REMARK SMILES IDX 50 97 51 98 52 99
REMARK H PARENT 12 6 17 33 76 52 44 63
REMARK Flexibility Score: inf
ROOT
ATOM      1  C   UNL     1       1.125   3.628   1.946  1.00  0.00     0.023 C 
ENDROOT
BRANCH   1   2
ATOM      2  C   UNL     1       0.662   3.264   0.544  1.00  0.00     0.116 C 
BRANCH   2   3
ATOM      3  N   UNL     1       1.116   4.214  -0.443  1.00  0.00    -0.356 N 
ATOM      4  C   UNL     1       1.445   4.030  -1.742  1.00  0.00     0.226 C 
ATOM      5  O   UNL     1       1.913   5.012  -2.334  1.00  0.00    -0.275 OA
ATOM      6  H   UNL     1       1.200   5.140  -0.120  1.00  0.00     0.163 HD
BRANCH   4   7
ATOM      7  C   UNL     1       1.472   2.689  -2.441  1.00  0.00     0.115 C 
ATOM      8  N   UNL     1       1.054   0.369  -2.203  1.00  0.00    -0.332 N 
ATOM      9  C   UNL     1       2.431   0.540  -2.163  1.00  0.00     0.224 C 
ATOM     10  C   UNL     1       0.331   1.641  -2.455  1.00  0.00     0.130 C 
ATOM     11  O   UNL     1       3.280  -0.338  -2.227  1.00  0.00    -0.275 OA
ATOM     12  C   UNL     1       2.736   1.978  -1.968  1.00  0.00     0.116 C 
BRANCH   8  13
ATOM     13  C   UNL     1       0.519  -0.969  -2.463  1.00  0.00     0.148 C 
BRANCH  13  14
ATOM     14  C   UNL     1       0.942  -2.032  -1.417  1.00  0.00     0.181 C 
BRANCH  14  15
ATOM     15  O   UNL     1       0.452  -1.786  -0.094  1.00  0.00    -0.383 OA
ATOM     16  C   UNL     1       1.294  -0.938   0.680  1.00  0.00     0.194 C 
ENDBRANCH  14  15
ENDBRANCH  13  14
ENDBRANCH   8  13
BRANCH  10  17
ATOM     17  C   UNL     1      -0.993   1.895  -1.724  1.00  0.00    -0.001 A 
ATOM     18  C   UNL     1      -1.495   0.942  -0.806  1.00  0.00     0.008 A 
ATOM     19  C   UNL     1      -1.763   3.079  -1.913  1.00  0.00     0.042 A 
ATOM     20  C   UNL     1      -2.668   1.126  -0.075  1.00  0.00     0.001 A 
ATOM     21  C   UNL     1      -2.953   3.237  -1.159  1.00  0.00     0.026 A 
ATOM     22  C   UNL     1      -3.397   2.283  -0.245  1.00  0.00     0.002 A 
BRANCH  19  23
ATOM     23  N   UNL     1      -1.346   4.113  -2.756  1.00  0.00    -0.367 N 
ATOM     24  C   UNL     1      -1.484   3.920  -4.209  1.00  0.00     0.145 C 
ATOM     25  C   UNL     1      -1.633   5.516  -2.354  1.00  0.00     0.145 C 
ATOM     26  C   UNL     1      -0.577   4.933  -4.927  1.00  0.00     0.181 C 
ATOM     27  C   UNL     1      -0.814   6.513  -3.191  1.00  0.00     0.181 C 
ATOM     28  O   UNL     1      -0.957   6.280  -4.603  1.00  0.00    -0.378 OA
ENDBRANCH  19  23
ENDBRANCH  10  17
ENDBRANCH   4   7
ENDBRANCH   2   3
ENDBRANCH   1   2
BRANCH   1  29
ATOM     29  C   UNL     1       0.364   4.807   2.559  1.00  0.00     0.023 C 
BRANCH  29  30
ATOM     30  C   UNL     1      -1.148   4.615   2.686  1.00  0.00     0.116 C 
BRANCH  30  31
ATOM     31  N   UNL     1      -1.502   3.419   3.435  1.00  0.00    -0.352 N 
ATOM     32  C   UNL     1      -2.208   3.296   4.608  1.00  0.00     0.251 C 
ATOM     33  H   UNL     1      -1.190   2.571   3.044  1.00  0.00     0.163 HD
ATOM     34  O   UNL     1      -2.232   2.217   5.194  1.00  0.00    -0.269 OA
BRANCH  32  35
ATOM     35  C   UNL     1      -2.915   4.468   5.168  1.00  0.00     0.039 A 
ATOM     36  C   UNL     1      -2.788   4.748   6.529  1.00  0.00     0.014 A 
ATOM     37  C   UNL     1      -3.693   5.292   4.350  1.00  0.00     0.014 A 
ATOM     38  C   UNL     1      -3.378   5.901   7.053  1.00  0.00     0.010 A 
ATOM     39  C   UNL     1      -4.212   6.481   4.857  1.00  0.00     0.010 A 
ATOM     40  C   UNL     1      -4.055   6.803   6.213  1.00  0.00    -0.014 A 
BRANCH  40  41
ATOM     41  C   UNL     1      -4.566   8.095   6.744  1.00  0.00     0.031 A 
ATOM     42  C   UNL     1      -6.039   8.402   6.738  1.00  0.00     0.074 A 
ATOM     43  C   UNL     1      -3.687   9.012   7.198  1.00  0.00     0.049 A 
ATOM     44  N   UNL     1      -6.662   9.473   7.159  1.00  0.00    -0.248 NA
ATOM     45  C   UNL     1      -6.926   7.382   6.159  1.00  0.00     0.031 C 
ATOM     46  C   UNL     1      -2.231   8.853   7.203  1.00  0.00     0.029 A 
ATOM     47  N   UNL     1      -3.884  10.254   7.747  1.00  0.00    -0.354 N 
ATOM     48  C   UNL     1      -8.011   9.259   6.896  1.00  0.00     0.074 A 
ATOM     49  C   UNL     1      -8.104   7.984   6.216  1.00  0.00     0.031 C 
ATOM     50  C   UNL     1      -1.671   9.934   7.767  1.00  0.00     0.029 A 
ATOM     51  C   UNL     1      -2.719  10.886   8.120  1.00  0.00     0.049 A 
ATOM     52  H   UNL     1      -4.775  10.656   7.864  1.00  0.00     0.167 HD
ATOM     53  C   UNL     1      -9.073  10.040   7.216  1.00  0.00     0.034 A 
ATOM     54  C   UNL     1      -2.515  12.095   8.678  1.00  0.00     0.034 A 
ATOM     55  C   UNL     1      -8.961  11.311   7.893  1.00  0.00     0.049 A 
ATOM     56  C   UNL     1      -3.711  12.954   9.002  1.00  0.00     0.074 A 
ATOM     57  C   UNL     1      -9.973  12.158   8.311  1.00  0.00     0.029 A 
ATOM     58  N   UNL     1      -7.764  11.927   8.242  1.00  0.00    -0.354 N 
ATOM     59  N   UNL     1      -4.986  12.705   8.808  1.00  0.00    -0.248 NA
ATOM     60  C   UNL     1      -3.439  14.249   9.635  1.00  0.00     0.031 C 
ATOM     61  C   UNL     1      -9.391  13.317   8.836  1.00  0.00     0.029 A 
ATOM     62  C   UNL     1      -8.014  13.158   8.833  1.00  0.00     0.049 A 
ATOM     63  H   UNL     1      -6.869  11.546   8.092  1.00  0.00     0.167 HD
ATOM     64  C   UNL     1      -5.668  13.805   9.321  1.00  0.00     0.074 A 
ATOM     65  C   UNL     1      -4.663  14.698   9.861  1.00  0.00     0.031 C 
ATOM     66  C   UNL     1      -7.003  14.056   9.344  1.00  0.00     0.034 A 
BRANCH  53  67
ATOM     67  C   UNL     1     -10.445   9.551   6.810  1.00  0.00     0.023 A 
ATOM     68  C   UNL     1     -10.981   8.349   7.308  1.00  0.00     0.031 A 
ATOM     69  C   UNL     1     -11.225  10.287   5.900  1.00  0.00     0.131 A 
ATOM     70  C   UNL     1     -12.218   7.883   6.839  1.00  0.00     0.055 A 
ATOM     71  C   UNL     1     -12.495   9.861   5.503  1.00  0.00     0.041 A 
ATOM     72  F   UNL     1     -10.762  11.430   5.370  1.00  0.00    -0.206 F 
ATOM     73  C   UNL     1     -12.992   8.645   5.961  1.00  0.00     0.022 A 
BRANCH  70  74
ATOM     74  S   UNL     1     -12.733   6.200   7.276  1.00  0.00     0.124 S 
ATOM     75  O   UNL     1     -11.623   5.407   6.752  1.00  0.00    -0.237 OA
ATOM     76  O   UNL     1     -12.839   6.269   8.728  1.00  0.00    -0.237 OA
ATOM     77  O   UNL     1     -13.998   6.032   6.563  1.00  0.00    -0.744 OA
ENDBRANCH  70  74
ENDBRANCH  53  67
BRANCH  54  78
ATOM     78  C   UNL     1      -1.131  12.576   8.963  1.00  0.00     0.023 A 
ATOM     79  C   UNL     1      -0.711  12.844  10.276  1.00  0.00     0.031 A 
ATOM     80  C   UNL     1      -0.222  12.823   7.918  1.00  0.00     0.131 A 
ATOM     81  C   UNL     1       0.561  13.391  10.506  1.00  0.00     0.055 A 
ATOM     82  C   UNL     1       1.064  13.309   8.158  1.00  0.00     0.041 A 
ATOM     83  F   UNL     1      -0.570  12.582   6.644  1.00  0.00    -0.206 F 
ATOM     84  C   UNL     1       1.457  13.611   9.458  1.00  0.00     0.022 A 
BRANCH  81  85
ATOM     85  S   UNL     1       0.993  13.906  12.191  1.00  0.00     0.124 S 
ATOM     86  O   UNL     1      -0.067  14.861  12.491  1.00  0.00    -0.237 OA
ATOM     87  O   UNL     1       0.942  12.640  12.916  1.00  0.00    -0.237 OA
ATOM     88  O   UNL     1       2.328  14.480  12.039  1.00  0.00    -0.744 OA
ENDBRANCH  81  85
ENDBRANCH  54  78
BRANCH  66  89
ATOM     89  C   UNL     1      -7.442  15.343  10.005  1.00  0.00     0.023 A 
ATOM     90  C   UNL     1      -7.059  16.599   9.501  1.00  0.00     0.031 A 
ATOM     91  C   UNL     1      -8.211  15.314  11.182  1.00  0.00     0.131 A 
ATOM     92  C   UNL     1      -7.366  17.765  10.218  1.00  0.00     0.055 A 
ATOM     93  C   UNL     1      -8.584  16.483  11.848  1.00  0.00     0.041 A 
ATOM     94  F   UNL     1      -8.605  14.146  11.714  1.00  0.00    -0.206 F 
ATOM     95  C   UNL     1      -8.143  17.717  11.378  1.00  0.00     0.022 A 
BRANCH  92  96
ATOM     96  S   UNL     1      -6.614  19.330   9.693  1.00  0.00     0.124 S 
ATOM     97  O   UNL     1      -5.192  19.004   9.714  1.00  0.00    -0.237 OA
ATOM     98  O   UNL     1      -7.202  19.531   8.373  1.00  0.00    -0.237 OA
ATOM     99  O   UNL     1      -7.048  20.280  10.716  1.00  0.00    -0.744 OA
ENDBRANCH  92  96
ENDBRANCH  66  89
ENDBRANCH  40  41
ENDBRANCH  32  35
ENDBRANCH  30  31
ENDBRANCH  29  30
ENDBRANCH   1  29
TORSDOF 19
