REMARK SMILES Cc1ccn2c([C@@H]3CCCC[C@@H]3C(=O)NCCCCNC(=O)c3ccc(-c4c5nc(c(-c6cc(S(=O)(=O)[O-])ccc6F)c6ccc([nH]6)c(-c6cc(S(=O)(=O)[O-])ccc6F)c6nc(c(-c7cc(S(=O)(=O)[O-])ccc7F)c7ccc4[nH]7)C=C6)C=C5)cc3)nnc2c1
REMARK SMILES IDX 18 1 17 2 16 3 15 4 13 5 14 6 12 8 7 9 8 10 9 11 11 12 10 13
REMARK SMILES IDX 6 14 1 15 2 16 3 17 89 18 4 19 88 20 5 21 87 22 86 23 19 24
REMARK SMILES IDX 20 25 21 26 22 28 23 29 24 30 85 31 25 32 84 33 26 34 27 35
REMARK SMILES IDX 28 36 78 37 29 38 83 39 77 40 79 41 30 42 82 43 76 44 75 45
REMARK SMILES IDX 31 47 63 48 43 49 62 50 44 51 47 52 61 53 80 54 45 55 46 56
REMARK SMILES IDX 60 58 81 59 48 60 32 61 33 62 41 63 34 64 40 65 42 66 39 67
REMARK SMILES IDX 35 68 36 69 37 70 38 71 64 72 65 73 73 74 66 75 72 76 74 77
REMARK SMILES IDX 71 78 67 79 68 80 69 81 70 82 49 83 50 84 58 85 51 86 57 87
REMARK SMILES IDX 59 88 56 89 52 90 53 91 54 92 55 93
REMARK H PARENT 15 7 20 27 79 46 47 57
REMARK Flexibility Score: inf
ROOT
ATOM      1  C   UNL     1      -4.209   1.168   4.348  1.00  0.00     0.023 C 
ENDROOT
BRANCH   1   2
ATOM      2  C   UNL     1      -3.090   2.204   4.186  1.00  0.00     0.023 C 
BRANCH   2   3
ATOM      3  C   UNL     1      -2.712   2.521   2.749  1.00  0.00     0.116 C 
BRANCH   3   4
ATOM      4  N   UNL     1      -3.800   3.069   1.964  1.00  0.00    -0.356 N 
ATOM      5  C   UNL     1      -3.825   4.040   1.024  1.00  0.00     0.223 C 
ATOM      6  O   UNL     1      -4.613   3.836   0.088  1.00  0.00    -0.275 OA
ATOM      7  H   UNL     1      -4.676   2.661   2.148  1.00  0.00     0.163 HD
BRANCH   5   8
ATOM      8  C   UNL     1      -3.117   5.397   1.081  1.00  0.00     0.089 C 
ATOM      9  C   UNL     1      -1.705   5.707   1.587  1.00  0.00     0.071 C 
ATOM     10  C   UNL     1      -1.532   5.778   3.119  1.00  0.00     0.012 C 
ATOM     11  C   UNL     1      -2.654   6.534   3.832  1.00  0.00     0.001 C 
ATOM     12  C   UNL     1      -4.114   6.348   1.788  1.00  0.00     0.014 C 
ATOM     13  C   UNL     1      -4.046   6.214   3.306  1.00  0.00     0.001 C 
BRANCH   9  14
ATOM     14  C   UNL     1      -0.477   5.163   0.887  1.00  0.00     0.141 A 
ATOM     15  C   UNL     1       1.685   0.144  -0.271  1.00  0.00     0.044 C 
ATOM     16  C   UNL     1       1.092   1.513  -0.132  1.00  0.00    -0.046 A 
ATOM     17  C   UNL     1      -0.362   1.602  -0.164  1.00  0.00     0.022 A 
ATOM     18  C   UNL     1       1.835   2.630   0.020  1.00  0.00     0.053 A 
ATOM     19  C   UNL     1      -0.955   2.780   0.089  1.00  0.00     0.095 A 
ATOM     20  C   UNL     1       1.198   3.879   0.266  1.00  0.00     0.161 A 
ATOM     21  N   UNL     1      -0.189   3.897   0.400  1.00  0.00    -0.286 N 
ATOM     22  N   UNL     1       1.671   5.092   0.416  1.00  0.00    -0.130 NA
ATOM     23  N   UNL     1       0.626   5.895   0.785  1.00  0.00    -0.134 NA
ENDBRANCH   9  14
ENDBRANCH   5   8
ENDBRANCH   3   4
ENDBRANCH   2   3
ENDBRANCH   1   2
BRANCH   1  24
ATOM     24  C   UNL     1      -4.007  -0.166   3.618  1.00  0.00     0.116 C 
BRANCH  24  25
ATOM     25  N   UNL     1      -2.780  -0.865   3.947  1.00  0.00    -0.352 N 
ATOM     26  C   UNL     1      -2.435  -1.804   4.885  1.00  0.00     0.251 C 
ATOM     27  H   UNL     1      -2.026  -0.608   3.368  1.00  0.00     0.163 HD
ATOM     28  O   UNL     1      -1.345  -2.355   4.709  1.00  0.00    -0.269 OA
BRANCH  26  29
ATOM     29  C   UNL     1      -3.233  -2.150   6.097  1.00  0.00     0.039 A 
ATOM     30  C   UNL     1      -4.468  -1.601   6.425  1.00  0.00     0.014 A 
ATOM     31  C   UNL     1      -2.647  -3.055   7.007  1.00  0.00     0.014 A 
ATOM     32  C   UNL     1      -5.053  -1.866   7.660  1.00  0.00     0.010 A 
ATOM     33  C   UNL     1      -3.246  -3.349   8.235  1.00  0.00     0.010 A 
ATOM     34  C   UNL     1      -4.437  -2.722   8.581  1.00  0.00    -0.014 A 
BRANCH  34  35
ATOM     35  C   UNL     1      -5.173  -2.995   9.817  1.00  0.00     0.031 A 
ATOM     36  C   UNL     1      -6.538  -3.544   9.607  1.00  0.00     0.074 A 
ATOM     37  C   UNL     1      -4.720  -2.845  11.078  1.00  0.00     0.049 A 
ATOM     38  N   UNL     1      -7.670  -2.944   9.788  1.00  0.00    -0.248 NA
ATOM     39  C   UNL     1      -6.649  -4.875   8.995  1.00  0.00     0.031 C 
ATOM     40  C   UNL     1      -3.338  -2.645  11.515  1.00  0.00     0.029 A 
ATOM     41  N   UNL     1      -5.415  -2.922  12.257  1.00  0.00    -0.354 N 
ATOM     42  C   UNL     1      -8.648  -3.898   9.517  1.00  0.00     0.074 A 
ATOM     43  C   UNL     1      -7.972  -4.997   8.873  1.00  0.00     0.031 C 
ATOM     44  C   UNL     1      -3.264  -2.836  12.853  1.00  0.00     0.029 A 
ATOM     45  C   UNL     1      -4.609  -2.989  13.383  1.00  0.00     0.049 A 
ATOM     46  H   UNL     1      -6.398  -2.928  12.300  1.00  0.00     0.167 HD
ATOM     47  C   UNL     1      -9.893  -3.815  10.064  1.00  0.00     0.034 A 
ATOM     48  C   UNL     1      -5.002  -3.175  14.665  1.00  0.00     0.034 A 
ATOM     49  C   UNL     1     -10.126  -2.532  10.667  1.00  0.00     0.049 A 
ATOM     50  C   UNL     1      -6.413  -2.766  14.821  1.00  0.00     0.074 A 
ATOM     51  C   UNL     1     -10.530  -1.281  10.263  1.00  0.00     0.029 A 
ATOM     52  N   UNL     1      -9.616  -2.411  11.930  1.00  0.00    -0.354 N 
ATOM     53  N   UNL     1      -6.824  -1.532  14.759  1.00  0.00    -0.248 NA
ATOM     54  C   UNL     1      -7.466  -3.778  14.815  1.00  0.00     0.031 C 
ATOM     55  C   UNL     1     -10.119  -0.375  11.285  1.00  0.00     0.029 A 
ATOM     56  C   UNL     1      -9.485  -1.096  12.294  1.00  0.00     0.049 A 
ATOM     57  H   UNL     1      -9.373  -3.172  12.505  1.00  0.00     0.167 HD
ATOM     58  C   UNL     1      -8.104  -1.634  14.261  1.00  0.00     0.074 A 
ATOM     59  C   UNL     1      -8.513  -3.008  14.514  1.00  0.00     0.031 C 
ATOM     60  C   UNL     1      -8.589  -0.723  13.371  1.00  0.00     0.034 A 
BRANCH  47  61
ATOM     61  C   UNL     1     -10.739  -5.013  10.439  1.00  0.00     0.023 A 
ATOM     62  C   UNL     1     -10.216  -6.316  10.515  1.00  0.00     0.031 A 
ATOM     63  C   UNL     1     -12.034  -4.841  10.973  1.00  0.00     0.131 A 
ATOM     64  C   UNL     1     -10.952  -7.378  11.056  1.00  0.00     0.055 A 
ATOM     65  C   UNL     1     -12.744  -5.888  11.580  1.00  0.00     0.041 A 
ATOM     66  F   UNL     1     -12.631  -3.639  10.968  1.00  0.00    -0.206 F 
ATOM     67  C   UNL     1     -12.204  -7.167  11.621  1.00  0.00     0.022 A 
BRANCH  64  68
ATOM     68  S   UNL     1     -10.265  -9.057  11.034  1.00  0.00     0.124 S 
ATOM     69  O   UNL     1     -10.251  -9.393  12.459  1.00  0.00    -0.237 OA
ATOM     70  O   UNL     1     -11.258  -9.768  10.229  1.00  0.00    -0.237 OA
ATOM     71  O   UNL     1      -8.967  -8.888  10.406  1.00  0.00    -0.744 OA
ENDBRANCH  64  68
ENDBRANCH  47  61
BRANCH  48  72
ATOM     72  C   UNL     1      -4.315  -3.934  15.729  1.00  0.00     0.023 A 
ATOM     73  C   UNL     1      -3.616  -5.106  15.393  1.00  0.00     0.031 A 
ATOM     74  C   UNL     1      -4.618  -3.718  17.085  1.00  0.00     0.131 A 
ATOM     75  C   UNL     1      -3.307  -6.048  16.381  1.00  0.00     0.055 A 
ATOM     76  C   UNL     1      -4.292  -4.653  18.072  1.00  0.00     0.041 A 
ATOM     77  F   UNL     1      -5.305  -2.630  17.466  1.00  0.00    -0.206 F 
ATOM     78  C   UNL     1      -3.649  -5.835  17.719  1.00  0.00     0.022 A 
BRANCH  75  79
ATOM     79  S   UNL     1      -2.532  -7.626  15.934  1.00  0.00     0.124 S 
ATOM     80  O   UNL     1      -1.479  -7.748  16.940  1.00  0.00    -0.237 OA
ATOM     81  O   UNL     1      -3.648  -8.554  16.078  1.00  0.00    -0.237 OA
ATOM     82  O   UNL     1      -2.060  -7.399  14.572  1.00  0.00    -0.744 OA
ENDBRANCH  75  79
ENDBRANCH  48  72
BRANCH  60  83
ATOM     83  C   UNL     1      -8.019   0.667  13.377  1.00  0.00     0.023 A 
ATOM     84  C   UNL     1      -8.931   1.726  13.524  1.00  0.00     0.031 A 
ATOM     85  C   UNL     1      -6.673   0.991  13.134  1.00  0.00     0.131 A 
ATOM     86  C   UNL     1      -8.507   3.051  13.390  1.00  0.00     0.055 A 
ATOM     87  C   UNL     1      -6.239   2.320  13.076  1.00  0.00     0.041 A 
ATOM     88  F   UNL     1      -5.757   0.045  12.883  1.00  0.00    -0.206 F 
ATOM     89  C   UNL     1      -7.159   3.358  13.189  1.00  0.00     0.022 A 
BRANCH  86  90
ATOM     90  S   UNL     1      -9.720   4.394  13.332  1.00  0.00     0.124 S 
ATOM     91  O   UNL     1      -9.408   5.148  14.543  1.00  0.00    -0.237 OA
ATOM     92  O   UNL     1      -9.383   5.061  12.075  1.00  0.00    -0.237 OA
ATOM     93  O   UNL     1     -11.008   3.707  13.336  1.00  0.00    -0.744 OA
ENDBRANCH  86  90
ENDBRANCH  60  83
ENDBRANCH  34  35
ENDBRANCH  26  29
ENDBRANCH  24  25
ENDBRANCH   1  24
TORSDOF 15
