REMARK SMILES O=C(NCCCCNC(=O)[C@@H]1[C@H](C(=O)Nc2ccccc2OC(F)F)[C@@H]2C=C[C@H]1C2)c1ccc(-c2c3nc(c(-c4cc(S(=O)(=O)[O-])ccc4F)c4ccc([nH]4)c(-c4cc(S(=O)(=O)[O-])ccc4F)c4nc(c(-c5cc(S(=O)(=O)[O-])ccc5F)c5ccc2[nH]5)C=C4)C=C3)cc1
REMARK SMILES IDX 6 1 5 2 4 3 3 4 1 5 2 6 31 8 32 9 93 10 33 11 92 12 34 13
REMARK SMILES IDX 35 14 36 15 86 16 37 17 91 18 85 19 87 20 38 21 90 22 84 23
REMARK SMILES IDX 83 24 39 26 71 27 51 28 70 29 52 30 55 31 69 32 88 33 53 34
REMARK SMILES IDX 54 35 68 37 89 38 56 39 40 40 41 41 49 42 42 43 48 44 50 45
REMARK SMILES IDX 47 46 43 47 44 48 45 49 46 50 72 51 73 52 81 53 74 54 80 55
REMARK SMILES IDX 82 56 79 57 75 58 76 59 77 60 78 61 57 62 58 63 66 64 59 65
REMARK SMILES IDX 65 66 67 67 64 68 60 69 61 70 62 71 63 72 7 73 8 74 9 75
REMARK SMILES IDX 10 77 11 78 12 79 29 80 26 81 28 82 30 83 27 84 13 85 14 86
REMARK SMILES IDX 15 87 16 89 17 90 21 91 18 92 20 93 19 94 22 95 23 96 24 97
REMARK SMILES IDX 25 98
REMARK H PARENT 3 7 87 25 55 36 8 76 15 88
REMARK Flexibility Score: inf
ROOT
ATOM      1  C   UNL     1       4.054   2.702   2.634  1.00  0.00     0.023 C 
ENDROOT
BRANCH   1   2
ATOM      2  C   UNL     1       4.606   2.052   1.366  1.00  0.00     0.023 C 
BRANCH   2   3
ATOM      3  C   UNL     1       4.291   0.583   1.153  1.00  0.00     0.116 C 
BRANCH   3   4
ATOM      4  N   UNL     1       2.876   0.334   0.953  1.00  0.00    -0.352 N 
ATOM      5  O   UNL     1       1.016  -0.215  -0.192  1.00  0.00    -0.269 OA
ATOM      6  C   UNL     1       2.248  -0.256  -0.116  1.00  0.00     0.251 C 
ATOM      7  H   UNL     1       2.286   0.627   1.684  1.00  0.00     0.163 HD
BRANCH   6   8
ATOM      8  C   UNL     1       3.034  -0.934  -1.173  1.00  0.00     0.039 A 
ATOM      9  C   UNL     1       4.121  -1.747  -0.842  1.00  0.00     0.014 A 
ATOM     10  C   UNL     1       2.648  -0.799  -2.510  1.00  0.00     0.014 A 
ATOM     11  C   UNL     1       4.883  -2.337  -1.845  1.00  0.00     0.010 A 
ATOM     12  C   UNL     1       3.357  -1.472  -3.512  1.00  0.00     0.010 A 
ATOM     13  C   UNL     1       4.478  -2.250  -3.186  1.00  0.00    -0.014 A 
BRANCH  13  14
ATOM     14  C   UNL     1       5.141  -3.111  -4.198  1.00  0.00     0.031 A 
ATOM     15  C   UNL     1       5.906  -2.525  -5.350  1.00  0.00     0.074 A 
ATOM     16  C   UNL     1       5.021  -4.449  -4.060  1.00  0.00     0.049 A 
ATOM     17  N   UNL     1       6.492  -3.143  -6.342  1.00  0.00    -0.248 NA
ATOM     18  C   UNL     1       6.025  -1.061  -5.401  1.00  0.00     0.031 C 
ATOM     19  C   UNL     1       4.291  -5.117  -2.975  1.00  0.00     0.029 A 
ATOM     20  N   UNL     1       5.498  -5.487  -4.817  1.00  0.00    -0.354 N 
ATOM     21  C   UNL     1       7.029  -2.149  -7.152  1.00  0.00     0.074 A 
ATOM     22  C   UNL     1       6.691  -0.882  -6.536  1.00  0.00     0.031 C 
ATOM     23  C   UNL     1       4.394  -6.444  -3.122  1.00  0.00     0.029 A 
ATOM     24  C   UNL     1       5.110  -6.726  -4.358  1.00  0.00     0.049 A 
ATOM     25  H   UNL     1       6.064  -5.359  -5.613  1.00  0.00     0.167 HD
ATOM     26  C   UNL     1       7.729  -2.292  -8.303  1.00  0.00     0.034 A 
ATOM     27  C   UNL     1       5.262  -7.951  -4.896  1.00  0.00     0.034 A 
ATOM     28  C   UNL     1       8.056  -3.572  -8.887  1.00  0.00     0.049 A 
ATOM     29  C   UNL     1       5.992  -8.067  -6.207  1.00  0.00     0.074 A 
ATOM     30  C   UNL     1       8.827  -3.833 -10.007  1.00  0.00     0.029 A 
ATOM     31  N   UNL     1       7.611  -4.802  -8.419  1.00  0.00    -0.354 N 
ATOM     32  N   UNL     1       6.548  -7.118  -6.924  1.00  0.00    -0.248 NA
ATOM     33  C   UNL     1       6.112  -9.411  -6.784  1.00  0.00     0.031 C 
ATOM     34  C   UNL     1       8.771  -5.205 -10.268  1.00  0.00     0.029 A 
ATOM     35  C   UNL     1       8.039  -5.816  -9.262  1.00  0.00     0.049 A 
ATOM     36  H   UNL     1       7.070  -4.934  -7.607  1.00  0.00     0.167 HD
ATOM     37  C   UNL     1       7.093  -7.755  -8.033  1.00  0.00     0.074 A 
ATOM     38  C   UNL     1       6.829  -9.170  -7.872  1.00  0.00     0.031 C 
ATOM     39  C   UNL     1       7.749  -7.219  -9.093  1.00  0.00     0.034 A 
BRANCH  26  40
ATOM     40  C   UNL     1       8.144  -1.047  -9.050  1.00  0.00     0.023 A 
ATOM     41  C   UNL     1       9.093  -0.145  -8.540  1.00  0.00     0.031 A 
ATOM     42  C   UNL     1       7.608  -0.788 -10.326  1.00  0.00     0.131 A 
ATOM     43  C   UNL     1       9.450   0.990  -9.287  1.00  0.00     0.055 A 
ATOM     44  C   UNL     1       8.014   0.306 -11.090  1.00  0.00     0.041 A 
ATOM     45  F   UNL     1       6.683  -1.605 -10.855  1.00  0.00    -0.206 F 
ATOM     46  C   UNL     1       8.936   1.208 -10.568  1.00  0.00     0.022 A 
BRANCH  43  47
ATOM     47  S   UNL     1      10.528   2.233  -8.523  1.00  0.00     0.124 S 
ATOM     48  O   UNL     1       9.752   2.615  -7.346  1.00  0.00    -0.237 OA
ATOM     49  O   UNL     1      11.748   1.477  -8.265  1.00  0.00    -0.237 OA
ATOM     50  O   UNL     1      10.642   3.267  -9.549  1.00  0.00    -0.744 OA
ENDBRANCH  43  47
ENDBRANCH  26  40
BRANCH  27  51
ATOM     51  C   UNL     1       4.645  -9.146  -4.248  1.00  0.00     0.023 A 
ATOM     52  C   UNL     1       5.427 -10.234  -3.837  1.00  0.00     0.031 A 
ATOM     53  C   UNL     1       3.249  -9.243  -4.088  1.00  0.00     0.131 A 
ATOM     54  C   UNL     1       4.808 -11.393  -3.343  1.00  0.00     0.055 A 
ATOM     55  C   UNL     1       2.644 -10.368  -3.527  1.00  0.00     0.041 A 
ATOM     56  F   UNL     1       2.448  -8.235  -4.469  1.00  0.00    -0.206 F 
ATOM     57  C   UNL     1       3.424 -11.460  -3.168  1.00  0.00     0.022 A 
BRANCH  54  58
ATOM     58  S   UNL     1       5.830 -12.863  -3.057  1.00  0.00     0.124 S 
ATOM     59  O   UNL     1       6.481 -13.027  -4.353  1.00  0.00    -0.237 OA
ATOM     60  O   UNL     1       6.687 -12.427  -1.960  1.00  0.00    -0.237 OA
ATOM     61  O   UNL     1       4.854 -13.894  -2.714  1.00  0.00    -0.744 OA
ENDBRANCH  54  58
ENDBRANCH  27  51
BRANCH  39  62
ATOM     62  C   UNL     1       8.239  -8.181 -10.144  1.00  0.00     0.023 A 
ATOM     63  C   UNL     1       7.345  -8.895 -10.960  1.00  0.00     0.031 A 
ATOM     64  C   UNL     1       9.617  -8.388 -10.330  1.00  0.00     0.131 A 
ATOM     65  C   UNL     1       7.837  -9.817 -11.894  1.00  0.00     0.055 A 
ATOM     66  C   UNL     1      10.103  -9.260 -11.305  1.00  0.00     0.041 A 
ATOM     67  F   UNL     1      10.514  -7.737  -9.572  1.00  0.00    -0.206 F 
ATOM     68  C   UNL     1       9.210  -9.989 -12.086  1.00  0.00     0.022 A 
BRANCH  65  69
ATOM     69  S   UNL     1       6.656 -10.850 -12.802  1.00  0.00     0.124 S 
ATOM     70  O   UNL     1       6.005 -11.585 -11.723  1.00  0.00    -0.237 OA
ATOM     71  O   UNL     1       5.832  -9.859 -13.486  1.00  0.00    -0.237 OA
ATOM     72  O   UNL     1       7.507 -11.656 -13.677  1.00  0.00    -0.744 OA
ENDBRANCH  65  69
ENDBRANCH  39  62
ENDBRANCH  13  14
ENDBRANCH   6   8
ENDBRANCH   3   4
ENDBRANCH   2   3
ENDBRANCH   1   2
BRANCH   1  73
ATOM     73  C   UNL     1       4.411   2.047   3.965  1.00  0.00     0.116 C 
BRANCH  73  74
ATOM     74  N   UNL     1       5.833   1.966   4.259  1.00  0.00    -0.356 N 
ATOM     75  C   UNL     1       6.560   2.607   5.229  1.00  0.00     0.224 C 
ATOM     76  H   UNL     1       6.348   1.362   3.677  1.00  0.00     0.163 HD
ATOM     77  O   UNL     1       7.578   2.042   5.638  1.00  0.00    -0.275 OA
BRANCH  75  78
ATOM     78  C   UNL     1       6.042   3.874   5.870  1.00  0.00     0.098 C 
ATOM     79  C   UNL     1       5.757   5.235   5.175  1.00  0.00     0.099 C 
ATOM     80  C   UNL     1       6.791   4.312   7.164  1.00  0.00     0.025 C 
ATOM     81  C   UNL     1       6.136   6.268   6.294  1.00  0.00     0.025 C 
ATOM     82  C   UNL     1       8.028   5.136   6.889  1.00  0.00    -0.027 C 
ATOM     83  C   UNL     1       5.871   5.472   7.582  1.00  0.00     0.017 C 
ATOM     84  C   UNL     1       7.630   6.330   6.428  1.00  0.00    -0.027 C 
BRANCH  79  85
ATOM     85  C   UNL     1       6.091   5.767   3.764  1.00  0.00     0.229 C 
ATOM     86  O   UNL     1       5.122   6.138   3.075  1.00  0.00    -0.274 OA
ATOM     87  N   UNL     1       7.304   6.134   3.265  1.00  0.00    -0.323 N 
ATOM     88  H   UNL     1       7.232   6.807   2.549  1.00  0.00     0.170 HD
BRANCH  87  89
ATOM     89  C   UNL     1       8.630   5.774   3.536  1.00  0.00     0.084 A 
ATOM     90  C   UNL     1       9.605   6.776   3.487  1.00  0.00     0.030 A 
ATOM     91  C   UNL     1       9.052   4.470   3.771  1.00  0.00     0.149 A 
ATOM     92  C   UNL     1      10.919   6.507   3.891  1.00  0.00     0.002 A 
ATOM     93  C   UNL     1      10.336   4.204   4.251  1.00  0.00     0.049 A 
ATOM     94  C   UNL     1      11.269   5.232   4.330  1.00  0.00     0.004 A 
BRANCH  91  95
ATOM     95  O   UNL     1       8.309   3.382   3.440  1.00  0.00    -0.433 OA
BRANCH  95  96
ATOM     96  C   UNL     1       8.028   3.279   2.048  1.00  0.00     0.542 C 
ATOM     97  F   UNL     1       6.885   3.948   1.776  1.00  0.00    -0.167 F 
ATOM     98  F   UNL     1       9.015   3.816   1.296  1.00  0.00    -0.167 F 
ENDBRANCH  95  96
ENDBRANCH  91  95
ENDBRANCH  87  89
ENDBRANCH  79  85
ENDBRANCH  75  78
ENDBRANCH  73  74
ENDBRANCH   1  73
TORSDOF 18
