REMARK SMILES CCOC(=O)c1c(NC(=O)[C@@H]2[C@@H]3CC[C@@H](C3)[C@@H]2C(=O)NCCCCNC(=O)c2ccc(-c3c4nc(c(-c5cc(S(=O)(=O)[O-])ccc5F)c5ccc([nH]5)c(-c5cc(S(=O)(=O)[O-])ccc5F)c5nc(c(-c6cc(S(=O)(=O)[O-])ccc6F)c6ccc3[nH]6)C=C5)C=C4)cc2)sc2c1CCCC2
REMARK SMILES IDX 21 1 20 2 18 3 19 4 17 6 11 7 12 8 13 9 16 10 15 11 14 12
REMARK SMILES IDX 9 13 8 14 10 16 7 17 6 18 93 19 91 20 92 21 94 22 97 23
REMARK SMILES IDX 95 24 96 25 4 26 5 27 3 28 2 29 1 30 22 31 23 32 24 33 25 34
REMARK SMILES IDX 26 35 27 37 28 38 29 39 90 40 30 41 89 42 31 43 32 44 33 45
REMARK SMILES IDX 83 46 34 47 88 48 82 49 84 50 35 51 87 52 81 53 80 54 36 56
REMARK SMILES IDX 68 57 48 58 67 59 49 60 52 61 66 62 85 63 50 64 51 65 65 67
REMARK SMILES IDX 86 68 53 69 37 70 38 71 46 72 39 73 45 74 47 75 44 76 40 77
REMARK SMILES IDX 41 78 42 79 43 80 69 81 70 82 78 83 71 84 77 85 79 86 76 87
REMARK SMILES IDX 72 88 73 89 74 90 75 91 54 92 55 93 63 94 56 95 62 96 64 97
REMARK SMILES IDX 61 98 57 99 58 100 59 101 60 102
REMARK H PARENT 20 5 8 15 25 36 84 55 52 66
REMARK Flexibility Score: inf
ROOT
ATOM      1  C   UNL     1       2.046   1.458   2.369  1.00  0.00     0.116 C 
ENDROOT
BRANCH   1   2
ATOM      2  N   UNL     1       1.708   0.065   2.219  1.00  0.00    -0.356 N 
ATOM      3  C   UNL     1       1.633  -0.715   1.111  1.00  0.00     0.224 C 
ATOM      4  O   UNL     1       1.489  -1.929   1.306  1.00  0.00    -0.275 OA
ATOM      5  H   UNL     1       1.497  -0.399   3.062  1.00  0.00     0.163 HD
BRANCH   3   6
ATOM      6  C   UNL     1       1.579  -0.201  -0.336  1.00  0.00     0.094 C 
ATOM      7  C   UNL     1       2.474   0.913  -0.934  1.00  0.00     0.094 C 
ATOM      8  C   UNL     1       1.429   1.929  -1.474  1.00  0.00     0.002 C 
ATOM      9  C   UNL     1       0.458   2.547  -0.448  1.00  0.00     0.005 C 
ATOM     10  C   UNL     1       0.461   0.934  -2.140  1.00  0.00     0.009 C 
ATOM     11  C   UNL     1       0.161   0.203  -0.821  1.00  0.00     0.002 C 
ATOM     12  C   UNL     1      -0.406   1.361   0.002  1.00  0.00     0.005 C 
BRANCH   7  13
ATOM     13  C   UNL     1       3.726   1.289  -0.174  1.00  0.00     0.229 C 
ATOM     14  N   UNL     1       4.434   2.416  -0.398  1.00  0.00    -0.317 N 
ATOM     15  H   UNL     1       4.713   2.881   0.423  1.00  0.00     0.170 HD
ATOM     16  O   UNL     1       4.182   0.536   0.692  1.00  0.00    -0.274 OA
BRANCH  14  17
ATOM     17  C   UNL     1       4.839   3.039  -1.553  1.00  0.00     0.110 A 
ATOM     18  C   UNL     1       4.707   2.927  -2.925  1.00  0.00     0.098 A 
ATOM     19  C   UNL     1       5.585   3.870  -3.594  1.00  0.00    -0.017 A 
ATOM     20  S   UNL     1       5.912   4.307  -1.105  1.00  0.00    -0.122 S 
ATOM     21  C   UNL     1       6.266   4.680  -2.712  1.00  0.00     0.011 A 
ATOM     22  C   UNL     1       5.773   3.991  -5.080  1.00  0.00     0.038 C 
ATOM     23  C   UNL     1       7.259   5.736  -3.086  1.00  0.00     0.047 C 
ATOM     24  C   UNL     1       7.047   4.774  -5.428  1.00  0.00     0.005 C 
ATOM     25  C   UNL     1       7.165   6.052  -4.587  1.00  0.00     0.006 C 
BRANCH  18  26
ATOM     26  C   UNL     1       3.870   2.028  -3.700  1.00  0.00     0.341 C 
ATOM     27  O   UNL     1       2.975   2.447  -4.426  1.00  0.00    -0.246 OA
BRANCH  26  28
ATOM     28  O   UNL     1       4.280   0.729  -3.651  1.00  0.00    -0.462 OA
BRANCH  28  29
ATOM     29  C   UNL     1       3.613  -0.154  -4.569  1.00  0.00     0.230 C 
ATOM     30  C   UNL     1       3.366  -1.494  -3.904  1.00  0.00     0.049 C 
ENDBRANCH  28  29
ENDBRANCH  26  28
ENDBRANCH  18  26
ENDBRANCH  14  17
ENDBRANCH   7  13
ENDBRANCH   3   6
ENDBRANCH   1   2
BRANCH   1  31
ATOM     31  C   UNL     1       1.106   2.226   3.284  1.00  0.00     0.023 C 
BRANCH  31  32
ATOM     32  C   UNL     1       1.389   2.011   4.761  1.00  0.00     0.023 C 
BRANCH  32  33
ATOM     33  C   UNL     1       2.838   2.250   5.163  1.00  0.00     0.116 C 
BRANCH  33  34
ATOM     34  N   UNL     1       3.336   3.567   4.766  1.00  0.00    -0.352 N 
ATOM     35  C   UNL     1       3.857   4.557   5.570  1.00  0.00     0.251 C 
ATOM     36  H   UNL     1       3.294   3.772   3.804  1.00  0.00     0.163 HD
ATOM     37  O   UNL     1       4.137   5.662   5.124  1.00  0.00    -0.269 OA
BRANCH  35  38
ATOM     38  C   UNL     1       4.019   4.238   6.998  1.00  0.00     0.039 A 
ATOM     39  C   UNL     1       3.229   4.907   7.931  1.00  0.00     0.014 A 
ATOM     40  C   UNL     1       4.769   3.113   7.349  1.00  0.00     0.014 A 
ATOM     41  C   UNL     1       3.099   4.370   9.211  1.00  0.00     0.010 A 
ATOM     42  C   UNL     1       4.557   2.531   8.589  1.00  0.00     0.010 A 
ATOM     43  C   UNL     1       3.702   3.140   9.524  1.00  0.00    -0.014 A 
BRANCH  43  44
ATOM     44  C   UNL     1       3.429   2.446  10.808  1.00  0.00     0.031 A 
ATOM     45  C   UNL     1       4.566   2.149  11.743  1.00  0.00     0.074 A 
ATOM     46  C   UNL     1       2.184   2.000  11.078  1.00  0.00     0.049 A 
ATOM     47  N   UNL     1       4.569   1.451  12.847  1.00  0.00    -0.248 NA
ATOM     48  C   UNL     1       5.886   2.674  11.359  1.00  0.00     0.031 C 
ATOM     49  C   UNL     1       1.012   2.176  10.216  1.00  0.00     0.029 A 
ATOM     50  N   UNL     1       1.698   1.291  12.149  1.00  0.00    -0.354 N 
ATOM     51  C   UNL     1       5.890   1.435  13.278  1.00  0.00     0.074 A 
ATOM     52  C   UNL     1       6.668   2.135  12.280  1.00  0.00     0.031 C 
ATOM     53  C   UNL     1      -0.058   1.614  10.803  1.00  0.00     0.029 A 
ATOM     54  C   UNL     1       0.357   0.993  12.056  1.00  0.00     0.049 A 
ATOM     55  H   UNL     1       2.257   1.020  12.912  1.00  0.00     0.167 HD
ATOM     56  C   UNL     1       6.401   0.909  14.417  1.00  0.00     0.034 A 
ATOM     57  C   UNL     1      -0.443   0.284  12.879  1.00  0.00     0.034 A 
ATOM     58  C   UNL     1       5.604   0.236  15.411  1.00  0.00     0.049 A 
ATOM     59  C   UNL     1       0.154  -0.309  14.130  1.00  0.00     0.074 A 
ATOM     60  C   UNL     1       6.000  -0.260  16.640  1.00  0.00     0.029 A 
ATOM     61  N   UNL     1       4.250  -0.044  15.286  1.00  0.00    -0.354 N 
ATOM     62  N   UNL     1       1.394  -0.252  14.561  1.00  0.00    -0.248 NA
ATOM     63  C   UNL     1      -0.753  -1.061  15.006  1.00  0.00     0.031 C 
ATOM     64  C   UNL     1       4.902  -0.899  17.227  1.00  0.00     0.029 A 
ATOM     65  C   UNL     1       3.803  -0.741  16.397  1.00  0.00     0.049 A 
ATOM     66  H   UNL     1       3.689   0.214  14.519  1.00  0.00     0.167 HD
ATOM     67  C   UNL     1       1.409  -0.946  15.767  1.00  0.00     0.074 A 
ATOM     68  C   UNL     1       0.051  -1.391  16.006  1.00  0.00     0.031 C 
ATOM     69  C   UNL     1       2.448  -1.194  16.604  1.00  0.00     0.034 A 
BRANCH  56  70
ATOM     70  C   UNL     1       7.890   1.031  14.629  1.00  0.00     0.023 A 
ATOM     71  C   UNL     1       8.516   2.284  14.755  1.00  0.00     0.031 A 
ATOM     72  C   UNL     1       8.699  -0.117  14.673  1.00  0.00     0.131 A 
ATOM     73  C   UNL     1       9.914   2.362  14.841  1.00  0.00     0.055 A 
ATOM     74  C   UNL     1      10.082  -0.036  14.840  1.00  0.00     0.041 A 
ATOM     75  F   UNL     1       8.159  -1.339  14.535  1.00  0.00    -0.206 F 
ATOM     76  C   UNL     1      10.700   1.210  14.910  1.00  0.00     0.022 A 
BRANCH  73  77
ATOM     77  S   UNL     1      10.697   3.994  14.721  1.00  0.00     0.124 S 
ATOM     78  O   UNL     1      10.246   4.441  13.405  1.00  0.00    -0.237 OA
ATOM     79  O   UNL     1      10.131   4.700  15.864  1.00  0.00    -0.237 OA
ATOM     80  O   UNL     1      12.125   3.696  14.815  1.00  0.00    -0.744 OA
ENDBRANCH  73  77
ENDBRANCH  56  70
BRANCH  57  81
ATOM     81  C   UNL     1      -1.881   0.070  12.547  1.00  0.00     0.023 A 
ATOM     82  C   UNL     1      -2.898   0.593  13.363  1.00  0.00     0.031 A 
ATOM     83  C   UNL     1      -2.262  -0.705  11.437  1.00  0.00     0.131 A 
ATOM     84  C   UNL     1      -4.242   0.297  13.084  1.00  0.00     0.055 A 
ATOM     85  C   UNL     1      -3.603  -0.954  11.135  1.00  0.00     0.041 A 
ATOM     86  F   UNL     1      -1.332  -1.227  10.621  1.00  0.00    -0.206 F 
ATOM     87  C   UNL     1      -4.602  -0.463  11.969  1.00  0.00     0.022 A 
BRANCH  84  88
ATOM     88  S   UNL     1      -5.514   0.851  14.253  1.00  0.00     0.124 S 
ATOM     89  O   UNL     1      -5.072   0.224  15.494  1.00  0.00    -0.237 OA
ATOM     90  O   UNL     1      -5.378   2.302  14.183  1.00  0.00    -0.237 OA
ATOM     91  O   UNL     1      -6.751   0.315  13.689  1.00  0.00    -0.744 OA
ENDBRANCH  84  88
ENDBRANCH  57  81
BRANCH  69  92
ATOM     92  C   UNL     1       2.141  -1.964  17.863  1.00  0.00     0.023 A 
ATOM     93  C   UNL     1       1.772  -3.319  17.823  1.00  0.00     0.031 A 
ATOM     94  C   UNL     1       2.215  -1.332  19.117  1.00  0.00     0.131 A 
ATOM     95  C   UNL     1       1.445  -3.988  19.011  1.00  0.00     0.055 A 
ATOM     96  C   UNL     1       1.945  -2.019  20.301  1.00  0.00     0.041 A 
ATOM     97  F   UNL     1       2.561  -0.038  19.211  1.00  0.00    -0.206 F 
ATOM     98  C   UNL     1       1.546  -3.352  20.251  1.00  0.00     0.022 A 
BRANCH  95  99
ATOM     99  S   UNL     1       0.810  -5.684  18.910  1.00  0.00     0.124 S 
ATOM    100  O   UNL     1      -0.401  -5.507  18.115  1.00  0.00    -0.237 OA
ATOM    101  O   UNL     1       1.906  -6.390  18.253  1.00  0.00    -0.237 OA
ATOM    102  O   UNL     1       0.587  -6.051  20.307  1.00  0.00    -0.744 OA
ENDBRANCH  95  99
ENDBRANCH  69  92
ENDBRANCH  43  44
ENDBRANCH  35  38
ENDBRANCH  33  34
ENDBRANCH  32  33
ENDBRANCH  31  32
ENDBRANCH   1  31
TORSDOF 19
