REMARK SMILES CC(C)[NH2+][C@@]1(C(=O)NCCCCNC(=O)c2ccc(-c3c4nc(c(-c5cc(S(=O)(=O)[O-])ccc5F)c5ccc([nH]5)c(-c5cc(S(=O)(=O)[O-])ccc5F)c5nc(c(-c6cc(S(=O)(=O)[O-])ccc6F)c6ccc3[nH]6)C=C5)C=C4)cc2)CCC[C@H](SC2CCCCC2)C1
REMARK SMILES IDX 11 1 10 2 9 3 8 4 6 5 7 6 5 8 79 9 90 10 80 11 82 12 81 13
REMARK SMILES IDX 4 14 2 17 1 18 3 19 83 20 84 21 85 22 89 23 86 24 88 25
REMARK SMILES IDX 87 26 12 27 13 28 14 29 15 31 16 32 17 33 78 34 18 35 77 36
REMARK SMILES IDX 19 37 20 38 21 39 71 40 22 41 76 42 70 43 72 44 23 45 75 46
REMARK SMILES IDX 69 47 68 48 24 50 56 51 36 52 55 53 37 54 40 55 54 56 73 57
REMARK SMILES IDX 38 58 39 59 53 61 74 62 41 63 25 64 26 65 34 66 27 67 33 68
REMARK SMILES IDX 35 69 32 70 28 71 29 72 30 73 31 74 57 75 58 76 66 77 59 78
REMARK SMILES IDX 65 79 67 80 64 81 60 82 61 83 62 84 63 85 42 86 43 87 51 88
REMARK SMILES IDX 44 89 50 90 52 91 49 92 45 93 46 94 47 95 48 96
REMARK H PARENT 8 7 4 15 4 16 13 30 72 49 40 60
REMARK Flexibility Score: inf
ROOT
ATOM      1  C   UNL     1      -5.121  -4.273   4.450  1.00  0.00     0.023 C 
ENDROOT
BRANCH   1   2
ATOM      2  C   UNL     1      -3.904  -4.077   3.564  1.00  0.00     0.023 C 
BRANCH   2   3
ATOM      3  C   UNL     1      -4.159  -3.772   2.099  1.00  0.00     0.116 C 
BRANCH   3   4
ATOM      4  N   UNL     1      -3.804  -2.394   1.831  1.00  0.00    -0.351 N 
ATOM      5  C   UNL     1      -2.642  -1.702   1.904  1.00  0.00     0.281 C 
ATOM      6  O   UNL     1      -2.810  -0.471   2.026  1.00  0.00    -0.268 OA
ATOM      7  H   UNL     1      -4.567  -1.846   1.534  1.00  0.00     0.163 HD
BRANCH   5   8
ATOM      8  C   UNL     1      -1.130  -2.247   1.772  1.00  0.00     0.176 C 
ATOM      9  C   UNL     1      -0.976  -3.521   0.925  1.00  0.00     0.079 C 
ATOM     10  C   UNL     1      -0.401  -2.315   3.141  1.00  0.00     0.093 C 
ATOM     11  C   UNL     1      -0.910  -4.839   1.695  1.00  0.00     0.008 C 
ATOM     12  C   UNL     1      -0.218  -3.656   3.902  1.00  0.00     0.053 C 
ATOM     13  C   UNL     1      -0.009  -4.803   2.914  1.00  0.00     0.015 C 
BRANCH   8  14
ATOM     14  N   UNL     1      -0.552  -1.113   0.937  1.00  0.00    -0.332 N 
ATOM     15  H   UNL     1      -0.889  -1.267  -0.013  1.00  0.00     0.347 HD
ATOM     16  H   UNL     1      -0.858  -0.300   1.471  1.00  0.00     0.347 HD
BRANCH  14  17
ATOM     17  C   UNL     1       0.880  -0.845   0.811  1.00  0.00     0.176 C 
ATOM     18  C   UNL     1       1.034  -0.054  -0.498  1.00  0.00     0.075 C 
ATOM     19  C   UNL     1       1.485   0.032   1.924  1.00  0.00     0.075 C 
ENDBRANCH  14  17
ENDBRANCH   8  14
BRANCH  12  20
ATOM     20  S   UNL     1      -1.287  -3.563   5.397  1.00  0.00    -0.155 SA
BRANCH  20  21
ATOM     21  C   UNL     1      -1.590  -5.203   6.162  1.00  0.00     0.047 C 
ATOM     22  C   UNL     1      -1.192  -6.480   5.440  1.00  0.00     0.014 C 
ATOM     23  C   UNL     1      -1.039  -5.183   7.600  1.00  0.00     0.014 C 
ATOM     24  C   UNL     1      -1.639  -7.710   6.231  1.00  0.00     0.001 C 
ATOM     25  C   UNL     1      -1.449  -6.434   8.381  1.00  0.00     0.001 C 
ATOM     26  C   UNL     1      -1.068  -7.712   7.642  1.00  0.00     0.000 C 
ENDBRANCH  20  21
ENDBRANCH  12  20
ENDBRANCH   5   8
ENDBRANCH   3   4
ENDBRANCH   2   3
ENDBRANCH   1   2
BRANCH   1  27
ATOM     27  C   UNL     1      -5.840  -5.590   4.242  1.00  0.00     0.116 C 
BRANCH  27  28
ATOM     28  N   UNL     1      -5.028  -6.771   4.518  1.00  0.00    -0.352 N 
ATOM     29  C   UNL     1      -5.393  -7.931   5.175  1.00  0.00     0.251 C 
ATOM     30  H   UNL     1      -4.099  -6.737   4.192  1.00  0.00     0.163 HD
ATOM     31  O   UNL     1      -4.610  -8.852   5.311  1.00  0.00    -0.269 OA
BRANCH  29  32
ATOM     32  C   UNL     1      -6.754  -8.019   5.737  1.00  0.00     0.039 A 
ATOM     33  C   UNL     1      -6.929  -8.347   7.085  1.00  0.00     0.014 A 
ATOM     34  C   UNL     1      -7.844  -7.704   4.929  1.00  0.00     0.014 A 
ATOM     35  C   UNL     1      -8.209  -8.289   7.641  1.00  0.00     0.010 A 
ATOM     36  C   UNL     1      -9.089  -7.539   5.508  1.00  0.00     0.010 A 
ATOM     37  C   UNL     1      -9.290  -7.849   6.864  1.00  0.00    -0.014 A 
BRANCH  37  38
ATOM     38  C   UNL     1     -10.677  -7.761   7.381  1.00  0.00     0.031 A 
ATOM     39  C   UNL     1     -11.739  -8.578   6.693  1.00  0.00     0.074 A 
ATOM     40  C   UNL     1     -10.994  -6.861   8.333  1.00  0.00     0.049 A 
ATOM     41  N   UNL     1     -13.038  -8.467   6.745  1.00  0.00    -0.248 NA
ATOM     42  C   UNL     1     -11.261  -9.616   5.760  1.00  0.00     0.031 C 
ATOM     43  C   UNL     1     -10.045  -5.994   9.036  1.00  0.00     0.029 A 
ATOM     44  N   UNL     1     -12.213  -6.501   8.849  1.00  0.00    -0.354 N 
ATOM     45  C   UNL     1     -13.528  -9.368   5.803  1.00  0.00     0.074 A 
ATOM     46  C   UNL     1     -12.386  -9.984   5.167  1.00  0.00     0.031 C 
ATOM     47  C   UNL     1     -10.717  -5.209   9.895  1.00  0.00     0.029 A 
ATOM     48  C   UNL     1     -12.146  -5.473   9.764  1.00  0.00     0.049 A 
ATOM     49  H   UNL     1     -13.057  -6.936   8.590  1.00  0.00     0.167 HD
ATOM     50  C   UNL     1     -14.819  -9.657   5.511  1.00  0.00     0.034 A 
ATOM     51  C   UNL     1     -13.132  -4.808  10.398  1.00  0.00     0.034 A 
ATOM     52  C   UNL     1     -15.931  -9.081   6.222  1.00  0.00     0.049 A 
ATOM     53  C   UNL     1     -14.560  -5.201  10.101  1.00  0.00     0.074 A 
ATOM     54  C   UNL     1     -17.277  -9.368   6.096  1.00  0.00     0.029 A 
ATOM     55  N   UNL     1     -15.819  -8.107   7.207  1.00  0.00    -0.354 N 
ATOM     56  N   UNL     1     -15.011  -6.090   9.244  1.00  0.00    -0.248 NA
ATOM     57  C   UNL     1     -15.611  -4.514  10.862  1.00  0.00     0.031 C 
ATOM     58  C   UNL     1     -17.983  -8.531   6.966  1.00  0.00     0.029 A 
ATOM     59  C   UNL     1     -17.073  -7.771   7.685  1.00  0.00     0.049 A 
ATOM     60  H   UNL     1     -14.971  -7.714   7.519  1.00  0.00     0.167 HD
ATOM     61  C   UNL     1     -16.395  -6.094   9.394  1.00  0.00     0.074 A 
ATOM     62  C   UNL     1     -16.700  -5.133  10.434  1.00  0.00     0.031 C 
ATOM     63  C   UNL     1     -17.335  -6.819   8.736  1.00  0.00     0.034 A 
BRANCH  50  64
ATOM     64  C   UNL     1     -15.092 -10.615   4.377  1.00  0.00     0.023 A 
ATOM     65  C   UNL     1     -14.672 -11.956   4.413  1.00  0.00     0.031 A 
ATOM     66  C   UNL     1     -15.780 -10.174   3.232  1.00  0.00     0.131 A 
ATOM     67  C   UNL     1     -14.884 -12.788   3.303  1.00  0.00     0.055 A 
ATOM     68  C   UNL     1     -16.059 -11.028   2.163  1.00  0.00     0.041 A 
ATOM     69  F   UNL     1     -16.186  -8.898   3.128  1.00  0.00    -0.206 F 
ATOM     70  C   UNL     1     -15.599 -12.341   2.190  1.00  0.00     0.022 A 
BRANCH  67  71
ATOM     71  S   UNL     1     -14.112 -14.429   3.288  1.00  0.00     0.124 S 
ATOM     72  O   UNL     1     -12.693 -14.084   3.305  1.00  0.00    -0.237 OA
ATOM     73  O   UNL     1     -14.636 -15.037   4.506  1.00  0.00    -0.237 OA
ATOM     74  O   UNL     1     -14.589 -15.021   2.040  1.00  0.00    -0.744 OA
ENDBRANCH  67  71
ENDBRANCH  50  64
BRANCH  51  75
ATOM     75  C   UNL     1     -12.829  -3.708  11.362  1.00  0.00     0.023 A 
ATOM     76  C   UNL     1     -13.200  -3.816  12.712  1.00  0.00     0.031 A 
ATOM     77  C   UNL     1     -12.229  -2.508  10.942  1.00  0.00     0.131 A 
ATOM     78  C   UNL     1     -13.033  -2.723  13.578  1.00  0.00     0.055 A 
ATOM     79  C   UNL     1     -12.007  -1.445  11.822  1.00  0.00     0.041 A 
ATOM     80  F   UNL     1     -11.847  -2.348   9.665  1.00  0.00    -0.206 F 
ATOM     81  C   UNL     1     -12.428  -1.542  13.145  1.00  0.00     0.022 A 
BRANCH  78  82
ATOM     82  S   UNL     1     -13.735  -2.828  15.248  1.00  0.00     0.124 S 
ATOM     83  O   UNL     1     -15.121  -3.183  14.966  1.00  0.00    -0.237 OA
ATOM     84  O   UNL     1     -12.915  -3.872  15.853  1.00  0.00    -0.237 OA
ATOM     85  O   UNL     1     -13.530  -1.485  15.787  1.00  0.00    -0.744 OA
ENDBRANCH  78  82
ENDBRANCH  51  75
BRANCH  63  86
ATOM     86  C   UNL     1     -18.764  -6.640   9.178  1.00  0.00     0.023 A 
ATOM     87  C   UNL     1     -19.457  -5.437   8.966  1.00  0.00     0.031 A 
ATOM     88  C   UNL     1     -19.436  -7.692   9.825  1.00  0.00     0.131 A 
ATOM     89  C   UNL     1     -20.763  -5.293   9.452  1.00  0.00     0.055 A 
ATOM     90  C   UNL     1     -20.757  -7.564  10.251  1.00  0.00     0.041 A 
ATOM     91  F   UNL     1     -18.817  -8.863  10.050  1.00  0.00    -0.206 F 
ATOM     92  C   UNL     1     -21.424  -6.354  10.077  1.00  0.00     0.022 A 
BRANCH  89  93
ATOM     93  S   UNL     1     -21.556  -3.667   9.337  1.00  0.00     0.124 S 
ATOM     94  O   UNL     1     -20.632  -2.825  10.090  1.00  0.00    -0.237 OA
ATOM     95  O   UNL     1     -21.594  -3.440   7.896  1.00  0.00    -0.237 OA
ATOM     96  O   UNL     1     -22.859  -3.876   9.965  1.00  0.00    -0.744 OA
ENDBRANCH  89  93
ENDBRANCH  63  86
ENDBRANCH  37  38
ENDBRANCH  29  32
ENDBRANCH  27  28
ENDBRANCH   1  27
TORSDOF 18
