REMARK SMILES O=C(NCCCCNC(=O)[C@@H]1CCC(=O)N(CCCOC2CCCCC2)[C@H]1c1ccco1)c1ccc(-c2c3nc(c(-c4cc(S(=O)(=O)[O-])ccc4F)c4ccc([nH]4)c(-c4cc(S(=O)(=O)[O-])ccc4F)c4nc(c(-c5cc(S(=O)(=O)[O-])ccc5F)c5ccc2[nH]5)C=C4)C=C3)cc1
REMARK SMILES IDX 6 1 5 2 4 3 3 4 1 5 2 6 33 8 34 9 95 10 35 11 94 12 36 13
REMARK SMILES IDX 37 14 38 15 88 16 39 17 93 18 87 19 89 20 40 21 92 22 86 23
REMARK SMILES IDX 85 24 41 26 73 27 53 28 72 29 54 30 57 31 71 32 90 33 55 34
REMARK SMILES IDX 56 35 70 37 91 38 58 39 42 40 43 41 51 42 44 43 50 44 52 45
REMARK SMILES IDX 49 46 45 47 46 48 47 49 48 50 74 51 75 52 83 53 76 54 82 55
REMARK SMILES IDX 84 56 81 57 77 58 78 59 79 60 80 61 59 62 60 63 68 64 61 65
REMARK SMILES IDX 67 66 69 67 66 68 62 69 63 70 64 71 65 72 7 73 8 74 9 75
REMARK SMILES IDX 10 77 11 78 12 79 27 80 13 81 16 82 14 83 15 84 28 85 29 86
REMARK SMILES IDX 32 87 30 88 31 89 17 90 18 91 19 92 20 93 21 94 22 95 26 96
REMARK SMILES IDX 23 97 25 98 24 99
REMARK H PARENT 3 7 89 25 57 36 8 76
REMARK Flexibility Score: inf
ROOT
ATOM      1  C   UNL     1       4.694   1.295  -3.417  1.00  0.00     0.023 C 
ENDROOT
BRANCH   1   2
ATOM      2  C   UNL     1       5.202   0.168  -2.524  1.00  0.00     0.023 C 
BRANCH   2   3
ATOM      3  C   UNL     1       4.667   0.176  -1.097  1.00  0.00     0.116 C 
BRANCH   3   4
ATOM      4  N   UNL     1       3.220   0.329  -0.973  1.00  0.00    -0.352 N 
ATOM      5  O   UNL     1       1.204   0.035   0.029  1.00  0.00    -0.269 OA
ATOM      6  C   UNL     1       2.415  -0.132   0.051  1.00  0.00     0.251 C 
ATOM      7  H   UNL     1       2.768   0.815  -1.700  1.00  0.00     0.163 HD
BRANCH   6   8
ATOM      8  C   UNL     1       3.064  -0.874   1.151  1.00  0.00     0.039 A 
ATOM      9  C   UNL     1       4.179  -0.320   1.774  1.00  0.00     0.014 A 
ATOM     10  C   UNL     1       2.654  -2.177   1.443  1.00  0.00     0.014 A 
ATOM     11  C   UNL     1       5.006  -1.139   2.525  1.00  0.00     0.010 A 
ATOM     12  C   UNL     1       3.426  -2.962   2.306  1.00  0.00     0.010 A 
ATOM     13  C   UNL     1       4.635  -2.465   2.815  1.00  0.00    -0.014 A 
BRANCH  13  14
ATOM     14  C   UNL     1       5.530  -3.265   3.691  1.00  0.00     0.031 A 
ATOM     15  C   UNL     1       6.207  -4.518   3.201  1.00  0.00     0.074 A 
ATOM     16  C   UNL     1       5.800  -2.780   4.920  1.00  0.00     0.049 A 
ATOM     17  N   UNL     1       7.056  -5.291   3.830  1.00  0.00    -0.248 NA
ATOM     18  C   UNL     1       5.883  -4.970   1.840  1.00  0.00     0.031 C 
ATOM     19  C   UNL     1       5.188  -1.576   5.495  1.00  0.00     0.029 A 
ATOM     20  N   UNL     1       6.681  -3.192   5.883  1.00  0.00    -0.354 N 
ATOM     21  C   UNL     1       7.350  -6.333   2.956  1.00  0.00     0.074 A 
ATOM     22  C   UNL     1       6.569  -6.103   1.758  1.00  0.00     0.031 C 
ATOM     23  C   UNL     1       5.777  -1.297   6.663  1.00  0.00     0.029 A 
ATOM     24  C   UNL     1       6.733  -2.352   6.972  1.00  0.00     0.049 A 
ATOM     25  H   UNL     1       7.224  -4.009   5.805  1.00  0.00     0.167 HD
ATOM     26  C   UNL     1       8.194  -7.380   3.142  1.00  0.00     0.034 A 
ATOM     27  C   UNL     1       7.452  -2.429   8.107  1.00  0.00     0.034 A 
ATOM     28  C   UNL     1       8.969  -7.583   4.345  1.00  0.00     0.049 A 
ATOM     29  C   UNL     1       8.386  -3.591   8.277  1.00  0.00     0.074 A 
ATOM     30  C   UNL     1       9.844  -8.613   4.649  1.00  0.00     0.029 A 
ATOM     31  N   UNL     1       8.969  -6.733   5.446  1.00  0.00    -0.354 N 
ATOM     32  N   UNL     1       8.624  -4.583   7.450  1.00  0.00    -0.248 NA
ATOM     33  C   UNL     1       9.145  -3.647   9.530  1.00  0.00     0.031 C 
ATOM     34  C   UNL     1      10.330  -8.413   5.947  1.00  0.00     0.029 A 
ATOM     35  C   UNL     1       9.814  -7.223   6.431  1.00  0.00     0.049 A 
ATOM     36  H   UNL     1       8.445  -5.902   5.515  1.00  0.00     0.167 HD
ATOM     37  C   UNL     1       9.555  -5.391   8.092  1.00  0.00     0.074 A 
ATOM     38  C   UNL     1       9.872  -4.738   9.348  1.00  0.00     0.031 C 
ATOM     39  C   UNL     1      10.087  -6.574   7.692  1.00  0.00     0.034 A 
BRANCH  26  40
ATOM     40  C   UNL     1       8.285  -8.412   2.041  1.00  0.00     0.023 A 
ATOM     41  C   UNL     1       8.823  -8.107   0.778  1.00  0.00     0.031 A 
ATOM     42  C   UNL     1       7.823  -9.723   2.258  1.00  0.00     0.131 A 
ATOM     43  C   UNL     1       8.839  -9.084  -0.232  1.00  0.00     0.055 A 
ATOM     44  C   UNL     1       7.905 -10.709   1.272  1.00  0.00     0.041 A 
ATOM     45  F   UNL     1       7.281 -10.070   3.437  1.00  0.00    -0.206 F 
ATOM     46  C   UNL     1       8.405 -10.389   0.013  1.00  0.00     0.022 A 
BRANCH  43  47
ATOM     47  S   UNL     1       9.332  -8.594  -1.908  1.00  0.00     0.124 S 
ATOM     48  O   UNL     1       8.340  -7.568  -2.220  1.00  0.00    -0.237 OA
ATOM     49  O   UNL     1      10.697  -8.122  -1.710  1.00  0.00    -0.237 OA
ATOM     50  O   UNL     1       9.204  -9.829  -2.679  1.00  0.00    -0.744 OA
ENDBRANCH  43  47
ENDBRANCH  26  40
BRANCH  27  51
ATOM     51  C   UNL     1       7.269  -1.408   9.177  1.00  0.00     0.023 A 
ATOM     52  C   UNL     1       8.321  -0.571   9.577  1.00  0.00     0.031 A 
ATOM     53  C   UNL     1       6.028  -1.263   9.824  1.00  0.00     0.131 A 
ATOM     54  C   UNL     1       8.121   0.351  10.616  1.00  0.00     0.055 A 
ATOM     55  C   UNL     1       5.817  -0.305  10.814  1.00  0.00     0.041 A 
ATOM     56  F   UNL     1       4.986  -2.037   9.477  1.00  0.00    -0.206 F 
ATOM     57  C   UNL     1       6.872   0.501  11.225  1.00  0.00     0.022 A 
BRANCH  54  58
ATOM     58  S   UNL     1       9.543   1.299  11.223  1.00  0.00     0.124 S 
ATOM     59  O   UNL     1      10.492   0.240  11.549  1.00  0.00    -0.237 OA
ATOM     60  O   UNL     1       9.873   2.122  10.064  1.00  0.00    -0.237 OA
ATOM     61  O   UNL     1       9.002   2.027  12.368  1.00  0.00    -0.744 OA
ENDBRANCH  54  58
ENDBRANCH  27  51
BRANCH  39  62
ATOM     62  C   UNL     1      11.065  -7.215   8.643  1.00  0.00     0.023 A 
ATOM     63  C   UNL     1      10.651  -7.697   9.897  1.00  0.00     0.031 A 
ATOM     64  C   UNL     1      12.431  -7.284   8.322  1.00  0.00     0.131 A 
ATOM     65  C   UNL     1      11.604  -8.154  10.818  1.00  0.00     0.055 A 
ATOM     66  C   UNL     1      13.367  -7.799   9.219  1.00  0.00     0.041 A 
ATOM     67  F   UNL     1      12.879  -6.835   7.138  1.00  0.00    -0.206 F 
ATOM     68  C   UNL     1      12.958  -8.221  10.482  1.00  0.00     0.022 A 
BRANCH  65  69
ATOM     69  S   UNL     1      11.062  -8.544  12.504  1.00  0.00     0.124 S 
ATOM     70  O   UNL     1      10.449  -7.288  12.924  1.00  0.00    -0.237 OA
ATOM     71  O   UNL     1      10.147  -9.660  12.288  1.00  0.00    -0.237 OA
ATOM     72  O   UNL     1      12.306  -8.887  13.192  1.00  0.00    -0.744 OA
ENDBRANCH  65  69
ENDBRANCH  39  62
ENDBRANCH  13  14
ENDBRANCH   6   8
ENDBRANCH   3   4
ENDBRANCH   2   3
ENDBRANCH   1   2
BRANCH   1  73
ATOM     73  C   UNL     1       4.937   2.705  -2.885  1.00  0.00     0.116 C 
BRANCH  73  74
ATOM     74  N   UNL     1       6.097   3.321  -3.488  1.00  0.00    -0.356 N 
ATOM     75  C   UNL     1       6.285   4.170  -4.517  1.00  0.00     0.225 C 
ATOM     76  H   UNL     1       6.939   3.063  -3.047  1.00  0.00     0.163 HD
ATOM     77  O   UNL     1       7.452   4.571  -4.651  1.00  0.00    -0.275 OA
BRANCH  75  78
ATOM     78  C   UNL     1       5.230   4.713  -5.485  1.00  0.00     0.109 C 
ATOM     79  C   UNL     1       3.743   4.443  -5.396  1.00  0.00     0.026 C 
ATOM     80  C   UNL     1       5.713   4.449  -6.926  1.00  0.00     0.164 C 
ATOM     81  C   UNL     1       3.296   3.138  -6.020  1.00  0.00     0.101 C 
ATOM     82  N   UNL     1       5.352   3.123  -7.447  1.00  0.00    -0.332 N 
ATOM     83  C   UNL     1       4.160   2.509  -7.095  1.00  0.00     0.223 C 
ATOM     84  O   UNL     1       3.795   1.434  -7.577  1.00  0.00    -0.275 OA
BRANCH  80  85
ATOM     85  C   UNL     1       5.229   5.524  -7.862  1.00  0.00     0.127 A 
ATOM     86  C   UNL     1       5.673   6.809  -8.108  1.00  0.00     0.048 A 
ATOM     87  O   UNL     1       4.145   5.254  -8.647  1.00  0.00    -0.467 OA
ATOM     88  C   UNL     1       4.826   7.342  -9.107  1.00  0.00     0.042 A 
ATOM     89  C   UNL     1       3.920   6.354  -9.408  1.00  0.00     0.195 A 
ENDBRANCH  80  85
BRANCH  82  90
ATOM     90  C   UNL     1       6.262   2.388  -8.353  1.00  0.00     0.122 C 
BRANCH  90  91
ATOM     91  C   UNL     1       6.951   3.141  -9.501  1.00  0.00     0.050 C 
BRANCH  91  92
ATOM     92  C   UNL     1       8.209   3.973  -9.214  1.00  0.00     0.162 C 
BRANCH  92  93
ATOM     93  O   UNL     1       9.446   3.269  -9.227  1.00  0.00    -0.378 OA
BRANCH  93  94
ATOM     94  C   UNL     1       9.886   2.518  -8.089  1.00  0.00     0.118 C 
ATOM     95  C   UNL     1       9.316   2.919  -6.722  1.00  0.00     0.032 C 
ATOM     96  C   UNL     1       9.761   1.030  -8.428  1.00  0.00     0.032 C 
ATOM     97  C   UNL     1       9.567   1.917  -5.600  1.00  0.00     0.003 C 
ATOM     98  C   UNL     1      10.115   0.127  -7.256  1.00  0.00     0.003 C 
ATOM     99  C   UNL     1       9.284   0.483  -6.033  1.00  0.00     0.000 C 
ENDBRANCH  93  94
ENDBRANCH  92  93
ENDBRANCH  91  92
ENDBRANCH  90  91
ENDBRANCH  82  90
ENDBRANCH  75  78
ENDBRANCH  73  74
ENDBRANCH   1  73
TORSDOF 20
