REMARK SMILES COc1cc(CC(=O)N[C@@H](CC(=O)NCCCCNC(=O)c2ccc(-c3c4nc(c(-c5cc(S(=O)(=O)[O-])ccc5F)c5ccc([nH]5)c(-c5cc(S(=O)(=O)[O-])ccc5F)c5nc(c(-c6cc(S(=O)(=O)[O-])ccc6F)c6ccc3[nH]6)C=C5)C=C4)cc2)c2cccs2)ccc1C
REMARK SMILES IDX 15 1 14 2 12 3 13 4 11 6 10 7 9 8 7 9 8 10 6 12 5 13 3 14
REMARK SMILES IDX 4 15 92 16 91 17 93 18 90 19 2 20 1 21 85 22 86 23 89 24
REMARK SMILES IDX 87 25 88 26 16 27 17 28 18 29 19 30 20 31 21 33 22 34 23 35
REMARK SMILES IDX 84 36 24 37 83 38 25 39 26 40 27 41 77 42 28 43 82 44 76 45
REMARK SMILES IDX 78 46 29 47 81 48 75 49 74 50 30 52 62 53 42 54 61 55 43 56
REMARK SMILES IDX 46 57 60 58 79 59 44 60 45 61 59 63 80 64 47 65 31 66 32 67
REMARK SMILES IDX 40 68 33 69 39 70 41 71 38 72 34 73 35 74 36 75 37 76 63 77
REMARK SMILES IDX 64 78 72 79 65 80 71 81 73 82 70 83 66 84 67 85 68 86 69 87
REMARK SMILES IDX 48 88 49 89 57 90 50 91 56 92 58 93 55 94 51 95 52 96 53 97
REMARK SMILES IDX 54 98
REMARK H PARENT 14 5 9 11 19 32 78 51 46 62
REMARK Flexibility Score: inf
ROOT
ATOM      1  C   UNL     1       4.169  -5.278   5.377  1.00  0.00     0.116 C 
ENDROOT
BRANCH   1   2
ATOM      2  N   UNL     1       4.168  -3.995   6.070  1.00  0.00    -0.356 N 
ATOM      3  C   UNL     1       3.796  -2.758   5.642  1.00  0.00     0.222 C 
ATOM      4  O   UNL     1       3.861  -1.821   6.443  1.00  0.00    -0.275 OA
ATOM      5  H   UNL     1       4.489  -4.029   7.000  1.00  0.00     0.163 HD
BRANCH   3   6
ATOM      6  C   UNL     1       3.288  -2.534   4.234  1.00  0.00     0.130 C 
BRANCH   6   7
ATOM      7  C   UNL     1       4.353  -2.222   3.175  1.00  0.00     0.131 C 
BRANCH   7   8
ATOM      8  N   UNL     1       5.017  -3.393   2.628  1.00  0.00    -0.348 N 
ATOM      9  C   UNL     1       4.761  -4.296   1.659  1.00  0.00     0.224 C 
ATOM     10  O   UNL     1       5.631  -5.163   1.509  1.00  0.00    -0.275 OA
ATOM     11  H   UNL     1       5.872  -3.573   3.081  1.00  0.00     0.164 HD
BRANCH   9  12
ATOM     12  C   UNL     1       3.639  -4.193   0.655  1.00  0.00     0.135 C 
BRANCH  12  13
ATOM     13  C   UNL     1       2.277  -3.733   1.095  1.00  0.00    -0.035 A 
ATOM     14  C   UNL     1       0.558  -1.995   1.105  1.00  0.00     0.122 A 
ATOM     15  C   UNL     1       1.838  -2.441   0.763  1.00  0.00     0.051 A 
ATOM     16  C   UNL     1      -0.310  -2.858   1.791  1.00  0.00    -0.009 A 
ATOM     17  C   UNL     1       0.120  -4.160   2.102  1.00  0.00     0.007 A 
ATOM     18  C   UNL     1      -1.714  -2.464   2.155  1.00  0.00     0.048 C 
ATOM     19  C   UNL     1       1.402  -4.596   1.760  1.00  0.00     0.005 A 
BRANCH  14  20
ATOM     20  O   UNL     1       0.088  -0.738   0.825  1.00  0.00    -0.496 OA
ATOM     21  C   UNL     1       0.804   0.014  -0.146  1.00  0.00     0.278 C 
ENDBRANCH  14  20
ENDBRANCH  12  13
ENDBRANCH   9  12
ENDBRANCH   7   8
BRANCH   7  22
ATOM     22  C   UNL     1       5.426  -1.256   3.671  1.00  0.00     0.027 A 
ATOM     23  C   UNL     1       5.348   0.122   3.765  1.00  0.00     0.017 A 
ATOM     24  S   UNL     1       6.962  -1.815   4.230  1.00  0.00    -0.147 S 
ATOM     25  C   UNL     1       6.551   0.711   4.256  1.00  0.00     0.012 A 
ATOM     26  C   UNL     1       7.513  -0.232   4.536  1.00  0.00     0.065 A 
ENDBRANCH   7  22
ENDBRANCH   6   7
ENDBRANCH   3   6
ENDBRANCH   1   2
BRANCH   1  27
ATOM     27  C   UNL     1       5.577  -5.724   4.962  1.00  0.00     0.023 C 
BRANCH  27  28
ATOM     28  C   UNL     1       6.575  -5.918   6.098  1.00  0.00     0.023 C 
BRANCH  28  29
ATOM     29  C   UNL     1       6.335  -7.190   6.888  1.00  0.00     0.116 C 
BRANCH  29  30
ATOM     30  N   UNL     1       7.083  -8.352   6.425  1.00  0.00    -0.352 N 
ATOM     31  C   UNL     1       7.074  -9.646   6.931  1.00  0.00     0.251 C 
ATOM     32  H   UNL     1       7.673  -8.200   5.652  1.00  0.00     0.163 HD
ATOM     33  O   UNL     1       7.855 -10.493   6.536  1.00  0.00    -0.269 OA
BRANCH  31  34
ATOM     34  C   UNL     1       5.994 -10.019   7.882  1.00  0.00     0.039 A 
ATOM     35  C   UNL     1       5.192 -11.114   7.540  1.00  0.00     0.014 A 
ATOM     36  C   UNL     1       5.598  -9.143   8.884  1.00  0.00     0.014 A 
ATOM     37  C   UNL     1       3.881 -11.168   8.007  1.00  0.00     0.010 A 
ATOM     38  C   UNL     1       4.264  -9.114   9.230  1.00  0.00     0.010 A 
ATOM     39  C   UNL     1       3.389 -10.091   8.739  1.00  0.00    -0.014 A 
BRANCH  39  40
ATOM     40  C   UNL     1       1.967  -9.826   8.938  1.00  0.00     0.031 A 
ATOM     41  C   UNL     1       1.382  -9.882  10.292  1.00  0.00     0.074 A 
ATOM     42  C   UNL     1       1.214  -9.404   7.898  1.00  0.00     0.049 A 
ATOM     43  N   UNL     1       0.120  -9.944  10.547  1.00  0.00    -0.248 NA
ATOM     44  C   UNL     1       2.209  -9.922  11.490  1.00  0.00     0.031 C 
ATOM     45  C   UNL     1      -0.116  -8.805   7.946  1.00  0.00     0.029 A 
ATOM     46  N   UNL     1       1.418  -9.685   6.548  1.00  0.00    -0.354 N 
ATOM     47  C   UNL     1      -0.049  -9.735  11.897  1.00  0.00     0.074 A 
ATOM     48  C   UNL     1       1.284  -9.804  12.444  1.00  0.00     0.031 C 
ATOM     49  C   UNL     1      -0.724  -9.009   6.768  1.00  0.00     0.029 A 
ATOM     50  C   UNL     1       0.140  -9.865   5.978  1.00  0.00     0.049 A 
ATOM     51  H   UNL     1       2.284  -9.745   6.084  1.00  0.00     0.167 HD
ATOM     52  C   UNL     1      -1.288  -9.405  12.365  1.00  0.00     0.034 A 
ATOM     53  C   UNL     1      -0.206 -11.081   5.458  1.00  0.00     0.034 A 
ATOM     54  C   UNL     1      -2.310  -9.559  11.322  1.00  0.00     0.049 A 
ATOM     55  C   UNL     1      -1.327 -11.776   6.207  1.00  0.00     0.074 A 
ATOM     56  C   UNL     1      -3.005  -8.694  10.492  1.00  0.00     0.029 A 
ATOM     57  N   UNL     1      -2.544 -10.828  10.820  1.00  0.00    -0.354 N 
ATOM     58  N   UNL     1      -1.942 -11.281   7.247  1.00  0.00    -0.248 NA
ATOM     59  C   UNL     1      -1.784 -13.128   5.886  1.00  0.00     0.031 C 
ATOM     60  C   UNL     1      -3.590  -9.466   9.440  1.00  0.00     0.029 A 
ATOM     61  C   UNL     1      -3.277 -10.798   9.650  1.00  0.00     0.049 A 
ATOM     62  H   UNL     1      -2.224 -11.656  11.247  1.00  0.00     0.167 HD
ATOM     63  C   UNL     1      -2.784 -12.225   7.771  1.00  0.00     0.074 A 
ATOM     64  C   UNL     1      -2.661 -13.363   6.876  1.00  0.00     0.031 C 
ATOM     65  C   UNL     1      -3.490 -12.043   8.926  1.00  0.00     0.034 A 
BRANCH  52  66
ATOM     66  C   UNL     1      -1.549  -8.716  13.691  1.00  0.00     0.023 A 
ATOM     67  C   UNL     1      -2.727  -7.952  13.837  1.00  0.00     0.031 A 
ATOM     68  C   UNL     1      -0.690  -8.696  14.809  1.00  0.00     0.131 A 
ATOM     69  C   UNL     1      -2.957  -7.159  14.979  1.00  0.00     0.055 A 
ATOM     70  C   UNL     1      -0.888  -7.865  15.919  1.00  0.00     0.041 A 
ATOM     71  F   UNL     1       0.351  -9.524  14.925  1.00  0.00    -0.206 F 
ATOM     72  C   UNL     1      -2.023  -7.080  16.005  1.00  0.00     0.022 A 
BRANCH  69  73
ATOM     73  S   UNL     1      -4.507  -6.229  15.110  1.00  0.00     0.124 S 
ATOM     74  O   UNL     1      -4.442  -5.355  13.944  1.00  0.00    -0.237 OA
ATOM     75  O   UNL     1      -5.506  -7.291  15.069  1.00  0.00    -0.237 OA
ATOM     76  O   UNL     1      -4.385  -5.549  16.399  1.00  0.00    -0.744 OA
ENDBRANCH  69  73
ENDBRANCH  52  66
BRANCH  53  77
ATOM     77  C   UNL     1       0.945 -11.740   4.771  1.00  0.00     0.023 A 
ATOM     78  C   UNL     1       1.559 -10.997   3.737  1.00  0.00     0.031 A 
ATOM     79  C   UNL     1       1.678 -12.779   5.357  1.00  0.00     0.131 A 
ATOM     80  C   UNL     1       2.924 -11.155   3.475  1.00  0.00     0.055 A 
ATOM     81  C   UNL     1       3.019 -13.001   5.016  1.00  0.00     0.041 A 
ATOM     82  F   UNL     1       1.166 -13.496   6.368  1.00  0.00    -0.206 F 
ATOM     83  C   UNL     1       3.663 -12.152   4.115  1.00  0.00     0.022 A 
BRANCH  80  84
ATOM     84  S   UNL     1       3.786  -9.845   2.548  1.00  0.00     0.124 S 
ATOM     85  O   UNL     1       3.732 -10.359   1.185  1.00  0.00    -0.237 OA
ATOM     86  O   UNL     1       2.968  -8.661   2.817  1.00  0.00    -0.237 OA
ATOM     87  O   UNL     1       5.106  -9.817   3.171  1.00  0.00    -0.744 OA
ENDBRANCH  80  84
ENDBRANCH  53  77
BRANCH  65  88
ATOM     88  C   UNL     1      -4.432 -13.089   9.456  1.00  0.00     0.023 A 
ATOM     89  C   UNL     1      -5.317 -13.768   8.604  1.00  0.00     0.031 A 
ATOM     90  C   UNL     1      -4.521 -13.392  10.831  1.00  0.00     0.131 A 
ATOM     91  C   UNL     1      -6.185 -14.750   9.108  1.00  0.00     0.055 A 
ATOM     92  C   UNL     1      -5.453 -14.300  11.341  1.00  0.00     0.041 A 
ATOM     93  F   UNL     1      -3.677 -12.858  11.725  1.00  0.00    -0.206 F 
ATOM     94  C   UNL     1      -6.285 -14.996  10.476  1.00  0.00     0.022 A 
BRANCH  91  95
ATOM     95  S   UNL     1      -7.109 -15.770   7.932  1.00  0.00     0.124 S 
ATOM     96  O   UNL     1      -7.794 -14.776   7.113  1.00  0.00    -0.237 OA
ATOM     97  O   UNL     1      -6.032 -16.504   7.272  1.00  0.00    -0.237 OA
ATOM     98  O   UNL     1      -7.977 -16.579   8.785  1.00  0.00    -0.744 OA
ENDBRANCH  91  95
ENDBRANCH  65  88
ENDBRANCH  39  40
ENDBRANCH  31  34
ENDBRANCH  29  30
ENDBRANCH  28  29
ENDBRANCH  27  28
ENDBRANCH   1  27
TORSDOF 20
