REMARK SMILES Cc1cc(/C=C2\C(=O)N(Cc3ccco3)C(=O)[NH+]=C2NCCCCNC(=O)c2ccc(-c3c4nc(c(-c5cc(S(=O)(=O)[O-])ccc5F)c5ccc([nH]5)c(-c5cc(S(=O)(=O)[O-])ccc5F)c5nc(c(-c6cc(S(=O)(=O)[O-])ccc6F)c6ccc3[nH]6)C=C5)C=C4)cc2)c(C)n1-c1ccc(Cl)c(C(=O)[O-])c1
REMARK SMILES IDX 23 1 22 2 21 3 20 4 5 5 6 6 7 7 19 8 8 9 9 10 18 11 16 12
REMARK SMILES IDX 17 15 4 16 1 17 2 18 3 19 93 20 91 21 92 22 94 23 95 24
REMARK SMILES IDX 103 25 96 26 99 27 97 28 98 29 100 30 101 31 102 32 10 33
REMARK SMILES IDX 11 34 12 35 15 36 13 37 14 38 24 39 25 40 26 41 27 43 28 44
REMARK SMILES IDX 29 45 90 46 30 47 89 48 31 49 32 50 33 51 83 52 34 53 88 54
REMARK SMILES IDX 82 55 84 56 35 57 87 58 81 59 80 60 36 62 68 63 48 64 67 65
REMARK SMILES IDX 49 66 52 67 66 68 85 69 50 70 51 71 65 73 86 74 53 75 37 76
REMARK SMILES IDX 38 77 46 78 39 79 45 80 47 81 44 82 40 83 41 84 42 85 43 86
REMARK SMILES IDX 69 87 70 88 78 89 71 90 77 91 79 92 76 93 72 94 73 95 74 96
REMARK SMILES IDX 75 97 54 98 55 99 63 100 56 101 62 102 64 103 61 104 57 105
REMARK SMILES IDX 58 106 59 107 60 108
REMARK H PARENT 18 13 20 14 25 42 84 61 52 72
REMARK Flexibility Score: inf
ROOT
ATOM      1  C   UNL     1      -0.849  -7.548  -5.148  1.00  0.00     0.024 C 
ENDROOT
BRANCH   1   2
ATOM      2  C   UNL     1      -0.254  -6.411  -4.296  1.00  0.00     0.039 C 
BRANCH   2   3
ATOM      3  C   UNL     1       0.347  -5.237  -5.073  1.00  0.00     0.194 C 
BRANCH   3   4
ATOM      4  N   UNL     1      -0.653  -4.677  -5.953  1.00  0.00    -0.305 N 
ATOM      5  C   UNL     1      -0.537  -2.144  -4.183  1.00  0.00     0.032 C 
ATOM      6  C   UNL     1      -0.511  -2.161  -5.528  1.00  0.00     0.129 C 
ATOM      7  C   UNL     1      -0.298  -0.984  -6.403  1.00  0.00     0.323 C 
ATOM      8  C   UNL     1      -0.931  -3.375  -6.272  1.00  0.00     0.236 C 
ATOM      9  O   UNL     1       0.624  -0.216  -6.263  1.00  0.00    -0.250 OA
ATOM     10  N   UNL     1      -1.315  -0.884  -7.341  1.00  0.00    -0.182 N 
ATOM     11  N   UNL     1      -1.641  -3.235  -7.359  1.00  0.00    -0.210 N 
ATOM     12  C   UNL     1      -2.026  -1.987  -7.779  1.00  0.00     0.444 C 
ATOM     13  H   UNL     1      -1.901  -4.029  -7.879  1.00  0.00     0.270 HD
ATOM     14  H   UNL     1      -1.230  -5.341  -6.395  1.00  0.00     0.256 HD
ATOM     15  O   UNL     1      -2.996  -1.860  -8.530  1.00  0.00    -0.212 OA
BRANCH   5  16
ATOM     16  C   UNL     1      -0.281  -1.103  -3.228  1.00  0.00    -0.003 A 
ATOM     17  C   UNL     1       1.039   0.091   0.046  1.00  0.00     0.065 C 
ATOM     18  C   UNL     1       0.462  -0.143  -1.307  1.00  0.00     0.020 A 
ATOM     19  C   UNL     1       0.354  -1.342  -1.984  1.00  0.00     0.031 A 
ATOM     20  N   UNL     1      -0.126   0.835  -2.092  1.00  0.00    -0.318 N 
ATOM     21  C   UNL     1      -0.621   0.242  -3.257  1.00  0.00     0.027 A 
ATOM     22  C   UNL     1      -1.267   1.043  -4.335  1.00  0.00     0.065 C 
BRANCH  20  23
ATOM     23  C   UNL     1      -0.166   2.228  -1.813  1.00  0.00     0.046 A 
ATOM     24  C   UNL     1      -1.388   2.901  -1.843  1.00  0.00     0.028 A 
ATOM     25  C   UNL     1       1.030   2.937  -1.663  1.00  0.00     0.038 A 
ATOM     26  C   UNL     1      -1.408   4.293  -1.827  1.00  0.00     0.023 A 
ATOM     27  C   UNL     1       1.017   4.348  -1.634  1.00  0.00     0.018 A 
ATOM     28  C   UNL     1      -0.213   5.020  -1.744  1.00  0.00     0.050 A 
ATOM     29  Cl  UNL     1      -0.381   6.740  -1.815  1.00  0.00    -0.084 Cl
BRANCH  27  30
ATOM     30  C   UNL     1       2.307   5.089  -1.534  1.00  0.00     0.073 C 
ATOM     31  O   UNL     1       2.491   6.290  -1.562  1.00  0.00    -0.545 OA
ATOM     32  O   UNL     1       3.359   4.260  -1.386  1.00  0.00    -0.545 OA
ENDBRANCH  27  30
ENDBRANCH  20  23
ENDBRANCH   5  16
BRANCH  10  33
ATOM     33  C   UNL     1      -1.709   0.430  -7.810  1.00  0.00     0.285 C 
BRANCH  33  34
ATOM     34  C   UNL     1      -0.943   0.867  -8.997  1.00  0.00     0.138 A 
ATOM     35  C   UNL     1      -0.950   0.503 -10.326  1.00  0.00     0.049 A 
ATOM     36  O   UNL     1      -0.084   1.908  -8.801  1.00  0.00    -0.466 OA
ATOM     37  C   UNL     1      -0.030   1.361 -10.975  1.00  0.00     0.042 A 
ATOM     38  C   UNL     1       0.475   2.192 -10.003  1.00  0.00     0.195 A 
ENDBRANCH  33  34
ENDBRANCH  10  33
ENDBRANCH   3   4
ENDBRANCH   2   3
ENDBRANCH   1   2
BRANCH   1  39
ATOM     39  C   UNL     1      -0.054  -8.016  -6.379  1.00  0.00     0.116 C 
BRANCH  39  40
ATOM     40  N   UNL     1       1.096  -8.822  -6.064  1.00  0.00    -0.352 N 
ATOM     41  C   UNL     1       1.884  -9.554  -6.932  1.00  0.00     0.251 C 
ATOM     42  H   UNL     1       1.353  -8.856  -5.114  1.00  0.00     0.163 HD
ATOM     43  O   UNL     1       2.767 -10.251  -6.442  1.00  0.00    -0.269 OA
BRANCH  41  44
ATOM     44  C   UNL     1       1.607  -9.609  -8.408  1.00  0.00     0.039 A 
ATOM     45  C   UNL     1       0.863 -10.677  -8.865  1.00  0.00     0.014 A 
ATOM     46  C   UNL     1       2.211  -8.792  -9.384  1.00  0.00     0.014 A 
ATOM     47  C   UNL     1       0.705 -10.885 -10.256  1.00  0.00     0.010 A 
ATOM     48  C   UNL     1       2.120  -9.075 -10.812  1.00  0.00     0.010 A 
ATOM     49  C   UNL     1       1.387 -10.163 -11.306  1.00  0.00    -0.014 A 
BRANCH  49  50
ATOM     50  C   UNL     1       1.493 -10.916 -12.720  1.00  0.00     0.031 A 
ATOM     51  C   UNL     1       1.597 -12.357 -12.346  1.00  0.00     0.074 A 
ATOM     52  C   UNL     1       1.651 -10.737 -14.091  1.00  0.00     0.049 A 
ATOM     53  N   UNL     1       2.541 -12.743 -11.535  1.00  0.00    -0.248 NA
ATOM     54  C   UNL     1       0.481 -13.294 -12.486  1.00  0.00     0.031 C 
ATOM     55  C   UNL     1       1.888  -9.494 -14.837  1.00  0.00     0.029 A 
ATOM     56  N   UNL     1       1.635 -11.672 -15.173  1.00  0.00    -0.354 N 
ATOM     57  C   UNL     1       2.291 -14.060 -11.258  1.00  0.00     0.074 A 
ATOM     58  C   UNL     1       0.919 -14.279 -11.693  1.00  0.00     0.031 C 
ATOM     59  C   UNL     1       1.850  -9.705 -16.187  1.00  0.00     0.029 A 
ATOM     60  C   UNL     1       1.635 -11.118 -16.497  1.00  0.00     0.049 A 
ATOM     61  H   UNL     1       1.625 -12.644 -15.018  1.00  0.00     0.167 HD
ATOM     62  C   UNL     1       3.351 -14.915 -11.315  1.00  0.00     0.034 A 
ATOM     63  C   UNL     1       1.531 -11.731 -17.742  1.00  0.00     0.034 A 
ATOM     64  C   UNL     1       3.287 -15.720 -12.506  1.00  0.00     0.049 A 
ATOM     65  C   UNL     1       2.011 -13.107 -17.580  1.00  0.00     0.074 A 
ATOM     66  C   UNL     1       2.297 -16.491 -13.079  1.00  0.00     0.029 A 
ATOM     67  N   UNL     1       4.157 -15.379 -13.518  1.00  0.00    -0.354 N 
ATOM     68  N   UNL     1       3.275 -13.378 -17.503  1.00  0.00    -0.248 NA
ATOM     69  C   UNL     1       1.118 -14.259 -17.573  1.00  0.00     0.031 C 
ATOM     70  C   UNL     1       2.361 -16.209 -14.468  1.00  0.00     0.029 A 
ATOM     71  C   UNL     1       3.541 -15.528 -14.746  1.00  0.00     0.049 A 
ATOM     72  H   UNL     1       5.083 -15.072 -13.386  1.00  0.00     0.167 HD
ATOM     73  C   UNL     1       3.301 -14.618 -16.947  1.00  0.00     0.074 A 
ATOM     74  C   UNL     1       2.011 -15.201 -17.263  1.00  0.00     0.031 C 
ATOM     75  C   UNL     1       4.114 -14.816 -15.880  1.00  0.00     0.034 A 
BRANCH  62  76
ATOM     76  C   UNL     1       4.611 -14.352 -10.706  1.00  0.00     0.023 A 
ATOM     77  C   UNL     1       5.017 -14.795  -9.439  1.00  0.00     0.031 A 
ATOM     78  C   UNL     1       5.308 -13.262 -11.271  1.00  0.00     0.131 A 
ATOM     79  C   UNL     1       6.039 -14.114  -8.753  1.00  0.00     0.055 A 
ATOM     80  C   UNL     1       6.276 -12.550 -10.563  1.00  0.00     0.041 A 
ATOM     81  F   UNL     1       5.035 -12.855 -12.522  1.00  0.00    -0.206 F 
ATOM     82  C   UNL     1       6.637 -12.968  -9.288  1.00  0.00     0.022 A 
BRANCH  79  83
ATOM     83  S   UNL     1       6.593 -14.759  -7.151  1.00  0.00     0.124 S 
ATOM     84  O   UNL     1       5.380 -14.700  -6.342  1.00  0.00    -0.237 OA
ATOM     85  O   UNL     1       7.045 -16.104  -7.502  1.00  0.00    -0.237 OA
ATOM     86  O   UNL     1       7.657 -13.841  -6.748  1.00  0.00    -0.744 OA
ENDBRANCH  79  83
ENDBRANCH  62  76
BRANCH  63  87
ATOM     87  C   UNL     1       1.264 -11.427 -19.232  1.00  0.00     0.023 A 
ATOM     88  C   UNL     1       1.618 -12.373 -20.270  1.00  0.00     0.031 A 
ATOM     89  C   UNL     1       0.400 -10.409 -19.646  1.00  0.00     0.131 A 
ATOM     90  C   UNL     1       1.073 -12.322 -21.580  1.00  0.00     0.055 A 
ATOM     91  C   UNL     1      -0.120 -10.342 -20.961  1.00  0.00     0.041 A 
ATOM     92  F   UNL     1      -0.046  -9.499 -18.768  1.00  0.00    -0.206 F 
ATOM     93  C   UNL     1       0.192 -11.306 -21.922  1.00  0.00     0.022 A 
BRANCH  90  94
ATOM     94  S   UNL     1       1.318 -13.692 -22.787  1.00  0.00     0.124 S 
ATOM     95  O   UNL     1       2.574 -13.335 -23.435  1.00  0.00    -0.237 OA
ATOM     96  O   UNL     1       1.339 -14.879 -21.938  1.00  0.00    -0.237 OA
ATOM     97  O   UNL     1       0.137 -13.595 -23.648  1.00  0.00    -0.744 OA
ENDBRANCH  90  94
ENDBRANCH  63  87
BRANCH  75  98
ATOM     98  C   UNL     1       5.472 -14.089 -15.858  1.00  0.00     0.023 A 
ATOM     99  C   UNL     1       5.749 -12.787 -16.358  1.00  0.00     0.031 A 
ATOM    100  C   UNL     1       6.577 -14.786 -15.336  1.00  0.00     0.131 A 
ATOM    101  C   UNL     1       7.058 -12.258 -16.354  1.00  0.00     0.055 A 
ATOM    102  C   UNL     1       7.862 -14.239 -15.273  1.00  0.00     0.041 A 
ATOM    103  F   UNL     1       6.432 -16.036 -14.868  1.00  0.00    -0.206 F 
ATOM    104  C   UNL     1       8.111 -12.977 -15.796  1.00  0.00     0.022 A 
BRANCH 101 105
ATOM    105  S   UNL     1       7.415 -10.662 -17.167  1.00  0.00     0.124 S 
ATOM    106  O   UNL     1       6.779 -10.800 -18.472  1.00  0.00    -0.237 OA
ATOM    107  O   UNL     1       6.808  -9.693 -16.259  1.00  0.00    -0.237 OA
ATOM    108  O   UNL     1       8.878 -10.624 -17.211  1.00  0.00    -0.744 OA
ENDBRANCH 101 105
ENDBRANCH  75  98
ENDBRANCH  49  50
ENDBRANCH  41  44
ENDBRANCH  39  40
ENDBRANCH   1  39
TORSDOF 18
