REMARK SMILES O=C(CN1C(=O)/C(=C/c2cccs2)SC1=S)Nc1ccc(O)cc1C(=O)NCCCCNC(=O)c1ccc(-c2c3nc(c(-c4cc(S(=O)(=O)[O-])ccc4F)c4ccc([nH]4)c(-c4cc(S(=O)(=O)[O-])ccc4F)c4nc(c(-c5cc(S(=O)(=O)[O-])ccc5F)c5ccc2[nH]5)C=C4)C=C3)cc1
REMARK SMILES IDX 29 1 28 2 27 3 25 4 26 5 24 7 18 8 19 9 20 10 23 11 21 12
REMARK SMILES IDX 17 13 1 14 2 15 3 17 4 18 5 19 15 20 6 21 7 22 14 23 16 24
REMARK SMILES IDX 8 25 9 26 10 27 13 28 11 29 12 30 22 31 30 33 31 34 32 35
REMARK SMILES IDX 33 36 34 38 35 39 36 40 97 41 37 42 96 43 38 44 39 45 40 46
REMARK SMILES IDX 90 47 41 48 95 49 89 50 91 51 42 52 94 53 88 54 87 55 43 57
REMARK SMILES IDX 75 58 55 59 74 60 56 61 59 62 73 63 92 64 57 65 58 66 72 68
REMARK SMILES IDX 93 69 60 70 44 71 45 72 53 73 46 74 52 75 54 76 51 77 47 78
REMARK SMILES IDX 48 79 49 80 50 81 76 82 77 83 85 84 78 85 84 86 86 87 83 88
REMARK SMILES IDX 79 89 80 90 81 91 82 92 61 93 62 94 70 95 63 96 69 97 71 98
REMARK SMILES IDX 68 99 64 100 65 101 66 102 67 103
REMARK H PARENT 27 6 17 16 22 32 32 37 91 56 59 67
REMARK Flexibility Score: inf
ROOT
ATOM      1  C   UNL     1       5.134  -0.649  -3.245  1.00  0.00     0.023 C 
ENDROOT
BRANCH   1   2
ATOM      2  C   UNL     1       4.327   0.399  -2.521  1.00  0.00     0.116 C 
BRANCH   2   3
ATOM      3  N   UNL     1       4.500   1.705  -3.048  1.00  0.00    -0.352 N 
ATOM      4  C   UNL     1       3.776   2.833  -2.822  1.00  0.00     0.253 C 
ATOM      5  O   UNL     1       4.271   3.862  -3.295  1.00  0.00    -0.269 OA
ATOM      6  H   UNL     1       5.256   1.809  -3.669  1.00  0.00     0.163 HD
BRANCH   4   7
ATOM      7  C   UNL     1       2.434   2.910  -2.143  1.00  0.00     0.067 A 
ATOM      8  C   UNL     1       1.806   2.142  -1.121  1.00  0.00     0.054 A 
ATOM      9  C   UNL     1       0.545   2.592  -0.652  1.00  0.00     0.031 A 
ATOM     10  C   UNL     1      -0.116   3.706  -1.184  1.00  0.00     0.048 A 
ATOM     11  C   UNL     1       1.696   3.988  -2.713  1.00  0.00     0.062 A 
ATOM     12  C   UNL     1       0.455   4.378  -2.242  1.00  0.00     0.116 A 
BRANCH   8  13
ATOM     13  N   UNL     1       2.333   0.994  -0.426  1.00  0.00    -0.324 N 
ATOM     14  O   UNL     1       0.458  -0.344  -0.689  1.00  0.00    -0.273 OA
ATOM     15  C   UNL     1       1.566  -0.163  -0.178  1.00  0.00     0.244 C 
ATOM     16  H   UNL     1       3.266   1.019  -0.111  1.00  0.00     0.170 HD
BRANCH  15  17
ATOM     17  C   UNL     1       2.184  -1.285   0.714  1.00  0.00     0.227 C 
BRANCH  17  18
ATOM     18  N   UNL     1       2.555  -2.515  -0.036  1.00  0.00    -0.283 N 
ATOM     19  C   UNL     1       3.786  -2.500  -0.621  1.00  0.00     0.266 C 
ATOM     20  C   UNL     1       1.875  -3.691  -0.201  1.00  0.00     0.148 C 
ATOM     21  O   UNL     1       4.478  -1.506  -0.536  1.00  0.00    -0.268 OA
ATOM     22  C   UNL     1       4.079  -3.722  -1.450  1.00  0.00     0.081 C 
ATOM     23  S   UNL     1       2.698  -4.717  -1.419  1.00  0.00    -0.054 SA
ATOM     24  S   UNL     1       0.510  -4.185   0.615  1.00  0.00    -0.052 S 
ATOM     25  C   UNL     1       5.244  -3.763  -2.110  1.00  0.00     0.040 C 
BRANCH  25  26
ATOM     26  C   UNL     1       5.749  -4.474  -3.243  1.00  0.00     0.028 A 
ATOM     27  C   UNL     1       5.167  -5.111  -4.325  1.00  0.00     0.020 A 
ATOM     28  S   UNL     1       7.460  -4.340  -3.539  1.00  0.00    -0.144 S 
ATOM     29  C   UNL     1       6.102  -5.427  -5.374  1.00  0.00     0.012 A 
ATOM     30  C   UNL     1       7.388  -5.060  -5.066  1.00  0.00     0.065 A 
ENDBRANCH  25  26
ENDBRANCH  17  18
ENDBRANCH  15  17
ENDBRANCH   8  13
BRANCH  12  31
ATOM     31  O   UNL     1      -0.150   5.438  -2.845  1.00  0.00    -0.508 OA
ATOM     32  H   UNL     1      -0.991   5.728  -2.550  1.00  0.00     0.293 HD
ENDBRANCH  12  31
ENDBRANCH   4   7
ENDBRANCH   2   3
ENDBRANCH   1   2
BRANCH   1  33
ATOM     33  C   UNL     1       6.646  -0.711  -2.955  1.00  0.00     0.023 C 
BRANCH  33  34
ATOM     34  C   UNL     1       7.320  -0.525  -1.565  1.00  0.00     0.116 C 
BRANCH  34  35
ATOM     35  N   UNL     1       6.871  -1.247  -0.370  1.00  0.00    -0.352 N 
ATOM     36  C   UNL     1       7.170  -2.381   0.357  1.00  0.00     0.251 C 
ATOM     37  H   UNL     1       6.116  -0.771   0.046  1.00  0.00     0.163 HD
ATOM     38  O   UNL     1       6.467  -2.640   1.338  1.00  0.00    -0.269 OA
BRANCH  36  39
ATOM     39  C   UNL     1       8.177  -3.377  -0.061  1.00  0.00     0.039 A 
ATOM     40  C   UNL     1       7.933  -4.749   0.170  1.00  0.00     0.014 A 
ATOM     41  C   UNL     1       9.332  -2.994  -0.718  1.00  0.00     0.014 A 
ATOM     42  C   UNL     1       8.798  -5.729  -0.342  1.00  0.00     0.010 A 
ATOM     43  C   UNL     1      10.138  -3.965  -1.299  1.00  0.00     0.010 A 
ATOM     44  C   UNL     1       9.887  -5.343  -1.127  1.00  0.00    -0.014 A 
BRANCH  44  45
ATOM     45  C   UNL     1      10.841  -6.287  -1.777  1.00  0.00     0.031 A 
ATOM     46  C   UNL     1      12.307  -6.100  -1.489  1.00  0.00     0.074 A 
ATOM     47  C   UNL     1      10.448  -7.139  -2.747  1.00  0.00     0.049 A 
ATOM     48  N   UNL     1      13.351  -6.487  -2.171  1.00  0.00    -0.248 NA
ATOM     49  C   UNL     1      12.626  -5.297  -0.296  1.00  0.00     0.031 C 
ATOM     50  C   UNL     1       9.067  -7.444  -3.115  1.00  0.00     0.029 A 
ATOM     51  N   UNL     1      11.192  -7.859  -3.654  1.00  0.00    -0.354 N 
ATOM     52  C   UNL     1      14.447  -5.936  -1.516  1.00  0.00     0.074 A 
ATOM     53  C   UNL     1      13.928  -5.117  -0.441  1.00  0.00     0.031 C 
ATOM     54  C   UNL     1       9.058  -8.224  -4.208  1.00  0.00     0.029 A 
ATOM     55  C   UNL     1      10.432  -8.464  -4.632  1.00  0.00     0.049 A 
ATOM     56  H   UNL     1      12.173  -7.934  -3.609  1.00  0.00     0.167 HD
ATOM     57  C   UNL     1      15.765  -6.121  -1.769  1.00  0.00     0.034 A 
ATOM     58  C   UNL     1      10.797  -9.110  -5.758  1.00  0.00     0.034 A 
ATOM     59  C   UNL     1      16.253  -6.973  -2.823  1.00  0.00     0.049 A 
ATOM     60  C   UNL     1      12.267  -9.278  -6.054  1.00  0.00     0.074 A 
ATOM     61  C   UNL     1      17.559  -7.319  -3.117  1.00  0.00     0.029 A 
ATOM     62  N   UNL     1      15.451  -7.610  -3.763  1.00  0.00    -0.354 N 
ATOM     63  N   UNL     1      13.300  -8.803  -5.396  1.00  0.00    -0.248 NA
ATOM     64  C   UNL     1      12.620 -10.088  -7.227  1.00  0.00     0.031 C 
ATOM     65  C   UNL     1      17.552  -8.098  -4.278  1.00  0.00     0.029 A 
ATOM     66  C   UNL     1      16.237  -8.314  -4.660  1.00  0.00     0.049 A 
ATOM     67  H   UNL     1      14.467  -7.568  -3.787  1.00  0.00     0.167 HD
ATOM     68  C   UNL     1      14.426  -9.295  -6.051  1.00  0.00     0.074 A 
ATOM     69  C   UNL     1      13.943 -10.104  -7.152  1.00  0.00     0.031 C 
ATOM     70  C   UNL     1      15.739  -9.108  -5.760  1.00  0.00     0.034 A 
BRANCH  57  71
ATOM     71  C   UNL     1      16.752  -5.377  -0.899  1.00  0.00     0.023 A 
ATOM     72  C   UNL     1      16.783  -5.549   0.497  1.00  0.00     0.031 A 
ATOM     73  C   UNL     1      17.639  -4.444  -1.463  1.00  0.00     0.131 A 
ATOM     74  C   UNL     1      17.602  -4.730   1.287  1.00  0.00     0.055 A 
ATOM     75  C   UNL     1      18.526  -3.703  -0.678  1.00  0.00     0.041 A 
ATOM     76  F   UNL     1      17.644  -4.216  -2.785  1.00  0.00    -0.206 F 
ATOM     77  C   UNL     1      18.496  -3.828   0.708  1.00  0.00     0.022 A 
BRANCH  74  78
ATOM     78  S   UNL     1      17.346  -4.735   3.083  1.00  0.00     0.124 S 
ATOM     79  O   UNL     1      15.939  -4.351   3.181  1.00  0.00    -0.237 OA
ATOM     80  O   UNL     1      17.658  -6.113   3.442  1.00  0.00    -0.237 OA
ATOM     81  O   UNL     1      18.293  -3.732   3.567  1.00  0.00    -0.744 OA
ENDBRANCH  74  78
ENDBRANCH  57  71
BRANCH  58  82
ATOM     82  C   UNL     1       9.764  -9.650  -6.691  1.00  0.00     0.023 A 
ATOM     83  C   UNL     1       9.607 -11.034  -6.868  1.00  0.00     0.031 A 
ATOM     84  C   UNL     1       8.936  -8.793  -7.440  1.00  0.00     0.131 A 
ATOM     85  C   UNL     1       8.676 -11.522  -7.800  1.00  0.00     0.055 A 
ATOM     86  C   UNL     1       7.979  -9.285  -8.331  1.00  0.00     0.041 A 
ATOM     87  F   UNL     1       9.038  -7.461  -7.306  1.00  0.00    -0.206 F 
ATOM     88  C   UNL     1       7.852 -10.658  -8.523  1.00  0.00     0.022 A 
BRANCH  85  89
ATOM     89  S   UNL     1       8.610 -13.309  -8.104  1.00  0.00     0.124 S 
ATOM     90  O   UNL     1       9.972 -13.586  -8.545  1.00  0.00    -0.237 OA
ATOM     91  O   UNL     1       8.242 -13.826  -6.791  1.00  0.00    -0.237 OA
ATOM     92  O   UNL     1       7.581 -13.441  -9.134  1.00  0.00    -0.744 OA
ENDBRANCH  85  89
ENDBRANCH  58  82
BRANCH  70  93
ATOM     93  C   UNL     1      16.746  -9.831  -6.620  1.00  0.00     0.023 A 
ATOM     94  C   UNL     1      16.920  -9.519  -7.978  1.00  0.00     0.031 A 
ATOM     95  C   UNL     1      17.549 -10.844  -6.065  1.00  0.00     0.131 A 
ATOM     96  C   UNL     1      17.838 -10.248  -8.749  1.00  0.00     0.055 A 
ATOM     97  C   UNL     1      18.509 -11.518  -6.819  1.00  0.00     0.041 A 
ATOM     98  F   UNL     1      17.422 -11.187  -4.773  1.00  0.00    -0.206 F 
ATOM     99  C   UNL     1      18.649 -11.229  -8.174  1.00  0.00     0.022 A 
BRANCH  96 100
ATOM    100  S   UNL     1      17.891  -9.960 -10.538  1.00  0.00     0.124 S 
ATOM    101  O   UNL     1      16.523 -10.278 -10.935  1.00  0.00    -0.237 OA
ATOM    102  O   UNL     1      18.267  -8.553 -10.618  1.00  0.00    -0.237 OA
ATOM    103  O   UNL     1      18.907 -10.901 -11.007  1.00  0.00    -0.744 OA
ENDBRANCH  96 100
ENDBRANCH  70  93
ENDBRANCH  44  45
ENDBRANCH  36  39
ENDBRANCH  34  35
ENDBRANCH  33  34
ENDBRANCH   1  33
TORSDOF 19
