REMARK SMILES O=C(C[C@H]1C[N@@H+](Cc2ccncc2)CCO1)NCCCCNC(=O)c1ccc(-c2c3nc(c(-c4cc(S(=O)(=O)[O-])ccc4F)c4ccc([nH]4)c(-c4cc(S(=O)(=O)[O-])ccc4F)c4nc(c(-c5cc(S(=O)(=O)[O-])ccc5F)c5ccc2[nH]5)C=C4)C=C3)cc1
REMARK SMILES IDX 19 1 18 2 17 3 1 4 2 5 3 7 4 8 5 9 16 10 6 11 15 12 14 13
REMARK SMILES IDX 7 15 8 16 9 17 13 18 10 19 12 20 11 21 20 22 21 23 22 24
REMARK SMILES IDX 23 25 24 27 25 28 26 29 87 30 27 31 86 32 28 33 29 34 30 35
REMARK SMILES IDX 80 36 31 37 85 38 79 39 81 40 32 41 84 42 78 43 77 44 33 46
REMARK SMILES IDX 65 47 45 48 64 49 46 50 49 51 63 52 82 53 47 54 48 55 62 57
REMARK SMILES IDX 83 58 50 59 34 60 35 61 43 62 36 63 42 64 44 65 41 66 37 67
REMARK SMILES IDX 38 68 39 69 40 70 66 71 67 72 75 73 68 74 74 75 76 76 73 77
REMARK SMILES IDX 69 78 70 79 71 80 72 81 51 82 52 83 60 84 53 85 59 86 61 87
REMARK SMILES IDX 58 88 54 89 55 90 56 91 57 92
REMARK H PARENT 17 6 6 14 22 26 81 45 49 56
REMARK Flexibility Score: inf
ROOT
ATOM      1  C   UNL     1       9.408   1.090  -2.917  1.00  0.00     0.023 C 
ENDROOT
BRANCH   1   2
ATOM      2  C   UNL     1       8.445   0.009  -2.399  1.00  0.00     0.116 C 
BRANCH   2   3
ATOM      3  N   UNL     1       7.084   0.479  -2.208  1.00  0.00    -0.356 N 
ATOM      4  O   UNL     1       5.993  -1.371  -2.969  1.00  0.00    -0.275 OA
ATOM      5  C   UNL     1       5.947  -0.261  -2.442  1.00  0.00     0.222 C 
ATOM      6  H   UNL     1       6.965   1.401  -1.886  1.00  0.00     0.163 HD
BRANCH   5   7
ATOM      7  C   UNL     1       4.602   0.407  -2.125  1.00  0.00     0.138 C 
BRANCH   7   8
ATOM      8  C   UNL     1       4.377   0.951  -0.711  1.00  0.00     0.182 C 
ATOM      9  C   UNL     1       5.393   1.956  -0.133  1.00  0.00     0.295 C 
ATOM     10  O   UNL     1       3.037   1.497  -0.572  1.00  0.00    -0.366 OA
ATOM     11  N   UNL     1       5.311   3.322  -0.652  1.00  0.00    -0.327 N 
ATOM     12  C   UNL     1       2.895   2.858  -1.024  1.00  0.00     0.222 C 
ATOM     13  C   UNL     1       3.952   3.814  -0.443  1.00  0.00     0.291 C 
ATOM     14  H   UNL     1       5.994   3.829  -0.089  1.00  0.00     0.348 HD
BRANCH  11  15
ATOM     15  C   UNL     1       6.008   3.764  -1.861  1.00  0.00     0.299 C 
BRANCH  15  16
ATOM     16  C   UNL     1       5.340   3.711  -3.222  1.00  0.00     0.009 A 
ATOM     17  C   UNL     1       4.372   4.658  -3.574  1.00  0.00     0.029 A 
ATOM     18  C   UNL     1       5.703   2.788  -4.211  1.00  0.00     0.029 A 
ATOM     19  C   UNL     1       3.746   4.570  -4.809  1.00  0.00     0.111 A 
ATOM     20  C   UNL     1       5.008   2.762  -5.415  1.00  0.00     0.111 A 
ATOM     21  N   UNL     1       4.025   3.625  -5.729  1.00  0.00    -0.265 NA
ENDBRANCH  15  16
ENDBRANCH  11  15
ENDBRANCH   7   8
ENDBRANCH   5   7
ENDBRANCH   2   3
ENDBRANCH   1   2
BRANCH   1  22
ATOM     22  C   UNL     1       9.647   2.368  -2.091  1.00  0.00     0.023 C 
BRANCH  22  23
ATOM     23  C   UNL     1       9.735   2.251  -0.568  1.00  0.00     0.116 C 
BRANCH  23  24
ATOM     24  N   UNL     1      11.043   1.797  -0.142  1.00  0.00    -0.352 N 
ATOM     25  C   UNL     1      11.984   2.411   0.654  1.00  0.00     0.251 C 
ATOM     26  H   UNL     1      11.301   0.907  -0.475  1.00  0.00     0.163 HD
ATOM     27  O   UNL     1      13.129   1.959   0.650  1.00  0.00    -0.269 OA
BRANCH  25  28
ATOM     28  C   UNL     1      11.669   3.593   1.505  1.00  0.00     0.039 A 
ATOM     29  C   UNL     1      12.658   4.570   1.680  1.00  0.00     0.014 A 
ATOM     30  C   UNL     1      10.471   3.710   2.217  1.00  0.00     0.014 A 
ATOM     31  C   UNL     1      12.438   5.668   2.525  1.00  0.00     0.010 A 
ATOM     32  C   UNL     1      10.234   4.832   3.026  1.00  0.00     0.010 A 
ATOM     33  C   UNL     1      11.215   5.824   3.195  1.00  0.00    -0.014 A 
BRANCH  33  34
ATOM     34  C   UNL     1      10.957   7.009   4.067  1.00  0.00     0.031 A 
ATOM     35  C   UNL     1      10.764   6.847   5.555  1.00  0.00     0.074 A 
ATOM     36  C   UNL     1      10.856   8.239   3.522  1.00  0.00     0.049 A 
ATOM     37  N   UNL     1      10.458   7.747   6.457  1.00  0.00    -0.248 NA
ATOM     38  C   UNL     1      10.917   5.488   6.092  1.00  0.00     0.031 C 
ATOM     39  C   UNL     1      11.008   8.543   2.098  1.00  0.00     0.029 A 
ATOM     40  N   UNL     1      10.592   9.461   4.094  1.00  0.00    -0.354 N 
ATOM     41  C   UNL     1      10.371   7.065   7.667  1.00  0.00     0.074 A 
ATOM     42  C   UNL     1      10.609   5.667   7.369  1.00  0.00     0.031 C 
ATOM     43  C   UNL     1      10.844   9.863   1.911  1.00  0.00     0.029 A 
ATOM     44  C   UNL     1      10.530  10.496   3.188  1.00  0.00     0.049 A 
ATOM     45  H   UNL     1      10.459   9.584   5.062  1.00  0.00     0.167 HD
ATOM     46  C   UNL     1      10.134   7.556   8.911  1.00  0.00     0.034 A 
ATOM     47  C   UNL     1      10.235  11.802   3.357  1.00  0.00     0.034 A 
ATOM     48  C   UNL     1       9.904   8.953   9.203  1.00  0.00     0.049 A 
ATOM     49  C   UNL     1       9.931  12.319   4.741  1.00  0.00     0.074 A 
ATOM     50  C   UNL     1       9.699   9.555  10.434  1.00  0.00     0.029 A 
ATOM     51  N   UNL     1       9.837   9.967   8.256  1.00  0.00    -0.354 N 
ATOM     52  N   UNL     1       9.886  11.663   5.877  1.00  0.00    -0.248 NA
ATOM     53  C   UNL     1       9.646  13.755   4.864  1.00  0.00     0.031 C 
ATOM     54  C   UNL     1       9.440  10.915  10.226  1.00  0.00     0.029 A 
ATOM     55  C   UNL     1       9.561  11.181   8.873  1.00  0.00     0.049 A 
ATOM     56  H   UNL     1       9.966   9.844   7.288  1.00  0.00     0.167 HD
ATOM     57  C   UNL     1       9.600  12.615   6.853  1.00  0.00     0.074 A 
ATOM     58  C   UNL     1       9.495  13.889   6.174  1.00  0.00     0.031 C 
ATOM     59  C   UNL     1       9.443  12.449   8.191  1.00  0.00     0.034 A 
BRANCH  46  60
ATOM     60  C   UNL     1      10.079   6.566  10.053  1.00  0.00     0.023 A 
ATOM     61  C   UNL     1      11.200   5.801  10.422  1.00  0.00     0.031 A 
ATOM     62  C   UNL     1       8.887   6.371  10.773  1.00  0.00     0.131 A 
ATOM     63  C   UNL     1      11.085   4.826  11.425  1.00  0.00     0.055 A 
ATOM     64  C   UNL     1       8.802   5.457  11.826  1.00  0.00     0.041 A 
ATOM     65  F   UNL     1       7.778   7.058  10.458  1.00  0.00    -0.206 F 
ATOM     66  C   UNL     1       9.900   4.666  12.147  1.00  0.00     0.022 A 
BRANCH  63  67
ATOM     67  S   UNL     1      12.458   3.666  11.671  1.00  0.00     0.124 S 
ATOM     68  O   UNL     1      12.580   3.070  10.341  1.00  0.00    -0.237 OA
ATOM     69  O   UNL     1      13.549   4.553  12.073  1.00  0.00    -0.237 OA
ATOM     70  O   UNL     1      11.970   2.768  12.707  1.00  0.00    -0.744 OA
ENDBRANCH  63  67
ENDBRANCH  46  60
BRANCH  47  71
ATOM     71  C   UNL     1      10.186  12.719   2.182  1.00  0.00     0.023 A 
ATOM     72  C   UNL     1      11.090  13.786   2.054  1.00  0.00     0.031 A 
ATOM     73  C   UNL     1       9.199  12.569   1.190  1.00  0.00     0.131 A 
ATOM     74  C   UNL     1      10.962  14.687   0.986  1.00  0.00     0.055 A 
ATOM     75  C   UNL     1       9.110  13.437   0.100  1.00  0.00     0.041 A 
ATOM     76  F   UNL     1       8.311  11.565   1.262  1.00  0.00    -0.206 F 
ATOM     77  C   UNL     1       9.988  14.512   0.001  1.00  0.00     0.022 A 
BRANCH  74  78
ATOM     78  S   UNL     1      12.039  16.147   0.947  1.00  0.00     0.124 S 
ATOM     79  O   UNL     1      11.713  16.789   2.215  1.00  0.00    -0.237 OA
ATOM     80  O   UNL     1      13.363  15.542   0.855  1.00  0.00    -0.237 OA
ATOM     81  O   UNL     1      11.598  16.862  -0.248  1.00  0.00    -0.744 OA
ENDBRANCH  74  78
ENDBRANCH  47  71
BRANCH  59  82
ATOM     82  C   UNL     1       9.188  13.690   9.015  1.00  0.00     0.023 A 
ATOM     83  C   UNL     1       8.000  14.432   8.893  1.00  0.00     0.031 A 
ATOM     84  C   UNL     1      10.159  14.145   9.926  1.00  0.00     0.131 A 
ATOM     85  C   UNL     1       7.836  15.617   9.627  1.00  0.00     0.055 A 
ATOM     86  C   UNL     1       9.965  15.292  10.697  1.00  0.00     0.041 A 
ATOM     87  F   UNL     1      11.314  13.479  10.082  1.00  0.00    -0.206 F 
ATOM     88  C   UNL     1       8.804  16.043  10.540  1.00  0.00     0.022 A 
BRANCH  85  89
ATOM     89  S   UNL     1       6.377  16.647   9.308  1.00  0.00     0.124 S 
ATOM     90  O   UNL     1       6.514  16.936   7.884  1.00  0.00    -0.237 OA
ATOM     91  O   UNL     1       5.280  15.758   9.674  1.00  0.00    -0.237 OA
ATOM     92  O   UNL     1       6.565  17.795  10.194  1.00  0.00    -0.744 OA
ENDBRANCH  85  89
ENDBRANCH  59  82
ENDBRANCH  33  34
ENDBRANCH  25  28
ENDBRANCH  23  24
ENDBRANCH  22  23
ENDBRANCH   1  22
TORSDOF 17
