REMARK SMILES C[C@@H]1[NH2+]CC[C@H]1C(=O)NCc1cccc(C(=O)NCCCCNC(=O)c2ccc(-c3c4nc(c(-c5cc(S(=O)(=O)[O-])ccc5F)c5ccc([nH]5)c(-c5cc(S(=O)(=O)[O-])ccc5F)c5nc(c(-c6cc(S(=O)(=O)[O-])ccc6F)c6ccc3[nH]6)C=C5)C=C4)cc2)c1
REMARK SMILES IDX 20 1 19 2 18 3 16 4 17 5 15 7 11 8 12 9 89 10 13 11 14 12
REMARK SMILES IDX 10 13 9 14 7 15 8 16 6 18 1 19 2 20 3 21 4 22 5 25 21 26
REMARK SMILES IDX 22 27 23 28 24 29 25 31 26 32 27 33 88 34 28 35 87 36 29 37
REMARK SMILES IDX 30 38 31 39 81 40 32 41 86 42 80 43 82 44 33 45 85 46 79 47
REMARK SMILES IDX 78 48 34 50 66 51 46 52 65 53 47 54 50 55 64 56 83 57 48 58
REMARK SMILES IDX 49 59 63 61 84 62 51 63 35 64 36 65 44 66 37 67 43 68 45 69
REMARK SMILES IDX 42 70 38 71 39 72 40 73 41 74 67 75 68 76 76 77 69 78 75 79
REMARK SMILES IDX 77 80 74 81 70 82 71 83 72 84 73 85 52 86 53 87 61 88 54 89
REMARK SMILES IDX 60 90 62 91 59 92 55 93 56 94 57 95 58 96
REMARK H PARENT 18 6 9 17 3 23 3 24 23 30 82 49 50 60
REMARK Flexibility Score: inf
ROOT
ATOM      1  C   UNL     1      -0.028   4.137   6.443  1.00  0.00     0.023 C 
ENDROOT
BRANCH   1   2
ATOM      2  C   UNL     1       0.893   3.178   5.705  1.00  0.00     0.116 C 
BRANCH   2   3
ATOM      3  N   UNL     1       1.819   2.422   6.537  1.00  0.00    -0.352 N 
ATOM      4  C   UNL     1       2.149   1.079   6.550  1.00  0.00     0.251 C 
ATOM      5  O   UNL     1       2.997   0.681   7.346  1.00  0.00    -0.269 OA
ATOM      6  H   UNL     1       2.294   2.963   7.209  1.00  0.00     0.163 HD
BRANCH   4   7
ATOM      7  C   UNL     1       1.437   0.086   5.697  1.00  0.00     0.040 A 
ATOM      8  C   UNL     1      -0.103  -0.352   3.878  1.00  0.00    -0.028 A 
ATOM      9  C   UNL     1      -0.351  -1.626   4.407  1.00  0.00     0.005 A 
ATOM     10  C   UNL     1       0.917   0.417   4.449  1.00  0.00     0.019 A 
ATOM     11  C   UNL     1       0.337  -2.065   5.539  1.00  0.00     0.001 A 
ATOM     12  C   UNL     1       1.192  -1.191   6.213  1.00  0.00     0.014 A 
BRANCH   8  13
ATOM     13  C   UNL     1      -1.047   0.227   2.849  1.00  0.00     0.151 C 
BRANCH  13  14
ATOM     14  N   UNL     1      -0.684   1.559   2.407  1.00  0.00    -0.352 N 
ATOM     15  C   UNL     1      -0.186   2.012   1.229  1.00  0.00     0.229 C 
ATOM     16  O   UNL     1       0.152   3.197   1.181  1.00  0.00    -0.275 OA
ATOM     17  H   UNL     1      -0.824   2.261   3.083  1.00  0.00     0.163 HD
BRANCH  15  18
ATOM     18  C   UNL     1      -0.075   1.125   0.003  1.00  0.00     0.142 C 
ATOM     19  C   UNL     1       2.083   0.001  -0.706  1.00  0.00     0.076 C 
ATOM     20  C   UNL     1       0.852  -0.076   0.193  1.00  0.00     0.192 C 
ATOM     21  N   UNL     1       0.083  -1.286  -0.151  1.00  0.00    -0.343 N 
ATOM     22  C   UNL     1      -1.137  -0.864  -0.838  1.00  0.00     0.261 C 
ATOM     23  H   UNL     1      -0.157  -1.797   0.698  1.00  0.00     0.346 HD
ATOM     24  H   UNL     1       0.635  -1.898  -0.752  1.00  0.00     0.346 HD
ATOM     25  C   UNL     1      -1.419   0.570  -0.440  1.00  0.00     0.081 C 
ENDBRANCH  15  18
ENDBRANCH  13  14
ENDBRANCH   8  13
ENDBRANCH   4   7
ENDBRANCH   2   3
ENDBRANCH   1   2
BRANCH   1  26
ATOM     26  C   UNL     1       0.635   5.309   7.146  1.00  0.00     0.023 C 
BRANCH  26  27
ATOM     27  C   UNL     1       1.618   6.118   6.310  1.00  0.00     0.116 C 
BRANCH  27  28
ATOM     28  N   UNL     1       1.049   6.663   5.087  1.00  0.00    -0.352 N 
ATOM     29  C   UNL     1       1.119   7.946   4.587  1.00  0.00     0.251 C 
ATOM     30  H   UNL     1       0.541   6.023   4.538  1.00  0.00     0.163 HD
ATOM     31  O   UNL     1       0.482   8.240   3.584  1.00  0.00    -0.269 OA
BRANCH  29  32
ATOM     32  C   UNL     1       1.926   8.972   5.289  1.00  0.00     0.039 A 
ATOM     33  C   UNL     1       1.393  10.253   5.452  1.00  0.00     0.014 A 
ATOM     34  C   UNL     1       3.192   8.674   5.796  1.00  0.00     0.014 A 
ATOM     35  C   UNL     1       2.101  11.210   6.185  1.00  0.00     0.010 A 
ATOM     36  C   UNL     1       3.850   9.594   6.606  1.00  0.00     0.010 A 
ATOM     37  C   UNL     1       3.320  10.879   6.798  1.00  0.00    -0.014 A 
BRANCH  37  38
ATOM     38  C   UNL     1       4.081  11.874   7.598  1.00  0.00     0.031 A 
ATOM     39  C   UNL     1       5.457  12.295   7.149  1.00  0.00     0.074 A 
ATOM     40  C   UNL     1       3.567  12.354   8.748  1.00  0.00     0.049 A 
ATOM     41  N   UNL     1       6.316  13.088   7.737  1.00  0.00    -0.248 NA
ATOM     42  C   UNL     1       5.944  11.713   5.889  1.00  0.00     0.031 C 
ATOM     43  C   UNL     1       2.267  11.986   9.313  1.00  0.00     0.029 A 
ATOM     44  N   UNL     1       4.076  13.252   9.653  1.00  0.00    -0.354 N 
ATOM     45  C   UNL     1       7.449  13.082   6.929  1.00  0.00     0.074 A 
ATOM     46  C   UNL     1       7.192  12.148   5.855  1.00  0.00     0.031 C 
ATOM     47  C   UNL     1       2.069  12.674  10.450  1.00  0.00     0.029 A 
ATOM     48  C   UNL     1       3.241  13.502  10.718  1.00  0.00     0.049 A 
ATOM     49  H   UNL     1       4.958  13.678   9.549  1.00  0.00     0.167 HD
ATOM     50  C   UNL     1       8.587  13.810   7.054  1.00  0.00     0.034 A 
ATOM     51  C   UNL     1       3.404  14.305  11.788  1.00  0.00     0.034 A 
ATOM     52  C   UNL     1       8.816  14.755   8.119  1.00  0.00     0.049 A 
ATOM     53  C   UNL     1       4.673  15.115  11.902  1.00  0.00     0.074 A 
ATOM     54  C   UNL     1       9.909  15.579   8.323  1.00  0.00     0.029 A 
ATOM     55  N   UNL     1       7.932  15.005   9.162  1.00  0.00    -0.354 N 
ATOM     56  N   UNL     1       5.717  15.132  11.105  1.00  0.00    -0.248 NA
ATOM     57  C   UNL     1       4.773  16.028  13.047  1.00  0.00     0.031 C 
ATOM     58  C   UNL     1       9.713  16.282   9.517  1.00  0.00     0.029 A 
ATOM     59  C   UNL     1       8.463  15.957  10.019  1.00  0.00     0.049 A 
ATOM     60  H   UNL     1       7.057  14.569   9.276  1.00  0.00     0.167 HD
ATOM     61  C   UNL     1       6.579  16.091  11.632  1.00  0.00     0.074 A 
ATOM     62  C   UNL     1       5.927  16.634  12.806  1.00  0.00     0.031 C 
ATOM     63  C   UNL     1       7.797  16.491  11.184  1.00  0.00     0.034 A 
BRANCH  50  64
ATOM     64  C   UNL     1       9.667  13.590   6.019  1.00  0.00     0.023 A 
ATOM     65  C   UNL     1       9.447  13.852   4.655  1.00  0.00     0.031 A 
ATOM     66  C   UNL     1      10.918  13.069   6.392  1.00  0.00     0.131 A 
ATOM     67  C   UNL     1      10.424  13.510   3.707  1.00  0.00     0.055 A 
ATOM     68  C   UNL     1      11.921  12.815   5.453  1.00  0.00     0.041 A 
ATOM     69  F   UNL     1      11.183  12.777   7.676  1.00  0.00    -0.206 F 
ATOM     70  C   UNL     1      11.670  13.018   4.099  1.00  0.00     0.022 A 
BRANCH  67  71
ATOM     71  S   UNL     1       9.980  13.567   1.949  1.00  0.00     0.124 S 
ATOM     72  O   UNL     1       8.861  12.628   1.898  1.00  0.00    -0.237 OA
ATOM     73  O   UNL     1       9.645  14.972   1.753  1.00  0.00    -0.237 OA
ATOM     74  O   UNL     1      11.195  13.114   1.274  1.00  0.00    -0.744 OA
ENDBRANCH  67  71
ENDBRANCH  50  64
BRANCH  51  75
ATOM     75  C   UNL     1       2.344  14.401  12.833  1.00  0.00     0.023 A 
ATOM     76  C   UNL     1       1.654  15.604  13.056  1.00  0.00     0.031 A 
ATOM     77  C   UNL     1       2.037  13.305  13.658  1.00  0.00     0.131 A 
ATOM     78  C   UNL     1       0.732  15.699  14.110  1.00  0.00     0.055 A 
ATOM     79  C   UNL     1       1.080  13.388  14.671  1.00  0.00     0.041 A 
ATOM     80  F   UNL     1       2.661  12.129  13.484  1.00  0.00    -0.206 F 
ATOM     81  C   UNL     1       0.432  14.596  14.911  1.00  0.00     0.022 A 
BRANCH  78  82
ATOM     82  S   UNL     1      -0.005  17.316  14.477  1.00  0.00     0.124 S 
ATOM     83  O   UNL     1       1.178  18.133  14.724  1.00  0.00    -0.237 OA
ATOM     84  O   UNL     1      -0.737  17.600  13.247  1.00  0.00    -0.237 OA
ATOM     85  O   UNL     1      -0.838  17.052  15.649  1.00  0.00    -0.744 OA
ENDBRANCH  78  82
ENDBRANCH  51  75
BRANCH  63  86
ATOM     86  C   UNL     1       8.466  17.620  11.931  1.00  0.00     0.023 A 
ATOM     87  C   UNL     1       8.905  17.480  13.259  1.00  0.00     0.031 A 
ATOM     88  C   UNL     1       8.649  18.865  11.302  1.00  0.00     0.131 A 
ATOM     89  C   UNL     1       9.445  18.584  13.936  1.00  0.00     0.055 A 
ATOM     90  C   UNL     1       9.246  19.941  11.959  1.00  0.00     0.041 A 
ATOM     91  F   UNL     1       8.248  19.056  10.034  1.00  0.00    -0.206 F 
ATOM     92  C   UNL     1       9.634  19.808  13.290  1.00  0.00     0.022 A 
BRANCH  89  93
ATOM     93  S   UNL     1       9.799  18.430  15.708  1.00  0.00     0.124 S 
ATOM     94  O   UNL     1       8.505  18.021  16.243  1.00  0.00    -0.237 OA
ATOM     95  O   UNL     1      10.847  17.414  15.729  1.00  0.00    -0.237 OA
ATOM     96  O   UNL     1      10.232  19.773  16.089  1.00  0.00    -0.744 OA
ENDBRANCH  89  93
ENDBRANCH  63  86
ENDBRANCH  37  38
ENDBRANCH  29  32
ENDBRANCH  27  28
ENDBRANCH  26  27
ENDBRANCH   1  26
TORSDOF 17
