REMARK SMILES O=C(NCCCCNC(=O)c1cccnc1SCC(=O)c1ccccc1Cl)c1ccc(-c2c3nc(c(-c4cc(S(=O)(=O)[O-])ccc4F)c4ccc([nH]4)c(-c4cc(S(=O)(=O)[O-])ccc4F)c4nc(c(-c5cc(S(=O)(=O)[O-])ccc5F)c5ccc2[nH]5)C=C4)C=C3)cc1
REMARK SMILES IDX 6 1 5 2 4 3 3 4 1 5 2 6 28 8 29 9 90 10 30 11 89 12 31 13
REMARK SMILES IDX 32 14 33 15 83 16 34 17 88 18 82 19 84 20 35 21 87 22 81 23
REMARK SMILES IDX 80 24 36 26 68 27 48 28 67 29 49 30 52 31 66 32 85 33 50 34
REMARK SMILES IDX 51 35 65 37 86 38 53 39 37 40 38 41 46 42 39 43 45 44 47 45
REMARK SMILES IDX 44 46 40 47 41 48 42 49 43 50 69 51 70 52 78 53 71 54 77 55
REMARK SMILES IDX 79 56 76 57 72 58 73 59 74 60 75 61 54 62 55 63 63 64 56 65
REMARK SMILES IDX 62 66 64 67 61 68 57 69 58 70 59 71 60 72 7 73 8 74 9 75
REMARK SMILES IDX 10 77 11 78 12 79 16 80 13 81 15 82 14 83 17 84 18 85 19 86
REMARK SMILES IDX 20 87 21 88 22 89 26 90 23 91 25 92 27 93 24 94
REMARK H PARENT 3 7 84 25 52 36 8 76
REMARK Flexibility Score: inf
ROOT
ATOM      1  C   UNL     1       4.582  -0.305   3.794  1.00  0.00     0.023 C 
ENDROOT
BRANCH   1   2
ATOM      2  C   UNL     1       5.101   0.325   2.502  1.00  0.00     0.023 C 
BRANCH   2   3
ATOM      3  C   UNL     1       4.694  -0.360   1.202  1.00  0.00     0.116 C 
BRANCH   3   4
ATOM      4  N   UNL     1       3.255  -0.463   1.028  1.00  0.00    -0.352 N 
ATOM      5  O   UNL     1       1.245  -0.187   0.059  1.00  0.00    -0.269 OA
ATOM      6  C   UNL     1       2.467  -0.083  -0.031  1.00  0.00     0.251 C 
ATOM      7  H   UNL     1       2.771  -0.867   1.784  1.00  0.00     0.163 HD
BRANCH   6   8
ATOM      8  C   UNL     1       3.070   0.481  -1.260  1.00  0.00     0.039 A 
ATOM      9  C   UNL     1       4.181  -0.109  -1.871  1.00  0.00     0.014 A 
ATOM     10  C   UNL     1       2.488   1.621  -1.823  1.00  0.00     0.014 A 
ATOM     11  C   UNL     1       4.783   0.510  -2.966  1.00  0.00     0.010 A 
ATOM     12  C   UNL     1       3.056   2.205  -2.958  1.00  0.00     0.010 A 
ATOM     13  C   UNL     1       4.227   1.673  -3.519  1.00  0.00    -0.014 A 
BRANCH  13  14
ATOM     14  C   UNL     1       4.858   2.318  -4.700  1.00  0.00     0.031 A 
ATOM     15  C   UNL     1       5.488   3.678  -4.584  1.00  0.00     0.074 A 
ATOM     16  C   UNL     1       4.835   1.683  -5.887  1.00  0.00     0.049 A 
ATOM     17  N   UNL     1       6.026   4.424  -5.515  1.00  0.00    -0.248 NA
ATOM     18  C   UNL     1       5.500   4.284  -3.245  1.00  0.00     0.031 C 
ATOM     19  C   UNL     1       4.236   0.368  -6.125  1.00  0.00     0.029 A 
ATOM     20  N   UNL     1       5.311   2.062  -7.115  1.00  0.00    -0.354 N 
ATOM     21  C   UNL     1       6.426   5.596  -4.883  1.00  0.00     0.074 A 
ATOM     22  C   UNL     1       6.034   5.471  -3.493  1.00  0.00     0.031 C 
ATOM     23  C   UNL     1       4.377   0.052  -7.421  1.00  0.00     0.029 A 
ATOM     24  C   UNL     1       5.032   1.159  -8.112  1.00  0.00     0.049 A 
ATOM     25  H   UNL     1       5.805   2.900  -7.268  1.00  0.00     0.167 HD
ATOM     26  C   UNL     1       7.066   6.670  -5.411  1.00  0.00     0.034 A 
ATOM     27  C   UNL     1       5.244   1.224  -9.440  1.00  0.00     0.034 A 
ATOM     28  C   UNL     1       7.452   6.774  -6.798  1.00  0.00     0.049 A 
ATOM     29  C   UNL     1       5.924   2.435 -10.014  1.00  0.00     0.074 A 
ATOM     30  C   UNL     1       8.162   7.784  -7.425  1.00  0.00     0.029 A 
ATOM     31  N   UNL     1       7.143   5.842  -7.781  1.00  0.00    -0.354 N 
ATOM     32  N   UNL     1       6.332   3.519  -9.397  1.00  0.00    -0.248 NA
ATOM     33  C   UNL     1       6.176   2.430 -11.460  1.00  0.00     0.031 C 
ATOM     34  C   UNL     1       8.229   7.493  -8.794  1.00  0.00     0.029 A 
ATOM     35  C   UNL     1       7.615   6.270  -9.013  1.00  0.00     0.049 A 
ATOM     36  H   UNL     1       6.659   4.999  -7.626  1.00  0.00     0.167 HD
ATOM     37  C   UNL     1       6.901   4.322 -10.379  1.00  0.00     0.074 A 
ATOM     38  C   UNL     1       6.790   3.593 -11.627  1.00  0.00     0.031 C 
ATOM     39  C   UNL     1       7.473   5.546 -10.255  1.00  0.00     0.034 A 
BRANCH  26  40
ATOM     40  C   UNL     1       7.344   7.832  -4.487  1.00  0.00     0.023 A 
ATOM     41  C   UNL     1       8.203   7.709  -3.380  1.00  0.00     0.031 A 
ATOM     42  C   UNL     1       6.708   9.069  -4.691  1.00  0.00     0.131 A 
ATOM     43  C   UNL     1       8.338   8.775  -2.476  1.00  0.00     0.055 A 
ATOM     44  C   UNL     1       6.906  10.150  -3.830  1.00  0.00     0.041 A 
ATOM     45  F   UNL     1       5.864   9.241  -5.721  1.00  0.00    -0.206 F 
ATOM     46  C   UNL     1       7.711  10.002  -2.705  1.00  0.00     0.022 A 
BRANCH  43  47
ATOM     47  S   UNL     1       9.216   8.481  -0.915  1.00  0.00     0.124 S 
ATOM     48  O   UNL     1       8.503   7.321  -0.385  1.00  0.00    -0.237 OA
ATOM     49  O   UNL     1      10.582   8.242  -1.364  1.00  0.00    -0.237 OA
ATOM     50  O   UNL     1       9.012   9.721  -0.169  1.00  0.00    -0.744 OA
ENDBRANCH  43  47
ENDBRANCH  26  40
BRANCH  27  51
ATOM     51  C   UNL     1       4.753   0.125 -10.312  1.00  0.00     0.023 A 
ATOM     52  C   UNL     1       5.638  -0.775 -10.923  1.00  0.00     0.031 A 
ATOM     53  C   UNL     1       3.373  -0.053 -10.517  1.00  0.00     0.131 A 
ATOM     54  C   UNL     1       5.130  -1.810 -11.724  1.00  0.00     0.055 A 
ATOM     55  C   UNL     1       2.873  -1.103 -11.286  1.00  0.00     0.041 A 
ATOM     56  F   UNL     1       2.489   0.778  -9.941  1.00  0.00    -0.206 F 
ATOM     57  C   UNL     1       3.755  -1.987 -11.899  1.00  0.00     0.022 A 
BRANCH  54  58
ATOM     58  S   UNL     1       6.299  -2.920 -12.555  1.00  0.00     0.124 S 
ATOM     59  O   UNL     1       7.011  -2.000 -13.434  1.00  0.00    -0.237 OA
ATOM     60  O   UNL     1       7.063  -3.454 -11.432  1.00  0.00    -0.237 OA
ATOM     61  O   UNL     1       5.433  -3.885 -13.228  1.00  0.00    -0.744 OA
ENDBRANCH  54  58
ENDBRANCH  27  51
BRANCH  39  62
ATOM     62  C   UNL     1       8.049   6.156 -11.505  1.00  0.00     0.023 A 
ATOM     63  C   UNL     1       7.224   6.665 -12.523  1.00  0.00     0.031 A 
ATOM     64  C   UNL     1       9.442   6.225 -11.678  1.00  0.00     0.131 A 
ATOM     65  C   UNL     1       7.802   7.189 -13.690  1.00  0.00     0.055 A 
ATOM     66  C   UNL     1      10.011   6.786 -12.821  1.00  0.00     0.041 A 
ATOM     67  F   UNL     1      10.271   5.750 -10.735  1.00  0.00    -0.206 F 
ATOM     68  C   UNL     1       9.190   7.265 -13.838  1.00  0.00     0.022 A 
BRANCH  65  69
ATOM     69  S   UNL     1       6.716   7.731 -15.038  1.00  0.00     0.124 S 
ATOM     70  O   UNL     1       6.072   6.480 -15.427  1.00  0.00    -0.237 OA
ATOM     71  O   UNL     1       5.860   8.711 -14.379  1.00  0.00    -0.237 OA
ATOM     72  O   UNL     1       7.643   8.283 -16.024  1.00  0.00    -0.744 OA
ENDBRANCH  65  69
ENDBRANCH  39  62
ENDBRANCH  13  14
ENDBRANCH   6   8
ENDBRANCH   3   4
ENDBRANCH   2   3
ENDBRANCH   1   2
BRANCH   1  73
ATOM     73  C   UNL     1       4.714  -1.819   3.909  1.00  0.00     0.116 C 
BRANCH  73  74
ATOM     74  N   UNL     1       6.049  -2.337   3.666  1.00  0.00    -0.352 N 
ATOM     75  C   UNL     1       6.645  -3.372   4.327  1.00  0.00     0.254 C 
ATOM     76  H   UNL     1       6.574  -1.899   2.957  1.00  0.00     0.163 HD
ATOM     77  O   UNL     1       7.505  -4.090   3.806  1.00  0.00    -0.269 OA
BRANCH  75  78
ATOM     78  C   UNL     1       6.223  -3.704   5.678  1.00  0.00     0.072 A 
ATOM     79  C   UNL     1       5.445  -4.862   5.816  1.00  0.00     0.018 A 
ATOM     80  C   UNL     1       6.524  -2.918   6.791  1.00  0.00     0.109 A 
ATOM     81  C   UNL     1       4.955  -5.205   7.064  1.00  0.00     0.021 A 
ATOM     82  N   UNL     1       6.074  -3.283   8.025  1.00  0.00    -0.249 NA
ATOM     83  C   UNL     1       5.309  -4.401   8.132  1.00  0.00     0.112 A 
BRANCH  80  84
ATOM     84  S   UNL     1       7.071  -1.216   6.703  1.00  0.00    -0.097 SA
BRANCH  84  85
ATOM     85  C   UNL     1       8.857  -1.153   6.364  1.00  0.00     0.157 C 
BRANCH  85  86
ATOM     86  C   UNL     1       9.431  -2.087   5.336  1.00  0.00     0.174 C 
ATOM     87  O   UNL     1       9.190  -1.895   4.141  1.00  0.00    -0.293 OA
BRANCH  86  88
ATOM     88  C   UNL     1      10.472  -3.111   5.700  1.00  0.00     0.037 A 
ATOM     89  C   UNL     1      11.333  -3.502   4.651  1.00  0.00     0.013 A 
ATOM     90  C   UNL     1      10.686  -3.680   6.965  1.00  0.00     0.051 A 
ATOM     91  C   UNL     1      12.384  -4.402   4.857  1.00  0.00     0.001 A 
ATOM     92  C   UNL     1      11.750  -4.578   7.166  1.00  0.00     0.021 A 
ATOM     93  Cl  UNL     1       9.697  -3.413   8.353  1.00  0.00    -0.084 Cl
ATOM     94  C   UNL     1      12.597  -4.936   6.120  1.00  0.00     0.002 A 
ENDBRANCH  86  88
ENDBRANCH  85  86
ENDBRANCH  84  85
ENDBRANCH  80  84
ENDBRANCH  75  78
ENDBRANCH  73  74
ENDBRANCH   1  73
TORSDOF 18
