REMARK SMILES O=C(NCCCCNC(=O)c1cnc(-c2ccccc2Cl)nc1)c1ccc(-c2c3nc(c(-c4cc(S(=O)(=O)[O-])ccc4F)c4ccc([nH]4)c(-c4cc(S(=O)(=O)[O-])ccc4F)c4nc(c(-c5cc(S(=O)(=O)[O-])ccc5F)c5ccc2[nH]5)C=C4)C=C3)cc1
REMARK SMILES IDX 4 1 3 2 1 3 2 4 24 6 25 7 86 8 26 9 85 10 27 11 28 12 29 13
REMARK SMILES IDX 79 14 30 15 84 16 78 17 80 18 31 19 83 20 77 21 76 22 32 24
REMARK SMILES IDX 64 25 44 26 63 27 45 28 48 29 62 30 81 31 46 32 47 33 61 35
REMARK SMILES IDX 82 36 49 37 33 38 34 39 42 40 35 41 41 42 43 43 40 44 36 45
REMARK SMILES IDX 37 46 38 47 39 48 65 49 66 50 74 51 67 52 73 53 75 54 72 55
REMARK SMILES IDX 68 56 69 57 70 58 71 59 50 60 51 61 59 62 52 63 58 64 60 65
REMARK SMILES IDX 57 66 53 67 54 68 55 69 56 70 5 71 6 72 7 73 8 74 9 75 10 77
REMARK SMILES IDX 11 78 12 79 23 80 13 81 22 82 14 83 15 84 16 85 20 86 17 87
REMARK SMILES IDX 19 88 21 89 18 90
REMARK H PARENT 3 5 80 23 48 34 8 76
REMARK Flexibility Score: inf
ROOT
ATOM      1  C   UNL     1       4.559  -0.674  -1.079  1.00  0.00     0.116 C 
ENDROOT
BRANCH   1   2
ATOM      2  N   UNL     1       3.125  -0.432  -1.005  1.00  0.00    -0.352 N 
ATOM      3  O   UNL     1       1.144  -0.003  -0.010  1.00  0.00    -0.269 OA
ATOM      4  C   UNL     1       2.368  -0.042   0.077  1.00  0.00     0.251 C 
ATOM      5  H   UNL     1       2.628  -0.565  -1.845  1.00  0.00     0.163 HD
BRANCH   4   6
ATOM      6  C   UNL     1       3.040   0.300   1.349  1.00  0.00     0.039 A 
ATOM      7  C   UNL     1       4.171   1.116   1.350  1.00  0.00     0.014 A 
ATOM      8  C   UNL     1       2.556  -0.232   2.548  1.00  0.00     0.014 A 
ATOM      9  C   UNL     1       4.917   1.256   2.513  1.00  0.00     0.010 A 
ATOM     10  C   UNL     1       3.252   0.001   3.739  1.00  0.00     0.010 A 
ATOM     11  C   UNL     1       4.459   0.716   3.726  1.00  0.00    -0.014 A 
BRANCH  11  12
ATOM     12  C   UNL     1       5.239   0.967   4.967  1.00  0.00     0.031 A 
ATOM     13  C   UNL     1       5.860  -0.162   5.745  1.00  0.00     0.074 A 
ATOM     14  C   UNL     1       5.420   2.243   5.365  1.00  0.00     0.049 A 
ATOM     15  N   UNL     1       6.584  -0.111   6.835  1.00  0.00    -0.248 NA
ATOM     16  C   UNL     1       5.630  -1.524   5.242  1.00  0.00     0.031 C 
ATOM     17  C   UNL     1       4.865   3.418   4.686  1.00  0.00     0.029 A 
ATOM     18  N   UNL     1       6.131   2.771   6.410  1.00  0.00    -0.354 N 
ATOM     19  C   UNL     1       6.886  -1.430   7.159  1.00  0.00     0.074 A 
ATOM     20  C   UNL     1       6.231  -2.259   6.168  1.00  0.00     0.031 C 
ATOM     21  C   UNL     1       5.305   4.527   5.296  1.00  0.00     0.029 A 
ATOM     22  C   UNL     1       6.098   4.145   6.457  1.00  0.00     0.049 A 
ATOM     23  H   UNL     1       6.619   2.220   7.064  1.00  0.00     0.167 HD
ATOM     24  C   UNL     1       7.644  -1.901   8.182  1.00  0.00     0.034 A 
ATOM     25  C   UNL     1       6.624   5.007   7.349  1.00  0.00     0.034 A 
ATOM     26  C   UNL     1       8.286  -1.054   9.162  1.00  0.00     0.049 A 
ATOM     27  C   UNL     1       7.411   4.455   8.506  1.00  0.00     0.074 A 
ATOM     28  C   UNL     1       9.097  -1.423  10.223  1.00  0.00     0.029 A 
ATOM     29  N   UNL     1       8.182   0.332   9.213  1.00  0.00    -0.354 N 
ATOM     30  N   UNL     1       7.699   3.205   8.788  1.00  0.00    -0.248 NA
ATOM     31  C   UNL     1       7.946   5.430   9.462  1.00  0.00     0.031 C 
ATOM     32  C   UNL     1       9.416  -0.275  10.956  1.00  0.00     0.029 A 
ATOM     33  C   UNL     1       8.882   0.826  10.306  1.00  0.00     0.049 A 
ATOM     34  H   UNL     1       7.684   0.884   8.567  1.00  0.00     0.167 HD
ATOM     35  C   UNL     1       8.472   3.248   9.943  1.00  0.00     0.074 A 
ATOM     36  C   UNL     1       8.623   4.647  10.289  1.00  0.00     0.031 C 
ATOM     37  C   UNL     1       9.011   2.223  10.653  1.00  0.00     0.034 A 
BRANCH  24  38
ATOM     38  C   UNL     1       7.779  -3.401   8.321  1.00  0.00     0.023 A 
ATOM     39  C   UNL     1       8.395  -4.188   7.332  1.00  0.00     0.031 A 
ATOM     40  C   UNL     1       7.271  -4.058   9.457  1.00  0.00     0.131 A 
ATOM     41  C   UNL     1       8.421  -5.586   7.461  1.00  0.00     0.055 A 
ATOM     42  C   UNL     1       7.374  -5.441   9.619  1.00  0.00     0.041 A 
ATOM     43  F   UNL     1       6.654  -3.366  10.428  1.00  0.00    -0.206 F 
ATOM     44  C   UNL     1       7.938  -6.216   8.610  1.00  0.00     0.022 A 
BRANCH  41  45
ATOM     45  S   UNL     1       8.958  -6.578   6.040  1.00  0.00     0.124 S 
ATOM     46  O   UNL     1       8.036  -6.129   5.000  1.00  0.00    -0.237 OA
ATOM     47  O   UNL     1      10.349  -6.171   5.879  1.00  0.00    -0.237 OA
ATOM     48  O   UNL     1       8.757  -7.955   6.488  1.00  0.00    -0.744 OA
ENDBRANCH  41  45
ENDBRANCH  24  38
BRANCH  25  49
ATOM     49  C   UNL     1       6.393   6.472   7.202  1.00  0.00     0.023 A 
ATOM     50  C   UNL     1       7.462   7.358   7.007  1.00  0.00     0.031 A 
ATOM     51  C   UNL     1       5.096   7.011   7.288  1.00  0.00     0.131 A 
ATOM     52  C   UNL     1       7.222   8.739   6.948  1.00  0.00     0.055 A 
ATOM     53  C   UNL     1       4.856   8.380   7.166  1.00  0.00     0.041 A 
ATOM     54  F   UNL     1       4.036   6.208   7.473  1.00  0.00    -0.206 F 
ATOM     55  C   UNL     1       5.925   9.255   7.009  1.00  0.00     0.022 A 
BRANCH  52  56
ATOM     56  S   UNL     1       8.643   9.864   6.884  1.00  0.00     0.124 S 
ATOM     57  O   UNL     1       9.373   9.488   8.089  1.00  0.00    -0.237 OA
ATOM     58  O   UNL     1       9.264   9.495   5.616  1.00  0.00    -0.237 OA
ATOM     59  O   UNL     1       8.029  11.189   6.913  1.00  0.00    -0.744 OA
ENDBRANCH  52  56
ENDBRANCH  25  49
BRANCH  37  60
ATOM     60  C   UNL     1       9.852   2.595  11.851  1.00  0.00     0.023 A 
ATOM     61  C   UNL     1       9.299   3.230  12.977  1.00  0.00     0.031 A 
ATOM     62  C   UNL     1      11.235   2.340  11.850  1.00  0.00     0.131 A 
ATOM     63  C   UNL     1      10.134   3.649  14.024  1.00  0.00     0.055 A 
ATOM     64  C   UNL     1      12.049   2.696  12.925  1.00  0.00     0.041 A 
ATOM     65  F   UNL     1      11.819   1.741  10.799  1.00  0.00    -0.206 F 
ATOM     66  C   UNL     1      11.503   3.370  14.013  1.00  0.00     0.022 A 
BRANCH  63  67
ATOM     67  S   UNL     1       9.426   4.667  15.348  1.00  0.00     0.124 S 
ATOM     68  O   UNL     1       8.889   5.802  14.604  1.00  0.00    -0.237 OA
ATOM     69  O   UNL     1       8.439   3.768  15.939  1.00  0.00    -0.237 OA
ATOM     70  O   UNL     1      10.575   4.970  16.199  1.00  0.00    -0.744 OA
ENDBRANCH  63  67
ENDBRANCH  37  60
ENDBRANCH  11  12
ENDBRANCH   4   6
ENDBRANCH   1   2
BRANCH   1  71
ATOM     71  C   UNL     1       4.910  -2.053  -1.621  1.00  0.00     0.023 C 
BRANCH  71  72
ATOM     72  C   UNL     1       4.442  -2.328  -3.046  1.00  0.00     0.023 C 
BRANCH  72  73
ATOM     73  C   UNL     1       4.849  -1.277  -4.075  1.00  0.00     0.116 C 
BRANCH  73  74
ATOM     74  N   UNL     1       6.294  -1.146  -4.205  1.00  0.00    -0.352 N 
ATOM     75  C   UNL     1       7.088  -1.374  -5.299  1.00  0.00     0.254 C 
ATOM     76  H   UNL     1       6.767  -0.853  -3.393  1.00  0.00     0.163 HD
ATOM     77  O   UNL     1       8.312  -1.361  -5.213  1.00  0.00    -0.269 OA
BRANCH  75  78
ATOM     78  C   UNL     1       6.472  -1.659  -6.590  1.00  0.00     0.076 A 
ATOM     79  C   UNL     1       5.548  -0.825  -7.176  1.00  0.00     0.129 A 
ATOM     80  C   UNL     1       6.796  -2.794  -7.292  1.00  0.00     0.129 A 
ATOM     81  N   UNL     1       4.903  -1.125  -8.322  1.00  0.00    -0.236 NA
ATOM     82  N   UNL     1       6.185  -3.142  -8.446  1.00  0.00    -0.236 NA
ATOM     83  C   UNL     1       5.224  -2.307  -8.892  1.00  0.00     0.160 A 
BRANCH  83  84
ATOM     84  C   UNL     1       4.485  -2.685 -10.096  1.00  0.00     0.038 A 
ATOM     85  C   UNL     1       4.377  -1.760 -11.155  1.00  0.00     0.013 A 
ATOM     86  C   UNL     1       3.847  -3.929 -10.250  1.00  0.00     0.052 A 
ATOM     87  C   UNL     1       3.687  -2.070 -12.329  1.00  0.00     0.001 A 
ATOM     88  C   UNL     1       3.156  -4.240 -11.430  1.00  0.00     0.021 A 
ATOM     89  Cl  UNL     1       3.805  -5.122  -8.993  1.00  0.00    -0.084 Cl
ATOM     90  C   UNL     1       3.082  -3.314 -12.468  1.00  0.00     0.002 A 
ENDBRANCH  83  84
ENDBRANCH  75  78
ENDBRANCH  73  74
ENDBRANCH  72  73
ENDBRANCH  71  72
ENDBRANCH   1  71
TORSDOF 15
