REMARK SMILES CC(C)=C1[C@H]2CC[C@@H]1[C@@H](C(=O)Nc1cc(C)cc(C)c1)[C@@H]2C(=O)NCCCCNC(=O)c1ccc(-c2c3nc(c(-c4cc(S(=O)(=O)[O-])ccc4F)c4ccc([nH]4)c(-c4cc(S(=O)(=O)[O-])ccc4F)c4nc(c(-c5cc(S(=O)(=O)[O-])ccc5F)c5ccc2[nH]5)C=C4)C=C3)cc1
REMARK SMILES IDX 27 1 26 2 25 3 24 4 22 5 23 6 21 8 1 9 2 10 3 11 4 12 5 13
REMARK SMILES IDX 8 14 6 15 7 16 9 17 10 18 11 19 12 20 13 22 14 23 20 24
REMARK SMILES IDX 15 25 18 26 16 27 17 28 19 29 28 30 29 31 30 32 31 34 32 35
REMARK SMILES IDX 33 36 94 37 34 38 93 39 35 40 36 41 37 42 87 43 38 44 92 45
REMARK SMILES IDX 86 46 88 47 39 48 91 49 85 50 84 51 40 53 72 54 52 55 71 56
REMARK SMILES IDX 53 57 56 58 70 59 89 60 54 61 55 62 69 64 90 65 57 66 41 67
REMARK SMILES IDX 42 68 50 69 43 70 49 71 51 72 48 73 44 74 45 75 46 76 47 77
REMARK SMILES IDX 73 78 74 79 82 80 75 81 81 82 83 83 80 84 76 85 77 86 78 87
REMARK SMILES IDX 79 88 58 89 59 90 67 91 60 92 66 93 68 94 65 95 61 96 62 97
REMARK SMILES IDX 63 98 64 99
REMARK H PARENT 24 7 12 21 29 33 88 52 56 63
REMARK Flexibility Score: inf
ROOT
ATOM      1  C   UNL     1       0.286   5.079   7.256  1.00  0.00     0.023 C 
ENDROOT
BRANCH   1   2
ATOM      2  C   UNL     1       1.011   4.154   6.294  1.00  0.00     0.023 C 
BRANCH   2   3
ATOM      3  C   UNL     1       0.653   4.287   4.830  1.00  0.00     0.116 C 
BRANCH   3   4
ATOM      4  N   UNL     1       1.342   5.218   4.002  1.00  0.00    -0.356 N 
ATOM      5  C   UNL     1       1.469   5.130   2.647  1.00  0.00     0.224 C 
ATOM      6  O   UNL     1       1.880   6.146   2.072  1.00  0.00    -0.275 OA
ATOM      7  H   UNL     1       1.763   5.990   4.445  1.00  0.00     0.163 HD
BRANCH   5   8
ATOM      8  C   UNL     1       1.254   3.840   1.814  1.00  0.00     0.098 C 
ATOM      9  C   UNL     1       0.504  -0.474  -0.111  1.00  0.00     0.039 C 
ATOM     10  C   UNL     1      -0.066   0.902   0.114  1.00  0.00    -0.077 C 
ATOM     11  C   UNL     1      -1.374   1.194  -0.560  1.00  0.00     0.039 C 
ATOM     12  C   UNL     1       0.477   1.746   1.010  1.00  0.00    -0.064 C 
ATOM     13  C   UNL     1      -0.059   3.020   1.658  1.00  0.00     0.028 C 
ATOM     14  C   UNL     1       1.569   1.446   1.992  1.00  0.00     0.028 C 
ATOM     15  C   UNL     1      -0.561   2.236   2.873  1.00  0.00     0.009 C 
ATOM     16  C   UNL     1       0.609   1.262   3.189  1.00  0.00     0.009 C 
ATOM     17  C   UNL     1       2.338   2.783   2.038  1.00  0.00     0.099 C 
BRANCH  17  18
ATOM     18  C   UNL     1       3.569   2.763   1.101  1.00  0.00     0.228 C 
ATOM     19  O   UNL     1       4.691   2.716   1.635  1.00  0.00    -0.274 OA
ATOM     20  N   UNL     1       3.568   2.596  -0.255  1.00  0.00    -0.326 N 
ATOM     21  H   UNL     1       4.445   2.330  -0.614  1.00  0.00     0.169 HD
BRANCH  20  22
ATOM     22  C   UNL     1       2.582   2.724  -1.241  1.00  0.00     0.041 A 
ATOM     23  C   UNL     1       1.846   3.892  -1.416  1.00  0.00     0.029 A 
ATOM     24  C   UNL     1       2.381   1.657  -2.120  1.00  0.00     0.029 A 
ATOM     25  C   UNL     1       0.759   3.930  -2.298  1.00  0.00    -0.049 A 
ATOM     26  C   UNL     1       1.322   1.685  -3.041  1.00  0.00    -0.049 A 
ATOM     27  C   UNL     1      -0.190   5.094  -2.282  1.00  0.00     0.044 C 
ATOM     28  C   UNL     1       0.496   2.815  -3.099  1.00  0.00     0.007 A 
ATOM     29  C   UNL     1       0.975   0.470  -3.850  1.00  0.00     0.044 C 
ENDBRANCH  20  22
ENDBRANCH  17  18
ENDBRANCH   5   8
ENDBRANCH   3   4
ENDBRANCH   2   3
ENDBRANCH   1   2
BRANCH   1  30
ATOM     30  C   UNL     1      -1.195   5.331   6.991  1.00  0.00     0.116 C 
BRANCH  30  31
ATOM     31  N   UNL     1      -2.035   4.136   6.927  1.00  0.00    -0.352 N 
ATOM     32  C   UNL     1      -3.235   3.903   7.571  1.00  0.00     0.251 C 
ATOM     33  H   UNL     1      -1.706   3.408   6.353  1.00  0.00     0.163 HD
ATOM     34  O   UNL     1      -3.842   2.848   7.415  1.00  0.00    -0.269 OA
BRANCH  32  35
ATOM     35  C   UNL     1      -3.731   4.931   8.507  1.00  0.00     0.039 A 
ATOM     36  C   UNL     1      -3.835   4.613   9.862  1.00  0.00     0.014 A 
ATOM     37  C   UNL     1      -3.881   6.246   8.064  1.00  0.00     0.014 A 
ATOM     38  C   UNL     1      -3.953   5.643  10.797  1.00  0.00     0.010 A 
ATOM     39  C   UNL     1      -3.895   7.271   9.002  1.00  0.00     0.010 A 
ATOM     40  C   UNL     1      -3.903   6.983  10.379  1.00  0.00    -0.014 A 
BRANCH  40  41
ATOM     41  C   UNL     1      -3.836   8.112  11.347  1.00  0.00     0.031 A 
ATOM     42  C   UNL     1      -4.896   9.177  11.307  1.00  0.00     0.074 A 
ATOM     43  C   UNL     1      -2.775   8.244  12.170  1.00  0.00     0.049 A 
ATOM     44  N   UNL     1      -4.930  10.339  11.905  1.00  0.00    -0.248 NA
ATOM     45  C   UNL     1      -6.048   8.914  10.432  1.00  0.00     0.031 C 
ATOM     46  C   UNL     1      -1.656   7.304  12.277  1.00  0.00     0.029 A 
ATOM     47  N   UNL     1      -2.452   9.236  13.064  1.00  0.00    -0.354 N 
ATOM     48  C   UNL     1      -6.086  10.962  11.447  1.00  0.00     0.074 A 
ATOM     49  C   UNL     1      -6.685  10.073  10.475  1.00  0.00     0.031 C 
ATOM     50  C   UNL     1      -0.786   7.752  13.197  1.00  0.00     0.029 A 
ATOM     51  C   UNL     1      -1.252   9.037  13.709  1.00  0.00     0.049 A 
ATOM     52  H   UNL     1      -3.026  10.019  13.229  1.00  0.00     0.167 HD
ATOM     53  C   UNL     1      -6.613  12.154  11.822  1.00  0.00     0.034 A 
ATOM     54  C   UNL     1      -0.592   9.810  14.596  1.00  0.00     0.034 A 
ATOM     55  C   UNL     1      -6.024  13.009  12.821  1.00  0.00     0.049 A 
ATOM     56  C   UNL     1      -1.196  11.131  15.002  1.00  0.00     0.074 A 
ATOM     57  C   UNL     1      -6.501  14.208  13.322  1.00  0.00     0.029 A 
ATOM     58  N   UNL     1      -4.827  12.752  13.478  1.00  0.00    -0.354 N 
ATOM     59  N   UNL     1      -2.305  11.694  14.582  1.00  0.00    -0.248 NA
ATOM     60  C   UNL     1      -0.464  11.919  16.003  1.00  0.00     0.031 C 
ATOM     61  C   UNL     1      -5.569  14.700  14.242  1.00  0.00     0.029 A 
ATOM     62  C   UNL     1      -4.543  13.777  14.366  1.00  0.00     0.049 A 
ATOM     63  H   UNL     1      -4.263  11.958  13.334  1.00  0.00     0.167 HD
ATOM     64  C   UNL     1      -2.421  12.884  15.296  1.00  0.00     0.074 A 
ATOM     65  C   UNL     1      -1.271  12.957  16.172  1.00  0.00     0.031 C 
ATOM     66  C   UNL     1      -3.394  13.827  15.238  1.00  0.00     0.034 A 
BRANCH  53  67
ATOM     67  C   UNL     1      -7.878  12.596  11.127  1.00  0.00     0.023 A 
ATOM     68  C   UNL     1      -9.066  11.851  11.220  1.00  0.00     0.031 A 
ATOM     69  C   UNL     1      -7.883  13.744  10.316  1.00  0.00     0.131 A 
ATOM     70  C   UNL     1     -10.177  12.204  10.439  1.00  0.00     0.055 A 
ATOM     71  C   UNL     1      -9.022  14.143   9.614  1.00  0.00     0.041 A 
ATOM     72  F   UNL     1      -6.773  14.486  10.172  1.00  0.00    -0.206 F 
ATOM     73  C   UNL     1     -10.172  13.360   9.657  1.00  0.00     0.022 A 
BRANCH  70  74
ATOM     74  S   UNL     1     -11.560  11.036  10.335  1.00  0.00     0.124 S 
ATOM     75  O   UNL     1     -10.903   9.852   9.785  1.00  0.00    -0.237 OA
ATOM     76  O   UNL     1     -11.996  10.938  11.722  1.00  0.00    -0.237 OA
ATOM     77  O   UNL     1     -12.498  11.696   9.429  1.00  0.00    -0.744 OA
ENDBRANCH  70  74
ENDBRANCH  53  67
BRANCH  54  78
ATOM     78  C   UNL     1       0.718   9.372  15.160  1.00  0.00     0.023 A 
ATOM     79  C   UNL     1       0.850   9.075  16.526  1.00  0.00     0.031 A 
ATOM     80  C   UNL     1       1.866   9.287  14.354  1.00  0.00     0.131 A 
ATOM     81  C   UNL     1       2.110   8.752  17.055  1.00  0.00     0.055 A 
ATOM     82  C   UNL     1       3.108   8.917  14.875  1.00  0.00     0.041 A 
ATOM     83  F   UNL     1       1.794   9.553  13.040  1.00  0.00    -0.206 F 
ATOM     84  C   UNL     1       3.237   8.660  16.236  1.00  0.00     0.022 A 
BRANCH  81  85
ATOM     85  S   UNL     1       2.268   8.529  18.848  1.00  0.00     0.124 S 
ATOM     86  O   UNL     1       1.809   9.819  19.350  1.00  0.00    -0.237 OA
ATOM     87  O   UNL     1       1.384   7.394  19.091  1.00  0.00    -0.237 OA
ATOM     88  O   UNL     1       3.692   8.258  19.033  1.00  0.00    -0.744 OA
ENDBRANCH  81  85
ENDBRANCH  54  78
BRANCH  66  89
ATOM     89  C   UNL     1      -3.293  14.982  16.199  1.00  0.00     0.023 A 
ATOM     90  C   UNL     1      -2.319  15.985  16.056  1.00  0.00     0.031 A 
ATOM     91  C   UNL     1      -4.206  15.087  17.264  1.00  0.00     0.131 A 
ATOM     92  C   UNL     1      -2.259  17.034  16.986  1.00  0.00     0.055 A 
ATOM     93  C   UNL     1      -4.171  16.158  18.157  1.00  0.00     0.041 A 
ATOM     94  F   UNL     1      -5.155  14.155  17.442  1.00  0.00    -0.206 F 
ATOM     95  C   UNL     1      -3.189  17.135  18.026  1.00  0.00     0.022 A 
BRANCH  92  96
ATOM     96  S   UNL     1      -0.916  18.245  16.852  1.00  0.00     0.124 S 
ATOM     97  O   UNL     1       0.266  17.410  17.040  1.00  0.00    -0.237 OA
ATOM     98  O   UNL     1      -1.111  18.782  15.508  1.00  0.00    -0.237 OA
ATOM     99  O   UNL     1      -1.191  19.185  17.938  1.00  0.00    -0.744 OA
ENDBRANCH  92  96
ENDBRANCH  66  89
ENDBRANCH  40  41
ENDBRANCH  32  35
ENDBRANCH  30  31
ENDBRANCH   1  30
TORSDOF 16
