REMARK SMILES CCn1nc(-c2cccnc2)c2cc(C(=O)NCCCCNC(=O)c3ccc(-c4c5nc(c(-c6cc(S(=O)(=O)[O-])ccc6F)c6ccc([nH]6)c(-c6cc(S(=O)(=O)[O-])ccc6F)c6nc(c(-c7cc(S(=O)(=O)[O-])ccc7F)c7ccc4[nH]7)C=C6)C=C5)cc3)sc21
REMARK SMILES IDX 20 1 19 2 18 3 17 4 15 5 16 6 14 8 3 9 4 10 89 11 5 12 12 13
REMARK SMILES IDX 88 14 13 15 2 16 1 17 6 18 7 19 11 20 8 21 10 22 9 23 21 24
REMARK SMILES IDX 22 25 23 26 24 28 25 29 26 30 87 31 27 32 86 33 28 34 29 35
REMARK SMILES IDX 30 36 80 37 31 38 85 39 79 40 81 41 32 42 84 43 78 44 77 45
REMARK SMILES IDX 33 47 65 48 45 49 64 50 46 51 49 52 63 53 82 54 47 55 48 56
REMARK SMILES IDX 62 58 83 59 50 60 34 61 35 62 43 63 36 64 42 65 44 66 41 67
REMARK SMILES IDX 37 68 38 69 39 70 40 71 66 72 67 73 75 74 68 75 74 76 76 77
REMARK SMILES IDX 73 78 69 79 70 80 71 81 72 82 51 83 52 84 60 85 53 86 59 87
REMARK SMILES IDX 61 88 58 89 54 90 55 91 56 92 57 93
REMARK H PARENT 17 7 22 27 81 46 49 57
REMARK Flexibility Score: inf
ROOT
ATOM      1  C   UNL     1      -4.264  -3.240   2.283  1.00  0.00     0.023 C 
ENDROOT
BRANCH   1   2
ATOM      2  C   UNL     1      -3.044  -2.727   1.508  1.00  0.00     0.023 C 
BRANCH   2   3
ATOM      3  C   UNL     1      -1.739  -3.518   1.706  1.00  0.00     0.116 C 
BRANCH   3   4
ATOM      4  N   UNL     1      -1.704  -4.763   0.945  1.00  0.00    -0.351 N 
ATOM      5  C   UNL     1      -1.184  -5.092  -0.296  1.00  0.00     0.261 C 
ATOM      6  O   UNL     1      -1.199  -6.292  -0.582  1.00  0.00    -0.268 OA
ATOM      7  H   UNL     1      -2.135  -5.519   1.405  1.00  0.00     0.163 HD
BRANCH   5   8
ATOM      8  C   UNL     1      -0.605  -4.104  -1.202  1.00  0.00     0.095 A 
ATOM      9  N   UNL     1       0.933  -0.963  -2.446  1.00  0.00    -0.254 N 
ATOM     10  N   UNL     1       1.836  -1.243  -3.427  1.00  0.00    -0.171 NA
ATOM     11  C   UNL     1       0.237  -2.058  -2.101  1.00  0.00     0.122 A 
ATOM     12  C   UNL     1       1.700  -2.583  -3.642  1.00  0.00     0.103 A 
ATOM     13  C   UNL     1       0.787  -3.100  -2.716  1.00  0.00     0.040 A 
ATOM     14  S   UNL     1      -1.041  -2.422  -1.138  1.00  0.00    -0.110 S 
ATOM     15  C   UNL     1       0.299  -4.331  -2.263  1.00  0.00     0.038 A 
BRANCH   9  16
ATOM     16  C   UNL     1       0.849   0.336  -1.812  1.00  0.00     0.142 C 
ATOM     17  C   UNL     1       1.276   0.301  -0.348  1.00  0.00     0.029 C 
ENDBRANCH   9  16
BRANCH  12  18
ATOM     18  C   UNL     1       2.353  -3.212  -4.775  1.00  0.00     0.021 A 
ATOM     19  C   UNL     1       3.713  -3.046  -5.035  1.00  0.00     0.013 A 
ATOM     20  C   UNL     1       1.594  -3.887  -5.729  1.00  0.00     0.121 A 
ATOM     21  C   UNL     1       4.253  -3.552  -6.217  1.00  0.00     0.021 A 
ATOM     22  N   UNL     1       2.089  -4.386  -6.889  1.00  0.00    -0.264 NA
ATOM     23  C   UNL     1       3.408  -4.200  -7.106  1.00  0.00     0.111 A 
ENDBRANCH  12  18
ENDBRANCH   5   8
ENDBRANCH   3   4
ENDBRANCH   2   3
ENDBRANCH   1   2
BRANCH   1  24
ATOM     24  C   UNL     1      -4.203  -3.047   3.794  1.00  0.00     0.116 C 
BRANCH  24  25
ATOM     25  N   UNL     1      -4.167  -1.638   4.201  1.00  0.00    -0.352 N 
ATOM     26  C   UNL     1      -3.836  -1.113   5.445  1.00  0.00     0.251 C 
ATOM     27  H   UNL     1      -4.406  -0.983   3.507  1.00  0.00     0.163 HD
ATOM     28  O   UNL     1      -4.245  -0.020   5.793  1.00  0.00    -0.269 OA
BRANCH  26  29
ATOM     29  C   UNL     1      -2.953  -1.909   6.320  1.00  0.00     0.039 A 
ATOM     30  C   UNL     1      -3.136  -2.004   7.703  1.00  0.00     0.014 A 
ATOM     31  C   UNL     1      -1.937  -2.614   5.686  1.00  0.00     0.014 A 
ATOM     32  C   UNL     1      -2.329  -2.886   8.425  1.00  0.00     0.010 A 
ATOM     33  C   UNL     1      -1.299  -3.619   6.353  1.00  0.00     0.010 A 
ATOM     34  C   UNL     1      -1.420  -3.700   7.734  1.00  0.00    -0.014 A 
BRANCH  34  35
ATOM     35  C   UNL     1      -0.631  -4.737   8.387  1.00  0.00     0.031 A 
ATOM     36  C   UNL     1      -1.436  -5.805   9.033  1.00  0.00     0.074 A 
ATOM     37  C   UNL     1       0.692  -4.883   8.141  1.00  0.00     0.049 A 
ATOM     38  N   UNL     1      -1.584  -6.027  10.295  1.00  0.00    -0.248 NA
ATOM     39  C   UNL     1      -2.327  -6.617   8.185  1.00  0.00     0.031 C 
ATOM     40  C   UNL     1       1.534  -4.107   7.221  1.00  0.00     0.029 A 
ATOM     41  N   UNL     1       1.541  -5.860   8.552  1.00  0.00    -0.354 N 
ATOM     42  C   UNL     1      -2.360  -7.179  10.387  1.00  0.00     0.074 A 
ATOM     43  C   UNL     1      -2.992  -7.321   9.105  1.00  0.00     0.031 C 
ATOM     44  C   UNL     1       2.665  -4.795   6.952  1.00  0.00     0.029 A 
ATOM     45  C   UNL     1       2.708  -5.975   7.798  1.00  0.00     0.049 A 
ATOM     46  H   UNL     1       1.347  -6.442   9.322  1.00  0.00     0.167 HD
ATOM     47  C   UNL     1      -2.189  -8.065  11.411  1.00  0.00     0.034 A 
ATOM     48  C   UNL     1       3.612  -6.994   7.832  1.00  0.00     0.034 A 
ATOM     49  C   UNL     1      -1.367  -7.483  12.455  1.00  0.00     0.049 A 
ATOM     50  C   UNL     1       3.404  -7.693   9.130  1.00  0.00     0.074 A 
ATOM     51  C   UNL     1      -1.439  -6.319  13.200  1.00  0.00     0.029 A 
ATOM     52  N   UNL     1      -0.054  -7.896  12.555  1.00  0.00    -0.354 N 
ATOM     53  N   UNL     1       3.623  -7.128  10.288  1.00  0.00    -0.248 NA
ATOM     54  C   UNL     1       2.457  -8.801   9.157  1.00  0.00     0.031 C 
ATOM     55  C   UNL     1      -0.102  -5.822  13.222  1.00  0.00     0.029 A 
ATOM     56  C   UNL     1       0.726  -6.765  12.607  1.00  0.00     0.049 A 
ATOM     57  H   UNL     1       0.265  -8.828  12.583  1.00  0.00     0.167 HD
ATOM     58  C   UNL     1       2.544  -7.494  11.080  1.00  0.00     0.074 A 
ATOM     59  C   UNL     1       1.905  -8.597  10.358  1.00  0.00     0.031 C 
ATOM     60  C   UNL     1       2.077  -6.683  12.079  1.00  0.00     0.034 A 
BRANCH  47  61
ATOM     61  C   UNL     1      -2.425  -9.561  11.332  1.00  0.00     0.023 A 
ATOM     62  C   UNL     1      -2.182 -10.305  12.504  1.00  0.00     0.031 A 
ATOM     63  C   UNL     1      -2.599 -10.323  10.155  1.00  0.00     0.131 A 
ATOM     64  C   UNL     1      -2.001 -11.697  12.456  1.00  0.00     0.055 A 
ATOM     65  C   UNL     1      -2.492 -11.718  10.126  1.00  0.00     0.041 A 
ATOM     66  F   UNL     1      -2.792  -9.775   8.951  1.00  0.00    -0.206 F 
ATOM     67  C   UNL     1      -2.154 -12.412  11.273  1.00  0.00     0.022 A 
BRANCH  64  68
ATOM     68  S   UNL     1      -1.372 -12.527  13.937  1.00  0.00     0.124 S 
ATOM     69  O   UNL     1      -0.165 -11.755  14.212  1.00  0.00    -0.237 OA
ATOM     70  O   UNL     1      -2.478 -12.348  14.872  1.00  0.00    -0.237 OA
ATOM     71  O   UNL     1      -1.149 -13.898  13.488  1.00  0.00    -0.744 OA
ENDBRANCH  64  68
ENDBRANCH  47  61
BRANCH  48  72
ATOM     72  C   UNL     1       4.388  -7.565   6.687  1.00  0.00     0.023 A 
ATOM     73  C   UNL     1       5.528  -8.383   6.854  1.00  0.00     0.031 A 
ATOM     74  C   UNL     1       3.861  -7.489   5.376  1.00  0.00     0.131 A 
ATOM     75  C   UNL     1       6.088  -9.070   5.745  1.00  0.00     0.055 A 
ATOM     76  C   UNL     1       4.419  -8.165   4.287  1.00  0.00     0.041 A 
ATOM     77  F   UNL     1       2.726  -6.819   5.118  1.00  0.00    -0.206 F 
ATOM     78  C   UNL     1       5.531  -8.967   4.469  1.00  0.00     0.022 A 
BRANCH  75  79
ATOM     79  S   UNL     1       7.509 -10.197   5.960  1.00  0.00     0.124 S 
ATOM     80  O   UNL     1       8.601  -9.271   6.235  1.00  0.00    -0.237 OA
ATOM     81  O   UNL     1       7.077 -11.041   7.068  1.00  0.00    -0.237 OA
ATOM     82  O   UNL     1       7.598 -10.884   4.670  1.00  0.00    -0.744 OA
ENDBRANCH  75  79
ENDBRANCH  48  72
BRANCH  60  83
ATOM     83  C   UNL     1       2.913  -5.495  12.528  1.00  0.00     0.023 A 
ATOM     84  C   UNL     1       3.416  -4.478  11.682  1.00  0.00     0.031 A 
ATOM     85  C   UNL     1       3.090  -5.327  13.915  1.00  0.00     0.131 A 
ATOM     86  C   UNL     1       4.070  -3.357  12.237  1.00  0.00     0.055 A 
ATOM     87  C   UNL     1       3.713  -4.205  14.459  1.00  0.00     0.041 A 
ATOM     88  F   UNL     1       2.619  -6.243  14.777  1.00  0.00    -0.206 F 
ATOM     89  C   UNL     1       4.212  -3.218  13.621  1.00  0.00     0.022 A 
BRANCH  86  90
ATOM     90  S   UNL     1       4.782  -2.062  11.169  1.00  0.00     0.124 S 
ATOM     91  O   UNL     1       5.430  -2.813  10.101  1.00  0.00    -0.237 OA
ATOM     92  O   UNL     1       3.605  -1.288  10.784  1.00  0.00    -0.237 OA
ATOM     93  O   UNL     1       5.705  -1.358  12.063  1.00  0.00    -0.744 OA
ENDBRANCH  86  90
ENDBRANCH  60  83
ENDBRANCH  34  35
ENDBRANCH  26  29
ENDBRANCH  24  25
ENDBRANCH   1  24
TORSDOF 16
