REMARK SMILES CC[NH2+][C@@]1(C(=O)NCCCCNC(=O)c2ccc(-c3c4nc(c(-c5cc(S(=O)(=O)[O-])ccc5F)c5ccc([nH]5)c(-c5cc(S(=O)(=O)[O-])ccc5F)c5nc(c(-c6cc(S(=O)(=O)[O-])ccc6F)c6ccc3[nH]6)C=C5)C=C4)cc2)CC[C@@H](Oc2cccc(OC)c2)C1
REMARK SMILES IDX 9 1 8 2 7 3 5 4 6 5 4 7 78 8 90 9 79 10 80 11 3 12 2 15 1 16
REMARK SMILES IDX 81 17 82 18 83 19 89 20 84 21 86 22 85 23 87 24 88 25 10 26
REMARK SMILES IDX 11 27 12 28 13 29 14 31 15 32 16 33 77 34 17 35 76 36 18 37
REMARK SMILES IDX 19 38 20 39 70 40 21 41 75 42 69 43 71 44 22 45 74 46 68 47
REMARK SMILES IDX 67 48 23 50 55 51 35 52 54 53 36 54 39 55 53 56 72 57 37 58
REMARK SMILES IDX 38 59 52 61 73 62 40 63 24 64 25 65 33 66 26 67 32 68 34 69
REMARK SMILES IDX 31 70 27 71 28 72 29 73 30 74 56 75 57 76 65 77 58 78 64 79
REMARK SMILES IDX 66 80 63 81 59 82 60 83 61 84 62 85 41 86 42 87 50 88 43 89
REMARK SMILES IDX 49 90 51 91 48 92 44 93 45 94 46 95 47 96
REMARK H PARENT 7 6 3 13 3 14 12 30 71 49 39 60
REMARK Flexibility Score: inf
ROOT
ATOM      1  C   UNL     1      -1.979   6.175   1.843  1.00  0.00     0.023 C 
ENDROOT
BRANCH   1   2
ATOM      2  C   UNL     1      -0.459   6.054   1.854  1.00  0.00     0.116 C 
BRANCH   2   3
ATOM      3  N   UNL     1       0.009   4.730   2.172  1.00  0.00    -0.351 N 
ATOM      4  C   UNL     1       0.692   3.832   1.420  1.00  0.00     0.281 C 
ATOM      5  O   UNL     1       1.414   3.058   2.067  1.00  0.00    -0.268 OA
ATOM      6  H   UNL     1      -0.201   4.428   3.085  1.00  0.00     0.163 HD
BRANCH   4   7
ATOM      7  C   UNL     1       0.651   3.746  -0.158  1.00  0.00     0.179 C 
ATOM      8  C   UNL     1       1.660   4.731  -0.777  1.00  0.00     0.083 C 
ATOM      9  C   UNL     1      -0.677   4.032  -0.874  1.00  0.00     0.124 C 
ATOM     10  C   UNL     1       0.885   5.868  -1.433  1.00  0.00     0.052 C 
ATOM     11  C   UNL     1      -0.589   5.443  -1.470  1.00  0.00     0.180 C 
BRANCH   7  12
ATOM     12  N   UNL     1       1.136   2.372  -0.539  1.00  0.00    -0.334 N 
ATOM     13  H   UNL     1       1.180   2.323  -1.557  1.00  0.00     0.347 HD
ATOM     14  H   UNL     1       2.043   2.254  -0.089  1.00  0.00     0.347 HD
BRANCH  12  15
ATOM     15  C   UNL     1       0.294   1.266  -0.065  1.00  0.00     0.257 C 
ATOM     16  C   UNL     1       0.886  -0.048  -0.560  1.00  0.00     0.071 C 
ENDBRANCH  12  15
ENDBRANCH   7  12
BRANCH  11  17
ATOM     17  O   UNL     1      -1.329   5.593  -2.693  1.00  0.00    -0.490 OA
BRANCH  17  18
ATOM     18  C   UNL     1      -0.604   5.451  -3.838  1.00  0.00     0.123 A 
ATOM     19  C   UNL     1      -0.175   6.594  -4.512  1.00  0.00     0.047 A 
ATOM     20  C   UNL     1      -0.332   4.182  -4.340  1.00  0.00     0.092 A 
ATOM     21  C   UNL     1       0.609   6.460  -5.655  1.00  0.00     0.008 A 
ATOM     22  C   UNL     1       0.458   4.042  -5.478  1.00  0.00     0.122 A 
ATOM     23  C   UNL     1       0.930   5.186  -6.130  1.00  0.00     0.046 A 
BRANCH  22  24
ATOM     24  O   UNL     1       0.830   2.850  -6.041  1.00  0.00    -0.497 OA
ATOM     25  C   UNL     1       0.517   1.681  -5.289  1.00  0.00     0.278 C 
ENDBRANCH  22  24
ENDBRANCH  17  18
ENDBRANCH  11  17
ENDBRANCH   4   7
ENDBRANCH   2   3
ENDBRANCH   1   2
BRANCH   1  26
ATOM     26  C   UNL     1      -2.608   6.416   3.215  1.00  0.00     0.023 C 
BRANCH  26  27
ATOM     27  C   UNL     1      -2.034   7.593   3.997  1.00  0.00     0.116 C 
BRANCH  27  28
ATOM     28  N   UNL     1      -1.988   8.838   3.244  1.00  0.00    -0.352 N 
ATOM     29  C   UNL     1      -2.024  10.122   3.745  1.00  0.00     0.251 C 
ATOM     30  H   UNL     1      -1.923   8.754   2.265  1.00  0.00     0.163 HD
ATOM     31  O   UNL     1      -2.055  11.085   2.995  1.00  0.00    -0.269 OA
BRANCH  29  32
ATOM     32  C   UNL     1      -2.080  10.289   5.211  1.00  0.00     0.039 A 
ATOM     33  C   UNL     1      -3.159  10.974   5.771  1.00  0.00     0.014 A 
ATOM     34  C   UNL     1      -1.128   9.665   6.021  1.00  0.00     0.014 A 
ATOM     35  C   UNL     1      -3.327  10.966   7.156  1.00  0.00     0.010 A 
ATOM     36  C   UNL     1      -1.340   9.595   7.392  1.00  0.00     0.010 A 
ATOM     37  C   UNL     1      -2.445  10.239   7.973  1.00  0.00    -0.014 A 
BRANCH  37  38
ATOM     38  C   UNL     1      -2.656  10.141   9.439  1.00  0.00     0.031 A 
ATOM     39  C   UNL     1      -1.634  10.719  10.379  1.00  0.00     0.074 A 
ATOM     40  C   UNL     1      -3.722   9.470   9.918  1.00  0.00     0.049 A 
ATOM     41  N   UNL     1      -1.584  10.664  11.684  1.00  0.00    -0.248 NA
ATOM     42  C   UNL     1      -0.496  11.416   9.761  1.00  0.00     0.031 C 
ATOM     43  C   UNL     1      -4.750   8.819   9.102  1.00  0.00     0.029 A 
ATOM     44  N   UNL     1      -4.114   9.213  11.208  1.00  0.00    -0.354 N 
ATOM     45  C   UNL     1      -0.403  11.304  12.043  1.00  0.00     0.074 A 
ATOM     46  C   UNL     1       0.264  11.675  10.813  1.00  0.00     0.031 C 
ATOM     47  C   UNL     1      -5.666   8.261   9.910  1.00  0.00     0.029 A 
ATOM     48  C   UNL     1      -5.273   8.478  11.299  1.00  0.00     0.049 A 
ATOM     49  H   UNL     1      -3.612   9.526  11.995  1.00  0.00     0.167 HD
ATOM     50  C   UNL     1       0.068  11.581  13.285  1.00  0.00     0.034 A 
ATOM     51  C   UNL     1      -5.939   8.025  12.380  1.00  0.00     0.034 A 
ATOM     52  C   UNL     1      -0.623  11.221  14.498  1.00  0.00     0.049 A 
ATOM     53  C   UNL     1      -5.399   8.348  13.751  1.00  0.00     0.074 A 
ATOM     54  C   UNL     1      -0.272  11.503  15.807  1.00  0.00     0.029 A 
ATOM     55  N   UNL     1      -1.808  10.497  14.552  1.00  0.00    -0.354 N 
ATOM     56  N   UNL     1      -4.309   9.004  14.076  1.00  0.00    -0.248 NA
ATOM     57  C   UNL     1      -6.187   7.881  14.899  1.00  0.00     0.031 C 
ATOM     58  C   UNL     1      -1.211  10.900  16.652  1.00  0.00     0.029 A 
ATOM     59  C   UNL     1      -2.188  10.302  15.871  1.00  0.00     0.049 A 
ATOM     60  H   UNL     1      -2.305  10.170  13.768  1.00  0.00     0.167 HD
ATOM     61  C   UNL     1      -4.297   9.054  15.467  1.00  0.00     0.074 A 
ATOM     62  C   UNL     1      -5.496   8.374  15.916  1.00  0.00     0.031 C 
ATOM     63  C   UNL     1      -3.382   9.613  16.299  1.00  0.00     0.034 A 
BRANCH  50  64
ATOM     64  C   UNL     1       1.399  12.287  13.376  1.00  0.00     0.023 A 
ATOM     65  C   UNL     1       1.587  13.576  12.844  1.00  0.00     0.031 A 
ATOM     66  C   UNL     1       2.507  11.651  13.962  1.00  0.00     0.131 A 
ATOM     67  C   UNL     1       2.867  14.148  12.828  1.00  0.00     0.055 A 
ATOM     68  C   UNL     1       3.761  12.263  14.022  1.00  0.00     0.041 A 
ATOM     69  F   UNL     1       2.395  10.413  14.469  1.00  0.00    -0.206 F 
ATOM     70  C   UNL     1       3.951  13.512  13.437  1.00  0.00     0.022 A 
BRANCH  67  71
ATOM     71  S   UNL     1       3.124  15.662  11.864  1.00  0.00     0.124 S 
ATOM     72  O   UNL     1       2.741  15.226  10.523  1.00  0.00    -0.237 OA
ATOM     73  O   UNL     1       2.220  16.606  12.511  1.00  0.00    -0.237 OA
ATOM     74  O   UNL     1       4.548  15.942  12.037  1.00  0.00    -0.744 OA
ENDBRANCH  67  71
ENDBRANCH  50  64
BRANCH  51  75
ATOM     75  C   UNL     1      -7.184   7.222  12.222  1.00  0.00     0.023 A 
ATOM     76  C   UNL     1      -8.424   7.717  12.657  1.00  0.00     0.031 A 
ATOM     77  C   UNL     1      -7.148   5.930  11.668  1.00  0.00     0.131 A 
ATOM     78  C   UNL     1      -9.568   6.909  12.576  1.00  0.00     0.055 A 
ATOM     79  C   UNL     1      -8.299   5.148  11.545  1.00  0.00     0.041 A 
ATOM     80  F   UNL     1      -5.991   5.412  11.227  1.00  0.00    -0.206 F 
ATOM     81  C   UNL     1      -9.516   5.632  12.013  1.00  0.00     0.022 A 
BRANCH  78  82
ATOM     82  S   UNL     1     -11.117   7.524  13.293  1.00  0.00     0.124 S 
ATOM     83  O   UNL     1     -10.731   7.760  14.679  1.00  0.00    -0.237 OA
ATOM     84  O   UNL     1     -11.372   8.713  12.486  1.00  0.00    -0.237 OA
ATOM     85  O   UNL     1     -12.051   6.419  13.083  1.00  0.00    -0.744 OA
ENDBRANCH  78  82
ENDBRANCH  51  75
BRANCH  63  86
ATOM     86  C   UNL     1      -3.675   9.549  17.777  1.00  0.00     0.023 A 
ATOM     87  C   UNL     1      -3.663   8.332  18.481  1.00  0.00     0.031 A 
ATOM     88  C   UNL     1      -3.981  10.723  18.487  1.00  0.00     0.131 A 
ATOM     89  C   UNL     1      -4.004   8.310  19.841  1.00  0.00     0.055 A 
ATOM     90  C   UNL     1      -4.263  10.703  19.853  1.00  0.00     0.041 A 
ATOM     91  F   UNL     1      -4.008  11.912  17.862  1.00  0.00    -0.206 F 
ATOM     92  C   UNL     1      -4.288   9.490  20.535  1.00  0.00     0.022 A 
BRANCH  89  93
ATOM     93  S   UNL     1      -4.156   6.707  20.675  1.00  0.00     0.124 S 
ATOM     94  O   UNL     1      -5.184   6.046  19.878  1.00  0.00    -0.237 OA
ATOM     95  O   UNL     1      -2.807   6.163  20.553  1.00  0.00    -0.237 OA
ATOM     96  O   UNL     1      -4.559   7.064  22.034  1.00  0.00    -0.744 OA
ENDBRANCH  89  93
ENDBRANCH  63  86
ENDBRANCH  37  38
ENDBRANCH  29  32
ENDBRANCH  27  28
ENDBRANCH  26  27
ENDBRANCH   1  26
TORSDOF 19
