REMARK SMILES C[C@@H]1C(C(=O)NCCCCNC(=O)c2ccc(-c3c4nc(c(-c5cc(S(=O)(=O)[O-])ccc5F)c5ccc([nH]5)c(-c5cc(S(=O)(=O)[O-])ccc5F)c5nc(c(-c6cc(S(=O)(=O)[O-])ccc6F)c6ccc3[nH]6)C=C5)C=C4)cc2)=NC2=C1C(=O)C[C@H](c1ccccc1)C2
REMARK SMILES IDX 9 1 8 2 7 3 6 4 4 5 5 6 3 8 1 9 2 10 79 11 77 12 78 13 80 14
REMARK SMILES IDX 90 15 81 16 82 17 83 18 84 19 85 20 89 21 86 22 88 23 87 24
REMARK SMILES IDX 10 25 11 26 12 27 13 29 14 30 15 31 76 32 16 33 75 34 17 35
REMARK SMILES IDX 18 36 19 37 69 38 20 39 74 40 68 41 70 42 21 43 73 44 67 45
REMARK SMILES IDX 66 46 22 48 54 49 34 50 53 51 35 52 38 53 52 54 71 55 36 56
REMARK SMILES IDX 37 57 51 59 72 60 39 61 23 62 24 63 32 64 25 65 31 66 33 67
REMARK SMILES IDX 30 68 26 69 27 70 28 71 29 72 55 73 56 74 64 75 57 76 63 77
REMARK SMILES IDX 65 78 62 79 58 80 59 81 60 82 61 83 40 84 41 85 49 86 42 87
REMARK SMILES IDX 48 88 50 89 47 90 43 91 44 92 45 93 46 94
REMARK H PARENT 6 7 11 28 70 47 38 58
REMARK Flexibility Score: inf
ROOT
ATOM      1  C   UNL     1       3.832  -2.975  -1.322  1.00  0.00     0.023 C 
ENDROOT
BRANCH   1   2
ATOM      2  C   UNL     1       2.542  -2.277  -1.675  1.00  0.00     0.023 C 
BRANCH   2   3
ATOM      3  C   UNL     1       2.101  -1.151  -0.758  1.00  0.00     0.116 C 
BRANCH   3   4
ATOM      4  N   UNL     1       2.917   0.030  -0.627  1.00  0.00    -0.351 N 
ATOM      5  C   UNL     1       2.512   1.330  -0.316  1.00  0.00     0.266 C 
ATOM      6  O   UNL     1       3.366   2.107   0.102  1.00  0.00    -0.268 OA
ATOM      7  H   UNL     1       3.882  -0.096  -0.776  1.00  0.00     0.163 HD
BRANCH   5   8
ATOM      8  C   UNL     1       1.082   1.865  -0.657  1.00  0.00     0.113 C 
ATOM      9  C   UNL     1      -1.423   1.438  -0.166  1.00  0.00     0.020 C 
ATOM     10  C   UNL     1      -0.144   0.996  -0.868  1.00  0.00     0.076 C 
ATOM     11  C   UNL     1      -0.282   1.507  -2.246  1.00  0.00     0.026 C 
ATOM     12  N   UNL     1       0.945   3.054  -1.200  1.00  0.00    -0.251 NA
ATOM     13  C   UNL     1       0.082   2.790  -2.244  1.00  0.00     0.049 C 
ATOM     14  C   UNL     1      -0.477   0.928  -3.570  1.00  0.00     0.161 C 
ATOM     15  C   UNL     1      -0.009   3.584  -3.508  1.00  0.00     0.065 C 
ATOM     16  O   UNL     1      -1.350   0.090  -3.761  1.00  0.00    -0.294 OA
ATOM     17  C   UNL     1       0.476   1.434  -4.685  1.00  0.00     0.089 C 
ATOM     18  C   UNL     1       0.973   2.925  -4.498  1.00  0.00     0.033 C 
BRANCH  18  19
ATOM     19  C   UNL     1       2.425   3.119  -4.006  1.00  0.00    -0.044 A 
ATOM     20  C   UNL     1       2.744   4.163  -3.105  1.00  0.00     0.004 A 
ATOM     21  C   UNL     1       3.450   2.223  -4.319  1.00  0.00     0.004 A 
ATOM     22  C   UNL     1       3.915   4.156  -2.356  1.00  0.00     0.000 A 
ATOM     23  C   UNL     1       4.666   2.264  -3.621  1.00  0.00     0.000 A 
ATOM     24  C   UNL     1       4.876   3.194  -2.606  1.00  0.00     0.000 A 
ENDBRANCH  18  19
ENDBRANCH   5   8
ENDBRANCH   3   4
ENDBRANCH   2   3
ENDBRANCH   1   2
BRANCH   1  25
ATOM     25  C   UNL     1       3.847  -3.456   0.107  1.00  0.00     0.116 C 
BRANCH  25  26
ATOM     26  N   UNL     1       2.857  -4.498   0.393  1.00  0.00    -0.352 N 
ATOM     27  C   UNL     1       3.025  -5.564   1.279  1.00  0.00     0.251 C 
ATOM     28  H   UNL     1       1.997  -4.442  -0.083  1.00  0.00     0.163 HD
ATOM     29  O   UNL     1       2.341  -6.564   1.213  1.00  0.00    -0.269 OA
BRANCH  27  30
ATOM     30  C   UNL     1       3.960  -5.321   2.406  1.00  0.00     0.039 A 
ATOM     31  C   UNL     1       4.678  -6.232   3.180  1.00  0.00     0.014 A 
ATOM     32  C   UNL     1       3.991  -4.012   2.836  1.00  0.00     0.014 A 
ATOM     33  C   UNL     1       5.258  -5.722   4.401  1.00  0.00     0.010 A 
ATOM     34  C   UNL     1       5.074  -3.621   3.533  1.00  0.00     0.010 A 
ATOM     35  C   UNL     1       5.179  -4.316   4.699  1.00  0.00    -0.014 A 
BRANCH  35  36
ATOM     36  C   UNL     1       5.917  -3.426   5.699  1.00  0.00     0.031 A 
ATOM     37  C   UNL     1       7.443  -3.810   5.312  1.00  0.00     0.074 A 
ATOM     38  C   UNL     1       5.369  -2.406   6.566  1.00  0.00     0.049 A 
ATOM     39  N   UNL     1       8.109  -4.774   5.889  1.00  0.00    -0.248 NA
ATOM     40  C   UNL     1       8.123  -3.583   3.957  1.00  0.00     0.031 C 
ATOM     41  C   UNL     1       3.967  -1.890   6.934  1.00  0.00     0.029 A 
ATOM     42  N   UNL     1       6.030  -1.507   7.446  1.00  0.00    -0.354 N 
ATOM     43  C   UNL     1       9.403  -4.720   5.357  1.00  0.00     0.074 A 
ATOM     44  C   UNL     1       9.258  -4.295   4.021  1.00  0.00     0.031 C 
ATOM     45  C   UNL     1       3.982  -0.658   7.567  1.00  0.00     0.029 A 
ATOM     46  C   UNL     1       5.349  -0.273   7.867  1.00  0.00     0.049 A 
ATOM     47  H   UNL     1       6.938  -1.708   7.771  1.00  0.00     0.167 HD
ATOM     48  C   UNL     1      10.451  -4.520   6.200  1.00  0.00     0.034 A 
ATOM     49  C   UNL     1       5.837   0.823   8.624  1.00  0.00     0.034 A 
ATOM     50  C   UNL     1       9.983  -4.799   7.536  1.00  0.00     0.049 A 
ATOM     51  C   UNL     1       7.129   0.317   9.179  1.00  0.00     0.074 A 
ATOM     52  C   UNL     1       9.419  -5.900   8.147  1.00  0.00     0.029 A 
ATOM     53  N   UNL     1       9.483  -3.689   8.160  1.00  0.00    -0.354 N 
ATOM     54  N   UNL     1       7.147  -0.648  10.063  1.00  0.00    -0.248 NA
ATOM     55  C   UNL     1       8.220   0.350   8.202  1.00  0.00     0.031 C 
ATOM     56  C   UNL     1       8.332  -5.392   8.920  1.00  0.00     0.029 A 
ATOM     57  C   UNL     1       8.407  -4.001   8.943  1.00  0.00     0.049 A 
ATOM     58  H   UNL     1       9.851  -2.782   8.058  1.00  0.00     0.167 HD
ATOM     59  C   UNL     1       7.910  -1.631   9.456  1.00  0.00     0.074 A 
ATOM     60  C   UNL     1       8.539  -0.950   8.289  1.00  0.00     0.031 C 
ATOM     61  C   UNL     1       7.660  -2.973   9.636  1.00  0.00     0.034 A 
BRANCH  48  62
ATOM     62  C   UNL     1      11.623  -3.580   5.955  1.00  0.00     0.023 A 
ATOM     63  C   UNL     1      12.608  -3.576   6.955  1.00  0.00     0.031 A 
ATOM     64  C   UNL     1      11.702  -2.518   5.019  1.00  0.00     0.131 A 
ATOM     65  C   UNL     1      13.560  -2.548   7.041  1.00  0.00     0.055 A 
ATOM     66  C   UNL     1      12.705  -1.535   5.062  1.00  0.00     0.041 A 
ATOM     67  F   UNL     1      10.772  -2.315   4.077  1.00  0.00    -0.206 F 
ATOM     68  C   UNL     1      13.636  -1.537   6.089  1.00  0.00     0.022 A 
BRANCH  65  69
ATOM     69  S   UNL     1      14.576  -2.484   8.536  1.00  0.00     0.124 S 
ATOM     70  O   UNL     1      13.560  -2.391   9.578  1.00  0.00    -0.237 OA
ATOM     71  O   UNL     1      15.299  -3.750   8.456  1.00  0.00    -0.237 OA
ATOM     72  O   UNL     1      15.390  -1.288   8.343  1.00  0.00    -0.744 OA
ENDBRANCH  65  69
ENDBRANCH  48  62
BRANCH  49  73
ATOM     73  C   UNL     1       5.657   2.372   8.385  1.00  0.00     0.023 A 
ATOM     74  C   UNL     1       6.074   3.555   9.144  1.00  0.00     0.031 A 
ATOM     75  C   UNL     1       5.225   2.663   7.082  1.00  0.00     0.131 A 
ATOM     76  C   UNL     1       6.034   4.882   8.546  1.00  0.00     0.055 A 
ATOM     77  C   UNL     1       5.242   3.933   6.505  1.00  0.00     0.041 A 
ATOM     78  F   UNL     1       4.834   1.682   6.262  1.00  0.00    -0.206 F 
ATOM     79  C   UNL     1       5.660   5.039   7.214  1.00  0.00     0.022 A 
BRANCH  76  80
ATOM     80  S   UNL     1       6.415   6.501   9.407  1.00  0.00     0.124 S 
ATOM     81  O   UNL     1       5.380   6.572  10.432  1.00  0.00    -0.237 OA
ATOM     82  O   UNL     1       7.784   6.326   9.874  1.00  0.00    -0.237 OA
ATOM     83  O   UNL     1       6.269   7.505   8.347  1.00  0.00    -0.744 OA
ENDBRANCH  76  80
ENDBRANCH  49  73
BRANCH  61  84
ATOM     84  C   UNL     1       6.634  -3.446  10.663  1.00  0.00     0.023 A 
ATOM     85  C   UNL     1       5.217  -3.316  10.645  1.00  0.00     0.031 A 
ATOM     86  C   UNL     1       7.187  -4.185  11.721  1.00  0.00     0.131 A 
ATOM     87  C   UNL     1       4.449  -3.812  11.731  1.00  0.00     0.055 A 
ATOM     88  C   UNL     1       6.420  -4.738  12.739  1.00  0.00     0.041 A 
ATOM     89  F   UNL     1       8.508  -4.416  11.762  1.00  0.00    -0.206 F 
ATOM     90  C   UNL     1       5.051  -4.526  12.771  1.00  0.00     0.022 A 
BRANCH  87  91
ATOM     91  S   UNL     1       2.672  -3.394  11.917  1.00  0.00     0.124 S 
ATOM     92  O   UNL     1       2.671  -1.933  11.713  1.00  0.00    -0.237 OA
ATOM     93  O   UNL     1       2.036  -4.170  10.867  1.00  0.00    -0.237 OA
ATOM     94  O   UNL     1       2.356  -3.812  13.277  1.00  0.00    -0.744 OA
ENDBRANCH  87  91
ENDBRANCH  61  84
ENDBRANCH  35  36
ENDBRANCH  27  30
ENDBRANCH  25  26
ENDBRANCH   1  25
TORSDOF 15
