REMARK SMILES COc1cc(NC(=O)C2CCN(S(=O)(=O)c3cccs3)CC2)c(Cl)cc1C(=O)NCCCCNC(=O)c1ccc(-c2c3nc(c(-c4cc(S(=O)(=O)[O-])ccc4F)c4ccc([nH]4)c(-c4cc(S(=O)(=O)[O-])ccc4F)c4nc(c(-c5cc(S(=O)(=O)[O-])ccc5F)c5ccc2[nH]5)C=C4)C=C3)cc1
REMARK SMILES IDX 31 1 30 2 29 3 27 4 28 5 26 7 3 8 4 9 5 10 25 11 23 12 24 13
REMARK SMILES IDX 2 14 1 15 6 16 7 17 8 19 9 20 10 21 22 22 11 23 21 24 12 25
REMARK SMILES IDX 13 26 14 27 15 28 16 29 17 30 20 31 18 32 19 33 32 34 33 35
REMARK SMILES IDX 34 36 35 37 36 39 37 40 38 41 99 42 39 43 98 44 40 45 41 46
REMARK SMILES IDX 42 47 92 48 43 49 97 50 91 51 93 52 44 53 96 54 90 55 89 56
REMARK SMILES IDX 45 58 77 59 57 60 76 61 58 62 61 63 75 64 94 65 59 66 60 67
REMARK SMILES IDX 74 69 95 70 62 71 46 72 47 73 55 74 48 75 54 76 56 77 53 78
REMARK SMILES IDX 49 79 50 80 51 81 52 82 78 83 79 84 87 85 80 86 86 87 88 88
REMARK SMILES IDX 85 89 81 90 82 91 83 92 84 93 63 94 64 95 72 96 65 97 71 98
REMARK SMILES IDX 73 99 70 100 66 101 67 102 68 103 69 104
REMARK H PARENT 29 6 6 18 34 38 93 57 61 68
REMARK Flexibility Score: inf
ROOT
ATOM      1  C   UNL     1      -1.669  -0.086  -0.881  1.00  0.00     0.023 C 
ENDROOT
BRANCH   1   2
ATOM      2  C   UNL     1      -1.865   1.179  -1.722  1.00  0.00     0.116 C 
BRANCH   2   3
ATOM      3  N   UNL     1      -2.259   2.288  -0.879  1.00  0.00    -0.352 N 
ATOM      4  C   UNL     1      -1.605   3.212  -0.113  1.00  0.00     0.255 C 
ATOM      5  O   UNL     1      -2.352   3.946   0.546  1.00  0.00    -0.269 OA
ATOM      6  H   UNL     1      -3.236   2.405  -0.850  1.00  0.00     0.163 HD
BRANCH   4   7
ATOM      7  C   UNL     1      -0.128   3.456  -0.002  1.00  0.00     0.083 A 
ATOM      8  C   UNL     1       0.944   2.694  -0.468  1.00  0.00     0.133 A 
ATOM      9  C   UNL     1       2.266   3.158  -0.327  1.00  0.00     0.075 A 
ATOM     10  C   UNL     1       2.595   4.209   0.516  1.00  0.00     0.063 A 
ATOM     11  C   UNL     1       0.211   4.632   0.717  1.00  0.00     0.040 A 
ATOM     12  C   UNL     1       1.540   4.990   0.991  1.00  0.00     0.065 A 
ATOM     13  Cl  UNL     1       1.831   6.367   1.995  1.00  0.00    -0.082 Cl
BRANCH   8  14
ATOM     14  O   UNL     1       0.805   1.462  -1.044  1.00  0.00    -0.496 OA
ATOM     15  C   UNL     1       1.513   0.446  -0.317  1.00  0.00     0.278 C 
ENDBRANCH   8  14
BRANCH  10  16
ATOM     16  N   UNL     1       3.916   4.463   0.957  1.00  0.00    -0.324 N 
ATOM     17  C   UNL     1       5.012   3.648   1.122  1.00  0.00     0.227 C 
ATOM     18  H   UNL     1       4.083   5.405   1.190  1.00  0.00     0.169 HD
ATOM     19  O   UNL     1       6.054   4.161   1.541  1.00  0.00    -0.274 OA
BRANCH  17  20
ATOM     20  C   UNL     1       4.936   2.139   0.876  1.00  0.00     0.081 C 
ATOM     21  C   UNL     1       3.938   1.459   1.823  1.00  0.00     0.030 C 
ATOM     22  C   UNL     1       6.301   1.427   0.906  1.00  0.00     0.030 C 
ATOM     23  C   UNL     1       4.524   1.183   3.194  1.00  0.00     0.103 C 
ATOM     24  C   UNL     1       6.770   1.004   2.297  1.00  0.00     0.103 C 
ATOM     25  N   UNL     1       5.676   0.278   2.991  1.00  0.00    -0.197 NA
BRANCH  25  26
ATOM     26  S   UNL     1       6.099  -0.579   4.407  1.00  0.00     0.252 S 
ATOM     27  O   UNL     1       6.890   0.311   5.229  1.00  0.00    -0.206 OA
ATOM     28  O   UNL     1       4.895  -1.201   4.919  1.00  0.00    -0.206 OA
BRANCH  26  29
ATOM     29  C   UNL     1       7.215  -1.896   3.955  1.00  0.00     0.135 A 
ATOM     30  C   UNL     1       8.529  -1.875   3.523  1.00  0.00     0.033 A 
ATOM     31  S   UNL     1       6.637  -3.502   4.090  1.00  0.00    -0.131 S 
ATOM     32  C   UNL     1       9.055  -3.178   3.296  1.00  0.00     0.013 A 
ATOM     33  C   UNL     1       8.134  -4.158   3.588  1.00  0.00     0.066 A 
ENDBRANCH  26  29
ENDBRANCH  25  26
ENDBRANCH  17  20
ENDBRANCH  10  16
ENDBRANCH   4   7
ENDBRANCH   2   3
ENDBRANCH   1   2
BRANCH   1  34
ATOM     34  C   UNL     1      -2.770  -1.130  -1.029  1.00  0.00     0.023 C 
BRANCH  34  35
ATOM     35  C   UNL     1      -2.777  -1.798  -2.399  1.00  0.00     0.116 C 
BRANCH  35  36
ATOM     36  N   UNL     1      -1.549  -2.521  -2.718  1.00  0.00    -0.352 N 
ATOM     37  C   UNL     1      -1.406  -3.581  -3.587  1.00  0.00     0.251 C 
ATOM     38  H   UNL     1      -0.731  -2.218  -2.261  1.00  0.00     0.163 HD
ATOM     39  O   UNL     1      -0.327  -4.143  -3.727  1.00  0.00    -0.269 OA
BRANCH  37  40
ATOM     40  C   UNL     1      -2.614  -4.052  -4.292  1.00  0.00     0.039 A 
ATOM     41  C   UNL     1      -3.038  -5.367  -4.102  1.00  0.00     0.014 A 
ATOM     42  C   UNL     1      -3.403  -3.136  -4.991  1.00  0.00     0.014 A 
ATOM     43  C   UNL     1      -4.309  -5.740  -4.538  1.00  0.00     0.010 A 
ATOM     44  C   UNL     1      -4.702  -3.483  -5.333  1.00  0.00     0.010 A 
ATOM     45  C   UNL     1      -5.171  -4.787  -5.106  1.00  0.00    -0.014 A 
BRANCH  45  46
ATOM     46  C   UNL     1      -6.569  -5.127  -5.476  1.00  0.00     0.031 A 
ATOM     47  C   UNL     1      -7.004  -5.000  -6.911  1.00  0.00     0.074 A 
ATOM     48  C   UNL     1      -7.456  -5.466  -4.519  1.00  0.00     0.049 A 
ATOM     49  N   UNL     1      -8.195  -5.143  -7.431  1.00  0.00    -0.248 NA
ATOM     50  C   UNL     1      -5.966  -4.619  -7.883  1.00  0.00     0.031 C 
ATOM     51  C   UNL     1      -7.162  -5.568  -3.087  1.00  0.00     0.029 A 
ATOM     52  N   UNL     1      -8.790  -5.781  -4.602  1.00  0.00    -0.354 N 
ATOM     53  C   UNL     1      -8.053  -4.850  -8.783  1.00  0.00     0.074 A 
ATOM     54  C   UNL     1      -6.678  -4.453  -8.987  1.00  0.00     0.031 C 
ATOM     55  C   UNL     1      -8.273  -5.948  -2.433  1.00  0.00     0.029 A 
ATOM     56  C   UNL     1      -9.370  -6.072  -3.387  1.00  0.00     0.049 A 
ATOM     57  H   UNL     1      -9.286  -5.797  -5.452  1.00  0.00     0.167 HD
ATOM     58  C   UNL     1      -8.979  -4.934  -9.768  1.00  0.00     0.034 A 
ATOM     59  C   UNL     1     -10.643  -6.391  -3.079  1.00  0.00     0.034 A 
ATOM     60  C   UNL     1     -10.337  -5.363  -9.550  1.00  0.00     0.049 A 
ATOM     61  C   UNL     1     -11.655  -6.478  -4.196  1.00  0.00     0.074 A 
ATOM     62  C   UNL     1     -11.342  -5.549 -10.483  1.00  0.00     0.029 A 
ATOM     63  N   UNL     1     -10.882  -5.673  -8.311  1.00  0.00    -0.354 N 
ATOM     64  N   UNL     1     -11.490  -6.256  -5.481  1.00  0.00    -0.248 NA
ATOM     65  C   UNL     1     -13.021  -6.869  -3.825  1.00  0.00     0.031 C 
ATOM     66  C   UNL     1     -12.509  -5.909  -9.802  1.00  0.00     0.029 A 
ATOM     67  C   UNL     1     -12.215  -6.023  -8.453  1.00  0.00     0.049 A 
ATOM     68  H   UNL     1     -10.393  -5.648  -7.457  1.00  0.00     0.167 HD
ATOM     69  C   UNL     1     -12.723  -6.518  -6.072  1.00  0.00     0.074 A 
ATOM     70  C   UNL     1     -13.615  -6.928  -5.008  1.00  0.00     0.031 C 
ATOM     71  C   UNL     1     -13.087  -6.431  -7.377  1.00  0.00     0.034 A 
BRANCH  58  72
ATOM     72  C   UNL     1      -8.551  -4.540 -11.161  1.00  0.00     0.023 A 
ATOM     73  C   UNL     1      -7.548  -5.242 -11.852  1.00  0.00     0.031 A 
ATOM     74  C   UNL     1      -9.139  -3.434 -11.800  1.00  0.00     0.131 A 
ATOM     75  C   UNL     1      -7.112  -4.790 -13.105  1.00  0.00     0.055 A 
ATOM     76  C   UNL     1      -8.758  -3.038 -13.084  1.00  0.00     0.041 A 
ATOM     77  F   UNL     1     -10.085  -2.711 -11.181  1.00  0.00    -0.206 F 
ATOM     78  C   UNL     1      -7.729  -3.709 -13.738  1.00  0.00     0.022 A 
BRANCH  75  79
ATOM     79  S   UNL     1      -5.637  -5.551 -13.835  1.00  0.00     0.124 S 
ATOM     80  O   UNL     1      -4.622  -5.251 -12.828  1.00  0.00    -0.237 OA
ATOM     81  O   UNL     1      -6.028  -6.951 -13.951  1.00  0.00    -0.237 OA
ATOM     82  O   UNL     1      -5.476  -4.841 -15.102  1.00  0.00    -0.744 OA
ENDBRANCH  75  79
ENDBRANCH  58  72
BRANCH  59  83
ATOM     83  C   UNL     1     -11.049  -6.648  -1.666  1.00  0.00     0.023 A 
ATOM     84  C   UNL     1     -11.536  -7.904  -1.271  1.00  0.00     0.031 A 
ATOM     85  C   UNL     1     -11.020  -5.623  -0.703  1.00  0.00     0.131 A 
ATOM     86  C   UNL     1     -12.032  -8.088   0.030  1.00  0.00     0.055 A 
ATOM     87  C   UNL     1     -11.458  -5.828   0.607  1.00  0.00     0.041 A 
ATOM     88  F   UNL     1     -10.559  -4.403  -1.023  1.00  0.00    -0.206 F 
ATOM     89  C   UNL     1     -11.985  -7.062   0.975  1.00  0.00     0.022 A 
BRANCH  86  90
ATOM     90  S   UNL     1     -12.844  -9.660   0.434  1.00  0.00     0.124 S 
ATOM     91  O   UNL     1     -13.882  -9.729  -0.587  1.00  0.00    -0.237 OA
ATOM     92  O   UNL     1     -11.745 -10.610   0.298  1.00  0.00    -0.237 OA
ATOM     93  O   UNL     1     -13.322  -9.453   1.800  1.00  0.00    -0.744 OA
ENDBRANCH  86  90
ENDBRANCH  59  83
BRANCH  71  94
ATOM     94  C   UNL     1     -14.495  -6.843  -7.725  1.00  0.00     0.023 A 
ATOM     95  C   UNL     1     -15.611  -6.107  -7.292  1.00  0.00     0.031 A 
ATOM     96  C   UNL     1     -14.720  -7.994  -8.502  1.00  0.00     0.131 A 
ATOM     97  C   UNL     1     -16.904  -6.560  -7.592  1.00  0.00     0.055 A 
ATOM     98  C   UNL     1     -16.007  -8.405  -8.850  1.00  0.00     0.041 A 
ATOM     99  F   UNL     1     -13.690  -8.734  -8.942  1.00  0.00    -0.206 F 
ATOM    100  C   UNL     1     -17.109  -7.694  -8.383  1.00  0.00     0.022 A 
BRANCH  97 101
ATOM    101  S   UNL     1     -18.320  -5.696  -6.860  1.00  0.00     0.124 S 
ATOM    102  O   UNL     1     -18.049  -5.824  -5.432  1.00  0.00    -0.237 OA
ATOM    103  O   UNL     1     -18.188  -4.353  -7.415  1.00  0.00    -0.237 OA
ATOM    104  O   UNL     1     -19.473  -6.455  -7.343  1.00  0.00    -0.744 OA
ENDBRANCH  97 101
ENDBRANCH  71  94
ENDBRANCH  45  46
ENDBRANCH  37  40
ENDBRANCH  35  36
ENDBRANCH  34  35
ENDBRANCH   1  34
TORSDOF 19
