REMARK SMILES COc1cc([C@@H]2CC(NCCCCNC(=O)c3ccc(-c4c5nc(c(-c6cc(S(=O)(=O)[O-])ccc6F)c6ccc([nH]6)c(-c6cc(S(=O)(=O)[O-])ccc6F)c6nc(c(-c7cc(S(=O)(=O)[O-])ccc7F)c7ccc4[nH]7)C=C6)C=C5)cc3)=[NH+]c3c(C(=O)[O-])cn(-c4ccc(Cl)cc4)c32)cc(OC)c1O
REMARK SMILES IDX 12 1 11 2 10 3 9 4 6 5 7 6 95 7 8 8 81 9 87 10 80 11 82 12
REMARK SMILES IDX 86 13 5 16 3 17 4 18 100 19 97 20 96 21 2 22 1 23 101 24
REMARK SMILES IDX 98 26 99 27 88 28 89 29 94 30 90 31 93 32 91 33 92 34 83 35
REMARK SMILES IDX 84 36 85 37 13 38 14 39 15 40 16 42 17 43 18 44 79 45 19 46
REMARK SMILES IDX 78 47 20 48 21 49 22 50 72 51 23 52 77 53 71 54 73 55 24 56
REMARK SMILES IDX 76 57 70 58 69 59 25 61 57 62 37 63 56 64 38 65 41 66 55 67
REMARK SMILES IDX 74 68 39 69 40 70 54 72 75 73 42 74 26 75 27 76 35 77 28 78
REMARK SMILES IDX 34 79 36 80 33 81 29 82 30 83 31 84 32 85 58 86 59 87 67 88
REMARK SMILES IDX 60 89 66 90 68 91 65 92 61 93 62 94 63 95 64 96 43 97 44 98
REMARK SMILES IDX 52 99 45 100 51 101 53 102 50 103 46 104 47 105 48 106
REMARK SMILES IDX 49 107
REMARK H PARENT 9 14 80 15 101 25 14 41 73 60 41 71
REMARK Flexibility Score: inf
ROOT
ATOM      1  C   UNL     1       4.742  -9.430   4.184  1.00  0.00     0.025 C 
ENDROOT
BRANCH   1   2
ATOM      2  C   UNL     1       4.003 -10.194   3.075  1.00  0.00     0.048 C 
BRANCH   2   3
ATOM      3  C   UNL     1       2.496  -9.953   2.963  1.00  0.00     0.233 C 
BRANCH   3   4
ATOM      4  N   UNL     1       2.189  -8.562   2.673  1.00  0.00    -0.278 N 
ATOM      5  C   UNL     1       0.923  -6.104  -0.025  1.00  0.00     0.083 C 
ATOM      6  C   UNL     1       1.284  -6.678   1.367  1.00  0.00     0.142 C 
ATOM      7  C   UNL     1       1.068  -7.149  -1.084  1.00  0.00     0.078 A 
ATOM      8  C   UNL     1       1.811  -8.113   1.420  1.00  0.00     0.248 C 
ATOM      9  C   UNL     1       1.388  -8.458  -0.805  1.00  0.00     0.155 A 
ATOM     10  N   UNL     1       0.526  -7.141  -2.361  1.00  0.00    -0.315 N 
ATOM     11  N   UNL     1       1.891  -8.915   0.401  1.00  0.00    -0.243 N 
ATOM     12  C   UNL     1       0.933  -9.307  -1.836  1.00  0.00     0.062 A 
ATOM     13  C   UNL     1       0.386  -8.453  -2.778  1.00  0.00     0.106 A 
ATOM     14  H   UNL     1       2.255  -7.907   3.404  1.00  0.00     0.304 HD
ATOM     15  H   UNL     1       2.293  -9.810   0.483  1.00  0.00     0.312 HD
BRANCH   5  16
ATOM     16  C   UNL     1       1.591  -4.747  -0.202  1.00  0.00    -0.031 A 
ATOM     17  C   UNL     1       1.330  -2.313  -0.065  1.00  0.00     0.164 A 
ATOM     18  C   UNL     1       0.786  -3.595  -0.202  1.00  0.00     0.055 A 
ATOM     19  C   UNL     1       2.716  -2.175   0.091  1.00  0.00     0.200 A 
ATOM     20  C   UNL     1       3.555  -3.300  -0.001  1.00  0.00     0.164 A 
ATOM     21  C   UNL     1       2.981  -4.575  -0.162  1.00  0.00     0.055 A 
BRANCH  17  22
ATOM     22  O   UNL     1       0.376  -1.334   0.001  1.00  0.00    -0.493 OA
ATOM     23  C   UNL     1       0.721   0.004  -0.325  1.00  0.00     0.278 C 
ENDBRANCH  17  22
BRANCH  19  24
ATOM     24  O   UNL     1       3.235  -0.958   0.446  1.00  0.00    -0.502 OA
ATOM     25  H   UNL     1       2.674  -0.210   0.507  1.00  0.00     0.293 HD
ENDBRANCH  19  24
BRANCH  20  26
ATOM     26  O   UNL     1       4.920  -3.351   0.125  1.00  0.00    -0.493 OA
ATOM     27  C   UNL     1       5.624  -2.153   0.417  1.00  0.00     0.278 C 
ENDBRANCH  20  26
ENDBRANCH   5  16
BRANCH  10  28
ATOM     28  C   UNL     1       0.142  -6.040  -3.162  1.00  0.00     0.046 A 
ATOM     29  C   UNL     1       1.049  -5.003  -3.393  1.00  0.00     0.028 A 
ATOM     30  C   UNL     1      -1.093  -6.063  -3.826  1.00  0.00     0.028 A 
ATOM     31  C   UNL     1       0.711  -3.974  -4.276  1.00  0.00     0.022 A 
ATOM     32  C   UNL     1      -1.435  -5.019  -4.689  1.00  0.00     0.022 A 
ATOM     33  C   UNL     1      -0.530  -3.983  -4.914  1.00  0.00     0.041 A 
ATOM     34  Cl  UNL     1      -0.936  -2.718  -6.008  1.00  0.00    -0.084 Cl
ENDBRANCH  10  28
BRANCH  12  35
ATOM     35  C   UNL     1       0.909 -10.757  -1.951  1.00  0.00     0.077 C 
ATOM     36  O   UNL     1       0.510 -11.373  -2.919  1.00  0.00    -0.545 OA
ATOM     37  O   UNL     1       1.342 -11.437  -0.863  1.00  0.00    -0.545 OA
ENDBRANCH  12  35
ENDBRANCH   3   4
ENDBRANCH   2   3
ENDBRANCH   1   2
BRANCH   1  38
ATOM     38  C   UNL     1       4.214  -9.660   5.593  1.00  0.00     0.116 C 
BRANCH  38  39
ATOM     39  N   UNL     1       4.353 -11.045   6.058  1.00  0.00    -0.352 N 
ATOM     40  C   UNL     1       3.898 -11.604   7.245  1.00  0.00     0.251 C 
ATOM     41  H   UNL     1       4.830 -11.656   5.451  1.00  0.00     0.163 HD
ATOM     42  O   UNL     1       4.418 -12.618   7.696  1.00  0.00    -0.269 OA
BRANCH  40  43
ATOM     43  C   UNL     1       2.771 -10.959   7.948  1.00  0.00     0.039 A 
ATOM     44  C   UNL     1       2.660 -10.912   9.342  1.00  0.00     0.014 A 
ATOM     45  C   UNL     1       1.807 -10.361   7.150  1.00  0.00     0.014 A 
ATOM     46  C   UNL     1       1.605 -10.191   9.906  1.00  0.00     0.010 A 
ATOM     47  C   UNL     1       0.936  -9.464   7.693  1.00  0.00     0.010 A 
ATOM     48  C   UNL     1       0.752  -9.461   9.066  1.00  0.00    -0.014 A 
BRANCH  48  49
ATOM     49  C   UNL     1      -0.318  -8.607   9.562  1.00  0.00     0.031 A 
ATOM     50  C   UNL     1       0.139  -7.502  10.438  1.00  0.00     0.074 A 
ATOM     51  C   UNL     1      -1.558  -8.630   9.021  1.00  0.00     0.049 A 
ATOM     52  N   UNL     1      -0.053  -7.380  11.708  1.00  0.00    -0.248 NA
ATOM     53  C   UNL     1       1.069  -6.503   9.885  1.00  0.00     0.031 C 
ATOM     54  C   UNL     1      -2.045  -9.441   7.896  1.00  0.00     0.029 A 
ATOM     55  N   UNL     1      -2.617  -7.814   9.264  1.00  0.00    -0.354 N 
ATOM     56  C   UNL     1       0.491  -6.149  12.056  1.00  0.00     0.074 A 
ATOM     57  C   UNL     1       1.376  -5.801  10.978  1.00  0.00     0.031 C 
ATOM     58  C   UNL     1      -3.174  -8.893   7.397  1.00  0.00     0.029 A 
ATOM     59  C   UNL     1      -3.580  -7.795   8.256  1.00  0.00     0.049 A 
ATOM     60  H   UNL     1      -2.698  -7.279  10.086  1.00  0.00     0.167 HD
ATOM     61  C   UNL     1      -0.048  -5.403  13.060  1.00  0.00     0.034 A 
ATOM     62  C   UNL     1      -4.598  -6.902   8.109  1.00  0.00     0.034 A 
ATOM     63  C   UNL     1      -0.992  -6.190  13.832  1.00  0.00     0.049 A 
ATOM     64  C   UNL     1      -4.819  -6.301   9.454  1.00  0.00     0.074 A 
ATOM     65  C   UNL     1      -0.917  -7.402  14.494  1.00  0.00     0.029 A 
ATOM     66  N   UNL     1      -2.340  -5.965  13.636  1.00  0.00    -0.354 N 
ATOM     67  N   UNL     1      -5.222  -6.995  10.487  1.00  0.00    -0.248 NA
ATOM     68  C   UNL     1      -4.088  -5.084   9.783  1.00  0.00     0.031 C 
ATOM     69  C   UNL     1      -2.133  -8.070  14.160  1.00  0.00     0.029 A 
ATOM     70  C   UNL     1      -2.929  -7.188  13.424  1.00  0.00     0.049 A 
ATOM     71  H   UNL     1      -2.794  -5.091  13.646  1.00  0.00     0.167 HD
ATOM     72  C   UNL     1      -4.430  -6.566  11.543  1.00  0.00     0.074 A 
ATOM     73  C   UNL     1      -3.817  -5.323  11.071  1.00  0.00     0.031 C 
ATOM     74  C   UNL     1      -4.092  -7.399  12.576  1.00  0.00     0.034 A 
BRANCH  61  75
ATOM     75  C   UNL     1      -0.034  -3.890  13.136  1.00  0.00     0.023 A 
ATOM     76  C   UNL     1      -0.643  -3.308  14.264  1.00  0.00     0.031 A 
ATOM     77  C   UNL     1       0.272  -3.001  12.081  1.00  0.00     0.131 A 
ATOM     78  C   UNL     1      -1.031  -1.958  14.263  1.00  0.00     0.055 A 
ATOM     79  C   UNL     1      -0.048  -1.640  12.117  1.00  0.00     0.041 A 
ATOM     80  F   UNL     1       0.806  -3.399  10.922  1.00  0.00    -0.206 F 
ATOM     81  C   UNL     1      -0.737  -1.117  13.195  1.00  0.00     0.022 A 
BRANCH  78  82
ATOM     82  S   UNL     1      -2.103  -1.380  15.602  1.00  0.00     0.124 S 
ATOM     83  O   UNL     1      -3.194  -2.346  15.538  1.00  0.00    -0.237 OA
ATOM     84  O   UNL     1      -1.218  -1.481  16.757  1.00  0.00    -0.237 OA
ATOM     85  O   UNL     1      -2.447  -0.020  15.195  1.00  0.00    -0.744 OA
ENDBRANCH  78  82
ENDBRANCH  61  75
BRANCH  62  86
ATOM     86  C   UNL     1      -5.110  -6.333   6.822  1.00  0.00     0.023 A 
ATOM     87  C   UNL     1      -6.347  -5.658   6.702  1.00  0.00     0.031 A 
ATOM     88  C   UNL     1      -4.254  -6.262   5.695  1.00  0.00     0.131 A 
ATOM     89  C   UNL     1      -6.679  -4.973   5.503  1.00  0.00     0.055 A 
ATOM     90  C   UNL     1      -4.591  -5.595   4.514  1.00  0.00     0.041 A 
ATOM     91  F   UNL     1      -3.012  -6.770   5.729  1.00  0.00    -0.206 F 
ATOM     92  C   UNL     1      -5.804  -4.940   4.415  1.00  0.00     0.022 A 
BRANCH  89  93
ATOM     93  S   UNL     1      -8.232  -4.021   5.362  1.00  0.00     0.124 S 
ATOM     94  O   UNL     1      -9.240  -5.073   5.332  1.00  0.00    -0.237 OA
ATOM     95  O   UNL     1      -8.197  -3.186   6.558  1.00  0.00    -0.237 OA
ATOM     96  O   UNL     1      -8.071  -3.289   4.105  1.00  0.00    -0.744 OA
ENDBRANCH  89  93
ENDBRANCH  62  86
BRANCH  74  97
ATOM     97  C   UNL     1      -4.811  -8.729  12.734  1.00  0.00     0.023 A 
ATOM     98  C   UNL     1      -4.916  -9.725  11.736  1.00  0.00     0.031 A 
ATOM     99  C   UNL     1      -5.280  -9.053  14.022  1.00  0.00     0.131 A 
ATOM    100  C   UNL     1      -5.478 -10.982  12.048  1.00  0.00     0.055 A 
ATOM    101  C   UNL     1      -5.810 -10.304  14.332  1.00  0.00     0.041 A 
ATOM    102  F   UNL     1      -5.190  -8.162  15.023  1.00  0.00    -0.206 F 
ATOM    103  C   UNL     1      -5.916 -11.273  13.344  1.00  0.00     0.022 A 
BRANCH 100 104
ATOM    104  S   UNL     1      -5.676 -12.264  10.767  1.00  0.00     0.124 S 
ATOM    105  O   UNL     1      -6.207 -11.530   9.626  1.00  0.00    -0.237 OA
ATOM    106  O   UNL     1      -4.316 -12.777  10.621  1.00  0.00    -0.237 OA
ATOM    107  O   UNL     1      -6.618 -13.207  11.376  1.00  0.00    -0.744 OA
ENDBRANCH 100 104
ENDBRANCH  74  97
ENDBRANCH  48  49
ENDBRANCH  40  43
ENDBRANCH  38  39
ENDBRANCH   1  38
TORSDOF 19
