REMARK SMILES Cc1nccn1C1(C(=O)NCCCCNC(=O)c2ccc(-c3c4nc(c(-c5cc(S(=O)(=O)[O-])ccc5F)c5ccc([nH]5)c(-c5cc(S(=O)(=O)[O-])ccc5F)c5nc(c(-c6cc(S(=O)(=O)[O-])ccc6F)c6ccc3[nH]6)C=C5)C=C4)cc2)CCN(C(=O)[C@@H]2C[C@H]2c2ccccc2)CC1
REMARK SMILES IDX 13 1 12 2 11 3 10 4 8 5 9 6 7 8 81 9 96 10 82 11 95 12 83 13
REMARK SMILES IDX 84 14 85 15 6 16 1 17 2 18 3 19 4 20 5 21 86 22 87 23 88 24
REMARK SMILES IDX 89 25 90 26 94 27 91 28 93 29 92 30 14 31 15 32 16 33 17 35
REMARK SMILES IDX 18 36 19 37 80 38 20 39 79 40 21 41 22 42 23 43 73 44 24 45
REMARK SMILES IDX 78 46 72 47 74 48 25 49 77 50 71 51 70 52 26 54 58 55 38 56
REMARK SMILES IDX 57 57 39 58 42 59 56 60 75 61 40 62 41 63 55 65 76 66 43 67
REMARK SMILES IDX 27 68 28 69 36 70 29 71 35 72 37 73 34 74 30 75 31 76 32 77
REMARK SMILES IDX 33 78 59 79 60 80 68 81 61 82 67 83 69 84 66 85 62 86 63 87
REMARK SMILES IDX 64 88 65 89 44 90 45 91 53 92 46 93 52 94 54 95 51 96 47 97
REMARK SMILES IDX 48 98 49 99 50 100
REMARK H PARENT 10 7 15 34 74 53 42 64
REMARK Flexibility Score: inf
ROOT
ATOM      1  C   UNL     1      -1.555   7.230   1.475  1.00  0.00     0.023 C 
ENDROOT
BRANCH   1   2
ATOM      2  C   UNL     1      -0.991   6.104   0.592  1.00  0.00     0.023 C 
BRANCH   2   3
ATOM      3  C   UNL     1       0.228   5.336   1.122  1.00  0.00     0.116 C 
BRANCH   3   4
ATOM      4  N   UNL     1      -0.060   4.592   2.340  1.00  0.00    -0.354 N 
ATOM      5  C   UNL     1      -0.009   3.268   2.697  1.00  0.00     0.246 C 
ATOM      6  O   UNL     1      -0.196   3.118   3.908  1.00  0.00    -0.272 OA
ATOM      7  H   UNL     1      -0.361   5.172   3.076  1.00  0.00     0.163 HD
BRANCH   5   8
ATOM      8  C   UNL     1       0.347   2.083   1.687  1.00  0.00     0.127 C 
ATOM      9  C   UNL     1      -0.607   2.219   0.472  1.00  0.00     0.061 C 
ATOM     10  C   UNL     1       1.843   2.324   1.411  1.00  0.00     0.061 C 
ATOM     11  C   UNL     1       0.009   2.192  -0.926  1.00  0.00     0.122 C 
ATOM     12  C   UNL     1       2.289   2.041   0.004  1.00  0.00     0.122 C 
ATOM     13  N   UNL     1       1.409   2.581  -1.008  1.00  0.00    -0.342 N 
ATOM     14  C   UNL     1       1.876   2.951  -2.278  1.00  0.00     0.226 C 
ATOM     15  O   UNL     1       1.211   2.738  -3.290  1.00  0.00    -0.275 OA
BRANCH   8  16
ATOM     16  N   UNL     1       0.173   0.685   2.265  1.00  0.00    -0.320 N 
ATOM     17  C   UNL     1       1.002  -0.932   0.369  1.00  0.00     0.087 C 
ATOM     18  C   UNL     1       0.446  -0.572   1.695  1.00  0.00     0.106 A 
ATOM     19  N   UNL     1       0.152  -1.552   2.530  1.00  0.00    -0.242 NA
ATOM     20  C   UNL     1      -0.318  -0.975   3.654  1.00  0.00     0.131 A 
ATOM     21  C   UNL     1      -0.350   0.383   3.506  1.00  0.00     0.108 A 
ENDBRANCH   8  16
BRANCH  14  22
ATOM     22  C   UNL     1       3.068   3.829  -2.426  1.00  0.00     0.087 C 
ATOM     23  C   UNL     1       4.358   3.349  -3.030  1.00  0.00     0.023 C 
ATOM     24  C   UNL     1       4.351   3.850  -1.615  1.00  0.00     0.032 C 
BRANCH  24  25
ATOM     25  C   UNL     1       4.853   5.196  -1.149  1.00  0.00    -0.044 A 
ATOM     26  C   UNL     1       6.228   5.423  -0.979  1.00  0.00     0.004 A 
ATOM     27  C   UNL     1       3.977   6.221  -0.748  1.00  0.00     0.004 A 
ATOM     28  C   UNL     1       6.706   6.606  -0.412  1.00  0.00     0.000 A 
ATOM     29  C   UNL     1       4.456   7.419  -0.217  1.00  0.00     0.000 A 
ATOM     30  C   UNL     1       5.819   7.605  -0.031  1.00  0.00     0.000 A 
ENDBRANCH  24  25
ENDBRANCH  14  22
ENDBRANCH   5   8
ENDBRANCH   3   4
ENDBRANCH   2   3
ENDBRANCH   1   2
BRANCH   1  31
ATOM     31  C   UNL     1      -0.603   8.385   1.758  1.00  0.00     0.116 C 
BRANCH  31  32
ATOM     32  N   UNL     1      -0.149   9.078   0.549  1.00  0.00    -0.352 N 
ATOM     33  C   UNL     1       0.799  10.087   0.434  1.00  0.00     0.251 C 
ATOM     34  H   UNL     1      -0.572   8.790  -0.292  1.00  0.00     0.163 HD
ATOM     35  O   UNL     1       0.786  10.838  -0.526  1.00  0.00    -0.269 OA
BRANCH  33  36
ATOM     36  C   UNL     1       1.833  10.216   1.482  1.00  0.00     0.039 A 
ATOM     37  C   UNL     1       2.385  11.444   1.861  1.00  0.00     0.014 A 
ATOM     38  C   UNL     1       2.268   9.042   2.083  1.00  0.00     0.014 A 
ATOM     39  C   UNL     1       3.327  11.470   2.893  1.00  0.00     0.010 A 
ATOM     40  C   UNL     1       3.043   9.081   3.203  1.00  0.00     0.010 A 
ATOM     41  C   UNL     1       3.644  10.277   3.558  1.00  0.00    -0.014 A 
BRANCH  41  42
ATOM     42  C   UNL     1       4.513  10.220   4.726  1.00  0.00     0.031 A 
ATOM     43  C   UNL     1       3.974  10.950   5.897  1.00  0.00     0.074 A 
ATOM     44  C   UNL     1       5.513   9.315   4.826  1.00  0.00     0.049 A 
ATOM     45  N   UNL     1       4.399  12.061   6.397  1.00  0.00    -0.248 NA
ATOM     46  C   UNL     1       2.684  10.507   6.458  1.00  0.00     0.031 C 
ATOM     47  C   UNL     1       5.891   8.287   3.847  1.00  0.00     0.029 A 
ATOM     48  N   UNL     1       6.317   9.017   5.882  1.00  0.00    -0.354 N 
ATOM     49  C   UNL     1       3.611  12.284   7.520  1.00  0.00     0.074 A 
ATOM     50  C   UNL     1       2.430  11.489   7.326  1.00  0.00     0.031 C 
ATOM     51  C   UNL     1       6.671   7.355   4.435  1.00  0.00     0.029 A 
ATOM     52  C   UNL     1       6.981   7.794   5.784  1.00  0.00     0.049 A 
ATOM     53  H   UNL     1       6.421   9.617   6.655  1.00  0.00     0.167 HD
ATOM     54  C   UNL     1       4.140  12.841   8.645  1.00  0.00     0.034 A 
ATOM     55  C   UNL     1       7.708   7.163   6.747  1.00  0.00     0.034 A 
ATOM     56  C   UNL     1       5.446  13.407   8.362  1.00  0.00     0.049 A 
ATOM     57  C   UNL     1       8.086   8.207   7.735  1.00  0.00     0.074 A 
ATOM     58  C   UNL     1       5.918  14.342   7.460  1.00  0.00     0.029 A 
ATOM     59  N   UNL     1       6.556  12.699   8.775  1.00  0.00    -0.354 N 
ATOM     60  N   UNL     1       8.866   9.214   7.444  1.00  0.00    -0.248 NA
ATOM     61  C   UNL     1       7.200   8.425   8.870  1.00  0.00     0.031 C 
ATOM     62  C   UNL     1       7.165  13.817   7.008  1.00  0.00     0.029 A 
ATOM     63  C   UNL     1       7.444  12.653   7.729  1.00  0.00     0.049 A 
ATOM     64  H   UNL     1       6.688  12.297   9.664  1.00  0.00     0.167 HD
ATOM     65  C   UNL     1       8.264  10.316   8.036  1.00  0.00     0.074 A 
ATOM     66  C   UNL     1       7.308   9.753   8.990  1.00  0.00     0.031 C 
ATOM     67  C   UNL     1       8.376  11.563   7.488  1.00  0.00     0.034 A 
BRANCH  54  68
ATOM     68  C   UNL     1       3.700  12.535  10.065  1.00  0.00     0.023 A 
ATOM     69  C   UNL     1       4.398  13.196  11.094  1.00  0.00     0.031 A 
ATOM     70  C   UNL     1       2.867  11.472  10.483  1.00  0.00     0.131 A 
ATOM     71  C   UNL     1       4.360  12.724  12.416  1.00  0.00     0.055 A 
ATOM     72  C   UNL     1       2.778  11.051  11.814  1.00  0.00     0.041 A 
ATOM     73  F   UNL     1       2.159  10.718   9.637  1.00  0.00    -0.206 F 
ATOM     74  C   UNL     1       3.556  11.652  12.785  1.00  0.00     0.022 A 
BRANCH  71  75
ATOM     75  S   UNL     1       5.536  13.422  13.601  1.00  0.00     0.124 S 
ATOM     76  O   UNL     1       6.803  13.217  12.906  1.00  0.00    -0.237 OA
ATOM     77  O   UNL     1       5.072  14.801  13.705  1.00  0.00    -0.237 OA
ATOM     78  O   UNL     1       5.338  12.603  14.794  1.00  0.00    -0.744 OA
ENDBRANCH  71  75
ENDBRANCH  54  68
BRANCH  55  79
ATOM     79  C   UNL     1       7.801   5.694   7.000  1.00  0.00     0.023 A 
ATOM     80  C   UNL     1       8.859   5.083   7.710  1.00  0.00     0.031 A 
ATOM     81  C   UNL     1       6.681   4.877   6.716  1.00  0.00     0.131 A 
ATOM     82  C   UNL     1       8.768   3.720   8.097  1.00  0.00     0.055 A 
ATOM     83  C   UNL     1       6.598   3.535   7.098  1.00  0.00     0.041 A 
ATOM     84  F   UNL     1       5.587   5.383   6.124  1.00  0.00    -0.206 F 
ATOM     85  C   UNL     1       7.641   2.952   7.798  1.00  0.00     0.022 A 
BRANCH  82  86
ATOM     86  S   UNL     1      10.099   2.931   9.068  1.00  0.00     0.124 S 
ATOM     87  O   UNL     1      11.234   2.996   8.155  1.00  0.00    -0.237 OA
ATOM     88  O   UNL     1      10.166   3.780  10.252  1.00  0.00    -0.237 OA
ATOM     89  O   UNL     1       9.590   1.580   9.314  1.00  0.00    -0.744 OA
ENDBRANCH  82  86
ENDBRANCH  55  79
BRANCH  67  90
ATOM     90  C   UNL     1       9.419  11.789   6.406  1.00  0.00     0.023 A 
ATOM     91  C   UNL     1       9.471  11.110   5.166  1.00  0.00     0.031 A 
ATOM     92  C   UNL     1      10.321  12.849   6.606  1.00  0.00     0.131 A 
ATOM     93  C   UNL     1      10.408  11.502   4.186  1.00  0.00     0.055 A 
ATOM     94  C   UNL     1      11.230  13.248   5.627  1.00  0.00     0.041 A 
ATOM     95  F   UNL     1      10.304  13.550   7.752  1.00  0.00    -0.206 F 
ATOM     96  C   UNL     1      11.280  12.572   4.414  1.00  0.00     0.022 A 
BRANCH  93  97
ATOM     97  S   UNL     1      10.522  10.620   2.594  1.00  0.00     0.124 S 
ATOM     98  O   UNL     1      10.567   9.215   2.982  1.00  0.00    -0.237 OA
ATOM     99  O   UNL     1       9.310  11.051   1.902  1.00  0.00    -0.237 OA
ATOM    100  O   UNL     1      11.765  11.129   2.010  1.00  0.00    -0.744 OA
ENDBRANCH  93  97
ENDBRANCH  67  90
ENDBRANCH  41  42
ENDBRANCH  33  36
ENDBRANCH  31  32
ENDBRANCH   1  31
TORSDOF 17
