REMARK SMILES C[C@@H]1CN([C@@H](CCS(C)(=O)=O)C(=O)NCCCCNC(=O)c2ccc(-c3c4nc(c(-c5cc(S(=O)(=O)[O-])ccc5F)c5ccc([nH]5)c(-c5cc(S(=O)(=O)[O-])ccc5F)c5nc(c(-c6cc(S(=O)(=O)[O-])ccc6F)c6ccc3[nH]6)C=C5)C=C4)cc2)S(=O)(=O)C1
REMARK SMILES IDX 16 1 15 2 14 3 12 4 13 5 5 7 4 8 1 9 2 10 3 11 88 12 85 13
REMARK SMILES IDX 86 14 87 15 6 16 7 17 8 18 9 19 10 20 11 21 17 22 18 23
REMARK SMILES IDX 19 24 20 25 21 27 22 28 23 29 84 30 24 31 83 32 25 33 26 34
REMARK SMILES IDX 27 35 77 36 28 37 82 38 76 39 78 40 29 41 81 42 75 43 74 44
REMARK SMILES IDX 30 46 62 47 42 48 61 49 43 50 46 51 60 52 79 53 44 54 45 55
REMARK SMILES IDX 59 57 80 58 47 59 31 60 32 61 40 62 33 63 39 64 41 65 38 66
REMARK SMILES IDX 34 67 35 68 36 69 37 70 63 71 64 72 72 73 65 74 71 75 73 76
REMARK SMILES IDX 70 77 66 78 67 79 68 80 69 81 48 82 49 83 57 84 50 85 56 86
REMARK SMILES IDX 58 87 55 88 51 89 52 90 53 91 54 92
REMARK H PARENT 14 6 19 26 78 45 46 56
REMARK Flexibility Score: inf
ROOT
ATOM      1  C   UNL     1      -4.001   3.195  -2.543  1.00  0.00     0.023 C 
ENDROOT
BRANCH   1   2
ATOM      2  C   UNL     1      -2.771   3.580  -3.357  1.00  0.00     0.116 C 
BRANCH   2   3
ATOM      3  N   UNL     1      -1.988   4.619  -2.740  1.00  0.00    -0.355 N 
ATOM      4  C   UNL     1      -0.658   4.715  -2.523  1.00  0.00     0.238 C 
ATOM      5  O   UNL     1      -0.225   5.845  -2.251  1.00  0.00    -0.273 OA
ATOM      6  H   UNL     1      -2.510   5.391  -2.423  1.00  0.00     0.163 HD
BRANCH   4   7
ATOM      7  C   UNL     1       0.340   3.568  -2.661  1.00  0.00     0.163 C 
BRANCH   7   8
ATOM      8  N   UNL     1       0.255   2.229  -2.002  1.00  0.00    -0.189 NA
ATOM      9  C   UNL     1       2.049  -0.140   0.337  1.00  0.00     0.010 C 
ATOM     10  C   UNL     1       1.089   0.440  -0.682  1.00  0.00     0.017 C 
ATOM     11  C   UNL     1       1.417   1.868  -1.139  1.00  0.00     0.107 C 
ATOM     12  C   UNL     1      -0.329   0.526  -0.136  1.00  0.00     0.159 C 
ATOM     13  S   UNL     1      -1.152   1.673  -1.219  1.00  0.00     0.215 S 
ATOM     14  O   UNL     1      -1.691   2.731  -0.397  1.00  0.00    -0.212 OA
ATOM     15  O   UNL     1      -1.915   0.908  -2.173  1.00  0.00    -0.212 OA
ENDBRANCH   7   8
BRANCH   7  16
ATOM     16  C   UNL     1       0.925   3.426  -4.095  1.00  0.00     0.046 C 
BRANCH  16  17
ATOM     17  C   UNL     1       0.141   2.618  -5.125  1.00  0.00     0.139 C 
BRANCH  17  18
ATOM     18  S   UNL     1      -0.784   3.598  -6.312  1.00  0.00     0.147 S 
ATOM     19  C   UNL     1       0.419   4.215  -7.456  1.00  0.00     0.158 C 
ATOM     20  O   UNL     1      -1.646   2.689  -7.041  1.00  0.00    -0.229 OA
ATOM     21  O   UNL     1      -1.328   4.765  -5.652  1.00  0.00    -0.229 OA
ENDBRANCH  17  18
ENDBRANCH  16  17
ENDBRANCH   7  16
ENDBRANCH   4   7
ENDBRANCH   2   3
ENDBRANCH   1   2
BRANCH   1  22
ATOM     22  C   UNL     1      -5.296   3.572  -3.246  1.00  0.00     0.023 C 
BRANCH  22  23
ATOM     23  C   UNL     1      -5.429   3.027  -4.663  1.00  0.00     0.116 C 
BRANCH  23  24
ATOM     24  N   UNL     1      -5.362   1.575  -4.757  1.00  0.00    -0.352 N 
ATOM     25  C   UNL     1      -6.216   0.744  -5.451  1.00  0.00     0.251 C 
ATOM     26  H   UNL     1      -4.625   1.138  -4.271  1.00  0.00     0.163 HD
ATOM     27  O   UNL     1      -6.102  -0.475  -5.410  1.00  0.00    -0.269 OA
BRANCH  25  28
ATOM     28  C   UNL     1      -7.322   1.380  -6.194  1.00  0.00     0.039 A 
ATOM     29  C   UNL     1      -8.632   1.097  -5.810  1.00  0.00     0.014 A 
ATOM     30  C   UNL     1      -7.045   2.400  -7.110  1.00  0.00     0.014 A 
ATOM     31  C   UNL     1      -9.666   1.911  -6.274  1.00  0.00     0.010 A 
ATOM     32  C   UNL     1      -8.064   3.270  -7.481  1.00  0.00     0.010 A 
ATOM     33  C   UNL     1      -9.384   3.042  -7.060  1.00  0.00    -0.014 A 
BRANCH  33  34
ATOM     34  C   UNL     1     -10.459   4.000  -7.437  1.00  0.00     0.031 A 
ATOM     35  C   UNL     1     -10.770   4.240  -8.889  1.00  0.00     0.074 A 
ATOM     36  C   UNL     1     -11.124   4.681  -6.479  1.00  0.00     0.049 A 
ATOM     37  N   UNL     1     -11.633   5.063  -9.425  1.00  0.00    -0.248 NA
ATOM     38  C   UNL     1      -9.986   3.472  -9.870  1.00  0.00     0.031 C 
ATOM     39  C   UNL     1     -10.883   4.570  -5.038  1.00  0.00     0.029 A 
ATOM     40  N   UNL     1     -12.138   5.604  -6.569  1.00  0.00    -0.354 N 
ATOM     41  C   UNL     1     -11.495   4.913 -10.800  1.00  0.00     0.074 A 
ATOM     42  C   UNL     1     -10.413   3.979 -11.016  1.00  0.00     0.031 C 
ATOM     43  C   UNL     1     -11.751   5.358  -4.382  1.00  0.00     0.029 A 
ATOM     44  C   UNL     1     -12.572   6.077  -5.350  1.00  0.00     0.049 A 
ATOM     45  H   UNL     1     -12.521   5.900  -7.427  1.00  0.00     0.167 HD
ATOM     46  C   UNL     1     -12.224   5.480 -11.792  1.00  0.00     0.034 A 
ATOM     47  C   UNL     1     -13.513   6.996  -5.047  1.00  0.00     0.034 A 
ATOM     48  C   UNL     1     -13.304   6.405 -11.563  1.00  0.00     0.049 A 
ATOM     49  C   UNL     1     -14.274   7.651  -6.176  1.00  0.00     0.074 A 
ATOM     50  C   UNL     1     -14.135   7.004 -12.494  1.00  0.00     0.029 A 
ATOM     51  N   UNL     1     -13.700   6.875 -10.317  1.00  0.00    -0.354 N 
ATOM     52  N   UNL     1     -14.167   7.453  -7.470  1.00  0.00    -0.248 NA
ATOM     53  C   UNL     1     -15.290   8.645  -5.803  1.00  0.00     0.031 C 
ATOM     54  C   UNL     1     -14.976   7.894 -11.821  1.00  0.00     0.029 A 
ATOM     55  C   UNL     1     -14.737   7.784 -10.461  1.00  0.00     0.049 A 
ATOM     56  H   UNL     1     -13.303   6.603  -9.459  1.00  0.00     0.167 HD
ATOM     57  C   UNL     1     -15.125   8.274  -8.060  1.00  0.00     0.074 A 
ATOM     58  C   UNL     1     -15.814   8.949  -6.980  1.00  0.00     0.031 C 
ATOM     59  C   UNL     1     -15.412   8.455  -9.375  1.00  0.00     0.034 A 
BRANCH  46  60
ATOM     60  C   UNL     1     -11.861   5.125 -13.214  1.00  0.00     0.023 A 
ATOM     61  C   UNL     1     -11.974   3.809 -13.698  1.00  0.00     0.031 A 
ATOM     62  C   UNL     1     -11.395   6.114 -14.098  1.00  0.00     0.131 A 
ATOM     63  C   UNL     1     -11.569   3.507 -15.006  1.00  0.00     0.055 A 
ATOM     64  C   UNL     1     -11.070   5.821 -15.423  1.00  0.00     0.041 A 
ATOM     65  F   UNL     1     -11.242   7.382 -13.685  1.00  0.00    -0.206 F 
ATOM     66  C   UNL     1     -11.145   4.509 -15.881  1.00  0.00     0.022 A 
BRANCH  63  67
ATOM     67  S   UNL     1     -11.482   1.766 -15.507  1.00  0.00     0.124 S 
ATOM     68  O   UNL     1     -10.528   1.228 -14.541  1.00  0.00    -0.237 OA
ATOM     69  O   UNL     1     -12.864   1.324 -15.355  1.00  0.00    -0.237 OA
ATOM     70  O   UNL     1     -10.995   1.830 -16.884  1.00  0.00    -0.744 OA
ENDBRANCH  63  67
ENDBRANCH  46  60
BRANCH  47  71
ATOM     71  C   UNL     1     -13.783   7.382  -3.629  1.00  0.00     0.023 A 
ATOM     72  C   UNL     1     -15.054   7.206  -3.057  1.00  0.00     0.031 A 
ATOM     73  C   UNL     1     -12.796   8.010  -2.847  1.00  0.00     0.131 A 
ATOM     74  C   UNL     1     -15.324   7.711  -1.775  1.00  0.00     0.055 A 
ATOM     75  C   UNL     1     -13.049   8.447  -1.545  1.00  0.00     0.041 A 
ATOM     76  F   UNL     1     -11.564   8.211  -3.341  1.00  0.00    -0.206 F 
ATOM     77  C   UNL     1     -14.325   8.315  -1.008  1.00  0.00     0.022 A 
BRANCH  74  78
ATOM     78  S   UNL     1     -17.036   7.685  -1.173  1.00  0.00     0.124 S 
ATOM     79  O   UNL     1     -17.731   8.413  -2.228  1.00  0.00    -0.237 OA
ATOM     80  O   UNL     1     -17.308   6.254  -1.094  1.00  0.00    -0.237 OA
ATOM     81  O   UNL     1     -16.955   8.374   0.113  1.00  0.00    -0.744 OA
ENDBRANCH  74  78
ENDBRANCH  47  71
BRANCH  59  82
ATOM     82  C   UNL     1     -16.552   9.386  -9.711  1.00  0.00     0.023 A 
ATOM     83  C   UNL     1     -16.495  10.762  -9.429  1.00  0.00     0.031 A 
ATOM     84  C   UNL     1     -17.718   8.884 -10.319  1.00  0.00     0.131 A 
ATOM     85  C   UNL     1     -17.605  11.577  -9.698  1.00  0.00     0.055 A 
ATOM     86  C   UNL     1     -18.790   9.713 -10.650  1.00  0.00     0.041 A 
ATOM     87  F   UNL     1     -17.831   7.578 -10.608  1.00  0.00    -0.206 F 
ATOM     88  C   UNL     1     -18.743  11.066 -10.327  1.00  0.00     0.022 A 
BRANCH  85  89
ATOM     89  S   UNL     1     -17.582  13.296  -9.122  1.00  0.00     0.124 S 
ATOM     90  O   UNL     1     -17.388  13.132  -7.685  1.00  0.00    -0.237 OA
ATOM     91  O   UNL     1     -16.453  13.858  -9.858  1.00  0.00    -0.237 OA
ATOM     92  O   UNL     1     -18.893  13.808  -9.516  1.00  0.00    -0.744 OA
ENDBRANCH  85  89
ENDBRANCH  59  82
ENDBRANCH  33  34
ENDBRANCH  25  28
ENDBRANCH  23  24
ENDBRANCH  22  23
ENDBRANCH   1  22
TORSDOF 18
