REMARK SMILES C[C@H]1CCC[C@]1(C(=O)NCCCCNC(=O)c1ccc(-c2c3nc(c(-c4cc(S(=O)(=O)[O-])ccc4F)c4ccc([nH]4)c(-c4cc(S(=O)(=O)[O-])ccc4F)c4nc(c(-c5cc(S(=O)(=O)[O-])ccc5F)c5ccc2[nH]5)C=C4)C=C3)cc1)c1ccc2c(c1)OCO2
REMARK SMILES IDX 12 1 11 2 10 3 9 4 7 5 8 6 6 8 1 9 2 10 3 11 4 12 5 13 80 14
REMARK SMILES IDX 81 15 85 16 82 17 84 18 83 19 86 20 88 21 87 22 13 23 14 24
REMARK SMILES IDX 15 25 16 27 17 28 18 29 79 30 19 31 78 32 20 33 21 34 22 35
REMARK SMILES IDX 72 36 23 37 77 38 71 39 73 40 24 41 76 42 70 43 69 44 25 46
REMARK SMILES IDX 57 47 37 48 56 49 38 50 41 51 55 52 74 53 39 54 40 55 54 57
REMARK SMILES IDX 75 58 42 59 26 60 27 61 35 62 28 63 34 64 36 65 33 66 29 67
REMARK SMILES IDX 30 68 31 69 32 70 58 71 59 72 67 73 60 74 66 75 68 76 65 77
REMARK SMILES IDX 61 78 62 79 63 80 64 81 43 82 44 83 52 84 45 85 51 86 53 87
REMARK SMILES IDX 50 88 46 89 47 90 48 91 49 92
REMARK H PARENT 9 7 14 26 73 45 41 56
REMARK Flexibility Score: inf
ROOT
ATOM      1  C   UNL     1      -1.276  -2.283   4.638  1.00  0.00     0.023 C 
ENDROOT
BRANCH   1   2
ATOM      2  C   UNL     1      -0.878  -2.037   3.187  1.00  0.00     0.023 C 
BRANCH   2   3
ATOM      3  C   UNL     1      -1.696  -0.971   2.464  1.00  0.00     0.116 C 
BRANCH   3   4
ATOM      4  N   UNL     1      -1.223   0.380   2.706  1.00  0.00    -0.355 N 
ATOM      5  C   UNL     1      -0.737   1.373   1.903  1.00  0.00     0.230 C 
ATOM      6  O   UNL     1      -0.739   2.482   2.449  1.00  0.00    -0.274 OA
ATOM      7  H   UNL     1      -1.261   0.637   3.655  1.00  0.00     0.163 HD
BRANCH   5   8
ATOM      8  C   UNL     1      -0.228   1.160   0.428  1.00  0.00     0.077 C 
ATOM      9  C   UNL     1       1.903   0.023   1.475  1.00  0.00     0.009 C 
ATOM     10  C   UNL     1       0.959   0.141   0.286  1.00  0.00     0.006 C 
ATOM     11  C   UNL     1       0.361  -1.167  -0.213  1.00  0.00     0.005 C 
ATOM     12  C   UNL     1      -0.840  -0.737  -1.048  1.00  0.00     0.002 C 
ATOM     13  C   UNL     1      -1.386   0.546  -0.412  1.00  0.00     0.022 C 
BRANCH   8  14
ATOM     14  C   UNL     1       0.352   2.448  -0.268  1.00  0.00    -0.028 A 
ATOM     15  C   UNL     1       1.049   3.450   0.457  1.00  0.00     0.009 A 
ATOM     16  C   UNL     1       0.443   2.490  -1.682  1.00  0.00     0.055 A 
ATOM     17  C   UNL     1       1.822   4.431  -0.183  1.00  0.00     0.051 A 
ATOM     18  C   UNL     1       1.258   3.426  -2.279  1.00  0.00     0.166 A 
ATOM     19  C   UNL     1       1.938   4.367  -1.550  1.00  0.00     0.165 A 
ATOM     20  O   UNL     1       1.561   3.474  -3.605  1.00  0.00    -0.454 OA
ATOM     21  O   UNL     1       2.752   5.130  -2.327  1.00  0.00    -0.454 OA
ATOM     22  C   UNL     1       2.641   4.428  -3.583  1.00  0.00     0.468 C 
ENDBRANCH   8  14
ENDBRANCH   5   8
ENDBRANCH   3   4
ENDBRANCH   2   3
ENDBRANCH   1   2
BRANCH   1  23
ATOM     23  C   UNL     1      -2.726  -2.696   4.844  1.00  0.00     0.116 C 
BRANCH  23  24
ATOM     24  N   UNL     1      -3.144  -3.816   4.011  1.00  0.00    -0.352 N 
ATOM     25  C   UNL     1      -4.069  -4.791   4.310  1.00  0.00     0.251 C 
ATOM     26  H   UNL     1      -2.712  -3.883   3.129  1.00  0.00     0.163 HD
ATOM     27  O   UNL     1      -4.262  -5.723   3.546  1.00  0.00    -0.269 OA
BRANCH  25  28
ATOM     28  C   UNL     1      -4.779  -4.699   5.602  1.00  0.00     0.039 A 
ATOM     29  C   UNL     1      -4.716  -5.779   6.483  1.00  0.00     0.014 A 
ATOM     30  C   UNL     1      -5.403  -3.506   5.973  1.00  0.00     0.014 A 
ATOM     31  C   UNL     1      -5.218  -5.633   7.776  1.00  0.00     0.010 A 
ATOM     32  C   UNL     1      -5.826  -3.336   7.284  1.00  0.00     0.010 A 
ATOM     33  C   UNL     1      -5.738  -4.397   8.199  1.00  0.00    -0.014 A 
BRANCH  33  34
ATOM     34  C   UNL     1      -6.207  -4.196   9.592  1.00  0.00     0.031 A 
ATOM     35  C   UNL     1      -7.655  -3.887   9.850  1.00  0.00     0.074 A 
ATOM     36  C   UNL     1      -5.320  -4.222  10.606  1.00  0.00     0.049 A 
ATOM     37  N   UNL     1      -8.253  -3.604  10.978  1.00  0.00    -0.248 NA
ATOM     38  C   UNL     1      -8.538  -3.852   8.675  1.00  0.00     0.031 C 
ATOM     39  C   UNL     1      -3.880  -4.454  10.467  1.00  0.00     0.029 A 
ATOM     40  N   UNL     1      -5.497  -4.044  11.955  1.00  0.00    -0.354 N 
ATOM     41  C   UNL     1      -9.578  -3.341  10.645  1.00  0.00     0.074 A 
ATOM     42  C   UNL     1      -9.675  -3.428   9.204  1.00  0.00     0.031 C 
ATOM     43  C   UNL     1      -3.311  -4.431  11.684  1.00  0.00     0.029 A 
ATOM     44  C   UNL     1      -4.335  -4.147  12.684  1.00  0.00     0.049 A 
ATOM     45  H   UNL     1      -6.373  -3.860  12.363  1.00  0.00     0.167 HD
ATOM     46  C   UNL     1     -10.623  -3.080  11.469  1.00  0.00     0.034 A 
ATOM     47  C   UNL     1      -4.122  -4.022  14.009  1.00  0.00     0.034 A 
ATOM     48  C   UNL     1     -10.509  -3.020  12.905  1.00  0.00     0.049 A 
ATOM     49  C   UNL     1      -5.299  -3.742  14.908  1.00  0.00     0.074 A 
ATOM     50  C   UNL     1     -11.506  -2.822  13.843  1.00  0.00     0.029 A 
ATOM     51  N   UNL     1      -9.320  -3.155  13.612  1.00  0.00    -0.354 N 
ATOM     52  N   UNL     1      -6.558  -3.554  14.584  1.00  0.00    -0.248 NA
ATOM     53  C   UNL     1      -5.030  -3.673  16.349  1.00  0.00     0.031 C 
ATOM     54  C   UNL     1     -10.914  -2.782  15.111  1.00  0.00     0.029 A 
ATOM     55  C   UNL     1      -9.556  -3.023  14.972  1.00  0.00     0.049 A 
ATOM     56  H   UNL     1      -8.438  -3.321  13.207  1.00  0.00     0.167 HD
ATOM     57  C   UNL     1      -7.235  -3.373  15.787  1.00  0.00     0.074 A 
ATOM     58  C   UNL     1      -6.247  -3.491  16.840  1.00  0.00     0.031 C 
ATOM     59  C   UNL     1      -8.554  -3.135  16.005  1.00  0.00     0.034 A 
BRANCH  46  60
ATOM     60  C   UNL     1     -11.964  -2.826  10.823  1.00  0.00     0.023 A 
ATOM     61  C   UNL     1     -12.609  -3.811  10.053  1.00  0.00     0.031 A 
ATOM     62  C   UNL     1     -12.585  -1.570  10.937  1.00  0.00     0.131 A 
ATOM     63  C   UNL     1     -13.785  -3.497   9.357  1.00  0.00     0.055 A 
ATOM     64  C   UNL     1     -13.802  -1.292  10.312  1.00  0.00     0.041 A 
ATOM     65  F   UNL     1     -12.009  -0.584  11.642  1.00  0.00    -0.206 F 
ATOM     66  C   UNL     1     -14.401  -2.253   9.501  1.00  0.00     0.022 A 
BRANCH  63  67
ATOM     67  S   UNL     1     -14.412  -4.688   8.140  1.00  0.00     0.124 S 
ATOM     68  O   UNL     1     -13.285  -4.783   7.215  1.00  0.00    -0.237 OA
ATOM     69  O   UNL     1     -14.669  -5.868   8.957  1.00  0.00    -0.237 OA
ATOM     70  O   UNL     1     -15.600  -4.031   7.598  1.00  0.00    -0.744 OA
ENDBRANCH  63  67
ENDBRANCH  46  60
BRANCH  47  71
ATOM     71  C   UNL     1      -2.749  -4.166  14.573  1.00  0.00     0.023 A 
ATOM     72  C   UNL     1      -2.427  -5.233  15.426  1.00  0.00     0.031 A 
ATOM     73  C   UNL     1      -1.750  -3.216  14.298  1.00  0.00     0.131 A 
ATOM     74  C   UNL     1      -1.154  -5.300  16.014  1.00  0.00     0.055 A 
ATOM     75  C   UNL     1      -0.469  -3.314  14.846  1.00  0.00     0.041 A 
ATOM     76  F   UNL     1      -2.002  -2.182  13.480  1.00  0.00    -0.206 F 
ATOM     77  C   UNL     1      -0.170  -4.354  15.721  1.00  0.00     0.022 A 
BRANCH  74  78
ATOM     78  S   UNL     1      -0.827  -6.605  17.231  1.00  0.00     0.124 S 
ATOM     79  O   UNL     1      -1.862  -6.349  18.227  1.00  0.00    -0.237 OA
ATOM     80  O   UNL     1      -0.992  -7.813  16.430  1.00  0.00    -0.237 OA
ATOM     81  O   UNL     1       0.540  -6.330  17.665  1.00  0.00    -0.744 OA
ENDBRANCH  74  78
ENDBRANCH  47  71
BRANCH  59  82
ATOM     82  C   UNL     1      -8.999  -3.034  17.442  1.00  0.00     0.023 A 
ATOM     83  C   UNL     1      -8.604  -1.964  18.264  1.00  0.00     0.031 A 
ATOM     84  C   UNL     1      -9.820  -4.031  17.997  1.00  0.00     0.131 A 
ATOM     85  C   UNL     1      -8.984  -1.945  19.613  1.00  0.00     0.055 A 
ATOM     86  C   UNL     1     -10.243  -3.976  19.326  1.00  0.00     0.041 A 
ATOM     87  F   UNL     1     -10.225  -5.074  17.256  1.00  0.00    -0.206 F 
ATOM     88  C   UNL     1      -9.814  -2.936  20.146  1.00  0.00     0.022 A 
BRANCH  85  89
ATOM     89  S   UNL     1      -8.306  -0.654  20.691  1.00  0.00     0.124 S 
ATOM     90  O   UNL     1      -6.869  -0.873  20.559  1.00  0.00    -0.237 OA
ATOM     91  O   UNL     1      -8.823   0.566  20.079  1.00  0.00    -0.237 OA
ATOM     92  O   UNL     1      -8.864  -0.973  22.003  1.00  0.00    -0.744 OA
ENDBRANCH  85  89
ENDBRANCH  59  82
ENDBRANCH  33  34
ENDBRANCH  25  28
ENDBRANCH  23  24
ENDBRANCH   1  23
TORSDOF 15
