REMARK SMILES Cc1oc2c(c1C(=O)NCCCC(=O)NCCCCNC(=O)c1ccc(-c3c4nc(c(-c5cc(S(=O)(=O)[O-])ccc5F)c5ccc([nH]5)c(-c5cc(S(=O)(=O)[O-])ccc5F)c5nc(c(-c6cc(S(=O)(=O)[O-])ccc6F)c6ccc3[nH]6)C=C5)C=C4)cc1)CCCC2
REMARK SMILES IDX 17 1 16 2 15 3 13 4 14 5 12 7 11 8 10 9 9 10 7 11 8 12 6 14
REMARK SMILES IDX 1 15 2 16 3 17 4 18 5 19 89 20 86 21 88 22 87 23 18 24 19 25
REMARK SMILES IDX 20 26 21 27 22 29 23 30 24 31 85 32 25 33 84 34 26 35 27 36
REMARK SMILES IDX 28 37 78 38 29 39 83 40 77 41 79 42 30 43 82 44 76 45 75 46
REMARK SMILES IDX 31 48 63 49 43 50 62 51 44 52 47 53 61 54 80 55 45 56 46 57
REMARK SMILES IDX 60 59 81 60 48 61 32 62 33 63 41 64 34 65 40 66 42 67 39 68
REMARK SMILES IDX 35 69 36 70 37 71 38 72 64 73 65 74 73 75 66 76 72 77 74 78
REMARK SMILES IDX 71 79 67 80 68 81 69 82 70 83 49 84 50 85 58 86 51 87 57 88
REMARK SMILES IDX 59 89 56 90 52 91 53 92 54 93 55 94
REMARK H PARENT 15 6 9 13 20 28 79 47 47 58
REMARK Flexibility Score: inf
ROOT
ATOM      1  C   UNL     1       2.676   0.654   3.088  1.00  0.00     0.023 C 
ENDROOT
BRANCH   1   2
ATOM      2  C   UNL     1       4.196   0.848   3.106  1.00  0.00     0.116 C 
BRANCH   2   3
ATOM      3  N   UNL     1       4.879  -0.394   2.780  1.00  0.00    -0.356 N 
ATOM      4  C   UNL     1       5.519  -0.779   1.643  1.00  0.00     0.220 C 
ATOM      5  O   UNL     1       5.868  -1.957   1.537  1.00  0.00    -0.275 OA
ATOM      6  H   UNL     1       4.878  -1.066   3.500  1.00  0.00     0.163 HD
BRANCH   4   7
ATOM      7  C   UNL     1       5.808   0.212   0.532  1.00  0.00     0.102 C 
BRANCH   7   8
ATOM      8  C   UNL     1       4.861   0.105  -0.664  1.00  0.00     0.031 C 
BRANCH   8   9
ATOM      9  C   UNL     1       3.474   0.717  -0.489  1.00  0.00     0.116 C 
BRANCH   9  10
ATOM     10  N   UNL     1       3.462   2.100  -0.089  1.00  0.00    -0.352 N 
ATOM     11  C   UNL     1       2.448   3.014   0.025  1.00  0.00     0.255 C 
ATOM     12  O   UNL     1       2.802   4.127   0.424  1.00  0.00    -0.269 OA
ATOM     13  H   UNL     1       4.349   2.455   0.147  1.00  0.00     0.163 HD
BRANCH  11  14
ATOM     14  C   UNL     1       1.053   2.769  -0.358  1.00  0.00     0.084 A 
ATOM     15  C   UNL     1       0.415   0.165  -0.214  1.00  0.00     0.088 C 
ATOM     16  C   UNL     1       0.276   1.612  -0.480  1.00  0.00     0.114 A 
ATOM     17  O   UNL     1      -0.983   1.917  -0.926  1.00  0.00    -0.465 OA
ATOM     18  C   UNL     1      -1.054   3.251  -1.025  1.00  0.00     0.108 A 
ATOM     19  C   UNL     1       0.124   3.841  -0.649  1.00  0.00     0.007 A 
ATOM     20  C   UNL     1      -2.311   3.895  -1.455  1.00  0.00     0.076 C 
ATOM     21  C   UNL     1       0.276   5.329  -0.635  1.00  0.00     0.040 C 
ATOM     22  C   UNL     1      -2.008   5.358  -1.825  1.00  0.00     0.008 C 
ATOM     23  C   UNL     1      -1.093   6.036  -0.785  1.00  0.00     0.005 C 
ENDBRANCH  11  14
ENDBRANCH   9  10
ENDBRANCH   8   9
ENDBRANCH   7   8
ENDBRANCH   4   7
ENDBRANCH   2   3
ENDBRANCH   1   2
BRANCH   1  24
ATOM     24  C   UNL     1       2.062  -0.002   4.329  1.00  0.00     0.023 C 
BRANCH  24  25
ATOM     25  C   UNL     1       2.028   0.883   5.567  1.00  0.00     0.116 C 
BRANCH  25  26
ATOM     26  N   UNL     1       1.188   2.068   5.401  1.00  0.00    -0.352 N 
ATOM     27  C   UNL     1       1.182   3.211   6.188  1.00  0.00     0.251 C 
ATOM     28  H   UNL     1       0.554   2.053   4.647  1.00  0.00     0.163 HD
ATOM     29  O   UNL     1       0.211   3.939   6.240  1.00  0.00    -0.269 OA
BRANCH  27  30
ATOM     30  C   UNL     1       2.404   3.503   6.960  1.00  0.00     0.039 A 
ATOM     31  C   UNL     1       2.353   3.773   8.329  1.00  0.00     0.014 A 
ATOM     32  C   UNL     1       3.620   3.381   6.292  1.00  0.00     0.014 A 
ATOM     33  C   UNL     1       3.547   3.808   9.048  1.00  0.00     0.010 A 
ATOM     34  C   UNL     1       4.779   3.287   7.023  1.00  0.00     0.010 A 
ATOM     35  C   UNL     1       4.760   3.529   8.396  1.00  0.00    -0.014 A 
BRANCH  35  36
ATOM     36  C   UNL     1       5.996   3.348   9.159  1.00  0.00     0.031 A 
ATOM     37  C   UNL     1       5.936   2.342  10.260  1.00  0.00     0.074 A 
ATOM     38  C   UNL     1       7.189   3.838   8.758  1.00  0.00     0.049 A 
ATOM     39  N   UNL     1       6.027   2.548  11.532  1.00  0.00    -0.248 NA
ATOM     40  C   UNL     1       5.618   0.947   9.916  1.00  0.00     0.031 C 
ATOM     41  C   UNL     1       7.503   4.571   7.526  1.00  0.00     0.029 A 
ATOM     42  N   UNL     1       8.417   3.660   9.316  1.00  0.00    -0.354 N 
ATOM     43  C   UNL     1       6.016   1.293  12.139  1.00  0.00     0.074 A 
ATOM     44  C   UNL     1       5.565   0.380  11.123  1.00  0.00     0.031 C 
ATOM     45  C   UNL     1       8.836   4.545   7.311  1.00  0.00     0.029 A 
ATOM     46  C   UNL     1       9.482   3.962   8.473  1.00  0.00     0.049 A 
ATOM     47  H   UNL     1       8.541   3.344  10.240  1.00  0.00     0.167 HD
ATOM     48  C   UNL     1       6.595   1.088  13.360  1.00  0.00     0.034 A 
ATOM     49  C   UNL     1      10.800   3.728   8.698  1.00  0.00     0.034 A 
ATOM     50  C   UNL     1       6.866   2.350  14.016  1.00  0.00     0.049 A 
ATOM     51  C   UNL     1      10.963   3.607  10.168  1.00  0.00     0.074 A 
ATOM     52  C   UNL     1       6.095   3.439  14.380  1.00  0.00     0.029 A 
ATOM     53  N   UNL     1       8.167   2.808  14.042  1.00  0.00    -0.354 N 
ATOM     54  N   UNL     1      10.743   4.593  10.995  1.00  0.00    -0.248 NA
ATOM     55  C   UNL     1      10.892   2.278  10.758  1.00  0.00     0.031 C 
ATOM     56  C   UNL     1       6.898   4.574  14.056  1.00  0.00     0.029 A 
ATOM     57  C   UNL     1       8.138   4.111  13.611  1.00  0.00     0.049 A 
ATOM     58  H   UNL     1       8.963   2.298  14.317  1.00  0.00     0.167 HD
ATOM     59  C   UNL     1      10.082   4.018  12.069  1.00  0.00     0.074 A 
ATOM     60  C   UNL     1      10.294   2.579  11.915  1.00  0.00     0.031 C 
ATOM     61  C   UNL     1       9.187   4.728  12.821  1.00  0.00     0.034 A 
BRANCH  48  62
ATOM     62  C   UNL     1       7.255  -0.198  13.829  1.00  0.00     0.023 A 
ATOM     63  C   UNL     1       7.870  -0.173  15.098  1.00  0.00     0.031 A 
ATOM     64  C   UNL     1       7.573  -1.315  13.026  1.00  0.00     0.131 A 
ATOM     65  C   UNL     1       8.847  -1.118  15.455  1.00  0.00     0.055 A 
ATOM     66  C   UNL     1       8.492  -2.297  13.417  1.00  0.00     0.041 A 
ATOM     67  F   UNL     1       7.089  -1.486  11.792  1.00  0.00    -0.206 F 
ATOM     68  C   UNL     1       9.168  -2.180  14.619  1.00  0.00     0.022 A 
BRANCH  65  69
ATOM     69  S   UNL     1       9.837  -0.803  16.940  1.00  0.00     0.124 S 
ATOM     70  O   UNL     1      10.314   0.552  16.688  1.00  0.00    -0.237 OA
ATOM     71  O   UNL     1       8.844  -0.951  17.998  1.00  0.00    -0.237 OA
ATOM     72  O   UNL     1      10.859  -1.846  16.893  1.00  0.00    -0.744 OA
ENDBRANCH  65  69
ENDBRANCH  48  62
BRANCH  49  73
ATOM     73  C   UNL     1      11.836   3.326   7.708  1.00  0.00     0.023 A 
ATOM     74  C   UNL     1      13.218   3.434   7.970  1.00  0.00     0.031 A 
ATOM     75  C   UNL     1      11.467   2.590   6.558  1.00  0.00     0.131 A 
ATOM     76  C   UNL     1      14.158   2.821   7.109  1.00  0.00     0.055 A 
ATOM     77  C   UNL     1      12.399   1.990   5.709  1.00  0.00     0.041 A 
ATOM     78  F   UNL     1      10.178   2.355   6.266  1.00  0.00    -0.206 F 
ATOM     79  C   UNL     1      13.752   2.093   5.988  1.00  0.00     0.022 A 
BRANCH  76  80
ATOM     80  S   UNL     1      15.937   2.868   7.500  1.00  0.00     0.124 S 
ATOM     81  O   UNL     1      16.288   4.244   7.171  1.00  0.00    -0.237 OA
ATOM     82  O   UNL     1      15.960   2.511   8.914  1.00  0.00    -0.237 OA
ATOM     83  O   UNL     1      16.508   1.857   6.608  1.00  0.00    -0.744 OA
ENDBRANCH  76  80
ENDBRANCH  49  73
BRANCH  61  84
ATOM     84  C   UNL     1       9.122   6.234  12.664  1.00  0.00     0.023 A 
ATOM     85  C   UNL     1       8.869   6.915  11.450  1.00  0.00     0.031 A 
ATOM     86  C   UNL     1       9.183   7.004  13.840  1.00  0.00     0.131 A 
ATOM     87  C   UNL     1       8.695   8.315  11.450  1.00  0.00     0.055 A 
ATOM     88  C   UNL     1       8.989   8.384  13.839  1.00  0.00     0.041 A 
ATOM     89  F   UNL     1       9.393   6.414  15.029  1.00  0.00    -0.206 F 
ATOM     90  C   UNL     1       8.748   9.046  12.642  1.00  0.00     0.022 A 
BRANCH  87  91
ATOM     91  S   UNL     1       8.406   9.220   9.895  1.00  0.00     0.124 S 
ATOM     92  O   UNL     1       9.419   8.685   8.993  1.00  0.00    -0.237 OA
ATOM     93  O   UNL     1       7.022   8.875   9.580  1.00  0.00    -0.237 OA
ATOM     94  O   UNL     1       8.609  10.620  10.274  1.00  0.00    -0.744 OA
ENDBRANCH  87  91
ENDBRANCH  61  84
ENDBRANCH  35  36
ENDBRANCH  27  30
ENDBRANCH  25  26
ENDBRANCH  24  25
ENDBRANCH   1  24
TORSDOF 18
