REMARK SMILES O=C(NCCCCNC(=O)[C@@H]1[C@@H](C(=O)N2CCN(c3cccc(Cl)c3)CC2)[C@H]2CC[C@@H]1O2)c1ccc(-c2c3nc(c(-c4cc(S(=O)(=O)[O-])ccc4F)c4ccc([nH]4)c(-c4cc(S(=O)(=O)[O-])ccc4F)c4nc(c(-c5cc(S(=O)(=O)[O-])ccc5F)c5ccc2[nH]5)C=C4)C=C3)cc1
REMARK SMILES IDX 5 1 4 2 3 3 1 4 2 5 33 7 34 8 95 9 35 10 94 11 36 12 37 13
REMARK SMILES IDX 38 14 88 15 39 16 93 17 87 18 89 19 40 20 92 21 86 22 85 23
REMARK SMILES IDX 41 25 73 26 53 27 72 28 54 29 57 30 71 31 90 32 55 33 56 34
REMARK SMILES IDX 70 36 91 37 58 38 42 39 43 40 51 41 44 42 50 43 52 44 49 45
REMARK SMILES IDX 45 46 46 47 47 48 48 49 74 50 75 51 83 52 76 53 82 54 84 55
REMARK SMILES IDX 81 56 77 57 78 58 79 59 80 60 59 61 60 62 68 63 61 64 67 65
REMARK SMILES IDX 69 66 66 67 62 68 63 69 64 70 65 71 6 72 7 73 8 74 9 75
REMARK SMILES IDX 10 77 11 78 12 79 31 80 28 81 30 82 32 83 29 84 13 85 14 86
REMARK SMILES IDX 15 87 16 88 27 89 17 90 26 91 18 92 19 93 20 94 25 95 21 96
REMARK SMILES IDX 23 97 22 98 24 99
REMARK H PARENT 3 6 89 24 57 35 8 76
REMARK Flexibility Score: inf
ROOT
ATOM      1  C   UNL     1       5.322   2.275  -0.834  1.00  0.00     0.023 C 
ENDROOT
BRANCH   1   2
ATOM      2  C   UNL     1       4.799   1.199   0.107  1.00  0.00     0.116 C 
BRANCH   2   3
ATOM      3  N   UNL     1       3.343   1.111   0.148  1.00  0.00    -0.352 N 
ATOM      4  O   UNL     1       1.301   0.212  -0.190  1.00  0.00    -0.269 OA
ATOM      5  C   UNL     1       2.520   0.070  -0.217  1.00  0.00     0.251 C 
ATOM      6  H   UNL     1       2.883   1.913   0.486  1.00  0.00     0.163 HD
BRANCH   5   7
ATOM      7  C   UNL     1       3.119  -1.199  -0.672  1.00  0.00     0.039 A 
ATOM      8  C   UNL     1       4.147  -1.789   0.065  1.00  0.00     0.014 A 
ATOM      9  C   UNL     1       2.688  -1.774  -1.870  1.00  0.00     0.014 A 
ATOM     10  C   UNL     1       4.867  -2.838  -0.486  1.00  0.00     0.010 A 
ATOM     11  C   UNL     1       3.345  -2.902  -2.369  1.00  0.00     0.010 A 
ATOM     12  C   UNL     1       4.462  -3.422  -1.698  1.00  0.00    -0.014 A 
BRANCH  12  13
ATOM     13  C   UNL     1       5.177  -4.630  -2.182  1.00  0.00     0.031 A 
ATOM     14  C   UNL     1       5.946  -4.624  -3.474  1.00  0.00     0.074 A 
ATOM     15  C   UNL     1       5.148  -5.731  -1.404  1.00  0.00     0.049 A 
ATOM     16  N   UNL     1       6.625  -5.596  -4.027  1.00  0.00    -0.248 NA
ATOM     17  C   UNL     1       5.949  -3.374  -4.250  1.00  0.00     0.031 C 
ATOM     18  C   UNL     1       4.424  -5.840  -0.132  1.00  0.00     0.029 A 
ATOM     19  N   UNL     1       5.746  -6.955  -1.546  1.00  0.00    -0.354 N 
ATOM     20  C   UNL     1       7.116  -5.089  -5.226  1.00  0.00     0.074 A 
ATOM     21  C   UNL     1       6.645  -3.724  -5.325  1.00  0.00     0.031 C 
ATOM     22  C   UNL     1       4.662  -7.041   0.410  1.00  0.00     0.029 A 
ATOM     23  C   UNL     1       5.478  -7.819  -0.510  1.00  0.00     0.049 A 
ATOM     24  H   UNL     1       6.313  -7.192  -2.315  1.00  0.00     0.167 HD
ATOM     25  C   UNL     1       7.887  -5.713  -6.151  1.00  0.00     0.034 A 
ATOM     26  C   UNL     1       5.820  -9.109  -0.334  1.00  0.00     0.034 A 
ATOM     27  C   UNL     1       8.360  -7.072  -6.019  1.00  0.00     0.049 A 
ATOM     28  C   UNL     1       6.651  -9.778  -1.393  1.00  0.00     0.074 A 
ATOM     29  C   UNL     1       9.195  -7.779  -6.867  1.00  0.00     0.029 A 
ATOM     30  N   UNL     1       8.030  -7.934  -4.980  1.00  0.00    -0.354 N 
ATOM     31  N   UNL     1       7.130  -9.271  -2.505  1.00  0.00    -0.248 NA
ATOM     32  C   UNL     1       6.983 -11.190  -1.176  1.00  0.00     0.031 C 
ATOM     33  C   UNL     1       9.315  -9.085  -6.378  1.00  0.00     0.029 A 
ATOM     34  C   UNL     1       8.612  -9.176  -5.188  1.00  0.00     0.049 A 
ATOM     35  H   UNL     1       7.466  -7.697  -4.209  1.00  0.00     0.167 HD
ATOM     36  C   UNL     1       7.829 -10.304  -3.118  1.00  0.00     0.074 A 
ATOM     37  C   UNL     1       7.736 -11.449  -2.235  1.00  0.00     0.031 C 
ATOM     38  C   UNL     1       8.483 -10.312  -4.307  1.00  0.00     0.034 A 
BRANCH  25  39
ATOM     39  C   UNL     1       8.230  -4.961  -7.413  1.00  0.00     0.023 A 
ATOM     40  C   UNL     1       9.092  -3.851  -7.413  1.00  0.00     0.031 A 
ATOM     41  C   UNL     1       7.708  -5.391  -8.648  1.00  0.00     0.131 A 
ATOM     42  C   UNL     1       9.378  -3.188  -8.618  1.00  0.00     0.055 A 
ATOM     43  C   UNL     1       8.043  -4.764  -9.849  1.00  0.00     0.041 A 
ATOM     44  F   UNL     1       6.866  -6.435  -8.705  1.00  0.00    -0.206 F 
ATOM     45  C   UNL     1       8.878  -3.651  -9.838  1.00  0.00     0.022 A 
BRANCH  42  46
ATOM     46  S   UNL     1      10.350  -1.657  -8.563  1.00  0.00     0.124 S 
ATOM     47  O   UNL     1       9.504  -0.799  -7.737  1.00  0.00    -0.237 OA
ATOM     48  O   UNL     1      11.600  -2.098  -7.954  1.00  0.00    -0.237 OA
ATOM     49  O   UNL     1      10.447  -1.260  -9.966  1.00  0.00    -0.744 OA
ENDBRANCH  42  46
ENDBRANCH  25  39
BRANCH  26  50
ATOM     50  C   UNL     1       5.327  -9.863   0.853  1.00  0.00     0.023 A 
ATOM     51  C   UNL     1       6.217 -10.405   1.791  1.00  0.00     0.031 A 
ATOM     52  C   UNL     1       3.950 -10.085   1.044  1.00  0.00     0.131 A 
ATOM     53  C   UNL     1       5.725 -11.179   2.853  1.00  0.00     0.055 A 
ATOM     54  C   UNL     1       3.462 -10.803   2.135  1.00  0.00     0.041 A 
ATOM     55  F   UNL     1       3.054  -9.586   0.177  1.00  0.00    -0.206 F 
ATOM     56  C   UNL     1       4.353 -11.370   3.039  1.00  0.00     0.022 A 
BRANCH  53  57
ATOM     57  S   UNL     1       6.912 -12.025   3.931  1.00  0.00     0.124 S 
ATOM     58  O   UNL     1       7.723 -12.758   2.965  1.00  0.00    -0.237 OA
ATOM     59  O   UNL     1       7.565 -10.903   4.598  1.00  0.00    -0.237 OA
ATOM     60  O   UNL     1       6.064 -12.851   4.788  1.00  0.00    -0.744 OA
ENDBRANCH  53  57
ENDBRANCH  26  50
BRANCH  38  61
ATOM     61  C   UNL     1       9.155 -11.604  -4.692  1.00  0.00     0.023 A 
ATOM     62  C   UNL     1       8.405 -12.752  -5.003  1.00  0.00     0.031 A 
ATOM     63  C   UNL     1      10.556 -11.700  -4.707  1.00  0.00     0.131 A 
ATOM     64  C   UNL     1       9.061 -13.965  -5.253  1.00  0.00     0.055 A 
ATOM     65  C   UNL     1      11.204 -12.896  -5.016  1.00  0.00     0.041 A 
ATOM     66  F   UNL     1      11.318 -10.634  -4.414  1.00  0.00    -0.206 F 
ATOM     67  C   UNL     1      10.456 -14.041  -5.277  1.00  0.00     0.022 A 
BRANCH  64  68
ATOM     68  S   UNL     1       8.063 -15.466  -5.451  1.00  0.00     0.124 S 
ATOM     69  O   UNL     1       7.365 -15.537  -4.171  1.00  0.00    -0.237 OA
ATOM     70  O   UNL     1       7.238 -15.143  -6.610  1.00  0.00    -0.237 OA
ATOM     71  O   UNL     1       9.059 -16.513  -5.672  1.00  0.00    -0.744 OA
ENDBRANCH  64  68
ENDBRANCH  38  61
ENDBRANCH  12  13
ENDBRANCH   5   7
ENDBRANCH   2   3
ENDBRANCH   1   2
BRANCH   1  72
ATOM     72  C   UNL     1       4.864   3.691  -0.526  1.00  0.00     0.023 C 
BRANCH  72  73
ATOM     73  C   UNL     1       4.921   4.103   0.936  1.00  0.00     0.116 C 
BRANCH  73  74
ATOM     74  N   UNL     1       6.244   4.138   1.534  1.00  0.00    -0.356 N 
ATOM     75  C   UNL     1       6.736   4.844   2.593  1.00  0.00     0.226 C 
ATOM     76  H   UNL     1       6.901   3.549   1.099  1.00  0.00     0.163 HD
ATOM     77  O   UNL     1       7.861   4.520   2.993  1.00  0.00    -0.275 OA
BRANCH  75  78
ATOM     78  C   UNL     1       6.048   6.050   3.240  1.00  0.00     0.122 C 
ATOM     79  C   UNL     1       4.531   6.002   3.383  1.00  0.00     0.122 C 
ATOM     80  C   UNL     1       6.257   7.268   2.332  1.00  0.00     0.132 C 
ATOM     81  C   UNL     1       4.094   7.197   2.506  1.00  0.00     0.132 C 
ATOM     82  C   UNL     1       5.945   8.569   3.076  1.00  0.00     0.035 C 
ATOM     83  O   UNL     1       5.101   7.181   1.461  1.00  0.00    -0.373 OA
ATOM     84  C   UNL     1       4.414   8.572   3.087  1.00  0.00     0.035 C 
BRANCH  79  85
ATOM     85  C   UNL     1       3.937   6.138   4.771  1.00  0.00     0.229 C 
ATOM     86  O   UNL     1       4.362   6.939   5.598  1.00  0.00    -0.274 OA
ATOM     87  N   UNL     1       2.732   5.477   4.928  1.00  0.00    -0.339 N 
ATOM     88  C   UNL     1       1.547   6.204   5.382  1.00  0.00     0.141 C 
ATOM     89  C   UNL     1       2.502   4.063   4.598  1.00  0.00     0.141 C 
ATOM     90  C   UNL     1       0.421   6.095   4.322  1.00  0.00     0.138 C 
ATOM     91  C   UNL     1       1.376   3.900   3.564  1.00  0.00     0.138 C 
ATOM     92  N   UNL     1       0.198   4.685   3.960  1.00  0.00    -0.368 N 
BRANCH  92  93
ATOM     93  C   UNL     1      -1.026   4.091   4.186  1.00  0.00     0.038 A 
ATOM     94  C   UNL     1      -1.145   2.915   4.941  1.00  0.00     0.026 A 
ATOM     95  C   UNL     1      -2.200   4.651   3.666  1.00  0.00     0.046 A 
ATOM     96  C   UNL     1      -2.390   2.326   5.183  1.00  0.00     0.004 A 
ATOM     97  C   UNL     1      -3.442   4.055   3.890  1.00  0.00     0.043 A 
ATOM     98  C   UNL     1      -3.543   2.896   4.653  1.00  0.00     0.020 A 
ATOM     99  Cl  UNL     1      -4.862   4.758   3.215  1.00  0.00    -0.084 Cl
ENDBRANCH  92  93
ENDBRANCH  79  85
ENDBRANCH  75  78
ENDBRANCH  73  74
ENDBRANCH  72  73
ENDBRANCH   1  72
TORSDOF 16
