REMARK SMILES O=C(CC[C@H]1CCCC[N@@H+]1C[C@@H]1COc2ccccc21)NCCCCNC(=O)c1ccc(-c2c3nc(c(-c4cc(S(=O)(=O)[O-])ccc4F)c4ccc([nH]4)c(-c4cc(S(=O)(=O)[O-])ccc4F)c4nc(c(-c5cc(S(=O)(=O)[O-])ccc5F)c5ccc2[nH]5)C=C4)C=C3)cc1
REMARK SMILES IDX 23 1 22 2 21 3 1 4 2 5 3 7 4 8 5 9 6 10 10 11 7 12 9 13 8 15
REMARK SMILES IDX 11 16 12 17 13 18 20 19 14 20 15 21 19 22 16 23 18 24 17 25
REMARK SMILES IDX 24 26 25 27 26 28 27 29 28 31 29 32 30 33 91 34 31 35 90 36
REMARK SMILES IDX 32 37 33 38 34 39 84 40 35 41 89 42 83 43 85 44 36 45 88 46
REMARK SMILES IDX 82 47 81 48 37 50 69 51 49 52 68 53 50 54 53 55 67 56 86 57
REMARK SMILES IDX 51 58 52 59 66 61 87 62 54 63 38 64 39 65 47 66 40 67 46 68
REMARK SMILES IDX 48 69 45 70 41 71 42 72 43 73 44 74 70 75 71 76 79 77 72 78
REMARK SMILES IDX 78 79 80 80 77 81 73 82 74 83 75 84 76 85 55 86 56 87 64 88
REMARK SMILES IDX 57 89 63 90 65 91 62 92 58 93 59 94 60 95 61 96
REMARK H PARENT 21 6 10 14 26 30 85 49 53 60
REMARK Flexibility Score: inf
ROOT
ATOM      1  C   UNL     1      -1.888   0.175  -0.325  1.00  0.00     0.023 C 
ENDROOT
BRANCH   1   2
ATOM      2  C   UNL     1      -1.705   0.165  -1.847  1.00  0.00     0.116 C 
BRANCH   2   3
ATOM      3  N   UNL     1      -0.332   0.208  -2.306  1.00  0.00    -0.356 N 
ATOM      4  O   UNL     1      -0.853   0.312  -4.544  1.00  0.00    -0.275 OA
ATOM      5  C   UNL     1      -0.011   0.243  -3.652  1.00  0.00     0.220 C 
ATOM      6  H   UNL     1       0.394   0.213  -1.641  1.00  0.00     0.163 HD
BRANCH   5   7
ATOM      7  C   UNL     1       1.470   0.107  -3.955  1.00  0.00     0.106 C 
BRANCH   7   8
ATOM      8  C   UNL     1       2.189   1.328  -4.530  1.00  0.00     0.075 C 
BRANCH   8   9
ATOM      9  C   UNL     1       2.358   2.591  -3.639  1.00  0.00     0.184 C 
ATOM     10  C   UNL     1       1.773   3.827  -4.370  1.00  0.00     0.065 C 
ATOM     11  N   UNL     1       1.853   2.388  -2.265  1.00  0.00    -0.332 N 
ATOM     12  C   UNL     1       0.258   3.790  -4.395  1.00  0.00     0.012 C 
ATOM     13  C   UNL     1       0.800   3.376  -1.931  1.00  0.00     0.262 C 
ATOM     14  H   UNL     1       1.477   1.440  -2.274  1.00  0.00     0.348 HD
ATOM     15  C   UNL     1      -0.288   3.574  -2.995  1.00  0.00     0.062 C 
BRANCH  11  16
ATOM     16  C   UNL     1       2.899   2.439  -1.201  1.00  0.00     0.274 C 
BRANCH  16  17
ATOM     17  C   UNL     1       3.926   1.294  -0.975  1.00  0.00     0.116 C 
ATOM     18  C   UNL     1       5.071   1.181  -1.993  1.00  0.00     0.244 C 
ATOM     19  C   UNL     1       3.434  -0.107  -0.970  1.00  0.00     0.006 A 
ATOM     20  O   UNL     1       5.184  -0.174  -2.486  1.00  0.00    -0.492 OA
ATOM     21  C   UNL     1       4.188  -0.865  -1.855  1.00  0.00     0.123 A 
ATOM     22  C   UNL     1       2.400  -0.690  -0.254  1.00  0.00     0.008 A 
ATOM     23  C   UNL     1       3.904  -2.192  -2.112  1.00  0.00     0.047 A 
ATOM     24  C   UNL     1       2.088  -2.031  -0.507  1.00  0.00     0.001 A 
ATOM     25  C   UNL     1       2.828  -2.775  -1.442  1.00  0.00     0.004 A 
ENDBRANCH  16  17
ENDBRANCH  11  16
ENDBRANCH   8   9
ENDBRANCH   7   8
ENDBRANCH   5   7
ENDBRANCH   2   3
ENDBRANCH   1   2
BRANCH   1  26
ATOM     26  C   UNL     1      -1.538   1.463   0.434  1.00  0.00     0.023 C 
BRANCH  26  27
ATOM     27  C   UNL     1      -2.209   2.762  -0.027  1.00  0.00     0.116 C 
BRANCH  27  28
ATOM     28  N   UNL     1      -3.633   2.811   0.220  1.00  0.00    -0.352 N 
ATOM     29  C   UNL     1      -4.427   3.830   0.698  1.00  0.00     0.251 C 
ATOM     30  H   UNL     1      -4.115   1.979   0.011  1.00  0.00     0.163 HD
ATOM     31  O   UNL     1      -5.622   3.604   0.859  1.00  0.00    -0.269 OA
BRANCH  29  32
ATOM     32  C   UNL     1      -3.884   5.169   1.067  1.00  0.00     0.039 A 
ATOM     33  C   UNL     1      -4.387   5.769   2.228  1.00  0.00     0.014 A 
ATOM     34  C   UNL     1      -2.969   5.879   0.282  1.00  0.00     0.014 A 
ATOM     35  C   UNL     1      -3.944   7.036   2.630  1.00  0.00     0.010 A 
ATOM     36  C   UNL     1      -2.495   7.133   0.706  1.00  0.00     0.010 A 
ATOM     37  C   UNL     1      -2.969   7.723   1.890  1.00  0.00    -0.014 A 
BRANCH  37  38
ATOM     38  C   UNL     1      -2.434   9.031   2.379  1.00  0.00     0.031 A 
ATOM     39  C   UNL     1      -2.716  10.316   1.644  1.00  0.00     0.074 A 
ATOM     40  C   UNL     1      -1.675   9.065   3.493  1.00  0.00     0.049 A 
ATOM     41  N   UNL     1      -2.311  11.533   1.917  1.00  0.00    -0.248 NA
ATOM     42  C   UNL     1      -3.550  10.217   0.440  1.00  0.00     0.031 C 
ATOM     43  C   UNL     1      -1.312   7.898   4.300  1.00  0.00     0.029 A 
ATOM     44  N   UNL     1      -1.067  10.115   4.141  1.00  0.00    -0.354 N 
ATOM     45  C   UNL     1      -2.841  12.348   0.921  1.00  0.00     0.074 A 
ATOM     46  C   UNL     1      -3.554  11.473   0.011  1.00  0.00     0.031 C 
ATOM     47  C   UNL     1      -0.559   8.297   5.337  1.00  0.00     0.029 A 
ATOM     48  C   UNL     1      -0.345   9.739   5.252  1.00  0.00     0.049 A 
ATOM     49  H   UNL     1      -1.141  11.049   3.839  1.00  0.00     0.167 HD
ATOM     50  C   UNL     1      -2.756  13.697   0.785  1.00  0.00     0.034 A 
ATOM     51  C   UNL     1       0.417  10.461   6.099  1.00  0.00     0.034 A 
ATOM     52  C   UNL     1      -2.041  14.566   1.693  1.00  0.00     0.049 A 
ATOM     53  C   UNL     1       0.539  11.951   5.899  1.00  0.00     0.074 A 
ATOM     54  C   UNL     1      -1.931  15.947   1.658  1.00  0.00     0.029 A 
ATOM     55  N   UNL     1      -1.304  14.144   2.791  1.00  0.00    -0.354 N 
ATOM     56  N   UNL     1       0.001  12.706   4.970  1.00  0.00    -0.248 NA
ATOM     57  C   UNL     1       1.361  12.686   6.870  1.00  0.00     0.031 C 
ATOM     58  C   UNL     1      -1.074  16.352   2.688  1.00  0.00     0.029 A 
ATOM     59  C   UNL     1      -0.710  15.232   3.418  1.00  0.00     0.049 A 
ATOM     60  H   UNL     1      -1.214  13.208   3.084  1.00  0.00     0.167 HD
ATOM     61  C   UNL     1       0.398  14.009   5.264  1.00  0.00     0.074 A 
ATOM     62  C   UNL     1       1.206  13.938   6.463  1.00  0.00     0.031 C 
ATOM     63  C   UNL     1       0.111  15.160   4.604  1.00  0.00     0.034 A 
BRANCH  50  64
ATOM     64  C   UNL     1      -3.434  14.319  -0.416  1.00  0.00     0.023 A 
ATOM     65  C   UNL     1      -4.829  14.262  -0.588  1.00  0.00     0.031 A 
ATOM     66  C   UNL     1      -2.677  14.968  -1.407  1.00  0.00     0.131 A 
ATOM     67  C   UNL     1      -5.413  14.778  -1.755  1.00  0.00     0.055 A 
ATOM     68  C   UNL     1      -3.273  15.550  -2.528  1.00  0.00     0.041 A 
ATOM     69  F   UNL     1      -1.340  15.042  -1.308  1.00  0.00    -0.206 F 
ATOM     70  C   UNL     1      -4.648  15.443  -2.715  1.00  0.00     0.022 A 
BRANCH  67  71
ATOM     71  S   UNL     1      -7.168  14.441  -2.066  1.00  0.00     0.124 S 
ATOM     72  O   UNL     1      -7.196  12.981  -2.046  1.00  0.00    -0.237 OA
ATOM     73  O   UNL     1      -7.820  15.109  -0.946  1.00  0.00    -0.237 OA
ATOM     74  O   UNL     1      -7.405  15.043  -3.377  1.00  0.00    -0.744 OA
ENDBRANCH  67  71
ENDBRANCH  50  64
BRANCH  51  75
ATOM     75  C   UNL     1       1.158   9.786   7.204  1.00  0.00     0.023 A 
ATOM     76  C   UNL     1       0.863  10.056   8.550  1.00  0.00     0.031 A 
ATOM     77  C   UNL     1       2.209   8.894   6.924  1.00  0.00     0.131 A 
ATOM     78  C   UNL     1       1.640   9.476   9.565  1.00  0.00     0.055 A 
ATOM     79  C   UNL     1       2.943   8.278   7.938  1.00  0.00     0.041 A 
ATOM     80  F   UNL     1       2.531   8.600   5.654  1.00  0.00    -0.206 F 
ATOM     81  C   UNL     1       2.669   8.578   9.269  1.00  0.00     0.022 A 
BRANCH  78  82
ATOM     82  S   UNL     1       1.342   9.977  11.282  1.00  0.00     0.124 S 
ATOM     83  O   UNL     1       1.560  11.417  11.213  1.00  0.00    -0.237 OA
ATOM     84  O   UNL     1      -0.036   9.545  11.488  1.00  0.00    -0.237 OA
ATOM     85  O   UNL     1       2.346   9.228  12.034  1.00  0.00    -0.744 OA
ENDBRANCH  78  82
ENDBRANCH  51  75
BRANCH  63  86
ATOM     86  C   UNL     1       0.646  16.444   5.194  1.00  0.00     0.023 A 
ATOM     87  C   UNL     1       2.024  16.724   5.240  1.00  0.00     0.031 A 
ATOM     88  C   UNL     1      -0.238  17.395   5.736  1.00  0.00     0.131 A 
ATOM     89  C   UNL     1       2.480  17.897   5.862  1.00  0.00     0.055 A 
ATOM     90  C   UNL     1       0.218  18.587   6.302  1.00  0.00     0.041 A 
ATOM     91  F   UNL     1      -1.563  17.180   5.724  1.00  0.00    -0.206 F 
ATOM     92  C   UNL     1       1.585  18.837   6.379  1.00  0.00     0.022 A 
BRANCH  89  93
ATOM     93  S   UNL     1       4.266  18.139   6.068  1.00  0.00     0.124 S 
ATOM     94  O   UNL     1       4.645  16.963   6.844  1.00  0.00    -0.237 OA
ATOM     95  O   UNL     1       4.739  18.171   4.688  1.00  0.00    -0.237 OA
ATOM     96  O   UNL     1       4.361  19.411   6.783  1.00  0.00    -0.744 OA
ENDBRANCH  89  93
ENDBRANCH  63  86
ENDBRANCH  37  38
ENDBRANCH  29  32
ENDBRANCH  27  28
ENDBRANCH  26  27
ENDBRANCH   1  26
TORSDOF 18
