REMARK SMILES Cc1ccc(S(=O)(=O)n2cc(C(=O)C(=O)NCC(=O)NCCCCNC(=O)c3ccc(-c4c5nc(c(-c6cc(S(=O)(=O)[O-])ccc6F)c6ccc([nH]6)c(-c6cc(S(=O)(=O)[O-])ccc6F)c6nc(c(-c7cc(S(=O)(=O)[O-])ccc7F)c7ccc4[nH]7)C=C6)C=C5)cc3)c3ccccc32)cc1
REMARK SMILES IDX 21 1 20 2 18 3 19 4 17 6 16 7 14 8 15 9 12 11 13 12 11 13
REMARK SMILES IDX 9 14 10 15 96 16 91 17 95 18 92 19 94 20 93 21 6 22 7 23
REMARK SMILES IDX 8 24 5 25 1 26 2 27 3 28 98 29 4 30 97 31 22 32 23 33 24 34
REMARK SMILES IDX 25 35 26 36 27 38 28 39 29 40 90 41 30 42 89 43 31 44 32 45
REMARK SMILES IDX 33 46 83 47 34 48 88 49 82 50 84 51 35 52 87 53 81 54 80 55
REMARK SMILES IDX 36 57 68 58 48 59 67 60 49 61 52 62 66 63 85 64 50 65 51 66
REMARK SMILES IDX 65 68 86 69 53 70 37 71 38 72 46 73 39 74 45 75 47 76 44 77
REMARK SMILES IDX 40 78 41 79 42 80 43 81 69 82 70 83 78 84 71 85 77 86 79 87
REMARK SMILES IDX 76 88 72 89 73 90 74 91 75 92 54 93 55 94 63 95 56 96 62 97
REMARK SMILES IDX 64 98 61 99 57 100 58 101 59 102 60 103
REMARK H PARENT 20 5 16 10 25 37 84 56 52 67
REMARK Flexibility Score: inf
ROOT
ATOM      1  C   UNL     1      -9.374   4.726   0.962  1.00  0.00     0.116 C 
ENDROOT
BRANCH   1   2
ATOM      2  N   UNL     1      -9.911   5.750   1.851  1.00  0.00    -0.355 N 
ATOM      3  C   UNL     1      -9.261   6.465   2.816  1.00  0.00     0.239 C 
ATOM      4  O   UNL     1      -9.895   7.289   3.478  1.00  0.00    -0.273 OA
ATOM      5  H   UNL     1     -10.868   5.952   1.742  1.00  0.00     0.163 HD
BRANCH   3   6
ATOM      6  C   UNL     1      -7.751   6.292   2.995  1.00  0.00     0.216 C 
BRANCH   6   7
ATOM      7  N   UNL     1      -7.377   4.938   3.382  1.00  0.00    -0.340 N 
ATOM      8  C   UNL     1      -6.441   4.080   2.838  1.00  0.00     0.292 C 
ATOM      9  O   UNL     1      -6.265   2.995   3.385  1.00  0.00    -0.265 OA
ATOM     10  H   UNL     1      -7.869   4.577   4.154  1.00  0.00     0.164 HD
BRANCH   8  11
ATOM     11  C   UNL     1      -5.593   4.499   1.608  1.00  0.00     0.252 C 
ATOM     12  O   UNL     1      -5.358   5.700   1.471  1.00  0.00    -0.283 OA
BRANCH  11  13
ATOM     13  C   UNL     1      -4.996   3.510   0.699  1.00  0.00     0.054 A 
ATOM     14  N   UNL     1      -4.190   1.605  -0.156  1.00  0.00    -0.240 N 
ATOM     15  C   UNL     1      -4.823   2.157   0.932  1.00  0.00     0.117 A 
ATOM     16  C   UNL     1      -3.899   2.566  -1.101  1.00  0.00     0.065 A 
ATOM     17  C   UNL     1      -4.424   3.767  -0.601  1.00  0.00     0.012 A 
ATOM     18  C   UNL     1      -3.234   2.501  -2.340  1.00  0.00     0.028 A 
ATOM     19  C   UNL     1      -4.308   4.927  -1.398  1.00  0.00     0.011 A 
ATOM     20  C   UNL     1      -3.111   3.674  -3.088  1.00  0.00     0.002 A 
ATOM     21  C   UNL     1      -3.650   4.870  -2.631  1.00  0.00     0.001 A 
BRANCH  14  22
ATOM     22  S   UNL     1      -3.590   0.010  -0.159  1.00  0.00     0.268 S 
ATOM     23  O   UNL     1      -3.805  -0.549  -1.486  1.00  0.00    -0.201 OA
ATOM     24  O   UNL     1      -4.077  -0.629   1.046  1.00  0.00    -0.201 OA
BRANCH  22  25
ATOM     25  C   UNL     1      -1.815   0.088   0.026  1.00  0.00     0.088 A 
ATOM     26  C   UNL     1       2.486  -0.017   0.033  1.00  0.00     0.044 C 
ATOM     27  C   UNL     1       0.988   0.024   0.067  1.00  0.00    -0.051 A 
ATOM     28  C   UNL     1       0.258  -1.168  -0.007  1.00  0.00     0.005 A 
ATOM     29  C   UNL     1       0.300   1.242   0.160  1.00  0.00     0.005 A 
ATOM     30  C   UNL     1      -1.136  -1.137  -0.033  1.00  0.00     0.022 A 
ATOM     31  C   UNL     1      -1.099   1.278   0.152  1.00  0.00     0.022 A 
ENDBRANCH  22  25
ENDBRANCH  14  22
ENDBRANCH  11  13
ENDBRANCH   8  11
ENDBRANCH   6   7
ENDBRANCH   3   6
ENDBRANCH   1   2
BRANCH   1  32
ATOM     32  C   UNL     1      -9.709   3.316   1.461  1.00  0.00     0.023 C 
BRANCH  32  33
ATOM     33  C   UNL     1     -11.195   2.970   1.419  1.00  0.00     0.023 C 
BRANCH  33  34
ATOM     34  C   UNL     1     -11.797   2.922   0.022  1.00  0.00     0.116 C 
BRANCH  34  35
ATOM     35  N   UNL     1     -11.759   1.622  -0.637  1.00  0.00    -0.352 N 
ATOM     36  C   UNL     1     -12.463   1.184  -1.751  1.00  0.00     0.251 C 
ATOM     37  H   UNL     1     -11.149   0.962  -0.235  1.00  0.00     0.163 HD
ATOM     38  O   UNL     1     -12.488   0.001  -2.083  1.00  0.00    -0.269 OA
BRANCH  36  39
ATOM     39  C   UNL     1     -13.014   2.193  -2.692  1.00  0.00     0.039 A 
ATOM     40  C   UNL     1     -12.596   2.077  -4.028  1.00  0.00     0.014 A 
ATOM     41  C   UNL     1     -13.516   3.393  -2.216  1.00  0.00     0.014 A 
ATOM     42  C   UNL     1     -12.355   3.228  -4.760  1.00  0.00     0.010 A 
ATOM     43  C   UNL     1     -13.111   4.534  -2.852  1.00  0.00     0.010 A 
ATOM     44  C   UNL     1     -12.473   4.436  -4.090  1.00  0.00    -0.014 A 
BRANCH  44  45
ATOM     45  C   UNL     1     -12.041   5.708  -4.612  1.00  0.00     0.031 A 
ATOM     46  C   UNL     1     -13.074   6.517  -5.262  1.00  0.00     0.074 A 
ATOM     47  C   UNL     1     -10.806   6.142  -4.285  1.00  0.00     0.049 A 
ATOM     48  N   UNL     1     -12.842   7.521  -6.017  1.00  0.00    -0.248 NA
ATOM     49  C   UNL     1     -14.499   6.206  -5.147  1.00  0.00     0.031 C 
ATOM     50  C   UNL     1     -10.241   7.481  -4.388  1.00  0.00     0.029 A 
ATOM     51  N   UNL     1      -9.710   5.330  -3.999  1.00  0.00    -0.354 N 
ATOM     52  C   UNL     1     -14.038   8.180  -6.201  1.00  0.00     0.074 A 
ATOM     53  C   UNL     1     -15.048   7.260  -5.752  1.00  0.00     0.031 C 
ATOM     54  C   UNL     1      -8.900   7.377  -4.464  1.00  0.00     0.029 A 
ATOM     55  C   UNL     1      -8.591   5.961  -4.574  1.00  0.00     0.049 A 
ATOM     56  H   UNL     1      -9.717   4.484  -3.496  1.00  0.00     0.167 HD
ATOM     57  C   UNL     1     -13.983   9.491  -6.558  1.00  0.00     0.034 A 
ATOM     58  C   UNL     1      -7.989   5.372  -5.652  1.00  0.00     0.034 A 
ATOM     59  C   UNL     1     -12.589   9.863  -6.824  1.00  0.00     0.049 A 
ATOM     60  C   UNL     1      -8.153   6.200  -6.915  1.00  0.00     0.074 A 
ATOM     61  C   UNL     1     -11.613  10.496  -6.072  1.00  0.00     0.029 A 
ATOM     62  N   UNL     1     -11.924   9.214  -7.855  1.00  0.00    -0.354 N 
ATOM     63  N   UNL     1      -9.064   7.122  -7.100  1.00  0.00    -0.248 NA
ATOM     64  C   UNL     1      -7.250   6.081  -8.048  1.00  0.00     0.031 C 
ATOM     65  C   UNL     1     -10.346  10.164  -6.639  1.00  0.00     0.029 A 
ATOM     66  C   UNL     1     -10.556   9.365  -7.751  1.00  0.00     0.049 A 
ATOM     67  H   UNL     1     -12.372   8.709  -8.571  1.00  0.00     0.167 HD
ATOM     68  C   UNL     1      -8.880   7.737  -8.319  1.00  0.00     0.074 A 
ATOM     69  C   UNL     1      -7.726   7.035  -8.867  1.00  0.00     0.031 C 
ATOM     70  C   UNL     1      -9.688   8.762  -8.761  1.00  0.00     0.034 A 
BRANCH  57  71
ATOM     71  C   UNL     1     -15.098  10.499  -6.417  1.00  0.00     0.023 A 
ATOM     72  C   UNL     1     -14.747  11.865  -6.413  1.00  0.00     0.031 A 
ATOM     73  C   UNL     1     -16.471  10.238  -6.230  1.00  0.00     0.131 A 
ATOM     74  C   UNL     1     -15.694  12.875  -6.174  1.00  0.00     0.055 A 
ATOM     75  C   UNL     1     -17.416  11.242  -5.973  1.00  0.00     0.041 A 
ATOM     76  F   UNL     1     -16.989   9.010  -6.318  1.00  0.00    -0.206 F 
ATOM     77  C   UNL     1     -17.030  12.571  -5.938  1.00  0.00     0.022 A 
BRANCH  74  78
ATOM     78  S   UNL     1     -15.141  14.599  -6.166  1.00  0.00     0.124 S 
ATOM     79  O   UNL     1     -14.194  14.610  -5.056  1.00  0.00    -0.237 OA
ATOM     80  O   UNL     1     -14.575  14.748  -7.502  1.00  0.00    -0.237 OA
ATOM     81  O   UNL     1     -16.375  15.348  -5.933  1.00  0.00    -0.744 OA
ENDBRANCH  74  78
ENDBRANCH  57  71
BRANCH  58  82
ATOM     82  C   UNL     1      -7.995   3.870  -5.534  1.00  0.00     0.023 A 
ATOM     83  C   UNL     1      -7.474   3.338  -4.325  1.00  0.00     0.031 A 
ATOM     84  C   UNL     1      -8.893   3.073  -6.256  1.00  0.00     0.131 A 
ATOM     85  C   UNL     1      -8.063   2.204  -3.741  1.00  0.00     0.055 A 
ATOM     86  C   UNL     1      -9.379   1.867  -5.725  1.00  0.00     0.041 A 
ATOM     87  F   UNL     1      -9.429   3.511  -7.405  1.00  0.00    -0.206 F 
ATOM     88  C   UNL     1      -9.020   1.466  -4.434  1.00  0.00     0.022 A 
BRANCH  85  89
ATOM     89  S   UNL     1      -7.840   1.944  -1.949  1.00  0.00     0.124 S 
ATOM     90  O   UNL     1      -6.606   1.175  -1.888  1.00  0.00    -0.237 OA
ATOM     91  O   UNL     1      -7.771   3.308  -1.422  1.00  0.00    -0.237 OA
ATOM     92  O   UNL     1      -9.043   1.226  -1.532  1.00  0.00    -0.744 OA
ENDBRANCH  85  89
ENDBRANCH  58  82
BRANCH  70  93
ATOM     93  C   UNL     1      -9.753   9.336 -10.179  1.00  0.00     0.023 A 
ATOM     94  C   UNL     1      -8.843   9.006 -11.184  1.00  0.00     0.031 A 
ATOM     95  C   UNL     1     -10.777  10.233 -10.596  1.00  0.00     0.131 A 
ATOM     96  C   UNL     1      -8.953   9.509 -12.493  1.00  0.00     0.055 A 
ATOM     97  C   UNL     1     -10.909  10.713 -11.904  1.00  0.00     0.041 A 
ATOM     98  F   UNL     1     -11.725  10.689  -9.766  1.00  0.00    -0.206 F 
ATOM     99  C   UNL     1      -9.990  10.351 -12.869  1.00  0.00     0.022 A 
BRANCH  96 100
ATOM    100  S   UNL     1      -7.668   9.036 -13.675  1.00  0.00     0.124 S 
ATOM    101  O   UNL     1      -6.457   9.517 -13.015  1.00  0.00    -0.237 OA
ATOM    102  O   UNL     1      -7.822   7.585 -13.728  1.00  0.00    -0.237 OA
ATOM    103  O   UNL     1      -8.040   9.749 -14.894  1.00  0.00    -0.744 OA
ENDBRANCH  96 100
ENDBRANCH  70  93
ENDBRANCH  44  45
ENDBRANCH  36  39
ENDBRANCH  34  35
ENDBRANCH  33  34
ENDBRANCH  32  33
ENDBRANCH   1  32
TORSDOF 19
