REMARK SMILES Cc1ccnc(C(=O)c2[nH]c3cc(Cl)c(F)cc3c2CC(=O)NCCCCNC(=O)c2ccc(-c3c4nc(c(-c5cc(S(=O)(=O)[O-])ccc5F)c5ccc([nH]5)c(-c5cc(S(=O)(=O)[O-])ccc5F)c5nc(c(-c6cc(S(=O)(=O)[O-])ccc6F)c6ccc3[nH]6)C=C5)C=C4)cc2)c1
REMARK SMILES IDX 25 1 24 2 23 3 21 4 22 5 20 7 19 8 9 9 10 10 11 11 18 13
REMARK SMILES IDX 12 14 17 15 13 16 15 17 14 18 16 19 7 20 8 21 6 22 1 23 2 24
REMARK SMILES IDX 3 25 94 26 4 27 5 28 26 29 27 30 28 31 29 32 30 34 31 35
REMARK SMILES IDX 32 36 93 37 33 38 92 39 34 40 35 41 36 42 86 43 37 44 91 45
REMARK SMILES IDX 85 46 87 47 38 48 90 49 84 50 83 51 39 53 71 54 51 55 70 56
REMARK SMILES IDX 52 57 55 58 69 59 88 60 53 61 54 62 68 64 89 65 56 66 40 67
REMARK SMILES IDX 41 68 49 69 42 70 48 71 50 72 47 73 43 74 44 75 45 76 46 77
REMARK SMILES IDX 72 78 73 79 81 80 74 81 80 82 82 83 79 84 75 85 76 86 77 87
REMARK SMILES IDX 78 88 57 89 58 90 66 91 59 92 65 93 67 94 64 95 60 96 61 97
REMARK SMILES IDX 62 98 63 99
REMARK H PARENT 23 6 10 12 28 33 87 52 55 63
REMARK Flexibility Score: inf
ROOT
ATOM      1  C   UNL     1      -2.886  -3.692   0.782  1.00  0.00     0.023 C 
ENDROOT
BRANCH   1   2
ATOM      2  C   UNL     1      -3.029  -3.626  -0.746  1.00  0.00     0.116 C 
BRANCH   2   3
ATOM      3  N   UNL     1      -2.405  -2.486  -1.388  1.00  0.00    -0.356 N 
ATOM      4  C   UNL     1      -1.246  -2.382  -2.100  1.00  0.00     0.224 C 
ATOM      5  O   UNL     1      -1.071  -1.334  -2.731  1.00  0.00    -0.275 OA
ATOM      6  H   UNL     1      -2.902  -1.641  -1.292  1.00  0.00     0.163 HD
BRANCH   4   7
ATOM      7  C   UNL     1      -0.231  -3.505  -2.198  1.00  0.00     0.138 C 
BRANCH   7   8
ATOM      8  C   UNL     1       0.197  -4.136  -0.906  1.00  0.00    -0.002 A 
ATOM      9  C   UNL     1       1.043  -3.636   0.088  1.00  0.00     0.093 A 
ATOM     10  N   UNL     1       1.204  -4.646   1.017  1.00  0.00    -0.351 N 
ATOM     11  C   UNL     1       0.441  -5.743   0.708  1.00  0.00     0.048 A 
ATOM     12  H   UNL     1       1.795  -4.587   1.802  1.00  0.00     0.167 HD
ATOM     13  C   UNL     1      -0.146  -5.487  -0.526  1.00  0.00     0.007 A 
ATOM     14  C   UNL     1       0.241  -6.939   1.415  1.00  0.00     0.050 A 
ATOM     15  C   UNL     1      -0.928  -6.504  -1.117  1.00  0.00     0.051 A 
ATOM     16  C   UNL     1      -0.591  -7.902   0.835  1.00  0.00     0.078 A 
ATOM     17  C   UNL     1      -1.157  -7.688  -0.415  1.00  0.00     0.142 A 
ATOM     18  Cl  UNL     1      -0.901  -9.366   1.689  1.00  0.00    -0.081 Cl
ATOM     19  F   UNL     1      -1.954  -8.612  -0.976  1.00  0.00    -0.205 F 
BRANCH   9  20
ATOM     20  C   UNL     1       1.815  -2.404   0.242  1.00  0.00     0.227 C 
ATOM     21  O   UNL     1       3.009  -2.480   0.530  1.00  0.00    -0.285 OA
BRANCH  20  22
ATOM     22  C   UNL     1       1.177  -1.040   0.160  1.00  0.00     0.113 A 
ATOM     23  C   UNL     1      -2.194   0.714   0.302  1.00  0.00     0.044 C 
ATOM     24  C   UNL     1      -0.721   0.446   0.227  1.00  0.00    -0.047 A 
ATOM     25  C   UNL     1       0.153   1.505   0.002  1.00  0.00     0.023 A 
ATOM     26  C   UNL     1      -0.184  -0.840   0.373  1.00  0.00     0.036 A 
ATOM     27  C   UNL     1       1.503   1.233  -0.125  1.00  0.00     0.112 A 
ATOM     28  N   UNL     1       2.030  -0.009  -0.075  1.00  0.00    -0.253 NA
ENDBRANCH  20  22
ENDBRANCH   9  20
ENDBRANCH   7   8
ENDBRANCH   4   7
ENDBRANCH   2   3
ENDBRANCH   1   2
BRANCH   1  29
ATOM     29  C   UNL     1      -3.564  -2.594   1.618  1.00  0.00     0.023 C 
BRANCH  29  30
ATOM     30  C   UNL     1      -4.921  -2.127   1.108  1.00  0.00     0.116 C 
BRANCH  30  31
ATOM     31  N   UNL     1      -5.907  -3.183   1.089  1.00  0.00    -0.352 N 
ATOM     32  C   UNL     1      -6.795  -3.695   1.992  1.00  0.00     0.251 C 
ATOM     33  H   UNL     1      -5.949  -3.643   0.219  1.00  0.00     0.163 HD
ATOM     34  O   UNL     1      -7.516  -4.601   1.563  1.00  0.00    -0.269 OA
BRANCH  32  35
ATOM     35  C   UNL     1      -6.912  -3.291   3.420  1.00  0.00     0.039 A 
ATOM     36  C   UNL     1      -6.287  -2.197   4.021  1.00  0.00     0.014 A 
ATOM     37  C   UNL     1      -7.719  -4.123   4.221  1.00  0.00     0.014 A 
ATOM     38  C   UNL     1      -6.387  -1.997   5.395  1.00  0.00     0.010 A 
ATOM     39  C   UNL     1      -7.837  -3.917   5.590  1.00  0.00     0.010 A 
ATOM     40  C   UNL     1      -7.129  -2.880   6.184  1.00  0.00    -0.014 A 
BRANCH  40  41
ATOM     41  C   UNL     1      -7.212  -2.618   7.619  1.00  0.00     0.031 A 
ATOM     42  C   UNL     1      -7.857  -1.325   7.978  1.00  0.00     0.074 A 
ATOM     43  C   UNL     1      -6.825  -3.502   8.560  1.00  0.00     0.049 A 
ATOM     44  N   UNL     1      -7.309  -0.282   8.509  1.00  0.00    -0.248 NA
ATOM     45  C   UNL     1      -9.251  -1.119   7.559  1.00  0.00     0.031 C 
ATOM     46  C   UNL     1      -6.444  -4.905   8.366  1.00  0.00     0.029 A 
ATOM     47  N   UNL     1      -6.785  -3.357   9.916  1.00  0.00    -0.354 N 
ATOM     48  C   UNL     1      -8.336   0.648   8.682  1.00  0.00     0.074 A 
ATOM     49  C   UNL     1      -9.458   0.145   7.931  1.00  0.00     0.031 C 
ATOM     50  C   UNL     1      -6.441  -5.537   9.562  1.00  0.00     0.029 A 
ATOM     51  C   UNL     1      -6.650  -4.553  10.609  1.00  0.00     0.049 A 
ATOM     52  H   UNL     1      -6.845  -2.482  10.363  1.00  0.00     0.167 HD
ATOM     53  C   UNL     1      -8.249   1.645   9.609  1.00  0.00     0.034 A 
ATOM     54  C   UNL     1      -6.745  -4.732  11.948  1.00  0.00     0.034 A 
ATOM     55  C   UNL     1      -6.911   1.752  10.122  1.00  0.00     0.049 A 
ATOM     56  C   UNL     1      -6.512  -3.433  12.610  1.00  0.00     0.074 A 
ATOM     57  C   UNL     1      -5.705   2.235   9.670  1.00  0.00     0.029 A 
ATOM     58  N   UNL     1      -6.657   0.966  11.215  1.00  0.00    -0.354 N 
ATOM     59  N   UNL     1      -5.359  -2.829  12.637  1.00  0.00    -0.248 NA
ATOM     60  C   UNL     1      -7.658  -2.610  12.974  1.00  0.00     0.031 C 
ATOM     61  C   UNL     1      -4.710   1.484  10.357  1.00  0.00     0.029 A 
ATOM     62  C   UNL     1      -5.340   0.595  11.232  1.00  0.00     0.049 A 
ATOM     63  H   UNL     1      -7.324   0.705  11.890  1.00  0.00     0.167 HD
ATOM     64  C   UNL     1      -5.680  -1.488  12.558  1.00  0.00     0.074 A 
ATOM     65  C   UNL     1      -7.078  -1.407  12.963  1.00  0.00     0.031 C 
ATOM     66  C   UNL     1      -4.878  -0.619  11.880  1.00  0.00     0.034 A 
BRANCH  53  67
ATOM     67  C   UNL     1      -9.423   2.235  10.367  1.00  0.00     0.023 A 
ATOM     68  C   UNL     1     -10.720   1.696  10.315  1.00  0.00     0.031 A 
ATOM     69  C   UNL     1      -9.207   3.207  11.371  1.00  0.00     0.131 A 
ATOM     70  C   UNL     1     -11.722   2.096  11.211  1.00  0.00     0.055 A 
ATOM     71  C   UNL     1     -10.189   3.561  12.306  1.00  0.00     0.041 A 
ATOM     72  F   UNL     1      -8.011   3.800  11.516  1.00  0.00    -0.206 F 
ATOM     73  C   UNL     1     -11.456   3.000  12.232  1.00  0.00     0.022 A 
BRANCH  70  74
ATOM     74  S   UNL     1     -13.395   1.410  11.066  1.00  0.00     0.124 S 
ATOM     75  O   UNL     1     -13.571   0.770  12.371  1.00  0.00    -0.237 OA
ATOM     76  O   UNL     1     -14.189   2.619  10.846  1.00  0.00    -0.237 OA
ATOM     77  O   UNL     1     -13.302   0.514   9.926  1.00  0.00    -0.744 OA
ENDBRANCH  70  74
ENDBRANCH  53  67
BRANCH  54  78
ATOM     78  C   UNL     1      -7.396  -5.850  12.664  1.00  0.00     0.023 A 
ATOM     79  C   UNL     1      -8.533  -6.453  12.097  1.00  0.00     0.031 A 
ATOM     80  C   UNL     1      -7.141  -6.088  14.026  1.00  0.00     0.131 A 
ATOM     81  C   UNL     1      -9.410  -7.197  12.897  1.00  0.00     0.055 A 
ATOM     82  C   UNL     1      -8.006  -6.854  14.816  1.00  0.00     0.041 A 
ATOM     83  F   UNL     1      -6.090  -5.516  14.632  1.00  0.00    -0.206 F 
ATOM     84  C   UNL     1      -9.159  -7.396  14.256  1.00  0.00     0.022 A 
BRANCH  81  85
ATOM     85  S   UNL     1     -10.964  -7.829  12.209  1.00  0.00     0.124 S 
ATOM     86  O   UNL     1     -10.954  -9.221  12.652  1.00  0.00    -0.237 OA
ATOM     87  O   UNL     1     -11.946  -6.969  12.861  1.00  0.00    -0.237 OA
ATOM     88  O   UNL     1     -10.804  -7.637  10.771  1.00  0.00    -0.744 OA
ENDBRANCH  81  85
ENDBRANCH  54  78
BRANCH  66  89
ATOM     89  C   UNL     1      -3.454  -1.030  11.604  1.00  0.00     0.023 A 
ATOM     90  C   UNL     1      -2.451  -0.138  12.019  1.00  0.00     0.031 A 
ATOM     91  C   UNL     1      -3.067  -2.130  10.817  1.00  0.00     0.131 A 
ATOM     92  C   UNL     1      -1.129  -0.320  11.607  1.00  0.00     0.055 A 
ATOM     93  C   UNL     1      -1.729  -2.353  10.475  1.00  0.00     0.041 A 
ATOM     94  F   UNL     1      -3.968  -2.971  10.293  1.00  0.00    -0.206 F 
ATOM     95  C   UNL     1      -0.755  -1.435  10.854  1.00  0.00     0.022 A 
BRANCH  92  96
ATOM     96  S   UNL     1       0.097   0.979  11.898  1.00  0.00     0.124 S 
ATOM     97  O   UNL     1       1.037   0.321  12.800  1.00  0.00    -0.237 OA
ATOM     98  O   UNL     1       0.597   1.238  10.549  1.00  0.00    -0.237 OA
ATOM     99  O   UNL     1      -0.676   2.069  12.486  1.00  0.00    -0.744 OA
ENDBRANCH  92  96
ENDBRANCH  66  89
ENDBRANCH  40  41
ENDBRANCH  32  35
ENDBRANCH  30  31
ENDBRANCH  29  30
ENDBRANCH   1  29
TORSDOF 17
