REMARK SMILES CC(=O)N1[C@@H](c2c(F)cccc2Cl)SC[C@H]1C(=O)NCCCCNC(=O)c1ccc(-c2c3nc(c(-c4cc(S(=O)(=O)[O-])ccc4F)c4ccc([nH]4)c(-c4cc(S(=O)(=O)[O-])ccc4F)c4nc(c(-c5cc(S(=O)(=O)[O-])ccc5F)c5ccc2[nH]5)C=C4)C=C3)cc1
REMARK SMILES IDX 22 1 21 2 20 3 19 4 17 5 18 6 16 8 4 9 5 10 14 11 15 12 2 13
REMARK SMILES IDX 1 14 3 15 6 16 7 17 12 18 8 19 9 20 11 21 13 22 10 23 23 24
REMARK SMILES IDX 24 25 25 26 26 28 27 29 28 30 89 31 29 32 88 33 30 34 31 35
REMARK SMILES IDX 32 36 82 37 33 38 87 39 81 40 83 41 34 42 86 43 80 44 79 45
REMARK SMILES IDX 35 47 67 48 47 49 66 50 48 51 51 52 65 53 84 54 49 55 50 56
REMARK SMILES IDX 64 58 85 59 52 60 36 61 37 62 45 63 38 64 44 65 46 66 43 67
REMARK SMILES IDX 39 68 40 69 41 70 42 71 68 72 69 73 77 74 70 75 76 76 78 77
REMARK SMILES IDX 75 78 71 79 72 80 73 81 74 82 53 83 54 84 62 85 55 86 61 87
REMARK SMILES IDX 63 88 60 89 56 90 57 91 58 92 59 93
REMARK H PARENT 19 7 24 27 83 46 51 57
REMARK Flexibility Score: inf
ROOT
ATOM      1  C   UNL     1       2.518  -0.213   6.640  1.00  0.00     0.023 C 
ENDROOT
BRANCH   1   2
ATOM      2  C   UNL     1       2.151  -0.615   5.208  1.00  0.00     0.023 C 
BRANCH   2   3
ATOM      3  C   UNL     1       1.356  -1.909   5.065  1.00  0.00     0.116 C 
BRANCH   3   4
ATOM      4  N   UNL     1      -0.050  -1.718   4.816  1.00  0.00    -0.354 N 
ATOM      5  C   UNL     1      -0.772  -2.047   3.708  1.00  0.00     0.243 C 
ATOM      6  O   UNL     1      -1.992  -2.193   3.865  1.00  0.00    -0.273 OA
ATOM      7  H   UNL     1      -0.557  -1.291   5.544  1.00  0.00     0.163 HD
BRANCH   5   8
ATOM      8  C   UNL     1      -0.129  -2.428   2.349  1.00  0.00     0.185 C 
ATOM      9  N   UNL     1       1.014  -1.650   1.823  1.00  0.00    -0.314 N 
ATOM     10  C   UNL     1       2.105  -2.448   1.224  1.00  0.00     0.179 C 
ATOM     11  S   UNL     1       1.343  -4.078   0.906  1.00  0.00    -0.129 SA
ATOM     12  C   UNL     1       0.173  -3.918   2.287  1.00  0.00     0.107 C 
BRANCH   9  13
ATOM     13  C   UNL     1       0.639  -0.371   1.427  1.00  0.00     0.221 C 
ATOM     14  C   UNL     1       1.028   0.111   0.054  1.00  0.00     0.114 C 
ATOM     15  O   UNL     1      -0.132   0.309   2.107  1.00  0.00    -0.275 OA
ENDBRANCH   9  13
BRANCH  10  16
ATOM     16  C   UNL     1       3.400  -2.462   2.046  1.00  0.00     0.039 A 
ATOM     17  C   UNL     1       3.688  -3.440   3.019  1.00  0.00     0.130 A 
ATOM     18  C   UNL     1       4.381  -1.455   1.914  1.00  0.00     0.050 A 
ATOM     19  F   UNL     1       2.859  -4.465   3.248  1.00  0.00    -0.207 F 
ATOM     20  C   UNL     1       4.808  -3.384   3.854  1.00  0.00     0.040 A 
ATOM     21  C   UNL     1       5.486  -1.367   2.780  1.00  0.00     0.021 A 
ATOM     22  Cl  UNL     1       4.386  -0.294   0.640  1.00  0.00    -0.084 Cl
ATOM     23  C   UNL     1       5.697  -2.327   3.756  1.00  0.00     0.005 A 
ENDBRANCH  10  16
ENDBRANCH   5   8
ENDBRANCH   3   4
ENDBRANCH   2   3
ENDBRANCH   1   2
BRANCH   1  24
ATOM     24  C   UNL     1       3.167  -1.279   7.521  1.00  0.00     0.116 C 
BRANCH  24  25
ATOM     25  N   UNL     1       4.428  -1.786   7.001  1.00  0.00    -0.352 N 
ATOM     26  C   UNL     1       5.635  -1.974   7.646  1.00  0.00     0.251 C 
ATOM     27  H   UNL     1       4.419  -2.031   6.048  1.00  0.00     0.163 HD
ATOM     28  O   UNL     1       6.623  -2.314   7.017  1.00  0.00    -0.269 OA
BRANCH  26  29
ATOM     29  C   UNL     1       5.719  -1.722   9.102  1.00  0.00     0.039 A 
ATOM     30  C   UNL     1       6.769  -0.950   9.606  1.00  0.00     0.014 A 
ATOM     31  C   UNL     1       4.724  -2.204   9.953  1.00  0.00     0.014 A 
ATOM     32  C   UNL     1       6.766  -0.584  10.955  1.00  0.00     0.010 A 
ATOM     33  C   UNL     1       4.666  -1.752  11.262  1.00  0.00     0.010 A 
ATOM     34  C   UNL     1       5.687  -0.941  11.780  1.00  0.00    -0.014 A 
BRANCH  34  35
ATOM     35  C   UNL     1       5.596  -0.493  13.192  1.00  0.00     0.031 A 
ATOM     36  C   UNL     1       5.541  -1.522  14.290  1.00  0.00     0.074 A 
ATOM     37  C   UNL     1       5.457   0.819  13.466  1.00  0.00     0.049 A 
ATOM     38  N   UNL     1       5.333  -1.361  15.570  1.00  0.00    -0.248 NA
ATOM     39  C   UNL     1       5.686  -2.928  13.880  1.00  0.00     0.031 C 
ATOM     40  C   UNL     1       5.429   1.893  12.468  1.00  0.00     0.029 A 
ATOM     41  N   UNL     1       5.300   1.478  14.658  1.00  0.00    -0.354 N 
ATOM     42  C   UNL     1       5.292  -2.643  16.110  1.00  0.00     0.074 A 
ATOM     43  C   UNL     1       5.418  -3.568  15.006  1.00  0.00     0.031 C 
ATOM     44  C   UNL     1       5.303   3.074  13.092  1.00  0.00     0.029 A 
ATOM     45  C   UNL     1       5.192   2.844  14.528  1.00  0.00     0.049 A 
ATOM     46  H   UNL     1       5.268   1.016  15.527  1.00  0.00     0.167 HD
ATOM     47  C   UNL     1       5.188  -3.011  17.411  1.00  0.00     0.034 A 
ATOM     48  C   UNL     1       5.021   3.798  15.464  1.00  0.00     0.034 A 
ATOM     49  C   UNL     1       5.092  -2.059  18.491  1.00  0.00     0.049 A 
ATOM     50  C   UNL     1       4.936   3.369  16.907  1.00  0.00     0.074 A 
ATOM     51  C   UNL     1       5.045  -2.296  19.852  1.00  0.00     0.029 A 
ATOM     52  N   UNL     1       5.030  -0.679  18.325  1.00  0.00    -0.354 N 
ATOM     53  N   UNL     1       4.958   2.155  17.410  1.00  0.00    -0.248 NA
ATOM     54  C   UNL     1       4.823   4.436  17.908  1.00  0.00     0.031 C 
ATOM     55  C   UNL     1       4.890  -1.067  20.504  1.00  0.00     0.029 A 
ATOM     56  C   UNL     1       4.924  -0.055  19.557  1.00  0.00     0.049 A 
ATOM     57  H   UNL     1       5.059  -0.213  17.458  1.00  0.00     0.167 HD
ATOM     58  C   UNL     1       4.898   2.316  18.791  1.00  0.00     0.074 A 
ATOM     59  C   UNL     1       4.857   3.744  19.037  1.00  0.00     0.031 C 
ATOM     60  C   UNL     1       4.879   1.374  19.770  1.00  0.00     0.034 A 
BRANCH  47  61
ATOM     61  C   UNL     1       5.154  -4.491  17.719  1.00  0.00     0.023 A 
ATOM     62  C   UNL     1       6.217  -5.345  17.369  1.00  0.00     0.031 A 
ATOM     63  C   UNL     1       4.027  -5.070  18.329  1.00  0.00     0.131 A 
ATOM     64  C   UNL     1       6.093  -6.732  17.543  1.00  0.00     0.055 A 
ATOM     65  C   UNL     1       3.949  -6.442  18.585  1.00  0.00     0.041 A 
ATOM     66  F   UNL     1       2.970  -4.316  18.668  1.00  0.00    -0.206 F 
ATOM     67  C   UNL     1       4.978  -7.284  18.174  1.00  0.00     0.022 A 
BRANCH  64  68
ATOM     68  S   UNL     1       7.337  -7.814  16.784  1.00  0.00     0.124 S 
ATOM     69  O   UNL     1       7.212  -7.458  15.372  1.00  0.00    -0.237 OA
ATOM     70  O   UNL     1       8.567  -7.391  17.442  1.00  0.00    -0.237 OA
ATOM     71  O   UNL     1       6.875  -9.158  17.123  1.00  0.00    -0.744 OA
ENDBRANCH  64  68
ENDBRANCH  47  61
BRANCH  48  72
ATOM     72  C   UNL     1       4.942   5.238  15.079  1.00  0.00     0.023 A 
ATOM     73  C   UNL     1       5.925   6.151  15.498  1.00  0.00     0.031 A 
ATOM     74  C   UNL     1       3.875   5.732  14.308  1.00  0.00     0.131 A 
ATOM     75  C   UNL     1       5.798   7.513  15.185  1.00  0.00     0.055 A 
ATOM     76  C   UNL     1       3.782   7.080  13.952  1.00  0.00     0.041 A 
ATOM     77  F   UNL     1       2.912   4.905  13.872  1.00  0.00    -0.206 F 
ATOM     78  C   UNL     1       4.740   7.982  14.403  1.00  0.00     0.022 A 
BRANCH  75  79
ATOM     79  S   UNL     1       6.995   8.681  15.888  1.00  0.00     0.124 S 
ATOM     80  O   UNL     1       6.856   8.425  17.317  1.00  0.00    -0.237 OA
ATOM     81  O   UNL     1       8.243   8.240  15.274  1.00  0.00    -0.237 OA
ATOM     82  O   UNL     1       6.506   9.982  15.436  1.00  0.00    -0.744 OA
ENDBRANCH  75  79
ENDBRANCH  48  72
BRANCH  60  83
ATOM     83  C   UNL     1       4.864   1.874  21.192  1.00  0.00     0.023 A 
ATOM     84  C   UNL     1       3.770   2.583  21.715  1.00  0.00     0.031 A 
ATOM     85  C   UNL     1       5.973   1.653  22.029  1.00  0.00     0.131 A 
ATOM     86  C   UNL     1       3.835   3.107  23.014  1.00  0.00     0.055 A 
ATOM     87  C   UNL     1       6.002   2.115  23.345  1.00  0.00     0.041 A 
ATOM     88  F   UNL     1       7.046   0.983  21.580  1.00  0.00    -0.206 F 
ATOM     89  C   UNL     1       4.936   2.861  23.839  1.00  0.00     0.022 A 
BRANCH  86  90
ATOM     90  S   UNL     1       2.510   4.213  23.570  1.00  0.00     0.124 S 
ATOM     91  O   UNL     1       2.547   5.263  22.557  1.00  0.00    -0.237 OA
ATOM     92  O   UNL     1       1.342   3.339  23.540  1.00  0.00    -0.237 OA
ATOM     93  O   UNL     1       2.944   4.623  24.904  1.00  0.00    -0.744 OA
ENDBRANCH  86  90
ENDBRANCH  60  83
ENDBRANCH  34  35
ENDBRANCH  26  29
ENDBRANCH  24  25
ENDBRANCH   1  24
TORSDOF 16
