REMARK SMILES NC(=O)c1ccc(C[N@H+]2CCC[C@@H](C(=O)NCCCCNC(=O)c3ccc(-c4c5nc(c(-c6cc(S(=O)(=O)[O-])ccc6F)c6ccc([nH]6)c(-c6cc(S(=O)(=O)[O-])ccc6F)c6nc(c(-c7cc(S(=O)(=O)[O-])ccc7F)c7ccc4[nH]7)C=C6)C=C5)cc3)C2)cc1
REMARK SMILES IDX 18 1 17 2 16 3 14 4 15 5 13 7 9 8 10 9 87 10 11 12 12 13
REMARK SMILES IDX 8 14 7 15 4 16 5 17 89 18 6 19 88 20 2 21 1 22 3 25 19 26
REMARK SMILES IDX 20 27 21 28 22 29 23 31 24 32 25 33 86 34 26 35 85 36 27 37
REMARK SMILES IDX 28 38 29 39 79 40 30 41 84 42 78 43 80 44 31 45 83 46 77 47
REMARK SMILES IDX 76 48 32 50 64 51 44 52 63 53 45 54 48 55 62 56 81 57 46 58
REMARK SMILES IDX 47 59 61 61 82 62 49 63 33 64 34 65 42 66 35 67 41 68 43 69
REMARK SMILES IDX 40 70 36 71 37 72 38 73 39 74 65 75 66 76 74 77 67 78 73 79
REMARK SMILES IDX 75 80 72 81 68 82 69 83 70 84 71 85 50 86 51 87 59 88 52 89
REMARK SMILES IDX 58 90 60 91 57 92 53 93 54 94 55 95 56 96
REMARK H PARENT 16 6 9 11 1 23 1 24 21 30 80 49 48 60
REMARK Flexibility Score: inf
ROOT
ATOM      1  C   UNL     1      -2.159  10.336  -5.550  1.00  0.00     0.023 C 
ENDROOT
BRANCH   1   2
ATOM      2  C   UNL     1      -0.925  10.398  -4.655  1.00  0.00     0.116 C 
BRANCH   2   3
ATOM      3  N   UNL     1      -1.139   9.672  -3.422  1.00  0.00    -0.356 N 
ATOM      4  C   UNL     1      -0.525   8.547  -2.968  1.00  0.00     0.228 C 
ATOM      5  O   UNL     1      -0.891   8.086  -1.887  1.00  0.00    -0.275 OA
ATOM      6  H   UNL     1      -1.829  10.045  -2.827  1.00  0.00     0.163 HD
BRANCH   4   7
ATOM      7  C   UNL     1       0.589   7.921  -3.796  1.00  0.00     0.133 C 
ATOM      8  N   UNL     1       2.482   6.302  -3.596  1.00  0.00    -0.331 N 
ATOM      9  C   UNL     1       1.983   5.527  -4.739  1.00  0.00     0.262 C 
ATOM     10  C   UNL     1       1.384   6.979  -2.890  1.00  0.00     0.276 C 
ATOM     11  H   UNL     1       3.098   7.018  -3.981  1.00  0.00     0.348 HD
ATOM     12  C   UNL     1       1.177   6.406  -5.702  1.00  0.00     0.062 C 
ATOM     13  C   UNL     1       0.039   7.131  -4.986  1.00  0.00     0.025 C 
BRANCH   8  14
ATOM     14  C   UNL     1       3.317   5.504  -2.673  1.00  0.00     0.299 C 
BRANCH  14  15
ATOM     15  C   UNL     1       2.643   4.317  -2.006  1.00  0.00     0.006 A 
ATOM     16  C   UNL     1       1.209   2.156  -0.938  1.00  0.00     0.039 A 
ATOM     17  C   UNL     1       0.992   3.441  -0.444  1.00  0.00     0.014 A 
ATOM     18  C   UNL     1       2.161   1.934  -1.939  1.00  0.00     0.014 A 
ATOM     19  C   UNL     1       1.737   4.506  -0.948  1.00  0.00     0.010 A 
ATOM     20  C   UNL     1       2.865   3.014  -2.478  1.00  0.00     0.010 A 
BRANCH  16  21
ATOM     21  C   UNL     1       0.394   1.049  -0.396  1.00  0.00     0.248 C 
ATOM     22  N   UNL     1       1.069  -0.090  -0.069  1.00  0.00    -0.366 N 
ATOM     23  H   UNL     1       0.582  -0.863   0.296  1.00  0.00     0.159 HD
ATOM     24  H   UNL     1       2.044  -0.139  -0.199  1.00  0.00     0.159 HD
ATOM     25  O   UNL     1      -0.811   1.160  -0.213  1.00  0.00    -0.270 OA
ENDBRANCH  16  21
ENDBRANCH  14  15
ENDBRANCH   8  14
ENDBRANCH   4   7
ENDBRANCH   2   3
ENDBRANCH   1   2
BRANCH   1  26
ATOM     26  C   UNL     1      -3.410  10.974  -4.942  1.00  0.00     0.023 C 
BRANCH  26  27
ATOM     27  C   UNL     1      -3.227  12.405  -4.457  1.00  0.00     0.116 C 
BRANCH  27  28
ATOM     28  N   UNL     1      -2.804  13.305  -5.519  1.00  0.00    -0.352 N 
ATOM     29  C   UNL     1      -3.325  14.530  -5.862  1.00  0.00     0.251 C 
ATOM     30  H   UNL     1      -2.045  12.996  -6.064  1.00  0.00     0.163 HD
ATOM     31  O   UNL     1      -2.963  15.086  -6.893  1.00  0.00    -0.269 OA
BRANCH  29  32
ATOM     32  C   UNL     1      -4.348  15.143  -4.989  1.00  0.00     0.039 A 
ATOM     33  C   UNL     1      -5.523  15.638  -5.559  1.00  0.00     0.014 A 
ATOM     34  C   UNL     1      -4.162  15.182  -3.604  1.00  0.00     0.014 A 
ATOM     35  C   UNL     1      -6.543  16.112  -4.731  1.00  0.00     0.010 A 
ATOM     36  C   UNL     1      -5.211  15.574  -2.781  1.00  0.00     0.010 A 
ATOM     37  C   UNL     1      -6.411  16.049  -3.334  1.00  0.00    -0.014 A 
BRANCH  37  38
ATOM     38  C   UNL     1      -7.499  16.497  -2.425  1.00  0.00     0.031 A 
ATOM     39  C   UNL     1      -7.250  17.640  -1.478  1.00  0.00     0.074 A 
ATOM     40  C   UNL     1      -8.673  15.836  -2.396  1.00  0.00     0.049 A 
ATOM     41  N   UNL     1      -8.010  18.105  -0.521  1.00  0.00    -0.248 NA
ATOM     42  C   UNL     1      -5.956  18.327  -1.607  1.00  0.00     0.031 C 
ATOM     43  C   UNL     1      -9.025  14.698  -3.247  1.00  0.00     0.029 A 
ATOM     44  N   UNL     1      -9.785  16.018  -1.611  1.00  0.00    -0.354 N 
ATOM     45  C   UNL     1      -7.279  19.126   0.079  1.00  0.00     0.074 A 
ATOM     46  C   UNL     1      -5.991  19.162  -0.580  1.00  0.00     0.031 C 
ATOM     47  C   UNL     1     -10.274  14.300  -2.954  1.00  0.00     0.029 A 
ATOM     48  C   UNL     1     -10.792  15.113  -1.858  1.00  0.00     0.049 A 
ATOM     49  H   UNL     1      -9.856  16.730  -0.935  1.00  0.00     0.167 HD
ATOM     50  C   UNL     1      -7.657  19.971   1.070  1.00  0.00     0.034 A 
ATOM     51  C   UNL     1     -11.986  14.943  -1.255  1.00  0.00     0.034 A 
ATOM     52  C   UNL     1      -8.949  19.925   1.709  1.00  0.00     0.049 A 
ATOM     53  C   UNL     1     -12.367  15.863  -0.120  1.00  0.00     0.074 A 
ATOM     54  C   UNL     1      -9.453  20.758   2.693  1.00  0.00     0.029 A 
ATOM     55  N   UNL     1      -9.940  18.990   1.436  1.00  0.00    -0.354 N 
ATOM     56  N   UNL     1     -11.680  16.846   0.413  1.00  0.00    -0.248 NA
ATOM     57  C   UNL     1     -13.688  15.655   0.487  1.00  0.00     0.031 C 
ATOM     58  C   UNL     1     -10.712  20.280   3.069  1.00  0.00     0.029 A 
ATOM     59  C   UNL     1     -11.038  19.207   2.255  1.00  0.00     0.049 A 
ATOM     60  H   UNL     1      -9.873  18.278   0.760  1.00  0.00     0.167 HD
ATOM     61  C   UNL     1     -12.505  17.400   1.390  1.00  0.00     0.074 A 
ATOM     62  C   UNL     1     -13.740  16.645   1.366  1.00  0.00     0.031 C 
ATOM     63  C   UNL     1     -12.266  18.445   2.223  1.00  0.00     0.034 A 
BRANCH  50  64
ATOM     64  C   UNL     1      -6.643  20.990   1.537  1.00  0.00     0.023 A 
ATOM     65  C   UNL     1      -6.121  21.966   0.669  1.00  0.00     0.031 A 
ATOM     66  C   UNL     1      -6.162  20.964   2.858  1.00  0.00     0.131 A 
ATOM     67  C   UNL     1      -5.091  22.812   1.104  1.00  0.00     0.055 A 
ATOM     68  C   UNL     1      -5.204  21.873   3.312  1.00  0.00     0.041 A 
ATOM     69  F   UNL     1      -6.603  20.043   3.729  1.00  0.00    -0.206 F 
ATOM     70  C   UNL     1      -4.649  22.793   2.428  1.00  0.00     0.022 A 
BRANCH  67  71
ATOM     71  S   UNL     1      -4.223  23.820  -0.130  1.00  0.00     0.124 S 
ATOM     72  O   UNL     1      -3.736  22.798  -1.054  1.00  0.00    -0.237 OA
ATOM     73  O   UNL     1      -5.283  24.684  -0.635  1.00  0.00    -0.237 OA
ATOM     74  O   UNL     1      -3.184  24.493   0.646  1.00  0.00    -0.744 OA
ENDBRANCH  67  71
ENDBRANCH  50  64
BRANCH  51  75
ATOM     75  C   UNL     1     -12.908  13.854  -1.694  1.00  0.00     0.023 A 
ATOM     76  C   UNL     1     -14.169  14.150  -2.237  1.00  0.00     0.031 A 
ATOM     77  C   UNL     1     -12.563  12.500  -1.534  1.00  0.00     0.131 A 
ATOM     78  C   UNL     1     -15.057  13.111  -2.553  1.00  0.00     0.055 A 
ATOM     79  C   UNL     1     -13.427  11.469  -1.906  1.00  0.00     0.041 A 
ATOM     80  F   UNL     1     -11.370  12.160  -1.021  1.00  0.00    -0.206 F 
ATOM     81  C   UNL     1     -14.689  11.772  -2.406  1.00  0.00     0.022 A 
BRANCH  78  82
ATOM     82  S   UNL     1     -16.743  13.537  -3.071  1.00  0.00     0.124 S 
ATOM     83  O   UNL     1     -17.218  14.306  -1.927  1.00  0.00    -0.237 OA
ATOM     84  O   UNL     1     -16.502  14.290  -4.297  1.00  0.00    -0.237 OA
ATOM     85  O   UNL     1     -17.380  12.235  -3.257  1.00  0.00    -0.744 OA
ENDBRANCH  78  82
ENDBRANCH  51  75
BRANCH  63  86
ATOM     86  C   UNL     1     -13.391  18.880   3.132  1.00  0.00     0.023 A 
ATOM     87  C   UNL     1     -13.872  18.065   4.171  1.00  0.00     0.031 A 
ATOM     88  C   UNL     1     -13.988  20.142   2.954  1.00  0.00     0.131 A 
ATOM     89  C   UNL     1     -14.949  18.500   4.959  1.00  0.00     0.055 A 
ATOM     90  C   UNL     1     -15.014  20.596   3.782  1.00  0.00     0.041 A 
ATOM     91  F   UNL     1     -13.573  20.961   1.974  1.00  0.00    -0.206 F 
ATOM     92  C   UNL     1     -15.509  19.768   4.785  1.00  0.00     0.022 A 
BRANCH  89  93
ATOM     93  S   UNL     1     -15.674  17.349   6.159  1.00  0.00     0.124 S 
ATOM     94  O   UNL     1     -16.067  16.230   5.308  1.00  0.00    -0.237 OA
ATOM     95  O   UNL     1     -14.559  17.100   7.066  1.00  0.00    -0.237 OA
ATOM     96  O   UNL     1     -16.783  18.108   6.736  1.00  0.00    -0.744 OA
ENDBRANCH  89  93
ENDBRANCH  63  86
ENDBRANCH  37  38
ENDBRANCH  29  32
ENDBRANCH  27  28
ENDBRANCH  26  27
ENDBRANCH   1  26
TORSDOF 17
