REMARK SMILES Cc1cccc(-c2cccnc2C(=O)NCCCCNC(=O)c2ccc(-c3c4nc(c(-c5cc(S(=O)(=O)[O-])ccc5F)c5ccc([nH]5)c(-c5cc(S(=O)(=O)[O-])ccc5F)c5nc(c(-c6cc(S(=O)(=O)[O-])ccc6F)c6ccc3[nH]6)C=C5)C=C4)cc2)c1
REMARK SMILES IDX 18 1 17 2 16 3 15 4 13 5 14 6 12 8 7 9 8 10 9 11 11 12 10 13
REMARK SMILES IDX 6 14 1 15 2 16 3 17 86 18 4 19 5 20 19 21 20 22 21 23 22 25
REMARK SMILES IDX 23 26 24 27 85 28 25 29 84 30 26 31 27 32 28 33 78 34 29 35
REMARK SMILES IDX 83 36 77 37 79 38 30 39 82 40 76 41 75 42 31 44 63 45 43 46
REMARK SMILES IDX 62 47 44 48 47 49 61 50 80 51 45 52 46 53 60 55 81 56 48 57
REMARK SMILES IDX 32 58 33 59 41 60 34 61 40 62 42 63 39 64 35 65 36 66 37 67
REMARK SMILES IDX 38 68 64 69 65 70 73 71 66 72 72 73 74 74 71 75 67 76 68 77
REMARK SMILES IDX 69 78 70 79 49 80 50 81 58 82 51 83 57 84 59 85 56 86 52 87
REMARK SMILES IDX 53 88 54 89 55 90
REMARK H PARENT 15 7 20 24 79 43 47 54
REMARK Flexibility Score: inf
ROOT
ATOM      1  C   UNL     1       0.633  -0.526   4.126  1.00  0.00     0.023 C 
ENDROOT
BRANCH   1   2
ATOM      2  C   UNL     1       0.597   0.785   3.352  1.00  0.00     0.023 C 
BRANCH   2   3
ATOM      3  C   UNL     1      -0.526   0.998   2.343  1.00  0.00     0.116 C 
BRANCH   3   4
ATOM      4  N   UNL     1      -1.866   1.248   2.806  1.00  0.00    -0.351 N 
ATOM      5  C   UNL     1      -2.878   1.943   2.149  1.00  0.00     0.270 C 
ATOM      6  O   UNL     1      -4.007   1.861   2.646  1.00  0.00    -0.267 OA
ATOM      7  H   UNL     1      -2.094   0.885   3.692  1.00  0.00     0.163 HD
BRANCH   5   8
ATOM      8  C   UNL     1      -2.673   2.869   0.954  1.00  0.00     0.135 A 
ATOM      9  C   UNL     1      -2.020   2.570  -0.258  1.00  0.00     0.013 A 
ATOM     10  C   UNL     1      -1.998   3.582  -1.241  1.00  0.00     0.013 A 
ATOM     11  C   UNL     1      -2.612   4.809  -1.026  1.00  0.00     0.021 A 
ATOM     12  N   UNL     1      -3.280   4.084   1.167  1.00  0.00    -0.250 NA
ATOM     13  C   UNL     1      -3.243   5.005   0.183  1.00  0.00     0.112 A 
BRANCH   9  14
ATOM     14  C   UNL     1      -1.313   1.325  -0.565  1.00  0.00    -0.016 A 
ATOM     15  C   UNL     1       2.332   0.199  -0.550  1.00  0.00     0.044 C 
ATOM     16  C   UNL     1       0.838   0.162  -0.668  1.00  0.00    -0.051 A 
ATOM     17  C   UNL     1       0.157  -1.053  -0.765  1.00  0.00     0.003 A 
ATOM     18  C   UNL     1       0.096   1.346  -0.653  1.00  0.00     0.012 A 
ATOM     19  C   UNL     1      -1.239  -1.079  -0.791  1.00  0.00     0.001 A 
ATOM     20  C   UNL     1      -1.976   0.101  -0.678  1.00  0.00     0.009 A 
ENDBRANCH   9  14
ENDBRANCH   5   8
ENDBRANCH   3   4
ENDBRANCH   2   3
ENDBRANCH   1   2
BRANCH   1  21
ATOM     21  C   UNL     1       0.563  -1.826   3.335  1.00  0.00     0.116 C 
BRANCH  21  22
ATOM     22  N   UNL     1       1.778  -2.361   2.745  1.00  0.00    -0.352 N 
ATOM     23  C   UNL     1       1.978  -3.586   2.104  1.00  0.00     0.251 C 
ATOM     24  H   UNL     1       2.570  -1.780   2.804  1.00  0.00     0.163 HD
ATOM     25  O   UNL     1       3.115  -3.921   1.810  1.00  0.00    -0.269 OA
BRANCH  23  26
ATOM     26  C   UNL     1       0.831  -4.465   1.702  1.00  0.00     0.039 A 
ATOM     27  C   UNL     1       0.991  -5.378   0.638  1.00  0.00     0.014 A 
ATOM     28  C   UNL     1      -0.427  -4.340   2.272  1.00  0.00     0.014 A 
ATOM     29  C   UNL     1      -0.126  -5.995   0.057  1.00  0.00     0.010 A 
ATOM     30  C   UNL     1      -1.532  -4.824   1.630  1.00  0.00     0.010 A 
ATOM     31  C   UNL     1      -1.387  -5.631   0.509  1.00  0.00    -0.014 A 
BRANCH  31  32
ATOM     32  C   UNL     1      -2.668  -5.944  -0.094  1.00  0.00     0.031 A 
ATOM     33  C   UNL     1      -3.568  -6.912   0.555  1.00  0.00     0.074 A 
ATOM     34  C   UNL     1      -3.140  -5.026  -0.966  1.00  0.00     0.049 A 
ATOM     35  N   UNL     1      -4.628  -7.391   0.010  1.00  0.00    -0.248 NA
ATOM     36  C   UNL     1      -3.339  -7.422   1.905  1.00  0.00     0.031 C 
ATOM     37  C   UNL     1      -4.522  -4.752  -1.339  1.00  0.00     0.029 A 
ATOM     38  N   UNL     1      -2.397  -4.235  -1.838  1.00  0.00    -0.354 N 
ATOM     39  C   UNL     1      -5.377  -7.977   1.007  1.00  0.00     0.074 A 
ATOM     40  C   UNL     1      -4.492  -8.054   2.144  1.00  0.00     0.031 C 
ATOM     41  C   UNL     1      -4.522  -4.122  -2.528  1.00  0.00     0.029 A 
ATOM     42  C   UNL     1      -3.151  -4.140  -3.013  1.00  0.00     0.049 A 
ATOM     43  H   UNL     1      -1.519  -3.825  -1.663  1.00  0.00     0.167 HD
ATOM     44  C   UNL     1      -6.708  -8.180   0.797  1.00  0.00     0.034 A 
ATOM     45  C   UNL     1      -2.737  -4.719  -4.178  1.00  0.00     0.034 A 
ATOM     46  C   UNL     1      -7.095  -7.717  -0.537  1.00  0.00     0.049 A 
ATOM     47  C   UNL     1      -3.704  -5.787  -4.656  1.00  0.00     0.074 A 
ATOM     48  C   UNL     1      -7.742  -6.579  -0.991  1.00  0.00     0.029 A 
ATOM     49  N   UNL     1      -6.536  -8.320  -1.655  1.00  0.00    -0.354 N 
ATOM     50  N   UNL     1      -4.598  -6.373  -3.906  1.00  0.00    -0.248 NA
ATOM     51  C   UNL     1      -3.725  -6.274  -6.027  1.00  0.00     0.031 C 
ATOM     52  C   UNL     1      -7.530  -6.485  -2.393  1.00  0.00     0.029 A 
ATOM     53  C   UNL     1      -6.781  -7.579  -2.793  1.00  0.00     0.049 A 
ATOM     54  H   UNL     1      -6.030  -9.164  -1.639  1.00  0.00     0.167 HD
ATOM     55  C   UNL     1      -5.311  -7.286  -4.649  1.00  0.00     0.074 A 
ATOM     56  C   UNL     1      -4.721  -7.174  -5.974  1.00  0.00     0.031 C 
ATOM     57  C   UNL     1      -6.309  -8.047  -4.093  1.00  0.00     0.034 A 
BRANCH  44  58
ATOM     58  C   UNL     1      -7.726  -8.531   1.862  1.00  0.00     0.023 A 
ATOM     59  C   UNL     1      -9.081  -8.197   1.642  1.00  0.00     0.031 A 
ATOM     60  C   UNL     1      -7.462  -9.165   3.091  1.00  0.00     0.131 A 
ATOM     61  C   UNL     1     -10.066  -8.400   2.624  1.00  0.00     0.055 A 
ATOM     62  C   UNL     1      -8.433  -9.329   4.091  1.00  0.00     0.041 A 
ATOM     63  F   UNL     1      -6.270  -9.711   3.365  1.00  0.00    -0.206 F 
ATOM     64  C   UNL     1      -9.743  -8.936   3.865  1.00  0.00     0.022 A 
BRANCH  61  65
ATOM     65  S   UNL     1     -11.783  -7.955   2.247  1.00  0.00     0.124 S 
ATOM     66  O   UNL     1     -11.682  -6.521   1.998  1.00  0.00    -0.237 OA
ATOM     67  O   UNL     1     -12.073  -8.795   1.090  1.00  0.00    -0.237 OA
ATOM     68  O   UNL     1     -12.503  -8.320   3.467  1.00  0.00    -0.744 OA
ENDBRANCH  61  65
ENDBRANCH  44  58
BRANCH  45  69
ATOM     69  C   UNL     1      -1.251  -4.788  -4.324  1.00  0.00     0.023 A 
ATOM     70  C   UNL     1      -0.540  -3.584  -4.524  1.00  0.00     0.031 A 
ATOM     71  C   UNL     1      -0.537  -5.900  -3.843  1.00  0.00     0.131 A 
ATOM     72  C   UNL     1       0.809  -3.490  -4.148  1.00  0.00     0.055 A 
ATOM     73  C   UNL     1       0.804  -5.794  -3.456  1.00  0.00     0.041 A 
ATOM     74  F   UNL     1      -1.169  -7.053  -3.578  1.00  0.00    -0.206 F 
ATOM     75  C   UNL     1       1.471  -4.577  -3.571  1.00  0.00     0.022 A 
BRANCH  72  76
ATOM     76  S   UNL     1       1.682  -1.898  -4.249  1.00  0.00     0.124 S 
ATOM     77  O   UNL     1       2.349  -2.005  -5.542  1.00  0.00    -0.237 OA
ATOM     78  O   UNL     1       0.606  -0.916  -4.177  1.00  0.00    -0.237 OA
ATOM     79  O   UNL     1       2.566  -1.943  -3.086  1.00  0.00    -0.744 OA
ENDBRANCH  72  76
ENDBRANCH  45  69
BRANCH  57  80
ATOM     80  C   UNL     1      -6.997  -9.260  -4.711  1.00  0.00     0.023 A 
ATOM     81  C   UNL     1      -6.710  -9.752  -5.988  1.00  0.00     0.031 A 
ATOM     82  C   UNL     1      -7.967 -10.015  -3.994  1.00  0.00     0.131 A 
ATOM     83  C   UNL     1      -7.370 -10.876  -6.520  1.00  0.00     0.055 A 
ATOM     84  C   UNL     1      -8.583 -11.166  -4.498  1.00  0.00     0.041 A 
ATOM     85  F   UNL     1      -8.359  -9.689  -2.754  1.00  0.00    -0.206 F 
ATOM     86  C   UNL     1      -8.295 -11.600  -5.778  1.00  0.00     0.022 A 
BRANCH  83  87
ATOM     87  S   UNL     1      -7.015 -11.329  -8.237  1.00  0.00     0.124 S 
ATOM     88  O   UNL     1      -7.417 -10.123  -8.956  1.00  0.00    -0.237 OA
ATOM     89  O   UNL     1      -5.580 -11.591  -8.196  1.00  0.00    -0.237 OA
ATOM     90  O   UNL     1      -7.856 -12.501  -8.466  1.00  0.00    -0.744 OA
ENDBRANCH  83  87
ENDBRANCH  57  80
ENDBRANCH  31  32
ENDBRANCH  23  26
ENDBRANCH  21  22
ENDBRANCH   1  21
TORSDOF 15
