REMARK SMILES CCCC1(CCC)C[NH+]([C@H]2CCC[C@@H](C(=O)NCCCCNC(=O)c3ccc(-c4c5nc(c(-c6cc(S(=O)(=O)[O-])ccc6F)c6ccc([nH]6)c(-c6cc(S(=O)(=O)[O-])ccc6F)c6nc(c(-c7cc(S(=O)(=O)[O-])ccc7F)c7ccc4[nH]7)C=C6)C=C5)cc3)C2)C1
REMARK SMILES IDX 19 1 18 2 17 3 15 4 16 5 14 7 10 8 11 9 88 10 12 11 13 12
REMARK SMILES IDX 9 13 4 14 8 15 89 16 3 18 2 19 1 20 5 21 6 22 7 23 20 24
REMARK SMILES IDX 21 25 22 26 23 27 24 29 25 30 26 31 87 32 27 33 86 34 28 35
REMARK SMILES IDX 29 36 30 37 80 38 31 39 85 40 79 41 81 42 32 43 84 44 78 45
REMARK SMILES IDX 77 46 33 48 65 49 45 50 64 51 46 52 49 53 63 54 82 55 47 56
REMARK SMILES IDX 48 57 62 59 83 60 50 61 34 62 35 63 43 64 36 65 42 66 44 67
REMARK SMILES IDX 41 68 37 69 38 70 39 71 40 72 66 73 67 74 75 75 68 76 74 77
REMARK SMILES IDX 76 78 73 79 69 80 70 81 71 82 72 83 51 84 52 85 60 86 53 87
REMARK SMILES IDX 59 88 61 89 58 90 54 91 55 92 56 93 57 94
REMARK H PARENT 17 6 9 17 22 28 81 47 49 58
REMARK Flexibility Score: inf
ROOT
ATOM      1  C   UNL     1      -1.606  -5.334   2.375  1.00  0.00     0.023 C 
ENDROOT
BRANCH   1   2
ATOM      2  C   UNL     1      -2.853  -4.674   3.169  1.00  0.00     0.116 C 
BRANCH   2   3
ATOM      3  N   UNL     1      -2.476  -3.822   4.335  1.00  0.00    -0.356 N 
ATOM      4  C   UNL     1      -2.937  -2.790   5.135  1.00  0.00     0.223 C 
ATOM      5  O   UNL     1      -4.087  -2.676   5.551  1.00  0.00    -0.275 OA
ATOM      6  H   UNL     1      -1.581  -4.089   4.647  1.00  0.00     0.163 HD
BRANCH   4   7
ATOM      7  C   UNL     1      -1.895  -1.612   5.432  1.00  0.00     0.084 C 
ATOM      8  C   UNL     1       0.215  -2.943   4.869  1.00  0.00     0.184 C 
ATOM      9  C   UNL     1      -0.076  -2.326   3.359  1.00  0.00     0.065 C 
ATOM     10  C   UNL     1      -0.393  -1.857   5.741  1.00  0.00     0.078 C 
ATOM     11  C   UNL     1      -1.385  -1.516   3.015  1.00  0.00     0.007 C 
ATOM     12  C   UNL     1      -1.944  -0.722   4.187  1.00  0.00     0.014 C 
BRANCH   8  13
ATOM     13  N   UNL     1      -0.313  -4.280   5.315  1.00  0.00    -0.331 N 
ATOM     14  C   UNL     1      -0.746  -6.061   6.443  1.00  0.00     0.068 C 
ATOM     15  C   UNL     1       0.602  -5.425   5.630  1.00  0.00     0.275 C 
ATOM     16  C   UNL     1      -0.756  -4.491   6.796  1.00  0.00     0.275 C 
ATOM     17  H   UNL     1      -0.943  -4.269   4.513  1.00  0.00     0.348 HD
BRANCH  14  18
ATOM     18  C   UNL     1      -1.894  -6.703   5.590  1.00  0.00     0.018 C 
BRANCH  18  19
ATOM     19  C   UNL     1      -3.392  -6.796   5.926  1.00  0.00    -0.002 C 
ATOM     20  C   UNL     1      -4.123  -5.709   6.675  1.00  0.00     0.004 C 
ENDBRANCH  18  19
ENDBRANCH  14  18
BRANCH  14  21
ATOM     21  C   UNL     1      -0.308  -7.118   7.477  1.00  0.00     0.018 C 
BRANCH  21  22
ATOM     22  C   UNL     1      -1.329  -7.344   8.602  1.00  0.00    -0.002 C 
ATOM     23  C   UNL     1      -2.325  -8.492   8.414  1.00  0.00     0.004 C 
ENDBRANCH  21  22
ENDBRANCH  14  21
ENDBRANCH   8  13
ENDBRANCH   4   7
ENDBRANCH   2   3
ENDBRANCH   1   2
BRANCH   1  24
ATOM     24  C   UNL     1      -0.676  -6.575   2.630  1.00  0.00     0.023 C 
BRANCH  24  25
ATOM     25  C   UNL     1      -1.044  -8.053   2.633  1.00  0.00     0.116 C 
BRANCH  25  26
ATOM     26  N   UNL     1      -2.022  -8.456   1.673  1.00  0.00    -0.352 N 
ATOM     27  C   UNL     1      -2.632  -9.682   1.652  1.00  0.00     0.251 C 
ATOM     28  H   UNL     1      -2.275  -7.806   0.978  1.00  0.00     0.163 HD
ATOM     29  O   UNL     1      -3.275 -10.028   0.646  1.00  0.00    -0.269 OA
BRANCH  27  30
ATOM     30  C   UNL     1      -2.493 -10.615   2.795  1.00  0.00     0.039 A 
ATOM     31  C   UNL     1      -1.789 -11.808   2.618  1.00  0.00     0.014 A 
ATOM     32  C   UNL     1      -3.110 -10.347   4.023  1.00  0.00     0.014 A 
ATOM     33  C   UNL     1      -1.741 -12.751   3.652  1.00  0.00     0.010 A 
ATOM     34  C   UNL     1      -3.020 -11.276   5.072  1.00  0.00     0.010 A 
ATOM     35  C   UNL     1      -2.368 -12.507   4.887  1.00  0.00    -0.014 A 
BRANCH  35  36
ATOM     36  C   UNL     1      -2.388 -13.576   5.934  1.00  0.00     0.031 A 
ATOM     37  C   UNL     1      -3.685 -14.250   6.318  1.00  0.00     0.074 A 
ATOM     38  C   UNL     1      -1.238 -13.984   6.510  1.00  0.00     0.049 A 
ATOM     39  N   UNL     1      -3.889 -15.258   7.131  1.00  0.00    -0.248 NA
ATOM     40  C   UNL     1      -4.915 -13.710   5.722  1.00  0.00     0.031 C 
ATOM     41  C   UNL     1       0.080 -13.402   6.252  1.00  0.00     0.029 A 
ATOM     42  N   UNL     1      -0.983 -14.989   7.413  1.00  0.00    -0.354 N 
ATOM     43  C   UNL     1      -5.265 -15.474   7.139  1.00  0.00     0.074 A 
ATOM     44  C   UNL     1      -5.849 -14.447   6.304  1.00  0.00     0.031 C 
ATOM     45  C   UNL     1       1.006 -14.087   6.943  1.00  0.00     0.029 A 
ATOM     46  C   UNL     1       0.351 -15.131   7.727  1.00  0.00     0.049 A 
ATOM     47  H   UNL     1      -1.689 -15.556   7.800  1.00  0.00     0.167 HD
ATOM     48  C   UNL     1      -5.975 -16.451   7.761  1.00  0.00     0.034 A 
ATOM     49  C   UNL     1       0.979 -16.000   8.547  1.00  0.00     0.034 A 
ATOM     50  C   UNL     1      -5.383 -17.471   8.594  1.00  0.00     0.049 A 
ATOM     51  C   UNL     1       0.164 -17.052   9.263  1.00  0.00     0.074 A 
ATOM     52  C   UNL     1      -6.006 -18.531   9.232  1.00  0.00     0.029 A 
ATOM     53  N   UNL     1      -4.035 -17.553   8.919  1.00  0.00    -0.354 N 
ATOM     54  N   UNL     1      -1.129 -17.277   9.206  1.00  0.00    -0.248 NA
ATOM     55  C   UNL     1       0.895 -17.975  10.141  1.00  0.00     0.031 C 
ATOM     56  C   UNL     1      -5.053 -19.199  10.008  1.00  0.00     0.029 A 
ATOM     57  C   UNL     1      -3.816 -18.618   9.781  1.00  0.00     0.049 A 
ATOM     58  H   UNL     1      -3.337 -16.944   8.587  1.00  0.00     0.167 HD
ATOM     59  C   UNL     1      -1.358 -18.387  10.016  1.00  0.00     0.074 A 
ATOM     60  C   UNL     1      -0.068 -18.796  10.533  1.00  0.00     0.031 C 
ATOM     61  C   UNL     1      -2.528 -19.013  10.305  1.00  0.00     0.034 A 
BRANCH  48  62
ATOM     62  C   UNL     1      -7.479 -16.443   7.586  1.00  0.00     0.023 A 
ATOM     63  C   UNL     1      -8.079 -16.602   6.324  1.00  0.00     0.031 A 
ATOM     64  C   UNL     1      -8.326 -16.262   8.694  1.00  0.00     0.131 A 
ATOM     65  C   UNL     1      -9.472 -16.498   6.190  1.00  0.00     0.055 A 
ATOM     66  C   UNL     1      -9.717 -16.246   8.566  1.00  0.00     0.041 A 
ATOM     67  F   UNL     1      -7.817 -16.087   9.924  1.00  0.00    -0.206 F 
ATOM     68  C   UNL     1     -10.298 -16.348   7.306  1.00  0.00     0.022 A 
BRANCH  65  69
ATOM     69  S   UNL     1     -10.178 -16.408   4.521  1.00  0.00     0.124 S 
ATOM     70  O   UNL     1      -9.489 -15.243   3.972  1.00  0.00    -0.237 OA
ATOM     71  O   UNL     1      -9.806 -17.698   3.952  1.00  0.00    -0.237 OA
ATOM     72  O   UNL     1     -11.607 -16.221   4.763  1.00  0.00    -0.744 OA
ENDBRANCH  65  69
ENDBRANCH  48  62
BRANCH  49  73
ATOM     73  C   UNL     1       2.457 -15.916   8.755  1.00  0.00     0.023 A 
ATOM     74  C   UNL     1       3.307 -16.978   8.404  1.00  0.00     0.031 A 
ATOM     75  C   UNL     1       3.035 -14.786   9.361  1.00  0.00     0.131 A 
ATOM     76  C   UNL     1       4.678 -16.908   8.706  1.00  0.00     0.055 A 
ATOM     77  C   UNL     1       4.407 -14.696   9.603  1.00  0.00     0.041 A 
ATOM     78  F   UNL     1       2.271 -13.742   9.721  1.00  0.00    -0.206 F 
ATOM     79  C   UNL     1       5.235 -15.768   9.288  1.00  0.00     0.022 A 
BRANCH  76  80
ATOM     80  S   UNL     1       5.710 -18.373   8.419  1.00  0.00     0.124 S 
ATOM     81  O   UNL     1       5.029 -19.378   9.227  1.00  0.00    -0.237 OA
ATOM     82  O   UNL     1       5.610 -18.535   6.973  1.00  0.00    -0.237 OA
ATOM     83  O   UNL     1       7.024 -17.963   8.909  1.00  0.00    -0.744 OA
ENDBRANCH  76  80
ENDBRANCH  49  73
BRANCH  61  84
ATOM     84  C   UNL     1      -2.459 -20.236  11.190  1.00  0.00     0.023 A 
ATOM     85  C   UNL     1      -2.045 -20.160  12.532  1.00  0.00     0.031 A 
ATOM     86  C   UNL     1      -2.805 -21.500  10.679  1.00  0.00     0.131 A 
ATOM     87  C   UNL     1      -1.929 -21.331  13.297  1.00  0.00     0.055 A 
ATOM     88  C   UNL     1      -2.757 -22.652  11.466  1.00  0.00     0.041 A 
ATOM     89  F   UNL     1      -3.202 -21.637   9.403  1.00  0.00    -0.206 F 
ATOM     90  C   UNL     1      -2.303 -22.574  12.778  1.00  0.00     0.022 A 
BRANCH  87  91
ATOM     91  S   UNL     1      -1.181 -21.225  14.946  1.00  0.00     0.124 S 
ATOM     92  O   UNL     1       0.127 -20.651  14.648  1.00  0.00    -0.237 OA
ATOM     93  O   UNL     1      -2.112 -20.354  15.656  1.00  0.00    -0.237 OA
ATOM     94  O   UNL     1      -1.159 -22.613  15.403  1.00  0.00    -0.744 OA
ENDBRANCH  87  91
ENDBRANCH  61  84
ENDBRANCH  35  36
ENDBRANCH  27  30
ENDBRANCH  25  26
ENDBRANCH  24  25
ENDBRANCH   1  24
TORSDOF 19
