REMARK SMILES CC1=CC[C@](C(=O)NCCCCNC(=O)c2ccc(-c3c4nc(c(-c5cc(S(=O)(=O)[O-])ccc5F)c5ccc([nH]5)c(-c5cc(S(=O)(=O)[O-])ccc5F)c5nc(c(-c6cc(S(=O)(=O)[O-])ccc6F)c6ccc3[nH]6)C=C5)C=C4)cc2)(C(=O)N/N=C/C2=C([O-])CC(C)(C)CC2=O)C[C@@H]1c1ccccc1
REMARK SMILES IDX 10 1 9 2 8 3 6 4 7 5 5 7 1 8 2 9 3 10 95 11 4 12 94 13 96 14
REMARK SMILES IDX 97 15 101 16 98 17 100 18 99 19 79 20 80 21 81 22 82 24
REMARK SMILES IDX 83 25 84 26 85 27 92 28 86 29 87 30 91 31 93 32 88 33 89 34
REMARK SMILES IDX 90 35 11 36 12 37 13 38 14 39 15 41 16 42 17 43 78 44 18 45
REMARK SMILES IDX 77 46 19 47 20 48 21 49 71 50 22 51 76 52 70 53 72 54 23 55
REMARK SMILES IDX 75 56 69 57 68 58 24 60 56 61 36 62 55 63 37 64 40 65 54 66
REMARK SMILES IDX 73 67 38 68 39 69 53 71 74 72 41 73 25 74 26 75 34 76 27 77
REMARK SMILES IDX 33 78 35 79 32 80 28 81 29 82 30 83 31 84 57 85 58 86 66 87
REMARK SMILES IDX 59 88 65 89 67 90 64 91 60 92 61 93 62 94 63 95 42 96 43 97
REMARK SMILES IDX 51 98 44 99 50 100 52 101 49 102 45 103 46 104 47 105 48 106
REMARK H PARENT 8 6 81 23 13 40 72 59 40 70
REMARK Flexibility Score: inf
ROOT
ATOM      1  C   UNL     1      -2.706  -1.941  -3.091  1.00  0.00     0.023 C 
ENDROOT
BRANCH   1   2
ATOM      2  C   UNL     1      -2.499  -0.474  -2.711  1.00  0.00     0.116 C 
BRANCH   2   3
ATOM      3  N   UNL     1      -3.296  -0.133  -1.552  1.00  0.00    -0.355 N 
ATOM      4  C   UNL     1      -3.010   0.041  -0.240  1.00  0.00     0.236 C 
ATOM      5  O   UNL     1      -3.957   0.456   0.441  1.00  0.00    -0.274 OA
ATOM      6  H   UNL     1      -4.248   0.002  -1.762  1.00  0.00     0.163 HD
BRANCH   4   7
ATOM      7  C   UNL     1      -1.613  -0.123   0.388  1.00  0.00     0.133 C 
ATOM      8  C   UNL     1       2.850   0.120   0.061  1.00  0.00     0.040 C 
ATOM      9  C   UNL     1       1.350   0.071   0.170  1.00  0.00    -0.070 C 
ATOM     10  C   UNL     1       0.608   1.179  -0.000  1.00  0.00    -0.026 C 
ATOM     11  C   UNL     1       0.719  -1.290   0.421  1.00  0.00     0.046 C 
ATOM     12  C   UNL     1      -0.894   1.214   0.030  1.00  0.00     0.054 C 
ATOM     13  C   UNL     1      -0.748  -1.315  -0.093  1.00  0.00     0.040 C 
BRANCH  11  14
ATOM     14  C   UNL     1       0.846  -1.821   1.847  1.00  0.00    -0.041 A 
ATOM     15  C   UNL     1       0.527  -3.166   2.103  1.00  0.00     0.004 A 
ATOM     16  C   UNL     1       1.208  -1.013   2.937  1.00  0.00     0.004 A 
ATOM     17  C   UNL     1       0.524  -3.672   3.404  1.00  0.00     0.000 A 
ATOM     18  C   UNL     1       1.218  -1.523   4.238  1.00  0.00     0.000 A 
ATOM     19  C   UNL     1       0.866  -2.849   4.472  1.00  0.00     0.000 A 
ENDBRANCH  11  14
BRANCH   7  20
ATOM     20  C   UNL     1      -1.830  -0.218   1.926  1.00  0.00     0.256 C 
ATOM     21  O   UNL     1      -1.479   0.689   2.692  1.00  0.00    -0.272 OA
ATOM     22  N   UNL     1      -2.439  -1.323   2.500  1.00  0.00    -0.246 N 
ATOM     23  H   UNL     1      -2.691  -1.231   3.447  1.00  0.00     0.193 HD
BRANCH  22  24
ATOM     24  N   UNL     1      -2.734  -2.523   1.917  1.00  0.00    -0.181 NA
ATOM     25  C   UNL     1      -3.869  -2.576   1.291  1.00  0.00     0.144 C 
BRANCH  25  26
ATOM     26  C   UNL     1      -4.335  -3.793   0.578  1.00  0.00     0.026 C 
ATOM     27  C   UNL     1      -4.171  -5.024   1.096  1.00  0.00    -0.119 C 
ATOM     28  C   UNL     1      -5.083  -3.651  -0.693  1.00  0.00     0.164 C 
ATOM     29  O   UNL     1      -3.467  -5.277   2.260  1.00  0.00    -0.875 OA
ATOM     30  C   UNL     1      -4.738  -6.257   0.433  1.00  0.00     0.026 C 
ATOM     31  C   UNL     1      -5.303  -4.861  -1.581  1.00  0.00     0.087 C 
ATOM     32  O   UNL     1      -5.502  -2.542  -1.028  1.00  0.00    -0.294 OA
ATOM     33  C   UNL     1      -4.660  -6.174  -1.102  1.00  0.00    -0.025 C 
ATOM     34  C   UNL     1      -3.187  -6.276  -1.560  1.00  0.00     0.012 C 
ATOM     35  C   UNL     1      -5.431  -7.343  -1.746  1.00  0.00     0.012 C 
ENDBRANCH  25  26
ENDBRANCH  22  24
ENDBRANCH   7  20
ENDBRANCH   4   7
ENDBRANCH   2   3
ENDBRANCH   1   2
BRANCH   1  36
ATOM     36  C   UNL     1      -4.022  -2.142  -3.846  1.00  0.00     0.023 C 
BRANCH  36  37
ATOM     37  C   UNL     1      -3.962  -1.649  -5.283  1.00  0.00     0.116 C 
BRANCH  37  38
ATOM     38  N   UNL     1      -3.323  -2.630  -6.146  1.00  0.00    -0.352 N 
ATOM     39  C   UNL     1      -3.833  -3.694  -6.852  1.00  0.00     0.251 C 
ATOM     40  H   UNL     1      -2.351  -2.510  -6.243  1.00  0.00     0.163 HD
ATOM     41  O   UNL     1      -3.042  -4.548  -7.254  1.00  0.00    -0.269 OA
BRANCH  39  42
ATOM     42  C   UNL     1      -5.287  -3.855  -7.117  1.00  0.00     0.039 A 
ATOM     43  C   UNL     1      -5.798  -5.139  -7.343  1.00  0.00     0.014 A 
ATOM     44  C   UNL     1      -6.147  -2.766  -7.236  1.00  0.00     0.014 A 
ATOM     45  C   UNL     1      -7.153  -5.319  -7.655  1.00  0.00     0.010 A 
ATOM     46  C   UNL     1      -7.516  -2.955  -7.391  1.00  0.00     0.010 A 
ATOM     47  C   UNL     1      -8.034  -4.227  -7.658  1.00  0.00    -0.014 A 
BRANCH  47  48
ATOM     48  C   UNL     1      -9.473  -4.354  -8.029  1.00  0.00     0.031 A 
ATOM     49  C   UNL     1     -10.029  -3.510  -9.156  1.00  0.00     0.074 A 
ATOM     50  C   UNL     1     -10.296  -5.148  -7.317  1.00  0.00     0.049 A 
ATOM     51  N   UNL     1     -11.271  -3.316  -9.520  1.00  0.00    -0.248 NA
ATOM     52  C   UNL     1      -9.054  -2.731  -9.938  1.00  0.00     0.031 C 
ATOM     53  C   UNL     1      -9.900  -5.979  -6.178  1.00  0.00     0.029 A 
ATOM     54  N   UNL     1     -11.644  -5.378  -7.439  1.00  0.00    -0.354 N 
ATOM     55  C   UNL     1     -11.227  -2.353 -10.526  1.00  0.00     0.074 A 
ATOM     56  C   UNL     1      -9.844  -1.953 -10.661  1.00  0.00     0.031 C 
ATOM     57  C   UNL     1     -10.972  -6.652  -5.729  1.00  0.00     0.029 A 
ATOM     58  C   UNL     1     -12.142  -6.261  -6.508  1.00  0.00     0.049 A 
ATOM     59  H   UNL     1     -12.203  -4.952  -8.128  1.00  0.00     0.167 HD
ATOM     60  C   UNL     1     -12.239  -1.868 -11.288  1.00  0.00     0.034 A 
ATOM     61  C   UNL     1     -13.400  -6.694  -6.296  1.00  0.00     0.034 A 
ATOM     62  C   UNL     1     -13.600  -2.335 -11.191  1.00  0.00     0.049 A 
ATOM     63  C   UNL     1     -14.504  -6.180  -7.186  1.00  0.00     0.074 A 
ATOM     64  C   UNL     1     -14.691  -1.985 -11.966  1.00  0.00     0.029 A 
ATOM     65  N   UNL     1     -14.053  -3.268 -10.266  1.00  0.00    -0.354 N 
ATOM     66  N   UNL     1     -14.441  -5.294  -8.153  1.00  0.00    -0.248 NA
ATOM     67  C   UNL     1     -15.845  -6.734  -6.962  1.00  0.00     0.031 C 
ATOM     68  C   UNL     1     -15.813  -2.664 -11.476  1.00  0.00     0.029 A 
ATOM     69  C   UNL     1     -15.409  -3.492 -10.440  1.00  0.00     0.049 A 
ATOM     70  H   UNL     1     -13.492  -3.706  -9.585  1.00  0.00     0.167 HD
ATOM     71  C   UNL     1     -15.730  -5.207  -8.671  1.00  0.00     0.074 A 
ATOM     72  C   UNL     1     -16.542  -6.143  -7.920  1.00  0.00     0.031 C 
ATOM     73  C   UNL     1     -16.202  -4.426  -9.677  1.00  0.00     0.034 A 
BRANCH  60  74
ATOM     74  C   UNL     1     -11.909  -0.774 -12.281  1.00  0.00     0.023 A 
ATOM     75  C   UNL     1     -10.990  -0.972 -13.328  1.00  0.00     0.031 A 
ATOM     76  C   UNL     1     -12.493   0.500 -12.158  1.00  0.00     0.131 A 
ATOM     77  C   UNL     1     -10.611   0.104 -14.144  1.00  0.00     0.055 A 
ATOM     78  C   UNL     1     -12.182   1.543 -13.034  1.00  0.00     0.041 A 
ATOM     79  F   UNL     1     -13.365   0.760 -11.172  1.00  0.00    -0.206 F 
ATOM     80  C   UNL     1     -11.220   1.354 -14.023  1.00  0.00     0.022 A 
BRANCH  77  81
ATOM     81  S   UNL     1      -9.193  -0.109 -15.255  1.00  0.00     0.124 S 
ATOM     82  O   UNL     1      -8.127  -0.439 -14.309  1.00  0.00    -0.237 OA
ATOM     83  O   UNL     1      -9.634  -1.200 -16.122  1.00  0.00    -0.237 OA
ATOM     84  O   UNL     1      -9.063   1.189 -15.903  1.00  0.00    -0.744 OA
ENDBRANCH  77  81
ENDBRANCH  60  74
BRANCH  61  85
ATOM     85  C   UNL     1     -13.689  -7.666  -5.203  1.00  0.00     0.023 A 
ATOM     86  C   UNL     1     -14.131  -8.966  -5.494  1.00  0.00     0.031 A 
ATOM     87  C   UNL     1     -13.551  -7.303  -3.852  1.00  0.00     0.131 A 
ATOM     88  C   UNL     1     -14.461  -9.844  -4.450  1.00  0.00     0.055 A 
ATOM     89  C   UNL     1     -13.833  -8.197  -2.816  1.00  0.00     0.041 A 
ATOM     90  F   UNL     1     -13.122  -6.076  -3.518  1.00  0.00    -0.206 F 
ATOM     91  C   UNL     1     -14.303  -9.473  -3.114  1.00  0.00     0.022 A 
BRANCH  88  92
ATOM     92  S   UNL     1     -15.171 -11.460  -4.867  1.00  0.00     0.124 S 
ATOM     93  O   UNL     1     -16.353 -11.078  -5.631  1.00  0.00    -0.237 OA
ATOM     94  O   UNL     1     -14.088 -12.079  -5.626  1.00  0.00    -0.237 OA
ATOM     95  O   UNL     1     -15.437 -12.062  -3.562  1.00  0.00    -0.744 OA
ENDBRANCH  88  92
ENDBRANCH  61  85
BRANCH  73  96
ATOM     96  C   UNL     1     -17.654  -4.594 -10.048  1.00  0.00     0.023 A 
ATOM     97  C   UNL     1     -18.687  -4.214  -9.175  1.00  0.00     0.031 A 
ATOM     98  C   UNL     1     -18.004  -5.153 -11.289  1.00  0.00     0.131 A 
ATOM     99  C   UNL     1     -20.023  -4.451  -9.532  1.00  0.00     0.055 A 
ATOM    100  C   UNL     1     -19.336  -5.330 -11.664  1.00  0.00     0.041 A 
ATOM    101  F   UNL     1     -17.056  -5.533 -12.160  1.00  0.00    -0.206 F 
ATOM    102  C   UNL     1     -20.354  -4.991 -10.777  1.00  0.00     0.022 A 
BRANCH  99 103
ATOM    103  S   UNL     1     -21.320  -4.130  -8.306  1.00  0.00     0.124 S 
ATOM    104  O   UNL     1     -20.913  -4.991  -7.201  1.00  0.00    -0.237 OA
ATOM    105  O   UNL     1     -21.186  -2.695  -8.079  1.00  0.00    -0.237 OA
ATOM    106  O   UNL     1     -22.546  -4.537  -8.990  1.00  0.00    -0.744 OA
ENDBRANCH  99 103
ENDBRANCH  73  96
ENDBRANCH  47  48
ENDBRANCH  39  42
ENDBRANCH  37  38
ENDBRANCH  36  37
ENDBRANCH   1  36
TORSDOF 18
