REMARK SMILES CCc1nc2sc(C(=O)NCC(=O)NCCCCNC(=O)c3ccc(-c4c5nc(c(-c6cc(S(=O)(=O)[O-])ccc6F)c6ccc([nH]6)c(-c6cc(S(=O)(=O)[O-])ccc6F)c6nc(c(-c7cc(S(=O)(=O)[O-])ccc7F)c7ccc4[nH]7)C=C6)C=C5)cc3)c(N)c2c(C(F)(F)F)c1C
REMARK SMILES IDX 16 1 15 2 14 3 12 4 13 5 11 7 10 8 8 9 9 10 7 12 3 13 4 14
REMARK SMILES IDX 93 15 5 16 88 17 94 18 6 19 87 20 85 21 2 22 1 23 89 24
REMARK SMILES IDX 90 25 91 26 92 27 86 28 17 31 18 32 19 33 20 34 21 36 22 37
REMARK SMILES IDX 23 38 84 39 24 40 83 41 25 42 26 43 27 44 77 45 28 46 82 47
REMARK SMILES IDX 76 48 78 49 29 50 81 51 75 52 74 53 30 55 62 56 42 57 61 58
REMARK SMILES IDX 43 59 46 60 60 61 79 62 44 63 45 64 59 66 80 67 47 68 31 69
REMARK SMILES IDX 32 70 40 71 33 72 39 73 41 74 38 75 34 76 35 77 36 78 37 79
REMARK SMILES IDX 63 80 64 81 72 82 65 83 71 84 73 85 70 86 66 87 67 88 68 89
REMARK SMILES IDX 69 90 48 91 49 92 57 93 50 94 56 95 58 96 55 97 51 98 52 99
REMARK SMILES IDX 53 100 54 101
REMARK H PARENT 14 6 10 11 86 29 86 30 19 35 78 54 46 65
REMARK Flexibility Score: inf
ROOT
ATOM      1  C   UNL     1       6.111   5.799  -5.938  1.00  0.00     0.023 C 
ENDROOT
BRANCH   1   2
ATOM      2  C   UNL     1       4.954   6.177  -5.018  1.00  0.00     0.116 C 
BRANCH   2   3
ATOM      3  N   UNL     1       4.343   7.449  -5.353  1.00  0.00    -0.355 N 
ATOM      4  C   UNL     1       3.282   7.777  -6.139  1.00  0.00     0.239 C 
ATOM      5  O   UNL     1       2.974   8.975  -6.167  1.00  0.00    -0.273 OA
ATOM      6  H   UNL     1       4.779   8.223  -4.931  1.00  0.00     0.163 HD
BRANCH   4   7
ATOM      7  C   UNL     1       2.393   6.761  -6.885  1.00  0.00     0.216 C 
BRANCH   7   8
ATOM      8  N   UNL     1       2.836   5.412  -7.158  1.00  0.00    -0.342 N 
ATOM      9  C   UNL     1       2.625   4.196  -6.554  1.00  0.00     0.264 C 
ATOM     10  O   UNL     1       3.005   3.254  -7.262  1.00  0.00    -0.268 OA
ATOM     11  H   UNL     1       3.417   5.351  -7.951  1.00  0.00     0.164 HD
BRANCH   9  12
ATOM     12  C   UNL     1       2.087   4.001  -5.201  1.00  0.00     0.118 A 
ATOM     13  C   UNL     1       0.891   2.212  -0.980  1.00  0.00     0.045 A 
ATOM     14  N   UNL     1       1.315   1.795  -2.190  1.00  0.00    -0.242 NA
ATOM     15  C   UNL     1       0.603   3.556  -0.679  1.00  0.00    -0.017 A 
ATOM     16  C   UNL     1       1.492   2.753  -3.115  1.00  0.00     0.127 A 
ATOM     17  C   UNL     1       0.808   4.548  -1.680  1.00  0.00     0.073 A 
ATOM     18  C   UNL     1       0.077   3.958   0.679  1.00  0.00     0.047 C 
ATOM     19  S   UNL     1       2.043   2.348  -4.664  1.00  0.00    -0.108 S 
ATOM     20  C   UNL     1       1.274   4.108  -2.957  1.00  0.00     0.048 A 
ATOM     21  C   UNL     1       1.629   4.814  -4.173  1.00  0.00     0.066 A 
BRANCH  13  22
ATOM     22  C   UNL     1       0.684   1.127   0.064  1.00  0.00     0.053 C 
ATOM     23  C   UNL     1       1.220  -0.255  -0.285  1.00  0.00     0.011 C 
ENDBRANCH  13  22
BRANCH  17  24
ATOM     24  C   UNL     1       0.581   6.023  -1.430  1.00  0.00     0.417 C 
ATOM     25  F   UNL     1       1.738   6.743  -1.496  1.00  0.00    -0.166 F 
ATOM     26  F   UNL     1      -0.244   6.578  -2.371  1.00  0.00    -0.166 F 
ATOM     27  F   UNL     1       0.013   6.354  -0.242  1.00  0.00    -0.166 F 
ENDBRANCH  17  24
BRANCH  21  28
ATOM     28  N   UNL     1       1.557   6.161  -4.217  1.00  0.00    -0.397 N 
ATOM     29  H   UNL     1       1.798   6.640  -5.043  1.00  0.00     0.156 HD
ATOM     30  H   UNL     1       1.265   6.665  -3.424  1.00  0.00     0.156 HD
ENDBRANCH  21  28
ENDBRANCH   9  12
ENDBRANCH   7   8
ENDBRANCH   4   7
ENDBRANCH   2   3
ENDBRANCH   1   2
BRANCH   1  31
ATOM     31  C   UNL     1       7.402   6.593  -5.700  1.00  0.00     0.023 C 
BRANCH  31  32
ATOM     32  C   UNL     1       8.013   6.405  -4.314  1.00  0.00     0.116 C 
BRANCH  32  33
ATOM     33  N   UNL     1       8.454   5.035  -4.070  1.00  0.00    -0.352 N 
ATOM     34  C   UNL     1       9.121   4.555  -2.963  1.00  0.00     0.251 C 
ATOM     35  H   UNL     1       8.252   4.380  -4.777  1.00  0.00     0.163 HD
ATOM     36  O   UNL     1       9.794   3.526  -3.048  1.00  0.00    -0.269 OA
BRANCH  34  37
ATOM     37  C   UNL     1       9.015   5.278  -1.682  1.00  0.00     0.039 A 
ATOM     38  C   UNL     1      10.124   5.429  -0.844  1.00  0.00     0.014 A 
ATOM     39  C   UNL     1       7.772   5.800  -1.317  1.00  0.00     0.014 A 
ATOM     40  C   UNL     1       9.992   6.176   0.327  1.00  0.00     0.010 A 
ATOM     41  C   UNL     1       7.664   6.614  -0.212  1.00  0.00     0.010 A 
ATOM     42  C   UNL     1       8.762   6.782   0.628  1.00  0.00    -0.014 A 
BRANCH  42  43
ATOM     43  C   UNL     1       8.657   7.766   1.706  1.00  0.00     0.031 A 
ATOM     44  C   UNL     1       9.544   8.948   1.508  1.00  0.00     0.074 A 
ATOM     45  C   UNL     1       7.671   7.745   2.631  1.00  0.00     0.049 A 
ATOM     46  N   UNL     1      10.552   9.316   2.227  1.00  0.00    -0.248 NA
ATOM     47  C   UNL     1       9.402   9.725   0.260  1.00  0.00     0.031 C 
ATOM     48  C   UNL     1       6.564   6.788   2.735  1.00  0.00     0.029 A 
ATOM     49  N   UNL     1       7.371   8.644   3.611  1.00  0.00    -0.354 N 
ATOM     50  C   UNL     1      10.995  10.514   1.673  1.00  0.00     0.074 A 
ATOM     51  C   UNL     1      10.421  10.580   0.358  1.00  0.00     0.031 C 
ATOM     52  C   UNL     1       5.608   7.283   3.553  1.00  0.00     0.029 A 
ATOM     53  C   UNL     1       6.086   8.519   4.149  1.00  0.00     0.049 A 
ATOM     54  H   UNL     1       8.009   9.327   3.917  1.00  0.00     0.167 HD
ATOM     55  C   UNL     1      11.556  11.482   2.451  1.00  0.00     0.034 A 
ATOM     56  C   UNL     1       5.454   9.379   5.000  1.00  0.00     0.034 A 
ATOM     57  C   UNL     1      11.986  10.938   3.719  1.00  0.00     0.049 A 
ATOM     58  C   UNL     1       6.531  10.157   5.663  1.00  0.00     0.074 A 
ATOM     59  C   UNL     1      12.839   9.916   4.090  1.00  0.00     0.029 A 
ATOM     60  N   UNL     1      11.196  11.180   4.820  1.00  0.00    -0.354 N 
ATOM     61  N   UNL     1       7.435   9.619   6.436  1.00  0.00    -0.248 NA
ATOM     62  C   UNL     1       6.894  11.435   5.072  1.00  0.00     0.031 C 
ATOM     63  C   UNL     1      12.178   9.267   5.173  1.00  0.00     0.029 A 
ATOM     64  C   UNL     1      11.018   9.985   5.470  1.00  0.00     0.049 A 
ATOM     65  H   UNL     1      10.827  12.051   5.092  1.00  0.00     0.167 HD
ATOM     66  C   UNL     1       8.619  10.250   6.086  1.00  0.00     0.074 A 
ATOM     67  C   UNL     1       8.210  11.415   5.301  1.00  0.00     0.031 C 
ATOM     68  C   UNL     1       9.824   9.622   6.211  1.00  0.00     0.034 A 
BRANCH  55  69
ATOM     69  C   UNL     1      11.363  12.969   2.239  1.00  0.00     0.023 A 
ATOM     70  C   UNL     1      12.044  13.845   3.107  1.00  0.00     0.031 A 
ATOM     71  C   UNL     1      10.355  13.560   1.441  1.00  0.00     0.131 A 
ATOM     72  C   UNL     1      11.668  15.197   3.212  1.00  0.00     0.055 A 
ATOM     73  C   UNL     1      10.029  14.917   1.504  1.00  0.00     0.041 A 
ATOM     74  F   UNL     1       9.563  12.853   0.627  1.00  0.00    -0.206 F 
ATOM     75  C   UNL     1      10.666  15.740   2.414  1.00  0.00     0.022 A 
BRANCH  72  76
ATOM     76  S   UNL     1      12.417  16.204   4.517  1.00  0.00     0.124 S 
ATOM     77  O   UNL     1      12.017  15.474   5.715  1.00  0.00    -0.237 OA
ATOM     78  O   UNL     1      13.832  16.146   4.168  1.00  0.00    -0.237 OA
ATOM     79  O   UNL     1      11.787  17.510   4.340  1.00  0.00    -0.744 OA
ENDBRANCH  72  76
ENDBRANCH  55  69
BRANCH  56  80
ATOM     80  C   UNL     1       4.010   9.783   5.042  1.00  0.00     0.023 A 
ATOM     81  C   UNL     1       3.468  10.574   6.087  1.00  0.00     0.031 A 
ATOM     82  C   UNL     1       3.188   9.617   3.905  1.00  0.00     0.131 A 
ATOM     83  C   UNL     1       2.183  11.161   5.961  1.00  0.00     0.055 A 
ATOM     84  C   UNL     1       1.921  10.199   3.786  1.00  0.00     0.041 A 
ATOM     85  F   UNL     1       3.619   8.954   2.822  1.00  0.00    -0.206 F 
ATOM     86  C   UNL     1       1.417  10.985   4.808  1.00  0.00     0.022 A 
BRANCH  83  87
ATOM     87  S   UNL     1       1.520  12.272   7.252  1.00  0.00     0.124 S 
ATOM     88  O   UNL     1       1.079  11.327   8.271  1.00  0.00    -0.237 OA
ATOM     89  O   UNL     1       2.675  13.097   7.587  1.00  0.00    -0.237 OA
ATOM     90  O   UNL     1       0.441  12.983   6.565  1.00  0.00    -0.744 OA
ENDBRANCH  83  87
ENDBRANCH  56  80
BRANCH  68  91
ATOM     91  C   UNL     1       9.921   8.352   7.031  1.00  0.00     0.023 A 
ATOM     92  C   UNL     1       9.354   7.104   6.681  1.00  0.00     0.031 A 
ATOM     93  C   UNL     1      10.820   8.388   8.111  1.00  0.00     0.131 A 
ATOM     94  C   UNL     1       9.719   5.946   7.404  1.00  0.00     0.055 A 
ATOM     95  C   UNL     1      11.195   7.239   8.803  1.00  0.00     0.041 A 
ATOM     96  F   UNL     1      11.407   9.543   8.465  1.00  0.00    -0.206 F 
ATOM     97  C   UNL     1      10.649   6.012   8.448  1.00  0.00     0.022 A 
BRANCH  94  98
ATOM     98  S   UNL     1       9.035   4.311   6.965  1.00  0.00     0.124 S 
ATOM     99  O   UNL     1       7.605   4.479   7.199  1.00  0.00    -0.237 OA
ATOM    100  O   UNL     1       9.443   4.150   5.572  1.00  0.00    -0.237 OA
ATOM    101  O   UNL     1       9.699   3.398   7.898  1.00  0.00    -0.744 OA
ENDBRANCH  94  98
ENDBRANCH  68  91
ENDBRANCH  42  43
ENDBRANCH  34  37
ENDBRANCH  32  33
ENDBRANCH  31  32
ENDBRANCH   1  31
TORSDOF 19
