REMARK SMILES COc1cc([C@@H]2CC(=O)Nc3c(C(=O)NCCCCNC(=O)c4ccc(-c5c6nc(c(-c7cc(S(=O)(=O)[O-])ccc7F)c7ccc([nH]7)c(-c7cc(S(=O)(=O)[O-])ccc7F)c7nc(c(-c8cc(S(=O)(=O)[O-])ccc8F)c8ccc5[nH]8)C=C7)C=C6)cc4)cn(-c4ccc(F)cc4)c32)c(OC)c2c1OCO2
REMARK SMILES IDX 18 1 17 2 16 3 15 4 13 5 14 6 12 8 6 9 7 10 95 11 8 12 11 13
REMARK SMILES IDX 87 14 9 15 10 16 86 17 5 19 3 20 4 21 100 22 99 23 101 24
REMARK SMILES IDX 96 25 103 26 102 27 2 28 1 29 97 30 98 31 88 32 89 33 94 34
REMARK SMILES IDX 90 35 93 36 91 37 92 38 19 39 20 40 21 41 22 43 23 44 24 45
REMARK SMILES IDX 85 46 25 47 84 48 26 49 27 50 28 51 78 52 29 53 83 54 77 55
REMARK SMILES IDX 79 56 30 57 82 58 76 59 75 60 31 62 63 63 43 64 62 65 44 66
REMARK SMILES IDX 47 67 61 68 80 69 45 70 46 71 60 73 81 74 48 75 32 76 33 77
REMARK SMILES IDX 41 78 34 79 40 80 42 81 39 82 35 83 36 84 37 85 38 86 64 87
REMARK SMILES IDX 65 88 73 89 66 90 72 91 74 92 71 93 67 94 68 95 69 96 70 97
REMARK SMILES IDX 49 98 50 99 58 100 51 101 57 102 59 103 56 104 52 105 53 106
REMARK SMILES IDX 54 107 55 108
REMARK H PARENT 15 7 10 18 20 42 79 61 47 72
REMARK Flexibility Score: inf
ROOT
ATOM      1  C   UNL     1      -0.938  11.288  -6.334  1.00  0.00     0.023 C 
ENDROOT
BRANCH   1   2
ATOM      2  C   UNL     1      -0.568   9.978  -5.626  1.00  0.00     0.023 C 
BRANCH   2   3
ATOM      3  C   UNL     1       0.125  10.155  -4.267  1.00  0.00     0.116 C 
BRANCH   3   4
ATOM      4  N   UNL     1      -0.839  10.257  -3.198  1.00  0.00    -0.352 N 
ATOM      5  C   UNL     1      -1.474   9.353  -2.391  1.00  0.00     0.254 C 
ATOM      6  O   UNL     1      -2.226   9.866  -1.555  1.00  0.00    -0.269 OA
ATOM      7  H   UNL     1      -1.098  11.187  -3.005  1.00  0.00     0.163 HD
BRANCH   5   8
ATOM      8  C   UNL     1      -1.332   7.887  -2.443  1.00  0.00     0.081 A 
ATOM      9  C   UNL     1      -0.690   4.333  -3.458  1.00  0.00     0.082 C 
ATOM     10  C   UNL     1      -0.528   4.554  -4.965  1.00  0.00     0.115 C 
ATOM     11  C   UNL     1      -1.007   5.635  -2.769  1.00  0.00     0.055 A 
ATOM     12  C   UNL     1       0.105   5.876  -5.332  1.00  0.00     0.225 C 
ATOM     13  C   UNL     1      -0.794   6.890  -3.317  1.00  0.00     0.076 A 
ATOM     14  N   UNL     1      -1.713   5.795  -1.597  1.00  0.00    -0.317 N 
ATOM     15  O   UNL     1       0.720   6.026  -6.388  1.00  0.00    -0.275 OA
ATOM     16  N   UNL     1      -0.172   6.958  -4.541  1.00  0.00    -0.324 N 
ATOM     17  C   UNL     1      -1.939   7.137  -1.431  1.00  0.00     0.107 A 
ATOM     18  H   UNL     1       0.093   7.846  -4.871  1.00  0.00     0.170 HD
BRANCH   9  19
ATOM     19  C   UNL     1       0.474   3.519  -2.889  1.00  0.00     0.012 A 
ATOM     20  C   UNL     1       1.149   1.356  -1.932  1.00  0.00     0.165 A 
ATOM     21  C   UNL     1       0.193   2.171  -2.533  1.00  0.00     0.059 A 
ATOM     22  C   UNL     1       2.423   1.862  -1.791  1.00  0.00     0.211 A 
ATOM     23  C   UNL     1       2.736   3.152  -2.179  1.00  0.00     0.211 A 
ATOM     24  O   UNL     1       3.499   1.191  -1.292  1.00  0.00    -0.449 OA
ATOM     25  C   UNL     1       1.786   4.015  -2.718  1.00  0.00     0.168 A 
ATOM     26  O   UNL     1       4.055   3.423  -1.952  1.00  0.00    -0.449 OA
ATOM     27  C   UNL     1       4.542   2.161  -1.476  1.00  0.00     0.468 C 
BRANCH  20  28
ATOM     28  O   UNL     1       0.743   0.107  -1.561  1.00  0.00    -0.493 OA
ATOM     29  C   UNL     1       1.087  -0.206  -0.212  1.00  0.00     0.278 C 
ENDBRANCH  20  28
BRANCH  25  30
ATOM     30  O   UNL     1       1.994   5.305  -3.105  1.00  0.00    -0.492 OA
ATOM     31  C   UNL     1       3.315   5.831  -3.056  1.00  0.00     0.278 C 
ENDBRANCH  25  30
ENDBRANCH   9  19
BRANCH  14  32
ATOM     32  C   UNL     1      -2.265   4.777  -0.786  1.00  0.00     0.046 A 
ATOM     33  C   UNL     1      -1.443   3.775  -0.265  1.00  0.00     0.029 A 
ATOM     34  C   UNL     1      -3.648   4.746  -0.570  1.00  0.00     0.029 A 
ATOM     35  C   UNL     1      -2.012   2.679   0.382  1.00  0.00     0.041 A 
ATOM     36  C   UNL     1      -4.212   3.645   0.079  1.00  0.00     0.041 A 
ATOM     37  C   UNL     1      -3.392   2.613   0.528  1.00  0.00     0.123 A 
ATOM     38  F   UNL     1      -3.942   1.538   1.108  1.00  0.00    -0.207 F 
ENDBRANCH  14  32
ENDBRANCH   5   8
ENDBRANCH   3   4
ENDBRANCH   2   3
ENDBRANCH   1   2
BRANCH   1  39
ATOM     39  C   UNL     1       0.258  12.027  -6.932  1.00  0.00     0.116 C 
BRANCH  39  40
ATOM     40  N   UNL     1       0.910  11.270  -7.997  1.00  0.00    -0.352 N 
ATOM     41  C   UNL     1       2.179  11.455  -8.515  1.00  0.00     0.251 C 
ATOM     42  H   UNL     1       0.383  10.539  -8.394  1.00  0.00     0.163 HD
ATOM     43  O   UNL     1       2.453  11.077  -9.642  1.00  0.00    -0.269 OA
BRANCH  41  44
ATOM     44  C   UNL     1       3.192  12.116  -7.671  1.00  0.00     0.039 A 
ATOM     45  C   UNL     1       3.985  13.146  -8.182  1.00  0.00     0.014 A 
ATOM     46  C   UNL     1       3.301  11.718  -6.339  1.00  0.00     0.014 A 
ATOM     47  C   UNL     1       4.824  13.845  -7.315  1.00  0.00     0.010 A 
ATOM     48  C   UNL     1       4.067  12.462  -5.467  1.00  0.00     0.010 A 
ATOM     49  C   UNL     1       4.841  13.521  -5.949  1.00  0.00    -0.014 A 
BRANCH  49  50
ATOM     50  C   UNL     1       5.494  14.415  -4.983  1.00  0.00     0.031 A 
ATOM     51  C   UNL     1       4.979  15.816  -5.014  1.00  0.00     0.074 A 
ATOM     52  C   UNL     1       6.269  13.970  -3.967  1.00  0.00     0.049 A 
ATOM     53  N   UNL     1       5.613  16.898  -5.327  1.00  0.00    -0.248 NA
ATOM     54  C   UNL     1       3.531  16.022  -4.826  1.00  0.00     0.031 C 
ATOM     55  C   UNL     1       6.584  12.570  -3.660  1.00  0.00     0.029 A 
ATOM     56  N   UNL     1       6.827  14.641  -2.914  1.00  0.00    -0.354 N 
ATOM     57  C   UNL     1       4.715  17.944  -5.106  1.00  0.00     0.074 A 
ATOM     58  C   UNL     1       3.419  17.333  -5.042  1.00  0.00     0.031 C 
ATOM     59  C   UNL     1       7.050  12.474  -2.397  1.00  0.00     0.029 A 
ATOM     60  C   UNL     1       7.233  13.813  -1.865  1.00  0.00     0.049 A 
ATOM     61  H   UNL     1       6.933  15.619  -2.897  1.00  0.00     0.167 HD
ATOM     62  C   UNL     1       5.159  19.164  -4.685  1.00  0.00     0.034 A 
ATOM     63  C   UNL     1       7.685  14.178  -0.636  1.00  0.00     0.034 A 
ATOM     64  C   UNL     1       6.591  19.257  -4.864  1.00  0.00     0.049 A 
ATOM     65  C   UNL     1       8.193  15.560  -0.752  1.00  0.00     0.074 A 
ATOM     66  C   UNL     1       7.468  19.343  -5.923  1.00  0.00     0.029 A 
ATOM     67  N   UNL     1       7.326  18.892  -3.762  1.00  0.00    -0.354 N 
ATOM     68  N   UNL     1       9.215  15.878  -1.496  1.00  0.00    -0.248 NA
ATOM     69  C   UNL     1       7.353  16.679  -0.346  1.00  0.00     0.031 C 
ATOM     70  C   UNL     1       8.683  18.746  -5.470  1.00  0.00     0.029 A 
ATOM     71  C   UNL     1       8.533  18.367  -4.136  1.00  0.00     0.049 A 
ATOM     72  H   UNL     1       7.025  18.995  -2.830  1.00  0.00     0.167 HD
ATOM     73  C   UNL     1       8.896  17.118  -2.013  1.00  0.00     0.074 A 
ATOM     74  C   UNL     1       7.854  17.635  -1.134  1.00  0.00     0.031 C 
ATOM     75  C   UNL     1       9.275  17.459  -3.279  1.00  0.00     0.034 A 
BRANCH  62  76
ATOM     76  C   UNL     1       4.459  20.053  -3.653  1.00  0.00     0.023 A 
ATOM     77  C   UNL     1       5.205  21.147  -3.156  1.00  0.00     0.031 A 
ATOM     78  C   UNL     1       3.299  19.736  -2.914  1.00  0.00     0.131 A 
ATOM     79  C   UNL     1       4.892  21.748  -1.924  1.00  0.00     0.055 A 
ATOM     80  C   UNL     1       2.965  20.370  -1.710  1.00  0.00     0.041 A 
ATOM     81  F   UNL     1       2.453  18.762  -3.262  1.00  0.00    -0.206 F 
ATOM     82  C   UNL     1       3.783  21.353  -1.187  1.00  0.00     0.022 A 
BRANCH  79  83
ATOM     83  S   UNL     1       6.071  22.927  -1.213  1.00  0.00     0.124 S 
ATOM     84  O   UNL     1       7.306  22.151  -1.229  1.00  0.00    -0.237 OA
ATOM     85  O   UNL     1       5.989  24.036  -2.158  1.00  0.00    -0.237 OA
ATOM     86  O   UNL     1       5.520  23.197   0.113  1.00  0.00    -0.744 OA
ENDBRANCH  79  83
ENDBRANCH  62  76
BRANCH  63  87
ATOM     87  C   UNL     1       7.507  13.479   0.666  1.00  0.00     0.023 A 
ATOM     88  C   UNL     1       8.357  13.685   1.775  1.00  0.00     0.031 A 
ATOM     89  C   UNL     1       6.310  12.770   0.908  1.00  0.00     0.131 A 
ATOM     90  C   UNL     1       7.988  13.206   3.055  1.00  0.00     0.055 A 
ATOM     91  C   UNL     1       5.950  12.301   2.173  1.00  0.00     0.041 A 
ATOM     92  F   UNL     1       5.406  12.585  -0.068  1.00  0.00    -0.206 F 
ATOM     93  C   UNL     1       6.783  12.529   3.257  1.00  0.00     0.022 A 
BRANCH  90  94
ATOM     94  S   UNL     1       9.035  13.542   4.511  1.00  0.00     0.124 S 
ATOM     95  O   UNL     1      10.213  12.725   4.242  1.00  0.00    -0.237 OA
ATOM     96  O   UNL     1       9.216  14.987   4.442  1.00  0.00    -0.237 OA
ATOM     97  O   UNL     1       8.216  13.083   5.634  1.00  0.00    -0.744 OA
ENDBRANCH  90  94
ENDBRANCH  63  87
BRANCH  75  98
ATOM     98  C   UNL     1      10.462  16.737  -3.868  1.00  0.00     0.023 A 
ATOM     99  C   UNL     1      10.536  15.350  -4.119  1.00  0.00     0.031 A 
ATOM    100  C   UNL     1      11.562  17.531  -4.235  1.00  0.00     0.131 A 
ATOM    101  C   UNL     1      11.694  14.806  -4.708  1.00  0.00     0.055 A 
ATOM    102  C   UNL     1      12.696  16.994  -4.838  1.00  0.00     0.041 A 
ATOM    103  F   UNL     1      11.541  18.859  -4.034  1.00  0.00    -0.206 F 
ATOM    104  C   UNL     1      12.769  15.626  -5.071  1.00  0.00     0.022 A 
BRANCH 101 105
ATOM    105  S   UNL     1      11.841  13.012  -4.990  1.00  0.00     0.124 S 
ATOM    106  O   UNL     1      11.428  12.429  -3.719  1.00  0.00    -0.237 OA
ATOM    107  O   UNL     1      10.936  12.795  -6.116  1.00  0.00    -0.237 OA
ATOM    108  O   UNL     1      13.259  12.833  -5.310  1.00  0.00    -0.744 OA
ENDBRANCH 101 105
ENDBRANCH  75  98
ENDBRANCH  49  50
ENDBRANCH  41  44
ENDBRANCH  39  40
ENDBRANCH   1  39
TORSDOF 18
