REMARK SMILES CCCC1(C(=O)N2CCO[C@@H](CC(=O)NCCCCNC(=O)c3ccc(-c4c5nc(c(-c6cc(S(=O)(=O)[O-])ccc6F)c6ccc([nH]6)c(-c6cc(S(=O)(=O)[O-])ccc6F)c6nc(c(-c7cc(S(=O)(=O)[O-])ccc7F)c7ccc4[nH]7)C=C6)C=C5)cc3)C2)CC[NH2+]CC1
REMARK SMILES IDX 16 1 15 2 13 3 14 4 12 6 11 7 7 8 8 9 86 10 9 11 10 12 5 13
REMARK SMILES IDX 6 14 4 15 87 16 91 17 88 18 90 19 89 20 3 23 2 24 1 25 17 26
REMARK SMILES IDX 18 27 19 28 20 29 21 30 22 32 23 33 24 34 85 35 25 36 84 37
REMARK SMILES IDX 26 38 27 39 28 40 78 41 29 42 83 43 77 44 79 45 30 46 82 47
REMARK SMILES IDX 76 48 75 49 31 51 63 52 43 53 62 54 44 55 47 56 61 57 80 58
REMARK SMILES IDX 45 59 46 60 60 62 81 63 48 64 32 65 33 66 41 67 34 68 40 69
REMARK SMILES IDX 42 70 39 71 35 72 36 73 37 74 38 75 64 76 65 77 73 78 66 79
REMARK SMILES IDX 72 80 74 81 71 82 67 83 68 84 69 85 70 86 49 87 50 88 58 89
REMARK SMILES IDX 51 90 57 91 59 92 56 93 52 94 53 95 54 96 55 97
REMARK H PARENT 15 5 89 21 89 22 20 31 79 50 47 61
REMARK Flexibility Score: inf
ROOT
ATOM      1  C   UNL     1      -0.320  -0.089   4.754  1.00  0.00     0.116 C 
ENDROOT
BRANCH   1   2
ATOM      2  N   UNL     1      -1.744  -0.299   4.535  1.00  0.00    -0.356 N 
ATOM      3  C   UNL     1      -2.487  -1.443   4.559  1.00  0.00     0.222 C 
ATOM      4  O   UNL     1      -3.668  -1.387   4.213  1.00  0.00    -0.275 OA
ATOM      5  H   UNL     1      -2.255   0.519   4.337  1.00  0.00     0.163 HD
BRANCH   3   6
ATOM      6  C   UNL     1      -1.870  -2.759   4.981  1.00  0.00     0.133 C 
BRANCH   6   7
ATOM      7  C   UNL     1      -1.464  -3.649   3.802  1.00  0.00     0.147 C 
ATOM      8  N   UNL     1       0.212  -3.767   1.929  1.00  0.00    -0.337 N 
ATOM      9  C   UNL     1       0.816  -4.912   2.596  1.00  0.00     0.148 C 
ATOM     10  C   UNL     1      -0.495  -2.914   2.865  1.00  0.00     0.152 C 
ATOM     11  C   UNL     1      -0.269  -5.670   3.359  1.00  0.00     0.182 C 
ATOM     12  O   UNL     1      -0.846  -4.829   4.371  1.00  0.00    -0.374 OA
BRANCH   8  13
ATOM     13  C   UNL     1       0.951  -3.097   0.953  1.00  0.00     0.229 C 
ATOM     14  O   UNL     1       1.971  -2.478   1.247  1.00  0.00    -0.274 OA
BRANCH  13  15
ATOM     15  C   UNL     1       0.436  -3.272  -0.500  1.00  0.00     0.060 C 
ATOM     16  C   UNL     1       0.829  -4.719  -0.917  1.00  0.00     0.078 C 
ATOM     17  C   UNL     1      -1.106  -3.153  -0.552  1.00  0.00     0.078 C 
ATOM     18  C   UNL     1       0.139  -5.200  -2.191  1.00  0.00     0.261 C 
ATOM     19  C   UNL     1      -1.694  -3.666  -1.862  1.00  0.00     0.261 C 
ATOM     20  N   UNL     1      -1.311  -5.060  -2.088  1.00  0.00    -0.346 N 
ATOM     21  H   UNL     1      -1.646  -5.628  -1.310  1.00  0.00     0.346 HD
ATOM     22  H   UNL     1      -1.728  -5.371  -2.966  1.00  0.00     0.346 HD
BRANCH  15  23
ATOM     23  C   UNL     1       1.158  -2.280  -1.477  1.00  0.00     0.017 C 
BRANCH  23  24
ATOM     24  C   UNL     1       0.617  -0.851  -1.633  1.00  0.00    -0.002 C 
ATOM     25  C   UNL     1       0.828   0.037  -0.425  1.00  0.00     0.004 C 
ENDBRANCH  23  24
ENDBRANCH  15  23
ENDBRANCH  13  15
ENDBRANCH   8  13
ENDBRANCH   6   7
ENDBRANCH   3   6
ENDBRANCH   1   2
BRANCH   1  26
ATOM     26  C   UNL     1       0.409   0.158   3.431  1.00  0.00     0.023 C 
BRANCH  26  27
ATOM     27  C   UNL     1       0.405   1.599   2.954  1.00  0.00     0.023 C 
BRANCH  27  28
ATOM     28  C   UNL     1       1.304   2.514   3.760  1.00  0.00     0.116 C 
BRANCH  28  29
ATOM     29  N   UNL     1       2.711   2.134   3.705  1.00  0.00    -0.352 N 
ATOM     30  C   UNL     1       3.813   2.887   3.361  1.00  0.00     0.251 C 
ATOM     31  H   UNL     1       2.902   1.200   3.951  1.00  0.00     0.163 HD
ATOM     32  O   UNL     1       4.913   2.362   3.270  1.00  0.00    -0.269 OA
BRANCH  30  33
ATOM     33  C   UNL     1       3.634   4.322   3.055  1.00  0.00     0.039 A 
ATOM     34  C   UNL     1       4.239   4.854   1.914  1.00  0.00     0.014 A 
ATOM     35  C   UNL     1       2.803   5.114   3.847  1.00  0.00     0.014 A 
ATOM     36  C   UNL     1       3.923   6.154   1.514  1.00  0.00     0.010 A 
ATOM     37  C   UNL     1       2.393   6.353   3.380  1.00  0.00     0.010 A 
ATOM     38  C   UNL     1       2.951   6.891   2.211  1.00  0.00    -0.014 A 
BRANCH  38  39
ATOM     39  C   UNL     1       2.501   8.229   1.750  1.00  0.00     0.031 A 
ATOM     40  C   UNL     1       2.636   9.415   2.666  1.00  0.00     0.074 A 
ATOM     41  C   UNL     1       1.879   8.355   0.561  1.00  0.00     0.049 A 
ATOM     42  N   UNL     1       2.189  10.635   2.517  1.00  0.00    -0.248 NA
ATOM     43  C   UNL     1       3.317   9.178   3.948  1.00  0.00     0.031 C 
ATOM     44  C   UNL     1       1.621   7.262  -0.382  1.00  0.00     0.029 A 
ATOM     45  N   UNL     1       1.334   9.454  -0.053  1.00  0.00    -0.354 N 
ATOM     46  C   UNL     1       2.505  11.298   3.699  1.00  0.00     0.074 A 
ATOM     47  C   UNL     1       3.104  10.320   4.580  1.00  0.00     0.031 C 
ATOM     48  C   UNL     1       0.996   7.751  -1.464  1.00  0.00     0.029 A 
ATOM     49  C   UNL     1       0.763   9.179  -1.274  1.00  0.00     0.049 A 
ATOM     50  H   UNL     1       1.349  10.355   0.343  1.00  0.00     0.167 HD
ATOM     51  C   UNL     1       2.340  12.609   4.007  1.00  0.00     0.034 A 
ATOM     52  C   UNL     1       0.114   9.984  -2.138  1.00  0.00     0.034 A 
ATOM     53  C   UNL     1       1.770  13.571   3.097  1.00  0.00     0.049 A 
ATOM     54  C   UNL     1      -0.047  11.439  -1.787  1.00  0.00     0.074 A 
ATOM     55  C   UNL     1       1.641  14.939   3.255  1.00  0.00     0.029 A 
ATOM     56  N   UNL     1       1.226  13.262   1.855  1.00  0.00    -0.354 N 
ATOM     57  N   UNL     1       0.324  12.072  -0.698  1.00  0.00    -0.248 NA
ATOM     58  C   UNL     1      -0.707  12.289  -2.785  1.00  0.00     0.031 C 
ATOM     59  C   UNL     1       0.960  15.446   2.142  1.00  0.00     0.029 A 
ATOM     60  C   UNL     1       0.726  14.407   1.254  1.00  0.00     0.049 A 
ATOM     61  H   UNL     1       1.198  12.361   1.460  1.00  0.00     0.167 HD
ATOM     62  C   UNL     1      -0.047  13.399  -0.885  1.00  0.00     0.074 A 
ATOM     63  C   UNL     1      -0.650  13.478  -2.201  1.00  0.00     0.031 C 
ATOM     64  C   UNL     1       0.099  14.459  -0.047  1.00  0.00     0.034 A 
BRANCH  51  65
ATOM     65  C   UNL     1       2.765  13.051   5.389  1.00  0.00     0.023 A 
ATOM     66  C   UNL     1       4.091  12.905   5.837  1.00  0.00     0.031 A 
ATOM     67  C   UNL     1       1.822  13.560   6.298  1.00  0.00     0.131 A 
ATOM     68  C   UNL     1       4.411  13.153   7.180  1.00  0.00     0.055 A 
ATOM     69  C   UNL     1       2.169  13.900   7.608  1.00  0.00     0.041 A 
ATOM     70  F   UNL     1       0.537  13.708   5.940  1.00  0.00    -0.206 F 
ATOM     71  C   UNL     1       3.465  13.675   8.063  1.00  0.00     0.022 A 
BRANCH  68  72
ATOM     72  S   UNL     1       6.026  12.603   7.798  1.00  0.00     0.124 S 
ATOM     73  O   UNL     1       5.992  11.176   7.481  1.00  0.00    -0.237 OA
ATOM     74  O   UNL     1       6.955  13.409   7.014  1.00  0.00    -0.237 OA
ATOM     75  O   UNL     1       5.973  12.917   9.224  1.00  0.00    -0.744 OA
ENDBRANCH  68  72
ENDBRANCH  51  65
BRANCH  52  76
ATOM     76  C   UNL     1      -0.437   9.430  -3.406  1.00  0.00     0.023 A 
ATOM     77  C   UNL     1       0.109   9.784  -4.649  1.00  0.00     0.031 A 
ATOM     78  C   UNL     1      -1.519   8.532  -3.391  1.00  0.00     0.131 A 
ATOM     79  C   UNL     1      -0.445   9.266  -5.830  1.00  0.00     0.055 A 
ATOM     80  C   UNL     1      -2.041   7.987  -4.566  1.00  0.00     0.041 A 
ATOM     81  F   UNL     1      -2.070   8.152  -2.227  1.00  0.00    -0.206 F 
ATOM     82  C   UNL     1      -1.508   8.360  -5.796  1.00  0.00     0.022 A 
BRANCH  79  83
ATOM     83  S   UNL     1       0.218   9.825  -7.423  1.00  0.00     0.124 S 
ATOM     84  O   UNL     1      -0.051  11.258  -7.371  1.00  0.00    -0.237 OA
ATOM     85  O   UNL     1       1.619   9.430  -7.325  1.00  0.00    -0.237 OA
ATOM     86  O   UNL     1      -0.570   9.077  -8.401  1.00  0.00    -0.744 OA
ENDBRANCH  79  83
ENDBRANCH  52  76
BRANCH  64  87
ATOM     87  C   UNL     1      -0.396  15.793  -0.547  1.00  0.00     0.023 A 
ATOM     88  C   UNL     1      -1.765  16.042  -0.743  1.00  0.00     0.031 A 
ATOM     89  C   UNL     1       0.515  16.823  -0.841  1.00  0.00     0.131 A 
ATOM     90  C   UNL     1      -2.182  17.273  -1.269  1.00  0.00     0.055 A 
ATOM     91  C   UNL     1       0.089  18.067  -1.308  1.00  0.00     0.041 A 
ATOM     92  F   UNL     1       1.834  16.637  -0.675  1.00  0.00    -0.206 F 
ATOM     93  C   UNL     1      -1.265  18.293  -1.537  1.00  0.00     0.022 A 
BRANCH  90  94
ATOM     94  S   UNL     1      -3.934  17.494  -1.684  1.00  0.00     0.124 S 
ATOM     95  O   UNL     1      -4.149  16.432  -2.662  1.00  0.00    -0.237 OA
ATOM     96  O   UNL     1      -4.587  17.314  -0.392  1.00  0.00    -0.237 OA
ATOM     97  O   UNL     1      -3.990  18.852  -2.222  1.00  0.00    -0.744 OA
ENDBRANCH  90  94
ENDBRANCH  64  87
ENDBRANCH  38  39
ENDBRANCH  30  33
ENDBRANCH  28  29
ENDBRANCH  27  28
ENDBRANCH  26  27
ENDBRANCH   1  26
TORSDOF 19
