REMARK SMILES [NH3+]C1(C(=O)N2[C@@H](C(=O)NCCCCNC(=O)c3ccc(-c4c5nc(c(-c6cc(S(=O)(=O)[O-])ccc6F)c6ccc([nH]6)c(-c6cc(S(=O)(=O)[O-])ccc6F)c6nc(c(-c7cc(S(=O)(=O)[O-])ccc7F)c7ccc4[nH]7)C=C6)C=C5)cc3)CC[C@@H]3CCCC[C@@H]32)CC1
REMARK SMILES IDX 11 1 10 2 9 3 7 4 8 5 6 7 5 8 87 9 80 10 82 11 86 12 81 13
REMARK SMILES IDX 83 14 85 15 84 16 3 17 4 18 2 19 88 20 89 21 1 22 12 26
REMARK SMILES IDX 13 27 14 28 15 29 16 31 17 32 18 33 79 34 19 35 78 36 20 37
REMARK SMILES IDX 21 38 22 39 72 40 23 41 77 42 71 43 73 44 24 45 76 46 70 47
REMARK SMILES IDX 69 48 25 50 57 51 37 52 56 53 38 54 41 55 55 56 74 57 39 58
REMARK SMILES IDX 40 59 54 61 75 62 42 63 26 64 27 65 35 66 28 67 34 68 36 69
REMARK SMILES IDX 33 70 29 71 30 72 31 73 32 74 58 75 59 76 67 77 60 78 66 79
REMARK SMILES IDX 68 80 65 81 61 82 62 83 63 84 64 85 43 86 44 87 52 88 45 89
REMARK SMILES IDX 51 90 53 91 50 92 46 93 47 94 48 95 49 96
REMARK H PARENT 9 6 1 23 1 24 1 25 14 30 73 49 41 60
REMARK Flexibility Score: inf
ROOT
ATOM      1  C   UNL     1      -4.164  -1.267   1.139  1.00  0.00     0.023 C 
ENDROOT
BRANCH   1   2
ATOM      2  C   UNL     1      -2.825  -0.871   0.519  1.00  0.00     0.116 C 
BRANCH   2   3
ATOM      3  N   UNL     1      -2.272  -1.991  -0.215  1.00  0.00    -0.354 N 
ATOM      4  C   UNL     1      -2.169  -2.160  -1.557  1.00  0.00     0.242 C 
ATOM      5  O   UNL     1      -2.015  -3.312  -1.975  1.00  0.00    -0.273 OA
ATOM      6  H   UNL     1      -1.925  -2.730   0.335  1.00  0.00     0.163 HD
BRANCH   4   7
ATOM      7  C   UNL     1      -2.381  -0.997  -2.546  1.00  0.00     0.175 C 
ATOM      8  N   UNL     1      -1.739   0.315  -2.266  1.00  0.00    -0.322 N 
ATOM      9  C   UNL     1      -2.191   1.447  -3.104  1.00  0.00     0.089 C 
ATOM     10  C   UNL     1      -3.925  -0.858  -2.678  1.00  0.00     0.036 C 
ATOM     11  C   UNL     1      -3.701   1.617  -3.039  1.00  0.00     0.012 C 
ATOM     12  C   UNL     1      -1.653   1.320  -4.548  1.00  0.00     0.025 C 
ATOM     13  C   UNL     1      -4.399   0.335  -3.497  1.00  0.00     0.008 C 
ATOM     14  C   UNL     1      -4.082   2.847  -3.862  1.00  0.00     0.006 C 
ATOM     15  C   UNL     1      -2.381   2.109  -5.643  1.00  0.00     0.002 C 
ATOM     16  C   UNL     1      -3.771   2.667  -5.339  1.00  0.00     0.000 C 
BRANCH   8  17
ATOM     17  C   UNL     1      -0.531   0.565  -1.591  1.00  0.00     0.284 C 
ATOM     18  O   UNL     1      -0.230   1.721  -1.282  1.00  0.00    -0.268 OA
BRANCH  17  19
ATOM     19  C   UNL     1       0.497  -0.510  -1.267  1.00  0.00     0.174 C 
ATOM     20  C   UNL     1       1.601  -0.578  -2.324  1.00  0.00     0.086 C 
ATOM     21  C   UNL     1       0.781  -1.783  -2.025  1.00  0.00     0.086 C 
BRANCH  19  22
ATOM     22  N   UNL     1       0.951  -0.449   0.147  1.00  0.00    -0.345 N 
ATOM     23  H   UNL     1       0.702   0.456   0.546  1.00  0.00     0.345 HD
ATOM     24  H   UNL     1       1.964  -0.570   0.184  1.00  0.00     0.345 HD
ATOM     25  H   UNL     1       0.501  -1.192   0.681  1.00  0.00     0.345 HD
ENDBRANCH  19  22
ENDBRANCH  17  19
ENDBRANCH   8  17
ENDBRANCH   4   7
ENDBRANCH   2   3
ENDBRANCH   1   2
BRANCH   1  26
ATOM     26  C   UNL     1      -4.058  -2.362   2.204  1.00  0.00     0.023 C 
BRANCH  26  27
ATOM     27  C   UNL     1      -3.058  -2.067   3.314  1.00  0.00     0.116 C 
BRANCH  27  28
ATOM     28  N   UNL     1      -3.329  -0.800   3.972  1.00  0.00    -0.352 N 
ATOM     29  C   UNL     1      -3.346  -0.513   5.311  1.00  0.00     0.251 C 
ATOM     30  H   UNL     1      -3.528  -0.044   3.373  1.00  0.00     0.163 HD
ATOM     31  O   UNL     1      -3.797   0.567   5.694  1.00  0.00    -0.269 OA
BRANCH  29  32
ATOM     32  C   UNL     1      -2.858  -1.511   6.283  1.00  0.00     0.039 A 
ATOM     33  C   UNL     1      -3.589  -1.720   7.452  1.00  0.00     0.014 A 
ATOM     34  C   UNL     1      -1.691  -2.245   6.040  1.00  0.00     0.014 A 
ATOM     35  C   UNL     1      -3.176  -2.700   8.353  1.00  0.00     0.010 A 
ATOM     36  C   UNL     1      -1.333  -3.282   6.896  1.00  0.00     0.010 A 
ATOM     37  C   UNL     1      -2.066  -3.515   8.067  1.00  0.00    -0.014 A 
BRANCH  37  38
ATOM     38  C   UNL     1      -1.687  -4.611   8.995  1.00  0.00     0.031 A 
ATOM     39  C   UNL     1      -0.362  -4.591   9.707  1.00  0.00     0.074 A 
ATOM     40  C   UNL     1      -2.546  -5.632   9.188  1.00  0.00     0.049 A 
ATOM     41  N   UNL     1       0.110  -5.427  10.597  1.00  0.00    -0.248 NA
ATOM     42  C   UNL     1       0.567  -3.507   9.354  1.00  0.00     0.031 C 
ATOM     43  C   UNL     1      -3.832  -5.791   8.502  1.00  0.00     0.029 A 
ATOM     44  N   UNL     1      -2.482  -6.718  10.023  1.00  0.00    -0.354 N 
ATOM     45  C   UNL     1       1.385  -4.970  10.912  1.00  0.00     0.074 A 
ATOM     46  C   UNL     1       1.641  -3.828  10.060  1.00  0.00     0.031 C 
ATOM     47  C   UNL     1      -4.458  -6.874   8.986  1.00  0.00     0.029 A 
ATOM     48  C   UNL     1      -3.604  -7.513   9.981  1.00  0.00     0.049 A 
ATOM     49  H   UNL     1      -1.707  -6.910  10.599  1.00  0.00     0.167 HD
ATOM     50  C   UNL     1       2.250  -5.441  11.845  1.00  0.00     0.034 A 
ATOM     51  C   UNL     1      -3.914  -8.629  10.671  1.00  0.00     0.034 A 
ATOM     52  C   UNL     1       1.975  -6.584  12.684  1.00  0.00     0.049 A 
ATOM     53  C   UNL     1      -2.935  -9.135  11.699  1.00  0.00     0.074 A 
ATOM     54  C   UNL     1       2.757  -7.122  13.691  1.00  0.00     0.029 A 
ATOM     55  N   UNL     1       0.833  -7.374  12.607  1.00  0.00    -0.354 N 
ATOM     56  N   UNL     1      -1.760  -8.650  12.034  1.00  0.00    -0.248 NA
ATOM     57  C   UNL     1      -3.335 -10.325  12.457  1.00  0.00     0.031 C 
ATOM     58  C   UNL     1       2.128  -8.278  14.167  1.00  0.00     0.029 A 
ATOM     59  C   UNL     1       0.906  -8.411  13.526  1.00  0.00     0.049 A 
ATOM     60  H   UNL     1       0.082  -7.219  11.990  1.00  0.00     0.167 HD
ATOM     61  C   UNL     1      -1.297  -9.461  13.068  1.00  0.00     0.074 A 
ATOM     62  C   UNL     1      -2.334 -10.443  13.315  1.00  0.00     0.031 C 
ATOM     63  C   UNL     1      -0.124  -9.399  13.751  1.00  0.00     0.034 A 
BRANCH  50  64
ATOM     64  C   UNL     1       3.580  -4.734  11.983  1.00  0.00     0.023 A 
ATOM     65  C   UNL     1       3.664  -3.379  12.352  1.00  0.00     0.031 A 
ATOM     66  C   UNL     1       4.781  -5.417  11.723  1.00  0.00     0.131 A 
ATOM     67  C   UNL     1       4.910  -2.733  12.377  1.00  0.00     0.055 A 
ATOM     68  C   UNL     1       6.025  -4.791  11.835  1.00  0.00     0.041 A 
ATOM     69  F   UNL     1       4.768  -6.704  11.342  1.00  0.00    -0.206 F 
ATOM     70  C   UNL     1       6.094  -3.437  12.148  1.00  0.00     0.022 A 
BRANCH  67  71
ATOM     71  S   UNL     1       4.949  -0.929  12.561  1.00  0.00     0.124 S 
ATOM     72  O   UNL     1       4.140  -0.499  11.422  1.00  0.00    -0.237 OA
ATOM     73  O   UNL     1       4.354  -0.734  13.878  1.00  0.00    -0.237 OA
ATOM     74  O   UNL     1       6.370  -0.605  12.464  1.00  0.00    -0.744 OA
ENDBRANCH  67  71
ENDBRANCH  50  64
BRANCH  51  75
ATOM     75  C   UNL     1      -5.204  -9.337  10.426  1.00  0.00     0.023 A 
ATOM     76  C   UNL     1      -6.170  -9.463  11.437  1.00  0.00     0.031 A 
ATOM     77  C   UNL     1      -5.471  -9.940   9.184  1.00  0.00     0.131 A 
ATOM     78  C   UNL     1      -7.331 -10.219  11.207  1.00  0.00     0.055 A 
ATOM     79  C   UNL     1      -6.654 -10.638   8.940  1.00  0.00     0.041 A 
ATOM     80  F   UNL     1      -4.584  -9.848   8.179  1.00  0.00    -0.206 F 
ATOM     81  C   UNL     1      -7.586 -10.793   9.961  1.00  0.00     0.022 A 
BRANCH  78  82
ATOM     82  S   UNL     1      -8.460 -10.523  12.594  1.00  0.00     0.124 S 
ATOM     83  O   UNL     1      -7.576 -11.165  13.561  1.00  0.00    -0.237 OA
ATOM     84  O   UNL     1      -8.902  -9.173  12.926  1.00  0.00    -0.237 OA
ATOM     85  O   UNL     1      -9.485 -11.388  12.014  1.00  0.00    -0.744 OA
ENDBRANCH  78  82
ENDBRANCH  51  75
BRANCH  63  86
ATOM     86  C   UNL     1       0.068 -10.405  14.864  1.00  0.00     0.023 A 
ATOM     87  C   UNL     1       0.102 -11.788  14.616  1.00  0.00     0.031 A 
ATOM     88  C   UNL     1       0.164  -9.974  16.200  1.00  0.00     0.131 A 
ATOM     89  C   UNL     1       0.132 -12.692  15.689  1.00  0.00     0.055 A 
ATOM     90  C   UNL     1       0.278 -10.876  17.258  1.00  0.00     0.041 A 
ATOM     91  F   UNL     1       0.134  -8.666  16.502  1.00  0.00    -0.206 F 
ATOM     92  C   UNL     1       0.239 -12.245  17.008  1.00  0.00     0.022 A 
BRANCH  89  93
ATOM     93  S   UNL     1      -0.131 -14.454  15.346  1.00  0.00     0.124 S 
ATOM     94  O   UNL     1      -1.396 -14.435  14.619  1.00  0.00    -0.237 OA
ATOM     95  O   UNL     1       1.050 -14.797  14.560  1.00  0.00    -0.237 OA
ATOM     96  O   UNL     1      -0.188 -15.057  16.676  1.00  0.00    -0.744 OA
ENDBRANCH  89  93
ENDBRANCH  63  86
ENDBRANCH  37  38
ENDBRANCH  29  32
ENDBRANCH  27  28
ENDBRANCH  26  27
ENDBRANCH   1  26
TORSDOF 17
