REMARK SMILES COc1cc(OC)cc(-c2ccc([C@@H](C)C(=O)NCCCCNC(=O)c3ccc(-c4c5nc(c(-c6cc(S(=O)(=O)[O-])ccc6F)c6ccc([nH]6)c(-c6cc(S(=O)(=O)[O-])ccc6F)c6nc(c(-c7cc(S(=O)(=O)[O-])ccc7F)c7ccc4[nH]7)C=C6)C=C5)cc3)cc2F)c1
REMARK SMILES IDX 20 1 19 2 18 3 16 4 17 5 14 7 15 8 13 9 10 10 11 11 90 12
REMARK SMILES IDX 12 13 89 14 91 15 9 16 3 17 4 18 92 19 5 20 8 21 2 22 1 23
REMARK SMILES IDX 6 24 7 25 21 26 22 27 23 28 24 29 25 31 26 32 27 33 88 34
REMARK SMILES IDX 28 35 87 36 29 37 30 38 31 39 81 40 32 41 86 42 80 43 82 44
REMARK SMILES IDX 33 45 85 46 79 47 78 48 34 50 66 51 46 52 65 53 47 54 50 55
REMARK SMILES IDX 64 56 83 57 48 58 49 59 63 61 84 62 51 63 35 64 36 65 44 66
REMARK SMILES IDX 37 67 43 68 45 69 42 70 38 71 39 72 40 73 41 74 67 75 68 76
REMARK SMILES IDX 76 77 69 78 75 79 77 80 74 81 70 82 71 83 72 84 73 85 52 86
REMARK SMILES IDX 53 87 61 88 54 89 60 90 62 91 59 92 55 93 56 94 57 95 58 96
REMARK H PARENT 18 6 23 30 82 49 50 60
REMARK Flexibility Score: inf
ROOT
ATOM      1  C   UNL     1       5.837  -0.437   6.806  1.00  0.00     0.023 C 
ENDROOT
BRANCH   1   2
ATOM      2  C   UNL     1       7.237   0.100   7.107  1.00  0.00     0.116 C 
BRANCH   2   3
ATOM      3  N   UNL     1       8.147  -0.084   5.995  1.00  0.00    -0.356 N 
ATOM      4  C   UNL     1       8.517   0.747   4.982  1.00  0.00     0.227 C 
ATOM      5  O   UNL     1       9.286   0.279   4.133  1.00  0.00    -0.274 OA
ATOM      6  H   UNL     1       8.575  -0.970   5.966  1.00  0.00     0.163 HD
BRANCH   4   7
ATOM      7  C   UNL     1       8.041   2.203   4.852  1.00  0.00     0.105 C 
ATOM      8  C   UNL     1       8.476   3.106   6.008  1.00  0.00     0.023 C 
BRANCH   7   9
ATOM      9  C   UNL     1       6.590   2.324   4.416  1.00  0.00    -0.033 A 
ATOM     10  C   UNL     1       3.867   2.368   3.521  1.00  0.00     0.018 A 
ATOM     11  C   UNL     1       4.205   2.436   4.885  1.00  0.00     0.012 A 
ATOM     12  C   UNL     1       4.939   2.299   2.620  1.00  0.00     0.131 A 
ATOM     13  C   UNL     1       5.535   2.456   5.321  1.00  0.00     0.005 A 
ATOM     14  C   UNL     1       6.269   2.258   3.052  1.00  0.00     0.044 A 
ATOM     15  F   UNL     1       4.717   2.281   1.296  1.00  0.00    -0.206 F 
BRANCH  10  16
ATOM     16  C   UNL     1       2.446   2.389   3.095  1.00  0.00    -0.008 A 
ATOM     17  C   UNL     1       0.630   1.676   1.621  1.00  0.00     0.123 A 
ATOM     18  C   UNL     1      -0.267   2.459   2.348  1.00  0.00     0.092 A 
ATOM     19  C   UNL     1       1.977   1.640   1.998  1.00  0.00     0.055 A 
ATOM     20  C   UNL     1       0.159   3.200   3.447  1.00  0.00     0.123 A 
ATOM     21  C   UNL     1       1.507   3.169   3.803  1.00  0.00     0.055 A 
BRANCH  17  22
ATOM     22  O   UNL     1       0.074   1.018   0.557  1.00  0.00    -0.497 OA
ATOM     23  C   UNL     1       0.839  -0.032  -0.021  1.00  0.00     0.278 C 
ENDBRANCH  17  22
BRANCH  20  24
ATOM     24  O   UNL     1      -0.818   3.914   4.085  1.00  0.00    -0.497 OA
ATOM     25  C   UNL     1      -0.429   4.636   5.248  1.00  0.00     0.278 C 
ENDBRANCH  20  24
ENDBRANCH  10  16
ENDBRANCH   7   9
ENDBRANCH   4   7
ENDBRANCH   2   3
ENDBRANCH   1   2
BRANCH   1  26
ATOM     26  C   UNL     1       5.622  -1.914   7.130  1.00  0.00     0.023 C 
BRANCH  26  27
ATOM     27  C   UNL     1       5.799  -2.296   8.596  1.00  0.00     0.116 C 
BRANCH  27  28
ATOM     28  N   UNL     1       4.953  -1.545   9.512  1.00  0.00    -0.352 N 
ATOM     29  C   UNL     1       4.418  -1.960  10.713  1.00  0.00     0.251 C 
ATOM     30  H   UNL     1       4.736  -0.625   9.240  1.00  0.00     0.163 HD
ATOM     31  O   UNL     1       3.658  -1.226  11.331  1.00  0.00    -0.269 OA
BRANCH  29  32
ATOM     32  C   UNL     1       4.731  -3.319  11.209  1.00  0.00     0.039 A 
ATOM     33  C   UNL     1       3.680  -4.154  11.596  1.00  0.00     0.014 A 
ATOM     34  C   UNL     1       6.047  -3.788  11.223  1.00  0.00     0.014 A 
ATOM     35  C   UNL     1       3.942  -5.489  11.911  1.00  0.00     0.010 A 
ATOM     36  C   UNL     1       6.295  -5.136  11.461  1.00  0.00     0.010 A 
ATOM     37  C   UNL     1       5.244  -6.003  11.797  1.00  0.00    -0.014 A 
BRANCH  37  38
ATOM     38  C   UNL     1       5.523  -7.448  12.006  1.00  0.00     0.031 A 
ATOM     39  C   UNL     1       6.425  -7.890  13.125  1.00  0.00     0.074 A 
ATOM     40  C   UNL     1       5.028  -8.351  11.137  1.00  0.00     0.049 A 
ATOM     41  N   UNL     1       6.841  -9.093  13.428  1.00  0.00    -0.248 NA
ATOM     42  C   UNL     1       6.960  -6.832  13.994  1.00  0.00     0.031 C 
ATOM     43  C   UNL     1       4.197  -8.037   9.971  1.00  0.00     0.029 A 
ATOM     44  N   UNL     1       5.158  -9.716  11.090  1.00  0.00    -0.354 N 
ATOM     45  C   UNL     1       7.698  -8.936  14.512  1.00  0.00     0.074 A 
ATOM     46  C   UNL     1       7.793  -7.513  14.765  1.00  0.00     0.031 C 
ATOM     47  C   UNL     1       3.872  -9.178   9.342  1.00  0.00     0.029 A 
ATOM     48  C   UNL     1       4.498 -10.300  10.033  1.00  0.00     0.049 A 
ATOM     49  H   UNL     1       5.676 -10.231  11.751  1.00  0.00     0.167 HD
ATOM     50  C   UNL     1       8.326  -9.890  15.243  1.00  0.00     0.034 A 
ATOM     51  C   UNL     1       4.410 -11.592   9.661  1.00  0.00     0.034 A 
ATOM     52  C   UNL     1       8.206 -11.305  14.985  1.00  0.00     0.049 A 
ATOM     53  C   UNL     1       5.103 -12.637  10.495  1.00  0.00     0.074 A 
ATOM     54  C   UNL     1       8.740 -12.362  15.701  1.00  0.00     0.029 A 
ATOM     55  N   UNL     1       7.507 -11.862  13.921  1.00  0.00    -0.354 N 
ATOM     56  N   UNL     1       5.856 -12.478  11.559  1.00  0.00    -0.248 NA
ATOM     57  C   UNL     1       4.921 -14.035  10.086  1.00  0.00     0.031 C 
ATOM     58  C   UNL     1       8.415 -13.552  15.038  1.00  0.00     0.029 A 
ATOM     59  C   UNL     1       7.620 -13.244  13.946  1.00  0.00     0.049 A 
ATOM     60  H   UNL     1       7.005 -11.349  13.246  1.00  0.00     0.167 HD
ATOM     61  C   UNL     1       6.218 -13.761  11.961  1.00  0.00     0.074 A 
ATOM     62  C   UNL     1       5.585 -14.679  11.035  1.00  0.00     0.031 C 
ATOM     63  C   UNL     1       6.998 -14.145  13.004  1.00  0.00     0.034 A 
BRANCH  50  64
ATOM     64  C   UNL     1       9.212  -9.421  16.374  1.00  0.00     0.023 A 
ATOM     65  C   UNL     1       8.697  -8.690  17.460  1.00  0.00     0.031 A 
ATOM     66  C   UNL     1      10.597  -9.664  16.346  1.00  0.00     0.131 A 
ATOM     67  C   UNL     1       9.566  -8.150  18.419  1.00  0.00     0.055 A 
ATOM     68  C   UNL     1      11.447  -9.199  17.352  1.00  0.00     0.041 A 
ATOM     69  F   UNL     1      11.152 -10.339  15.328  1.00  0.00    -0.206 F 
ATOM     70  C   UNL     1      10.936  -8.421  18.387  1.00  0.00     0.022 A 
BRANCH  67  71
ATOM     71  S   UNL     1       8.902  -6.956  19.612  1.00  0.00     0.124 S 
ATOM     72  O   UNL     1       8.374  -5.920  18.727  1.00  0.00    -0.237 OA
ATOM     73  O   UNL     1       7.912  -7.747  20.333  1.00  0.00    -0.237 OA
ATOM     74  O   UNL     1      10.074  -6.561  20.390  1.00  0.00    -0.744 OA
ENDBRANCH  67  71
ENDBRANCH  50  64
BRANCH  51  75
ATOM     75  C   UNL     1       3.633 -11.974   8.448  1.00  0.00     0.023 A 
ATOM     76  C   UNL     1       2.451 -12.723   8.554  1.00  0.00     0.031 A 
ATOM     77  C   UNL     1       4.076 -11.615   7.163  1.00  0.00     0.131 A 
ATOM     78  C   UNL     1       1.772 -13.125   7.393  1.00  0.00     0.055 A 
ATOM     79  C   UNL     1       3.373 -11.979   6.013  1.00  0.00     0.041 A 
ATOM     80  F   UNL     1       5.195 -10.890   7.009  1.00  0.00    -0.206 F 
ATOM     81  C   UNL     1       2.219 -12.749   6.124  1.00  0.00     0.022 A 
BRANCH  78  82
ATOM     82  S   UNL     1       0.325 -14.205   7.564  1.00  0.00     0.124 S 
ATOM     83  O   UNL     1       0.895 -15.362   8.244  1.00  0.00    -0.237 OA
ATOM     84  O   UNL     1      -0.579 -13.376   8.355  1.00  0.00    -0.237 OA
ATOM     85  O   UNL     1      -0.093 -14.435   6.183  1.00  0.00    -0.744 OA
ENDBRANCH  78  82
ENDBRANCH  51  75
BRANCH  63  86
ATOM     86  C   UNL     1       7.176 -15.629  13.208  1.00  0.00     0.023 A 
ATOM     87  C   UNL     1       7.883 -16.422  12.288  1.00  0.00     0.031 A 
ATOM     88  C   UNL     1       6.608 -16.261  14.329  1.00  0.00     0.131 A 
ATOM     89  C   UNL     1       7.956 -17.811  12.473  1.00  0.00     0.055 A 
ATOM     90  C   UNL     1       6.734 -17.635  14.539  1.00  0.00     0.041 A 
ATOM     91  F   UNL     1       5.920 -15.552  15.238  1.00  0.00    -0.206 F 
ATOM     92  C   UNL     1       7.399 -18.420  13.601  1.00  0.00     0.022 A 
BRANCH  89  93
ATOM     93  S   UNL     1       8.708 -18.825  11.171  1.00  0.00     0.124 S 
ATOM     94  O   UNL     1       7.886 -18.489  10.013  1.00  0.00    -0.237 OA
ATOM     95  O   UNL     1      10.080 -18.331  11.144  1.00  0.00    -0.237 OA
ATOM     96  O   UNL     1       8.551 -20.192  11.667  1.00  0.00    -0.744 OA
ENDBRANCH  89  93
ENDBRANCH  63  86
ENDBRANCH  37  38
ENDBRANCH  29  32
ENDBRANCH  27  28
ENDBRANCH  26  27
ENDBRANCH   1  26
TORSDOF 18
