REMARK SMILES O=C(NCCCCNC(=O)c1ccc(-c2c3nc(c(-c4cc(S(=O)(=O)[O-])ccc4F)c4ccc([nH]4)c(-c4cc(S(=O)(=O)[O-])ccc4F)c4nc(c(-c5cc(S(=O)(=O)[O-])ccc5F)c5ccc2[nH]5)C=C4)C=C3)cc1)c1ccc(Cn2cc(Cl)c(=O)[nH]c2=O)cc1
REMARK SMILES IDX 6 1 5 2 4 3 3 4 1 5 2 6 74 8 75 9 89 10 76 11 88 12 77 13
REMARK SMILES IDX 78 14 79 15 80 16 86 17 81 18 85 19 87 20 82 21 83 22 84 24
REMARK SMILES IDX 7 25 8 26 9 27 10 29 11 30 12 31 73 32 13 33 72 34 14 35
REMARK SMILES IDX 15 36 16 37 66 38 17 39 71 40 65 41 67 42 18 43 70 44 64 45
REMARK SMILES IDX 63 46 19 48 51 49 31 50 50 51 32 52 35 53 49 54 68 55 33 56
REMARK SMILES IDX 34 57 48 59 69 60 36 61 20 62 21 63 29 64 22 65 28 66 30 67
REMARK SMILES IDX 27 68 23 69 24 70 25 71 26 72 52 73 53 74 61 75 54 76 60 77
REMARK SMILES IDX 62 78 59 79 55 80 56 81 57 82 58 83 37 84 38 85 46 86 39 87
REMARK SMILES IDX 45 88 47 89 44 90 40 91 41 92 42 93 43 94
REMARK H PARENT 3 7 85 23 8 28 67 47 35 58
REMARK Flexibility Score: inf
ROOT
ATOM      1  C   UNL     1       4.522   2.437   2.884  1.00  0.00     0.023 C 
ENDROOT
BRANCH   1   2
ATOM      2  C   UNL     1       4.974   1.957   1.504  1.00  0.00     0.023 C 
BRANCH   2   3
ATOM      3  C   UNL     1       4.539   0.542   1.133  1.00  0.00     0.116 C 
BRANCH   3   4
ATOM      4  N   UNL     1       3.093   0.418   1.023  1.00  0.00    -0.352 N 
ATOM      5  O   UNL     1       1.121   0.132  -0.061  1.00  0.00    -0.269 OA
ATOM      6  C   UNL     1       2.346   0.061  -0.073  1.00  0.00     0.251 C 
ATOM      7  H   UNL     1       2.583   0.615   1.842  1.00  0.00     0.163 HD
BRANCH   6   8
ATOM      8  C   UNL     1       3.040  -0.403  -1.286  1.00  0.00     0.039 A 
ATOM      9  C   UNL     1       3.825  -1.557  -1.241  1.00  0.00     0.014 A 
ATOM     10  C   UNL     1       2.923   0.334  -2.466  1.00  0.00     0.014 A 
ATOM     11  C   UNL     1       4.557  -1.933  -2.365  1.00  0.00     0.006 A 
ATOM     12  C   UNL     1       3.672  -0.037  -3.585  1.00  0.00     0.006 A 
ATOM     13  C   UNL     1       4.513  -1.160  -3.538  1.00  0.00    -0.028 A 
BRANCH  13  14
ATOM     14  C   UNL     1       5.394  -1.512  -4.718  1.00  0.00     0.162 C 
BRANCH  14  15
ATOM     15  N   UNL     1       6.723  -0.889  -4.646  1.00  0.00    -0.295 N 
ATOM     16  C   UNL     1       7.630  -1.312  -3.687  1.00  0.00     0.117 A 
ATOM     17  C   UNL     1       7.049   0.108  -5.559  1.00  0.00     0.328 A 
ATOM     18  C   UNL     1       8.854  -0.790  -3.570  1.00  0.00     0.122 A 
ATOM     19  N   UNL     1       8.313   0.630  -5.438  1.00  0.00    -0.273 N 
ATOM     20  O   UNL     1       6.299   0.515  -6.442  1.00  0.00    -0.248 OA
ATOM     21  Cl  UNL     1       9.958  -1.319  -2.369  1.00  0.00    -0.077 Cl
ATOM     22  C   UNL     1       9.266   0.267  -4.522  1.00  0.00     0.272 A 
ATOM     23  H   UNL     1       8.561   1.339  -6.074  1.00  0.00     0.175 HD
ATOM     24  O   UNL     1      10.379   0.781  -4.519  1.00  0.00    -0.268 OA
ENDBRANCH  14  15
ENDBRANCH  13  14
ENDBRANCH   6   8
ENDBRANCH   3   4
ENDBRANCH   2   3
ENDBRANCH   1   2
BRANCH   1  25
ATOM     25  C   UNL     1       4.909   1.538   4.054  1.00  0.00     0.116 C 
BRANCH  25  26
ATOM     26  N   UNL     1       6.346   1.350   4.179  1.00  0.00    -0.352 N 
ATOM     27  C   UNL     1       7.152   1.474   5.286  1.00  0.00     0.251 C 
ATOM     28  H   UNL     1       6.809   1.096   3.348  1.00  0.00     0.163 HD
ATOM     29  O   UNL     1       8.371   1.400   5.153  1.00  0.00    -0.269 OA
BRANCH  27  30
ATOM     30  C   UNL     1       6.561   1.733   6.619  1.00  0.00     0.039 A 
ATOM     31  C   UNL     1       7.154   2.693   7.443  1.00  0.00     0.014 A 
ATOM     32  C   UNL     1       5.428   1.043   7.058  1.00  0.00     0.014 A 
ATOM     33  C   UNL     1       6.569   3.012   8.672  1.00  0.00     0.010 A 
ATOM     34  C   UNL     1       4.803   1.416   8.247  1.00  0.00     0.010 A 
ATOM     35  C   UNL     1       5.366   2.406   9.067  1.00  0.00    -0.014 A 
BRANCH  35  36
ATOM     36  C   UNL     1       4.684   2.799  10.330  1.00  0.00     0.031 A 
ATOM     37  C   UNL     1       4.506   1.799  11.441  1.00  0.00     0.074 A 
ATOM     38  C   UNL     1       4.172   4.040  10.453  1.00  0.00     0.049 A 
ATOM     39  N   UNL     1       3.901   1.938  12.594  1.00  0.00    -0.248 NA
ATOM     40  C   UNL     1       5.054   0.456  11.209  1.00  0.00     0.031 C 
ATOM     41  C   UNL     1       4.240   5.087   9.431  1.00  0.00     0.029 A 
ATOM     42  N   UNL     1       3.491   4.632  11.488  1.00  0.00    -0.354 N 
ATOM     43  C   UNL     1       3.982   0.698  13.218  1.00  0.00     0.074 A 
ATOM     44  C   UNL     1       4.635  -0.195  12.283  1.00  0.00     0.031 C 
ATOM     45  C   UNL     1       3.662   6.202   9.905  1.00  0.00     0.029 A 
ATOM     46  C   UNL     1       3.141   5.940  11.243  1.00  0.00     0.049 A 
ATOM     47  H   UNL     1       3.274   4.164  12.326  1.00  0.00     0.167 HD
ATOM     48  C   UNL     1       3.572   0.342  14.463  1.00  0.00     0.034 A 
ATOM     49  C   UNL     1       2.475   6.826  12.008  1.00  0.00     0.034 A 
ATOM     50  C   UNL     1       2.930   1.248  15.386  1.00  0.00     0.049 A 
ATOM     51  C   UNL     1       2.002   6.401  13.375  1.00  0.00     0.074 A 
ATOM     52  C   UNL     1       2.535   1.014  16.692  1.00  0.00     0.029 A 
ATOM     53  N   UNL     1       2.575   2.561  15.097  1.00  0.00    -0.354 N 
ATOM     54  N   UNL     1       2.142   5.242  13.977  1.00  0.00    -0.248 NA
ATOM     55  C   UNL     1       1.290   7.411  14.168  1.00  0.00     0.031 C 
ATOM     56  C   UNL     1       1.879   2.156  17.166  1.00  0.00     0.029 A 
ATOM     57  C   UNL     1       1.933   3.134  16.186  1.00  0.00     0.049 A 
ATOM     58  H   UNL     1       2.753   3.018  14.243  1.00  0.00     0.167 HD
ATOM     59  C   UNL     1       1.565   5.397  15.234  1.00  0.00     0.074 A 
ATOM     60  C   UNL     1       1.089   6.764  15.306  1.00  0.00     0.031 C 
ATOM     61  C   UNL     1       1.445   4.493  16.241  1.00  0.00     0.034 A 
BRANCH  48  62
ATOM     62  C   UNL     1       3.782  -1.099  14.873  1.00  0.00     0.023 A 
ATOM     63  C   UNL     1       5.066  -1.670  14.937  1.00  0.00     0.031 A 
ATOM     64  C   UNL     1       2.683  -1.928  15.157  1.00  0.00     0.131 A 
ATOM     65  C   UNL     1       5.212  -3.045  15.176  1.00  0.00     0.055 A 
ATOM     66  C   UNL     1       2.841  -3.276  15.486  1.00  0.00     0.041 A 
ATOM     67  F   UNL     1       1.430  -1.449  15.095  1.00  0.00    -0.206 F 
ATOM     68  C   UNL     1       4.110  -3.848  15.477  1.00  0.00     0.022 A 
BRANCH  65  69
ATOM     69  S   UNL     1       6.840  -3.801  14.908  1.00  0.00     0.124 S 
ATOM     70  O   UNL     1       7.112  -3.432  13.521  1.00  0.00    -0.237 OA
ATOM     71  O   UNL     1       7.662  -3.144  15.918  1.00  0.00    -0.237 OA
ATOM     72  O   UNL     1       6.597  -5.225  15.128  1.00  0.00    -0.744 OA
ENDBRANCH  65  69
ENDBRANCH  48  62
BRANCH  49  73
ATOM     73  C   UNL     1       2.220   8.210  11.515  1.00  0.00     0.023 A 
ATOM     74  C   UNL     1       2.809   9.316  12.148  1.00  0.00     0.031 A 
ATOM     75  C   UNL     1       1.356   8.450  10.432  1.00  0.00     0.131 A 
ATOM     76  C   UNL     1       2.494  10.616  11.722  1.00  0.00     0.055 A 
ATOM     77  C   UNL     1       1.085   9.743   9.980  1.00  0.00     0.041 A 
ATOM     78  F   UNL     1       0.772   7.427   9.789  1.00  0.00    -0.206 F 
ATOM     79  C   UNL     1       1.646  10.836  10.634  1.00  0.00     0.022 A 
BRANCH  76  80
ATOM     80  S   UNL     1       3.153  12.020  12.661  1.00  0.00     0.124 S 
ATOM     81  O   UNL     1       2.598  11.777  13.988  1.00  0.00    -0.237 OA
ATOM     82  O   UNL     1       4.593  11.829  12.522  1.00  0.00    -0.237 OA
ATOM     83  O   UNL     1       2.611  13.182  11.960  1.00  0.00    -0.744 OA
ENDBRANCH  76  80
ENDBRANCH  49  73
BRANCH  61  84
ATOM     84  C   UNL     1       0.809   4.980  17.522  1.00  0.00     0.023 A 
ATOM     85  C   UNL     1      -0.540   5.373  17.578  1.00  0.00     0.031 A 
ATOM     86  C   UNL     1       1.576   5.084  18.697  1.00  0.00     0.131 A 
ATOM     87  C   UNL     1      -1.063   5.914  18.763  1.00  0.00     0.055 A 
ATOM     88  C   UNL     1       1.032   5.561  19.891  1.00  0.00     0.041 A 
ATOM     89  F   UNL     1       2.870   4.727  18.702  1.00  0.00    -0.206 F 
ATOM     90  C   UNL     1      -0.290   5.994  19.924  1.00  0.00     0.022 A 
BRANCH  87  91
ATOM     91  S   UNL     1      -2.736   6.614  18.737  1.00  0.00     0.124 S 
ATOM     92  O   UNL     1      -2.629   7.618  17.683  1.00  0.00    -0.237 OA
ATOM     93  O   UNL     1      -3.557   5.448  18.426  1.00  0.00    -0.237 OA
ATOM     94  O   UNL     1      -2.906   7.148  20.087  1.00  0.00    -0.744 OA
ENDBRANCH  87  91
ENDBRANCH  61  84
ENDBRANCH  35  36
ENDBRANCH  27  30
ENDBRANCH  25  26
ENDBRANCH   1  25
TORSDOF 16
