REMARK SMILES CCc1cc(C(=O)N[C@@H]2C=C[C@H](C(=O)NCCCCNC(=O)c3ccc(-c4c5nc(c(-c6cc(S(=O)(=O)[O-])ccc6F)c6ccc([nH]6)c(-c6cc(S(=O)(=O)[O-])ccc6F)c6nc(c(-c7cc(S(=O)(=O)[O-])ccc7F)c7ccc4[nH]7)C=C6)C=C5)cc3)C2)n(C)n1
REMARK SMILES IDX 17 1 16 2 15 3 13 4 14 5 12 7 9 8 10 9 86 10 11 11 8 12 6 13
REMARK SMILES IDX 7 14 5 16 3 17 4 18 89 19 87 20 88 21 2 22 1 23 18 24 19 25
REMARK SMILES IDX 20 26 21 27 22 29 23 30 24 31 85 32 25 33 84 34 26 35 27 36
REMARK SMILES IDX 28 37 78 38 29 39 83 40 77 41 79 42 30 43 82 44 76 45 75 46
REMARK SMILES IDX 31 48 63 49 43 50 62 51 44 52 47 53 61 54 80 55 45 56 46 57
REMARK SMILES IDX 60 59 81 60 48 61 32 62 33 63 41 64 34 65 40 66 42 67 39 68
REMARK SMILES IDX 35 69 36 70 37 71 38 72 64 73 65 74 73 75 66 76 72 77 74 78
REMARK SMILES IDX 71 79 67 80 68 81 69 82 70 83 49 84 50 85 58 86 51 87 57 88
REMARK SMILES IDX 59 89 56 90 52 91 53 92 54 93 55 94
REMARK H PARENT 15 6 8 15 20 28 79 47 47 58
REMARK Flexibility Score: inf
ROOT
ATOM      1  C   UNL     1      -0.997  -9.701  -2.329  1.00  0.00     0.023 C 
ENDROOT
BRANCH   1   2
ATOM      2  C   UNL     1       0.351  -8.668  -0.828  1.00  0.00     0.116 C 
BRANCH   2   3
ATOM      3  N   UNL     1       0.548  -8.567   0.698  1.00  0.00    -0.356 N 
ATOM      4  C   UNL     1       1.492  -7.723   1.263  1.00  0.00     0.227 C 
ATOM      5  O   UNL     1       1.547  -7.652   2.495  1.00  0.00    -0.274 OA
ATOM      6  H   UNL     1      -0.015  -9.118   1.289  1.00  0.00     0.163 HD
BRANCH   4   7
ATOM      7  C   UNL     1       2.463  -6.830   0.391  1.00  0.00     0.103 C 
ATOM      8  C   UNL     1       2.236  -5.868  -1.897  1.00  0.00     0.106 C 
ATOM      9  C   UNL     1       3.195  -7.004  -1.865  1.00  0.00    -0.006 C 
ATOM     10  C   UNL     1       1.815  -5.682  -0.426  1.00  0.00     0.047 C 
ATOM     11  C   UNL     1       3.342  -7.509  -0.630  1.00  0.00    -0.016 C 
BRANCH   8  12
ATOM     12  N   UNL     1       1.190  -5.942  -2.929  1.00  0.00    -0.344 N 
ATOM     13  C   UNL     1       0.021  -6.627  -3.180  1.00  0.00     0.270 C 
ATOM     14  O   UNL     1      -0.724  -6.174  -4.045  1.00  0.00    -0.268 OA
ATOM     15  H   UNL     1       1.383  -5.312  -3.660  1.00  0.00     0.164 HD
BRANCH  13  16
ATOM     16  C   UNL     1      -0.280  -7.852  -2.486  1.00  0.00     0.126 A 
ATOM     17  C   UNL     1      -0.990 -10.001  -0.451  1.00  0.00     0.063 A 
ATOM     18  C   UNL     1      -1.482  -8.238  -1.182  1.00  0.00     0.059 A 
ATOM     19  N   UNL     1       0.434 -10.530  -1.254  1.00  0.00    -0.178 NA
ATOM     20  N   UNL     1       0.833  -9.305  -2.579  1.00  0.00    -0.263 N 
ATOM     21  C   UNL     1       1.977  -9.496  -3.432  1.00  0.00     0.174 C 
BRANCH  17  22
ATOM     22  C   UNL     1      -1.706 -11.046   0.377  1.00  0.00     0.055 C 
ATOM     23  C   UNL     1      -2.236 -10.679   1.739  1.00  0.00     0.011 C 
ENDBRANCH  17  22
ENDBRANCH  13  16
ENDBRANCH   8  12
ENDBRANCH   4   7
ENDBRANCH   2   3
ENDBRANCH   1   2
BRANCH   1  24
ATOM     24  C   UNL     1      -2.706  -9.985  -2.383  1.00  0.00     0.023 C 
BRANCH  24  25
ATOM     25  C   UNL     1      -3.636  -8.998  -3.076  1.00  0.00     0.116 C 
BRANCH  25  26
ATOM     26  N   UNL     1      -3.605  -8.992  -4.521  1.00  0.00    -0.352 N 
ATOM     27  C   UNL     1      -4.705  -8.992  -5.358  1.00  0.00     0.251 C 
ATOM     28  H   UNL     1      -2.718  -8.987  -4.949  1.00  0.00     0.163 HD
ATOM     29  O   UNL     1      -4.578  -9.038  -6.576  1.00  0.00    -0.269 OA
BRANCH  27  30
ATOM     30  C   UNL     1      -6.054  -8.983  -4.736  1.00  0.00     0.039 A 
ATOM     31  C   UNL     1      -6.931 -10.038  -4.991  1.00  0.00     0.014 A 
ATOM     32  C   UNL     1      -6.384  -8.002  -3.793  1.00  0.00     0.014 A 
ATOM     33  C   UNL     1      -8.121 -10.134  -4.263  1.00  0.00     0.010 A 
ATOM     34  C   UNL     1      -7.518  -8.161  -3.000  1.00  0.00     0.010 A 
ATOM     35  C   UNL     1      -8.415  -9.214  -3.241  1.00  0.00    -0.014 A 
BRANCH  35  36
ATOM     36  C   UNL     1      -9.696  -9.295  -2.482  1.00  0.00     0.031 A 
ATOM     37  C   UNL     1     -10.684  -8.158  -2.579  1.00  0.00     0.074 A 
ATOM     38  C   UNL     1      -9.976 -10.370  -1.715  1.00  0.00     0.049 A 
ATOM     39  N   UNL     1     -11.851  -8.020  -2.005  1.00  0.00    -0.248 NA
ATOM     40  C   UNL     1     -10.288  -7.008  -3.408  1.00  0.00     0.031 C 
ATOM     41  C   UNL     1      -9.085 -11.513  -1.504  1.00  0.00     0.029 A 
ATOM     42  N   UNL     1     -11.091 -10.685  -0.977  1.00  0.00    -0.354 N 
ATOM     43  C   UNL     1     -12.325  -6.774  -2.407  1.00  0.00     0.074 A 
ATOM     44  C   UNL     1     -11.275  -6.157  -3.185  1.00  0.00     0.031 C 
ATOM     45  C   UNL     1      -9.705 -12.420  -0.730  1.00  0.00     0.029 A 
ATOM     46  C   UNL     1     -11.020 -11.911  -0.351  1.00  0.00     0.049 A 
ATOM     47  H   UNL     1     -11.871 -10.088  -0.902  1.00  0.00     0.167 HD
ATOM     48  C   UNL     1     -13.539  -6.213  -2.192  1.00  0.00     0.034 A 
ATOM     49  C   UNL     1     -11.913 -12.548   0.436  1.00  0.00     0.034 A 
ATOM     50  C   UNL     1     -14.581  -6.844  -1.423  1.00  0.00     0.049 A 
ATOM     51  C   UNL     1     -13.245 -11.883   0.700  1.00  0.00     0.074 A 
ATOM     52  C   UNL     1     -15.856  -6.381  -1.154  1.00  0.00     0.029 A 
ATOM     53  N   UNL     1     -14.465  -8.078  -0.796  1.00  0.00    -0.354 N 
ATOM     54  N   UNL     1     -13.692 -10.725   0.268  1.00  0.00    -0.248 NA
ATOM     55  C   UNL     1     -14.199 -12.617   1.543  1.00  0.00     0.031 C 
ATOM     56  C   UNL     1     -16.485  -7.300  -0.308  1.00  0.00     0.029 A 
ATOM     57  C   UNL     1     -15.636  -8.379  -0.120  1.00  0.00     0.049 A 
ATOM     58  H   UNL     1     -13.667  -8.654  -0.828  1.00  0.00     0.167 HD
ATOM     59  C   UNL     1     -14.992 -10.612   0.758  1.00  0.00     0.074 A 
ATOM     60  C   UNL     1     -15.261 -11.828   1.497  1.00  0.00     0.031 C 
ATOM     61  C   UNL     1     -15.884  -9.599   0.612  1.00  0.00     0.034 A 
BRANCH  48  62
ATOM     62  C   UNL     1     -13.788  -4.848  -2.793  1.00  0.00     0.023 A 
ATOM     63  C   UNL     1     -13.742  -4.639  -4.184  1.00  0.00     0.031 A 
ATOM     64  C   UNL     1     -14.034  -3.735  -1.971  1.00  0.00     0.131 A 
ATOM     65  C   UNL     1     -13.849  -3.341  -4.703  1.00  0.00     0.055 A 
ATOM     66  C   UNL     1     -14.233  -2.458  -2.501  1.00  0.00     0.041 A 
ATOM     67  F   UNL     1     -14.067  -3.864  -0.635  1.00  0.00    -0.206 F 
ATOM     68  C   UNL     1     -14.124  -2.252  -3.873  1.00  0.00     0.022 A 
BRANCH  65  69
ATOM     69  S   UNL     1     -13.466  -3.076  -6.456  1.00  0.00     0.124 S 
ATOM     70  O   UNL     1     -12.084  -3.545  -6.528  1.00  0.00    -0.237 OA
ATOM     71  O   UNL     1     -14.459  -3.907  -7.126  1.00  0.00    -0.237 OA
ATOM     72  O   UNL     1     -13.637  -1.635  -6.630  1.00  0.00    -0.744 OA
ENDBRANCH  65  69
ENDBRANCH  48  62
BRANCH  49  73
ATOM     73  C   UNL     1     -11.593 -13.877   1.045  1.00  0.00     0.023 A 
ATOM     74  C   UNL     1     -12.373 -15.014   0.770  1.00  0.00     0.031 A 
ATOM     75  C   UNL     1     -10.545 -14.014   1.973  1.00  0.00     0.131 A 
ATOM     76  C   UNL     1     -12.136 -16.214   1.462  1.00  0.00     0.055 A 
ATOM     77  C   UNL     1     -10.271 -15.227   2.608  1.00  0.00     0.041 A 
ATOM     78  F   UNL     1      -9.767 -12.964   2.280  1.00  0.00    -0.206 F 
ATOM     79  C   UNL     1     -11.080 -16.333   2.367  1.00  0.00     0.022 A 
BRANCH  76  80
ATOM     80  S   UNL     1     -13.307 -17.586   1.256  1.00  0.00     0.124 S 
ATOM     81  O   UNL     1     -14.570 -16.953   1.620  1.00  0.00    -0.237 OA
ATOM     82  O   UNL     1     -13.138 -17.918  -0.155  1.00  0.00    -0.237 OA
ATOM     83  O   UNL     1     -12.820 -18.593   2.195  1.00  0.00    -0.744 OA
ENDBRANCH  76  80
ENDBRANCH  49  73
BRANCH  61  84
ATOM     84  C   UNL     1     -17.251  -9.790   1.222  1.00  0.00     0.023 A 
ATOM     85  C   UNL     1     -17.436  -9.888   2.612  1.00  0.00     0.031 A 
ATOM     86  C   UNL     1     -18.387  -9.879   0.397  1.00  0.00     0.131 A 
ATOM     87  C   UNL     1     -18.716 -10.132   3.131  1.00  0.00     0.055 A 
ATOM     88  C   UNL     1     -19.668 -10.048   0.923  1.00  0.00     0.041 A 
ATOM     89  F   UNL     1     -18.270  -9.795  -0.939  1.00  0.00    -0.206 F 
ATOM     90  C   UNL     1     -19.836 -10.191   2.297  1.00  0.00     0.022 A 
BRANCH  87  91
ATOM     91  S   UNL     1     -18.884 -10.478   4.903  1.00  0.00     0.124 S 
ATOM     92  O   UNL     1     -18.009 -11.634   5.069  1.00  0.00    -0.237 OA
ATOM     93  O   UNL     1     -18.419  -9.235   5.509  1.00  0.00    -0.237 OA
ATOM     94  O   UNL     1     -20.311 -10.751   5.065  1.00  0.00    -0.744 OA
ENDBRANCH  87  91
ENDBRANCH  61  84
ENDBRANCH  35  36
ENDBRANCH  27  30
ENDBRANCH  25  26
ENDBRANCH  24  25
ENDBRANCH   1  24
TORSDOF 17
