REMARK SMILES CC[C@@H](C(=O)NCCCCNC(=O)c1ccc(-c2c3nc(c(-c4cc(S(=O)(=O)[O-])ccc4F)c4ccc([nH]4)c(-c4cc(S(=O)(=O)[O-])ccc4F)c4nc(c(-c5cc(S(=O)(=O)[O-])ccc5F)c5ccc2[nH]5)C=C4)C=C3)cc1)N1CCN(Cc2cccc(C)c2)C(=O)C1=O
REMARK SMILES IDX 8 1 7 2 6 3 4 4 5 5 3 7 2 8 1 9 77 10 78 11 91 12 79 13
REMARK SMILES IDX 89 14 92 15 80 16 90 17 81 18 82 19 83 20 88 21 84 22 86 23
REMARK SMILES IDX 85 24 87 25 9 26 10 27 11 28 12 29 13 31 14 32 15 33 76 34
REMARK SMILES IDX 16 35 75 36 17 37 18 38 19 39 69 40 20 41 74 42 68 43 70 44
REMARK SMILES IDX 21 45 73 46 67 47 66 48 22 50 54 51 34 52 53 53 35 54 38 55
REMARK SMILES IDX 52 56 71 57 36 58 37 59 51 61 72 62 39 63 23 64 24 65 32 66
REMARK SMILES IDX 25 67 31 68 33 69 30 70 26 71 27 72 28 73 29 74 55 75 56 76
REMARK SMILES IDX 64 77 57 78 63 79 65 80 62 81 58 82 59 83 60 84 61 85 40 86
REMARK SMILES IDX 41 87 49 88 42 89 48 90 50 91 47 92 43 93 44 94 45 95 46 96
REMARK H PARENT 6 6 11 30 70 49 38 60
REMARK Flexibility Score: inf
ROOT
ATOM      1  C   UNL     1       1.079  -2.312  -0.025  1.00  0.00     0.023 C 
ENDROOT
BRANCH   1   2
ATOM      2  C   UNL     1       1.458  -1.644  -1.351  1.00  0.00     0.116 C 
BRANCH   2   3
ATOM      3  N   UNL     1       0.271  -1.143  -2.025  1.00  0.00    -0.354 N 
ATOM      4  C   UNL     1      -0.176   0.140  -2.197  1.00  0.00     0.242 C 
ATOM      5  O   UNL     1      -1.320   0.304  -2.628  1.00  0.00    -0.273 OA
ATOM      6  H   UNL     1      -0.303  -1.838  -2.422  1.00  0.00     0.163 HD
BRANCH   4   7
ATOM      7  C   UNL     1       0.734   1.339  -1.824  1.00  0.00     0.174 C 
BRANCH   7   8
ATOM      8  C   UNL     1       0.446   1.832  -0.387  1.00  0.00     0.032 C 
ATOM      9  C   UNL     1       0.548   0.849   0.756  1.00  0.00     0.006 C 
ENDBRANCH   7   8
BRANCH   7  10
ATOM     10  N   UNL     1       0.539   2.428  -2.831  1.00  0.00    -0.321 N 
ATOM     11  C   UNL     1       0.205   3.793  -2.445  1.00  0.00     0.142 C 
ATOM     12  C   UNL     1       0.851   2.210  -4.190  1.00  0.00     0.312 C 
ATOM     13  C   UNL     1       1.166   4.728  -3.161  1.00  0.00     0.142 C 
ATOM     14  C   UNL     1       0.644   3.453  -5.160  1.00  0.00     0.312 C 
ATOM     15  O   UNL     1       1.324   1.164  -4.614  1.00  0.00    -0.263 OA
ATOM     16  N   UNL     1       0.832   4.711  -4.568  1.00  0.00    -0.328 N 
ATOM     17  O   UNL     1       0.353   3.290  -6.337  1.00  0.00    -0.263 OA
BRANCH  16  18
ATOM     18  C   UNL     1       0.750   5.957  -5.331  1.00  0.00     0.155 C 
BRANCH  18  19
ATOM     19  C   UNL     1      -0.309   6.920  -4.822  1.00  0.00    -0.028 A 
ATOM     20  C   UNL     1      -1.541   7.037  -5.475  1.00  0.00     0.005 A 
ATOM     21  C   UNL     1      -0.093   7.700  -3.671  1.00  0.00     0.009 A 
ATOM     22  C   UNL     1      -2.529   7.894  -4.980  1.00  0.00     0.001 A 
ATOM     23  C   UNL     1      -1.112   8.479  -3.109  1.00  0.00    -0.051 A 
ATOM     24  C   UNL     1      -2.323   8.598  -3.793  1.00  0.00     0.003 A 
ATOM     25  C   UNL     1      -0.901   9.179  -1.798  1.00  0.00     0.044 C 
ENDBRANCH  18  19
ENDBRANCH  16  18
ENDBRANCH   7  10
ENDBRANCH   4   7
ENDBRANCH   2   3
ENDBRANCH   1   2
BRANCH   1  26
ATOM     26  C   UNL     1       0.609  -3.754  -0.157  1.00  0.00     0.023 C 
BRANCH  26  27
ATOM     27  C   UNL     1       1.737  -4.739  -0.409  1.00  0.00     0.116 C 
BRANCH  27  28
ATOM     28  N   UNL     1       2.659  -4.841   0.718  1.00  0.00    -0.352 N 
ATOM     29  C   UNL     1       3.145  -5.978   1.323  1.00  0.00     0.251 C 
ATOM     30  H   UNL     1       2.973  -3.987   1.093  1.00  0.00     0.163 HD
ATOM     31  O   UNL     1       3.813  -5.900   2.347  1.00  0.00    -0.269 OA
BRANCH  29  32
ATOM     32  C   UNL     1       2.806  -7.288   0.733  1.00  0.00     0.039 A 
ATOM     33  C   UNL     1       2.249  -8.281   1.542  1.00  0.00     0.014 A 
ATOM     34  C   UNL     1       2.954  -7.487  -0.641  1.00  0.00     0.014 A 
ATOM     35  C   UNL     1       1.760  -9.450   0.954  1.00  0.00     0.010 A 
ATOM     36  C   UNL     1       2.386  -8.606  -1.231  1.00  0.00     0.010 A 
ATOM     37  C   UNL     1       1.786  -9.601  -0.441  1.00  0.00    -0.014 A 
BRANCH  37  38
ATOM     38  C   UNL     1       1.242 -10.802  -1.124  1.00  0.00     0.031 A 
ATOM     39  C   UNL     1       2.174 -11.643  -1.953  1.00  0.00     0.074 A 
ATOM     40  C   UNL     1      -0.079 -11.063  -1.103  1.00  0.00     0.049 A 
ATOM     41  N   UNL     1       1.901 -12.573  -2.828  1.00  0.00    -0.248 NA
ATOM     42  C   UNL     1       3.609 -11.348  -1.812  1.00  0.00     0.031 C 
ATOM     43  C   UNL     1      -1.086 -10.303  -0.361  1.00  0.00     0.029 A 
ATOM     44  N   UNL     1      -0.807 -12.031  -1.751  1.00  0.00    -0.354 N 
ATOM     45  C   UNL     1       3.124 -12.937  -3.382  1.00  0.00     0.074 A 
ATOM     46  C   UNL     1       4.129 -12.089  -2.777  1.00  0.00     0.031 C 
ATOM     47  C   UNL     1      -2.297 -10.839  -0.586  1.00  0.00     0.029 A 
ATOM     48  C   UNL     1      -2.162 -11.945  -1.529  1.00  0.00     0.049 A 
ATOM     49  H   UNL     1      -0.397 -12.721  -2.321  1.00  0.00     0.167 HD
ATOM     50  C   UNL     1       3.384 -13.901  -4.298  1.00  0.00     0.034 A 
ATOM     51  C   UNL     1      -3.179 -12.663  -2.048  1.00  0.00     0.034 A 
ATOM     52  C   UNL     1       2.372 -14.767  -4.849  1.00  0.00     0.049 A 
ATOM     53  C   UNL     1      -2.865 -13.754  -3.041  1.00  0.00     0.074 A 
ATOM     54  C   UNL     1       2.521 -15.813  -5.742  1.00  0.00     0.029 A 
ATOM     55  N   UNL     1       1.019 -14.691  -4.545  1.00  0.00    -0.354 N 
ATOM     56  N   UNL     1      -1.704 -14.096  -3.550  1.00  0.00    -0.248 NA
ATOM     57  C   UNL     1      -3.995 -14.559  -3.525  1.00  0.00     0.031 C 
ATOM     58  C   UNL     1       1.254 -16.344  -6.008  1.00  0.00     0.029 A 
ATOM     59  C   UNL     1       0.322 -15.668  -5.236  1.00  0.00     0.049 A 
ATOM     60  H   UNL     1       0.614 -14.039  -3.929  1.00  0.00     0.167 HD
ATOM     61  C   UNL     1      -1.960 -15.181  -4.382  1.00  0.00     0.074 A 
ATOM     62  C   UNL     1      -3.385 -15.434  -4.312  1.00  0.00     0.031 C 
ATOM     63  C   UNL     1      -1.096 -15.910  -5.131  1.00  0.00     0.034 A 
BRANCH  50  64
ATOM     64  C   UNL     1       4.812 -14.040  -4.768  1.00  0.00     0.023 A 
ATOM     65  C   UNL     1       5.849 -14.381  -3.882  1.00  0.00     0.031 A 
ATOM     66  C   UNL     1       5.151 -13.771  -6.105  1.00  0.00     0.131 A 
ATOM     67  C   UNL     1       7.181 -14.347  -4.318  1.00  0.00     0.055 A 
ATOM     68  C   UNL     1       6.472 -13.830  -6.555  1.00  0.00     0.041 A 
ATOM     69  F   UNL     1       4.207 -13.422  -6.993  1.00  0.00    -0.206 F 
ATOM     70  C   UNL     1       7.499 -14.100  -5.655  1.00  0.00     0.022 A 
BRANCH  67  71
ATOM     71  S   UNL     1       8.497 -14.468  -3.076  1.00  0.00     0.124 S 
ATOM     72  O   UNL     1       8.220 -13.301  -2.241  1.00  0.00    -0.237 OA
ATOM     73  O   UNL     1       8.237 -15.766  -2.465  1.00  0.00    -0.237 OA
ATOM     74  O   UNL     1       9.723 -14.384  -3.866  1.00  0.00    -0.744 OA
ENDBRANCH  67  71
ENDBRANCH  50  64
BRANCH  51  75
ATOM     75  C   UNL     1      -4.587 -12.376  -1.653  1.00  0.00     0.023 A 
ATOM     76  C   UNL     1      -5.329 -13.307  -0.909  1.00  0.00     0.031 A 
ATOM     77  C   UNL     1      -5.221 -11.182  -2.038  1.00  0.00     0.131 A 
ATOM     78  C   UNL     1      -6.676 -13.050  -0.611  1.00  0.00     0.055 A 
ATOM     79  C   UNL     1      -6.549 -10.911  -1.701  1.00  0.00     0.041 A 
ATOM     80  F   UNL     1      -4.553 -10.254  -2.742  1.00  0.00    -0.206 F 
ATOM     81  C   UNL     1      -7.288 -11.855  -0.994  1.00  0.00     0.022 A 
BRANCH  78  82
ATOM     82  S   UNL     1      -7.641 -14.340   0.223  1.00  0.00     0.124 S 
ATOM     83  O   UNL     1      -7.509 -15.457  -0.705  1.00  0.00    -0.237 OA
ATOM     84  O   UNL     1      -6.933 -14.473   1.492  1.00  0.00    -0.237 OA
ATOM     85  O   UNL     1      -8.978 -13.759   0.316  1.00  0.00    -0.744 OA
ENDBRANCH  78  82
ENDBRANCH  51  75
BRANCH  63  86
ATOM     86  C   UNL     1      -1.654 -17.100  -5.864  1.00  0.00     0.023 A 
ATOM     87  C   UNL     1      -2.457 -16.959  -7.008  1.00  0.00     0.031 A 
ATOM     88  C   UNL     1      -1.345 -18.397  -5.419  1.00  0.00     0.131 A 
ATOM     89  C   UNL     1      -2.950 -18.102  -7.654  1.00  0.00     0.055 A 
ATOM     90  C   UNL     1      -1.804 -19.530  -6.090  1.00  0.00     0.041 A 
ATOM     91  F   UNL     1      -0.579 -18.581  -4.332  1.00  0.00    -0.206 F 
ATOM     92  C   UNL     1      -2.617 -19.386  -7.210  1.00  0.00     0.022 A 
BRANCH  89  93
ATOM     93  S   UNL     1      -4.067 -17.894  -9.067  1.00  0.00     0.124 S 
ATOM     94  O   UNL     1      -5.214 -17.233  -8.453  1.00  0.00    -0.237 OA
ATOM     95  O   UNL     1      -3.273 -17.077  -9.979  1.00  0.00    -0.237 OA
ATOM     96  O   UNL     1      -4.309 -19.264  -9.518  1.00  0.00    -0.744 OA
ENDBRANCH  89  93
ENDBRANCH  63  86
ENDBRANCH  37  38
ENDBRANCH  29  32
ENDBRANCH  27  28
ENDBRANCH  26  27
ENDBRANCH   1  26
TORSDOF 18
