REMARK SMILES CCC[C@@H](C(=O)N1CC[C@@](C)(C(=O)NCCCCNC(=O)c2ccc(-c3c4nc(c(-c5cc(S(=O)(=O)[O-])ccc5F)c5ccc([nH]5)c(-c5cc(S(=O)(=O)[O-])ccc5F)c5nc(c(-c6cc(S(=O)(=O)[O-])ccc6F)c6ccc3[nH]6)C=C5)C=C4)cc2)C1)c1ccccc1
REMARK SMILES IDX 16 1 15 2 14 3 12 4 13 5 10 7 7 8 8 9 85 10 9 11 11 12 5 13
REMARK SMILES IDX 6 14 4 15 3 16 2 17 1 18 86 19 87 20 91 21 88 22 90 23 89 24
REMARK SMILES IDX 17 25 18 26 19 27 20 28 21 30 22 31 23 32 84 33 24 34 83 35
REMARK SMILES IDX 25 36 26 37 27 38 77 39 28 40 82 41 76 42 78 43 29 44 81 45
REMARK SMILES IDX 75 46 74 47 30 49 62 50 42 51 61 52 43 53 46 54 60 55 79 56
REMARK SMILES IDX 44 57 45 58 59 60 80 61 47 62 31 63 32 64 40 65 33 66 39 67
REMARK SMILES IDX 41 68 38 69 34 70 35 71 36 72 37 73 63 74 64 75 72 76 65 77
REMARK SMILES IDX 71 78 73 79 70 80 66 81 67 82 68 83 69 84 48 85 49 86 57 87
REMARK SMILES IDX 50 88 56 89 58 90 55 91 51 92 52 93 53 94 54 95
REMARK H PARENT 14 6 19 29 78 48 46 59
REMARK Flexibility Score: inf
ROOT
ATOM      1  C   UNL     1      -5.839   0.956   2.126  1.00  0.00     0.023 C 
ENDROOT
BRANCH   1   2
ATOM      2  C   UNL     1      -5.407   1.813   0.938  1.00  0.00     0.116 C 
BRANCH   2   3
ATOM      3  N   UNL     1      -4.006   2.151   1.044  1.00  0.00    -0.356 N 
ATOM      4  C   UNL     1      -2.905   1.626   0.451  1.00  0.00     0.227 C 
ATOM      5  O   UNL     1      -1.825   2.042   0.879  1.00  0.00    -0.274 OA
ATOM      6  H   UNL     1      -3.816   2.896   1.659  1.00  0.00     0.163 HD
BRANCH   4   7
ATOM      7  C   UNL     1      -2.993   0.669  -0.755  1.00  0.00     0.066 C 
ATOM      8  N   UNL     1      -1.481  -1.236  -0.731  1.00  0.00    -0.341 N 
ATOM      9  C   UNL     1      -2.688  -1.612  -0.026  1.00  0.00     0.120 C 
ATOM     10  C   UNL     1      -1.572   0.166  -1.107  1.00  0.00     0.136 C 
ATOM     11  C   UNL     1      -3.750  -0.648  -0.527  1.00  0.00     0.040 C 
ATOM     12  C   UNL     1      -3.557   1.455  -1.950  1.00  0.00     0.024 C 
BRANCH   8  13
ATOM     13  C   UNL     1      -0.902  -2.120  -1.636  1.00  0.00     0.230 C 
ATOM     14  O   UNL     1      -1.601  -2.746  -2.433  1.00  0.00    -0.274 OA
BRANCH  13  15
ATOM     15  C   UNL     1       0.633  -2.334  -1.475  1.00  0.00     0.108 C 
BRANCH  15  16
ATOM     16  C   UNL     1       1.506  -1.227  -2.123  1.00  0.00     0.018 C 
BRANCH  16  17
ATOM     17  C   UNL     1       1.640   0.154  -1.475  1.00  0.00    -0.002 C 
ATOM     18  C   UNL     1       1.833   0.151   0.032  1.00  0.00     0.004 C 
ENDBRANCH  16  17
ENDBRANCH  15  16
BRANCH  15  19
ATOM     19  C   UNL     1       1.035  -3.751  -1.965  1.00  0.00    -0.036 A 
ATOM     20  C   UNL     1       0.436  -4.879  -1.375  1.00  0.00     0.004 A 
ATOM     21  C   UNL     1       1.993  -3.981  -2.970  1.00  0.00     0.004 A 
ATOM     22  C   UNL     1       0.780  -6.176  -1.775  1.00  0.00     0.000 A 
ATOM     23  C   UNL     1       2.356  -5.277  -3.350  1.00  0.00     0.000 A 
ATOM     24  C   UNL     1       1.747  -6.375  -2.755  1.00  0.00     0.000 A 
ENDBRANCH  15  19
ENDBRANCH  13  15
ENDBRANCH   8  13
ENDBRANCH   4   7
ENDBRANCH   2   3
ENDBRANCH   1   2
BRANCH   1  25
ATOM     25  C   UNL     1      -5.862   1.699   3.464  1.00  0.00     0.023 C 
BRANCH  25  26
ATOM     26  C   UNL     1      -6.745   2.941   3.498  1.00  0.00     0.116 C 
BRANCH  26  27
ATOM     27  N   UNL     1      -8.113   2.675   3.076  1.00  0.00    -0.352 N 
ATOM     28  C   UNL     1      -9.285   3.135   3.631  1.00  0.00     0.251 C 
ATOM     29  H   UNL     1      -8.212   2.090   2.291  1.00  0.00     0.163 HD
ATOM     30  O   UNL     1     -10.363   2.720   3.232  1.00  0.00    -0.269 OA
BRANCH  28  31
ATOM     31  C   UNL     1      -9.206   4.104   4.741  1.00  0.00     0.039 A 
ATOM     32  C   UNL     1      -9.846   3.807   5.945  1.00  0.00     0.014 A 
ATOM     33  C   UNL     1      -8.428   5.258   4.609  1.00  0.00     0.014 A 
ATOM     34  C   UNL     1      -9.634   4.628   7.053  1.00  0.00     0.010 A 
ATOM     35  C   UNL     1      -8.168   6.037   5.729  1.00  0.00     0.010 A 
ATOM     36  C   UNL     1      -8.756   5.720   6.965  1.00  0.00    -0.014 A 
BRANCH  36  37
ATOM     37  C   UNL     1      -8.409   6.535   8.155  1.00  0.00     0.031 A 
ATOM     38  C   UNL     1      -8.796   7.985   8.207  1.00  0.00     0.074 A 
ATOM     39  C   UNL     1      -7.666   5.992   9.139  1.00  0.00     0.049 A 
ATOM     40  N   UNL     1      -8.486   8.894   9.094  1.00  0.00    -0.248 NA
ATOM     41  C   UNL     1      -9.613   8.482   7.091  1.00  0.00     0.031 C 
ATOM     42  C   UNL     1      -7.206   4.602   9.182  1.00  0.00     0.029 A 
ATOM     43  N   UNL     1      -7.154   6.546  10.284  1.00  0.00    -0.354 N 
ATOM     44  C   UNL     1      -9.058  10.076   8.637  1.00  0.00     0.074 A 
ATOM     45  C   UNL     1      -9.677   9.775   7.363  1.00  0.00     0.031 C 
ATOM     46  C   UNL     1      -6.501   4.407  10.308  1.00  0.00     0.029 A 
ATOM     47  C   UNL     1      -6.414   5.667  11.040  1.00  0.00     0.049 A 
ATOM     48  H   UNL     1      -7.303   7.484  10.541  1.00  0.00     0.167 HD
ATOM     49  C   UNL     1      -9.082  11.293   9.237  1.00  0.00     0.034 A 
ATOM     50  C   UNL     1      -5.729   5.860  12.184  1.00  0.00     0.034 A 
ATOM     51  C   UNL     1      -8.463  11.568  10.511  1.00  0.00     0.049 A 
ATOM     52  C   UNL     1      -5.714   7.235  12.800  1.00  0.00     0.074 A 
ATOM     53  C   UNL     1      -8.486  12.739  11.248  1.00  0.00     0.029 A 
ATOM     54  N   UNL     1      -7.692  10.663  11.231  1.00  0.00    -0.354 N 
ATOM     55  N   UNL     1      -6.303   8.332  12.384  1.00  0.00    -0.248 NA
ATOM     56  C   UNL     1      -4.937   7.396  14.035  1.00  0.00     0.031 C 
ATOM     57  C   UNL     1      -7.674  12.564  12.376  1.00  0.00     0.029 A 
ATOM     58  C   UNL     1      -7.199  11.262  12.380  1.00  0.00     0.049 A 
ATOM     59  H   UNL     1      -7.520   9.731  10.964  1.00  0.00     0.167 HD
ATOM     60  C   UNL     1      -5.989   9.309  13.325  1.00  0.00     0.074 A 
ATOM     61  C   UNL     1      -5.165   8.668  14.330  1.00  0.00     0.031 C 
ATOM     62  C   UNL     1      -6.359  10.614  13.361  1.00  0.00     0.034 A 
BRANCH  49  63
ATOM     63  C   UNL     1      -9.774  12.411   8.495  1.00  0.00     0.023 A 
ATOM     64  C   UNL     1     -11.142  12.347   8.174  1.00  0.00     0.031 A 
ATOM     65  C   UNL     1      -9.047  13.528   8.047  1.00  0.00     0.131 A 
ATOM     66  C   UNL     1     -11.715  13.322   7.346  1.00  0.00     0.055 A 
ATOM     67  C   UNL     1      -9.646  14.544   7.299  1.00  0.00     0.041 A 
ATOM     68  F   UNL     1      -7.735  13.639   8.305  1.00  0.00    -0.206 F 
ATOM     69  C   UNL     1     -10.983  14.434   6.925  1.00  0.00     0.022 A 
BRANCH  66  70
ATOM     70  S   UNL     1     -13.375  13.020   6.679  1.00  0.00     0.124 S 
ATOM     71  O   UNL     1     -13.195  11.734   6.011  1.00  0.00    -0.237 OA
ATOM     72  O   UNL     1     -14.199  13.006   7.882  1.00  0.00    -0.237 OA
ATOM     73  O   UNL     1     -13.596  14.153   5.783  1.00  0.00    -0.744 OA
ENDBRANCH  66  70
ENDBRANCH  49  63
BRANCH  50  74
ATOM     74  C   UNL     1      -4.994   4.733  12.821  1.00  0.00     0.023 A 
ATOM     75  C   UNL     1      -5.405   4.223  14.062  1.00  0.00     0.031 A 
ATOM     76  C   UNL     1      -3.860   4.166  12.215  1.00  0.00     0.131 A 
ATOM     77  C   UNL     1      -4.667   3.199  14.676  1.00  0.00     0.055 A 
ATOM     78  C   UNL     1      -3.154   3.118  12.809  1.00  0.00     0.041 A 
ATOM     79  F   UNL     1      -3.430   4.614  11.024  1.00  0.00    -0.206 F 
ATOM     80  C   UNL     1      -3.551   2.636  14.053  1.00  0.00     0.022 A 
BRANCH  77  81
ATOM     81  S   UNL     1      -5.157   2.652  16.334  1.00  0.00     0.124 S 
ATOM     82  O   UNL     1      -5.016   3.881  17.107  1.00  0.00    -0.237 OA
ATOM     83  O   UNL     1      -6.521   2.187  16.109  1.00  0.00    -0.237 OA
ATOM     84  O   UNL     1      -4.188   1.603  16.646  1.00  0.00    -0.744 OA
ENDBRANCH  77  81
ENDBRANCH  50  74
BRANCH  62  85
ATOM     85  C   UNL     1      -5.896  11.421  14.547  1.00  0.00     0.023 A 
ATOM     86  C   UNL     1      -4.544  11.762  14.726  1.00  0.00     0.031 A 
ATOM     87  C   UNL     1      -6.822  11.846  15.516  1.00  0.00     0.131 A 
ATOM     88  C   UNL     1      -4.149  12.470  15.871  1.00  0.00     0.055 A 
ATOM     89  C   UNL     1      -6.431  12.596  16.626  1.00  0.00     0.041 A 
ATOM     90  F   UNL     1      -8.125  11.544  15.394  1.00  0.00    -0.206 F 
ATOM     91  C   UNL     1      -5.087  12.904  16.813  1.00  0.00     0.022 A 
BRANCH  88  92
ATOM     92  S   UNL     1      -2.381  12.763  16.150  1.00  0.00     0.124 S 
ATOM     93  O   UNL     1      -1.863  11.403  16.258  1.00  0.00    -0.237 OA
ATOM     94  O   UNL     1      -1.992  13.501  14.953  1.00  0.00    -0.237 OA
ATOM     95  O   UNL     1      -2.353  13.538  17.390  1.00  0.00    -0.744 OA
ENDBRANCH  88  92
ENDBRANCH  62  85
ENDBRANCH  36  37
ENDBRANCH  28  31
ENDBRANCH  26  27
ENDBRANCH  25  26
ENDBRANCH   1  25
TORSDOF 19
