REMARK SMILES C[C@H]([NH2+]CC1CCCC1)[C@H](C)C(=O)NCCCCNC(=O)c1ccc(-c2c3nc(c(-c4cc(S(=O)(=O)[O-])ccc4F)c4ccc([nH]4)c(-c4cc(S(=O)(=O)[O-])ccc4F)c4nc(c(-c5cc(S(=O)(=O)[O-])ccc5F)c5ccc2[nH]5)C=C4)C=C3)cc1
REMARK SMILES IDX 16 1 15 2 14 3 12 4 13 5 10 7 11 8 2 9 1 10 3 11 4 14 5 15
REMARK SMILES IDX 6 16 9 17 7 18 8 19 17 20 18 21 19 22 20 23 21 25 22 26
REMARK SMILES IDX 23 27 84 28 24 29 83 30 25 31 26 32 27 33 77 34 28 35 82 36
REMARK SMILES IDX 76 37 78 38 29 39 81 40 75 41 74 42 30 44 62 45 42 46 61 47
REMARK SMILES IDX 43 48 46 49 60 50 79 51 44 52 45 53 59 55 80 56 47 57 31 58
REMARK SMILES IDX 32 59 40 60 33 61 39 62 41 63 38 64 34 65 35 66 36 67 37 68
REMARK SMILES IDX 63 69 64 70 72 71 65 72 71 73 73 74 70 75 66 76 67 77 68 78
REMARK SMILES IDX 69 79 48 80 49 81 57 82 50 83 56 84 58 85 55 86 51 87 52 88
REMARK SMILES IDX 53 89 54 90
REMARK H PARENT 14 6 3 12 3 13 19 24 78 43 46 54
REMARK Flexibility Score: inf
ROOT
ATOM      1  C   UNL     1       1.377  -1.129   4.834  1.00  0.00     0.023 C 
ENDROOT
BRANCH   1   2
ATOM      2  C   UNL     1       0.198  -1.364   3.901  1.00  0.00     0.116 C 
BRANCH   2   3
ATOM      3  N   UNL     1      -0.800  -0.315   3.963  1.00  0.00    -0.356 N 
ATOM      4  C   UNL     1      -1.416   0.374   2.964  1.00  0.00     0.228 C 
ATOM      5  O   UNL     1      -2.372   1.093   3.267  1.00  0.00    -0.275 OA
ATOM      6  H   UNL     1      -1.076  -0.059   4.873  1.00  0.00     0.163 HD
BRANCH   4   7
ATOM      7  C   UNL     1      -0.947   0.290   1.514  1.00  0.00     0.133 C 
ATOM      8  C   UNL     1       0.511   0.734   1.375  1.00  0.00     0.024 C 
BRANCH   7   9
ATOM      9  C   UNL     1      -1.454  -0.968   0.740  1.00  0.00     0.191 C 
ATOM     10  C   UNL     1      -1.712  -2.264   1.517  1.00  0.00     0.076 C 
BRANCH   9  11
ATOM     11  N   UNL     1      -0.796  -1.225  -0.557  1.00  0.00    -0.343 N 
ATOM     12  H   UNL     1      -0.633  -0.324  -1.006  1.00  0.00     0.346 HD
ATOM     13  H   UNL     1      -1.431  -1.842  -1.065  1.00  0.00     0.346 HD
BRANCH  11  14
ATOM     14  C   UNL     1       0.480  -1.936  -0.510  1.00  0.00     0.264 C 
BRANCH  14  15
ATOM     15  C   UNL     1       1.052  -2.261  -1.896  1.00  0.00     0.044 C 
ATOM     16  C   UNL     1       0.208  -3.238  -2.709  1.00  0.00     0.009 C 
ATOM     17  C   UNL     1       1.222  -1.076  -2.849  1.00  0.00     0.009 C 
ATOM     18  C   UNL     1       0.825  -3.146  -4.098  1.00  0.00     0.001 C 
ATOM     19  C   UNL     1       1.289  -1.698  -4.245  1.00  0.00     0.001 C 
ENDBRANCH  14  15
ENDBRANCH  11  14
ENDBRANCH   9  11
ENDBRANCH   7   9
ENDBRANCH   4   7
ENDBRANCH   2   3
ENDBRANCH   1   2
BRANCH   1  20
ATOM     20  C   UNL     1       1.034  -1.159   6.323  1.00  0.00     0.023 C 
BRANCH  20  21
ATOM     21  C   UNL     1       0.209  -2.356   6.786  1.00  0.00     0.116 C 
BRANCH  21  22
ATOM     22  N   UNL     1       0.810  -3.637   6.450  1.00  0.00    -0.352 N 
ATOM     23  C   UNL     1       0.992  -4.745   7.246  1.00  0.00     0.251 C 
ATOM     24  H   UNL     1       1.132  -3.724   5.523  1.00  0.00     0.163 HD
ATOM     25  O   UNL     1       1.619  -5.707   6.820  1.00  0.00    -0.269 OA
BRANCH  23  26
ATOM     26  C   UNL     1       0.466  -4.738   8.627  1.00  0.00     0.039 A 
ATOM     27  C   UNL     1       1.318  -5.096   9.674  1.00  0.00     0.014 A 
ATOM     28  C   UNL     1      -0.845  -4.331   8.891  1.00  0.00     0.014 A 
ATOM     29  C   UNL     1       0.880  -4.967  10.994  1.00  0.00     0.010 A 
ATOM     30  C   UNL     1      -1.252  -4.130  10.206  1.00  0.00     0.010 A 
ATOM     31  C   UNL     1      -0.393  -4.441  11.272  1.00  0.00    -0.014 A 
BRANCH  31  32
ATOM     32  C   UNL     1      -0.839  -4.205  12.670  1.00  0.00     0.031 A 
ATOM     33  C   UNL     1      -2.019  -4.958  13.220  1.00  0.00     0.074 A 
ATOM     34  C   UNL     1      -0.226  -3.265  13.416  1.00  0.00     0.049 A 
ATOM     35  N   UNL     1      -2.605  -4.843  14.384  1.00  0.00    -0.248 NA
ATOM     36  C   UNL     1      -2.640  -5.949  12.329  1.00  0.00     0.031 C 
ATOM     37  C   UNL     1       0.895  -2.432  12.975  1.00  0.00     0.029 A 
ATOM     38  N   UNL     1      -0.462  -2.844  14.701  1.00  0.00    -0.354 N 
ATOM     39  C   UNL     1      -3.674  -5.734  14.360  1.00  0.00     0.074 A 
ATOM     40  C   UNL     1      -3.689  -6.331  13.041  1.00  0.00     0.031 C 
ATOM     41  C   UNL     1       1.264  -1.620  13.979  1.00  0.00     0.029 A 
ATOM     42  C   UNL     1       0.382  -1.842  15.120  1.00  0.00     0.049 A 
ATOM     43  H   UNL     1      -1.171  -3.224  15.270  1.00  0.00     0.167 HD
ATOM     44  C   UNL     1      -4.545  -6.043  15.352  1.00  0.00     0.034 A 
ATOM     45  C   UNL     1       0.435  -1.172  16.289  1.00  0.00     0.034 A 
ATOM     46  C   UNL     1      -4.505  -5.449  16.666  1.00  0.00     0.049 A 
ATOM     47  C   UNL     1      -0.544  -1.530  17.377  1.00  0.00     0.074 A 
ATOM     48  C   UNL     1      -5.300  -5.729  17.765  1.00  0.00     0.029 A 
ATOM     49  N   UNL     1      -3.625  -4.448  17.061  1.00  0.00    -0.354 N 
ATOM     50  N   UNL     1      -1.514  -2.416  17.357  1.00  0.00    -0.248 NA
ATOM     51  C   UNL     1      -0.413  -0.808  18.649  1.00  0.00     0.031 C 
ATOM     52  C   UNL     1      -4.941  -4.858  18.800  1.00  0.00     0.029 A 
ATOM     53  C   UNL     1      -3.875  -4.083  18.375  1.00  0.00     0.049 A 
ATOM     54  H   UNL     1      -2.925  -4.056  16.490  1.00  0.00     0.167 HD
ATOM     55  C   UNL     1      -2.088  -2.376  18.625  1.00  0.00     0.074 A 
ATOM     56  C   UNL     1      -1.346  -1.393  19.386  1.00  0.00     0.031 C 
ATOM     57  C   UNL     1      -3.132  -3.091  19.117  1.00  0.00     0.034 A 
BRANCH  44  58
ATOM     58  C   UNL     1      -5.623  -7.053  15.037  1.00  0.00     0.023 A 
ATOM     59  C   UNL     1      -5.312  -8.379  14.689  1.00  0.00     0.031 A 
ATOM     60  C   UNL     1      -6.978  -6.678  15.048  1.00  0.00     0.131 A 
ATOM     61  C   UNL     1      -6.330  -9.256  14.286  1.00  0.00     0.055 A 
ATOM     62  C   UNL     1      -7.995  -7.581  14.729  1.00  0.00     0.041 A 
ATOM     63  F   UNL     1      -7.337  -5.421  15.353  1.00  0.00    -0.206 F 
ATOM     64  C   UNL     1      -7.672  -8.874  14.328  1.00  0.00     0.022 A 
BRANCH  61  65
ATOM     65  S   UNL     1      -5.860 -10.852  13.563  1.00  0.00     0.124 S 
ATOM     66  O   UNL     1      -5.056 -10.431  12.418  1.00  0.00    -0.237 OA
ATOM     67  O   UNL     1      -5.134 -11.491  14.654  1.00  0.00    -0.237 OA
ATOM     68  O   UNL     1      -7.143 -11.465  13.223  1.00  0.00    -0.744 OA
ENDBRANCH  61  65
ENDBRANCH  44  58
BRANCH  45  69
ATOM     69  C   UNL     1       1.445  -0.095  16.499  1.00  0.00     0.023 A 
ATOM     70  C   UNL     1       2.464  -0.236  17.454  1.00  0.00     0.031 A 
ATOM     71  C   UNL     1       1.381   1.108  15.774  1.00  0.00     0.131 A 
ATOM     72  C   UNL     1       3.349   0.827  17.695  1.00  0.00     0.055 A 
ATOM     73  C   UNL     1       2.295   2.143  15.982  1.00  0.00     0.041 A 
ATOM     74  F   UNL     1       0.431   1.291  14.843  1.00  0.00    -0.206 F 
ATOM     75  C   UNL     1       3.279   2.010  16.957  1.00  0.00     0.022 A 
BRANCH  72  76
ATOM     76  S   UNL     1       4.549   0.668  19.046  1.00  0.00     0.124 S 
ATOM     77  O   UNL     1       3.677   0.436  20.192  1.00  0.00    -0.237 OA
ATOM     78  O   UNL     1       5.349  -0.470  18.607  1.00  0.00    -0.237 OA
ATOM     79  O   UNL     1       5.242   1.955  19.038  1.00  0.00    -0.744 OA
ENDBRANCH  72  76
ENDBRANCH  45  69
BRANCH  57  80
ATOM     80  C   UNL     1      -3.496  -2.861  20.563  1.00  0.00     0.023 A 
ATOM     81  C   UNL     1      -4.029  -1.637  21.007  1.00  0.00     0.031 A 
ATOM     82  C   UNL     1      -3.288  -3.876  21.514  1.00  0.00     0.131 A 
ATOM     83  C   UNL     1      -4.282  -1.440  22.373  1.00  0.00     0.055 A 
ATOM     84  C   UNL     1      -3.598  -3.695  22.862  1.00  0.00     0.041 A 
ATOM     85  F   UNL     1      -2.780  -5.063  21.145  1.00  0.00    -0.206 F 
ATOM     86  C   UNL     1      -4.085  -2.467  23.300  1.00  0.00     0.022 A 
BRANCH  83  87
ATOM     87  S   UNL     1      -4.784   0.209  22.936  1.00  0.00     0.124 S 
ATOM     88  O   UNL     1      -3.670   1.037  22.484  1.00  0.00    -0.237 OA
ATOM     89  O   UNL     1      -6.050   0.406  22.238  1.00  0.00    -0.237 OA
ATOM     90  O   UNL     1      -4.894   0.057  24.386  1.00  0.00    -0.744 OA
ENDBRANCH  83  87
ENDBRANCH  57  80
ENDBRANCH  31  32
ENDBRANCH  23  26
ENDBRANCH  21  22
ENDBRANCH  20  21
ENDBRANCH   1  20
TORSDOF 18
