REMARK SMILES C[C@H]1[C@@H](C(=O)NCCCCNC(=O)c2ccc(-c3c4nc(c(-c5cc(S(=O)(=O)[O-])ccc5F)c5ccc([nH]5)c(-c5cc(S(=O)(=O)[O-])ccc5F)c5nc(c(-c6cc(S(=O)(=O)[O-])ccc6F)c6ccc3[nH]6)C=C5)C=C4)cc2)CCN1C(=O)/C=C/c1cccc(F)c1
REMARK SMILES IDX 8 1 7 2 6 3 4 4 5 5 3 7 1 8 2 9 79 10 77 11 78 12 80 13
REMARK SMILES IDX 81 14 82 15 83 16 84 17 85 18 90 19 86 20 88 21 87 22 89 23
REMARK SMILES IDX 9 24 10 25 11 26 12 27 13 29 14 30 15 31 76 32 16 33 75 34
REMARK SMILES IDX 17 35 18 36 19 37 69 38 20 39 74 40 68 41 70 42 21 43 73 44
REMARK SMILES IDX 67 45 66 46 22 48 54 49 34 50 53 51 35 52 38 53 52 54 71 55
REMARK SMILES IDX 36 56 37 57 51 59 72 60 39 61 23 62 24 63 32 64 25 65 31 66
REMARK SMILES IDX 33 67 30 68 26 69 27 70 28 71 29 72 55 73 56 74 64 75 57 76
REMARK SMILES IDX 63 77 65 78 62 79 58 80 59 81 60 82 61 83 40 84 41 85 49 86
REMARK SMILES IDX 42 87 48 88 50 89 47 90 43 91 44 92 45 93 46 94
REMARK H PARENT 6 6 11 28 70 47 38 58
REMARK Flexibility Score: inf
ROOT
ATOM      1  C   UNL     1       3.450   0.539  -1.999  1.00  0.00     0.023 C 
ENDROOT
BRANCH   1   2
ATOM      2  C   UNL     1       2.707   1.645  -1.245  1.00  0.00     0.116 C 
BRANCH   2   3
ATOM      3  N   UNL     1       1.400   1.857  -1.837  1.00  0.00    -0.356 N 
ATOM      4  C   UNL     1       0.169   1.407  -1.463  1.00  0.00     0.225 C 
ATOM      5  O   UNL     1      -0.755   1.588  -2.258  1.00  0.00    -0.275 OA
ATOM      6  H   UNL     1       1.402   2.421  -2.644  1.00  0.00     0.163 HD
BRANCH   4   7
ATOM      7  C   UNL     1      -0.069   0.809  -0.075  1.00  0.00     0.102 C 
ATOM      8  C   UNL     1       1.238  -1.360  -0.788  1.00  0.00     0.032 C 
ATOM      9  C   UNL     1       0.619  -0.519   0.321  1.00  0.00     0.094 C 
ATOM     10  N   UNL     1      -0.427  -1.316   0.964  1.00  0.00    -0.336 N 
ATOM     11  C   UNL     1      -1.573   0.567   0.217  1.00  0.00     0.037 C 
ATOM     12  C   UNL     1      -1.713  -0.926   0.439  1.00  0.00     0.121 C 
BRANCH  10  13
ATOM     13  C   UNL     1      -0.271  -2.461   1.722  1.00  0.00     0.246 C 
ATOM     14  O   UNL     1      -1.202  -3.179   2.076  1.00  0.00    -0.270 OA
BRANCH  13  15
ATOM     15  C   UNL     1       1.126  -2.901   1.992  1.00  0.00     0.072 C 
ATOM     16  C   UNL     1       1.981  -2.147   2.698  1.00  0.00     0.014 C 
BRANCH  16  17
ATOM     17  C   UNL     1       3.430  -2.380   2.845  1.00  0.00    -0.023 A 
ATOM     18  C   UNL     1       4.176  -1.462   3.606  1.00  0.00     0.008 A 
ATOM     19  C   UNL     1       4.119  -3.416   2.201  1.00  0.00     0.047 A 
ATOM     20  C   UNL     1       5.566  -1.573   3.720  1.00  0.00     0.004 A 
ATOM     21  C   UNL     1       5.504  -3.522   2.325  1.00  0.00     0.123 A 
ATOM     22  C   UNL     1       6.234  -2.609   3.074  1.00  0.00     0.039 A 
ATOM     23  F   UNL     1       6.144  -4.519   1.699  1.00  0.00    -0.207 F 
ENDBRANCH  16  17
ENDBRANCH  13  15
ENDBRANCH  10  13
ENDBRANCH   4   7
ENDBRANCH   2   3
ENDBRANCH   1   2
BRANCH   1  24
ATOM     24  C   UNL     1       4.282   0.986  -3.186  1.00  0.00     0.023 C 
BRANCH  24  25
ATOM     25  C   UNL     1       5.540   1.744  -2.814  1.00  0.00     0.116 C 
BRANCH  25  26
ATOM     26  N   UNL     1       6.441   1.002  -1.937  1.00  0.00    -0.352 N 
ATOM     27  C   UNL     1       7.799   0.812  -2.057  1.00  0.00     0.251 C 
ATOM     28  H   UNL     1       6.020   0.580  -1.153  1.00  0.00     0.163 HD
ATOM     29  O   UNL     1       8.399   0.090  -1.266  1.00  0.00    -0.269 OA
BRANCH  27  30
ATOM     30  C   UNL     1       8.501   1.451  -3.187  1.00  0.00     0.039 A 
ATOM     31  C   UNL     1       9.311   0.675  -4.017  1.00  0.00     0.014 A 
ATOM     32  C   UNL     1       8.236   2.786  -3.495  1.00  0.00     0.014 A 
ATOM     33  C   UNL     1       9.768   1.216  -5.221  1.00  0.00     0.010 A 
ATOM     34  C   UNL     1       8.579   3.272  -4.746  1.00  0.00     0.010 A 
ATOM     35  C   UNL     1       9.355   2.497  -5.622  1.00  0.00    -0.014 A 
BRANCH  35  36
ATOM     36  C   UNL     1       9.738   3.072  -6.937  1.00  0.00     0.031 A 
ATOM     37  C   UNL     1      10.490   4.376  -6.975  1.00  0.00     0.074 A 
ATOM     38  C   UNL     1       9.327   2.486  -8.079  1.00  0.00     0.049 A 
ATOM     39  N   UNL     1      10.794   5.131  -7.998  1.00  0.00    -0.248 NA
ATOM     40  C   UNL     1      10.901   4.933  -5.676  1.00  0.00     0.031 C 
ATOM     41  C   UNL     1       8.530   1.259  -8.169  1.00  0.00     0.029 A 
ATOM     42  N   UNL     1       9.515   2.851  -9.389  1.00  0.00    -0.354 N 
ATOM     43  C   UNL     1      11.394   6.266  -7.461  1.00  0.00     0.074 A 
ATOM     44  C   UNL     1      11.331   6.135  -6.023  1.00  0.00     0.031 C 
ATOM     45  C   UNL     1       8.331   0.955  -9.463  1.00  0.00     0.029 A 
ATOM     46  C   UNL     1       8.945   1.985 -10.294  1.00  0.00     0.049 A 
ATOM     47  H   UNL     1      10.012   3.658  -9.656  1.00  0.00     0.167 HD
ATOM     48  C   UNL     1      11.978   7.304  -8.108  1.00  0.00     0.034 A 
ATOM     49  C   UNL     1       8.921   2.022 -11.641  1.00  0.00     0.034 A 
ATOM     50  C   UNL     1      12.077   7.386  -9.543  1.00  0.00     0.049 A 
ATOM     51  C   UNL     1       9.612   3.164 -12.343  1.00  0.00     0.074 A 
ATOM     52  C   UNL     1      12.711   8.345 -10.312  1.00  0.00     0.029 A 
ATOM     53  N   UNL     1      11.532   6.463 -10.427  1.00  0.00    -0.354 N 
ATOM     54  N   UNL     1      10.223   4.204 -11.823  1.00  0.00    -0.248 NA
ATOM     55  C   UNL     1       9.621   3.130 -13.810  1.00  0.00     0.031 C 
ATOM     56  C   UNL     1      12.508   8.029 -11.660  1.00  0.00     0.029 A 
ATOM     57  C   UNL     1      11.801   6.839 -11.733  1.00  0.00     0.049 A 
ATOM     58  H   UNL     1      11.029   5.659 -10.164  1.00  0.00     0.167 HD
ATOM     59  C   UNL     1      10.714   4.932 -12.902  1.00  0.00     0.074 A 
ATOM     60  C   UNL     1      10.341   4.205 -14.098  1.00  0.00     0.031 C 
ATOM     61  C   UNL     1      11.413   6.096 -12.908  1.00  0.00     0.034 A 
BRANCH  48  62
ATOM     62  C   UNL     1      12.538   8.419  -7.259  1.00  0.00     0.023 A 
ATOM     63  C   UNL     1      13.565   8.190  -6.326  1.00  0.00     0.031 A 
ATOM     64  C   UNL     1      11.999   9.715  -7.335  1.00  0.00     0.131 A 
ATOM     65  C   UNL     1      13.948   9.207  -5.440  1.00  0.00     0.055 A 
ATOM     66  C   UNL     1      12.453  10.750  -6.514  1.00  0.00     0.041 A 
ATOM     67  F   UNL     1      11.003   9.993  -8.191  1.00  0.00    -0.206 F 
ATOM     68  C   UNL     1      13.419  10.495  -5.545  1.00  0.00     0.022 A 
BRANCH  65  69
ATOM     69  S   UNL     1      15.022   8.775  -4.043  1.00  0.00     0.124 S 
ATOM     70  O   UNL     1      14.207   7.785  -3.343  1.00  0.00    -0.237 OA
ATOM     71  O   UNL     1      16.215   8.264  -4.708  1.00  0.00    -0.237 OA
ATOM     72  O   UNL     1      15.194  10.043  -3.337  1.00  0.00    -0.744 OA
ENDBRANCH  65  69
ENDBRANCH  48  62
BRANCH  49  73
ATOM     73  C   UNL     1       8.235   0.951 -12.419  1.00  0.00     0.023 A 
ATOM     74  C   UNL     1       8.966   0.077 -13.239  1.00  0.00     0.031 A 
ATOM     75  C   UNL     1       6.837   0.808 -12.385  1.00  0.00     0.131 A 
ATOM     76  C   UNL     1       8.295  -0.871 -14.028  1.00  0.00     0.055 A 
ATOM     77  C   UNL     1       6.177  -0.167 -13.137  1.00  0.00     0.041 A 
ATOM     78  F   UNL     1       6.091   1.611 -11.610  1.00  0.00    -0.206 F 
ATOM     79  C   UNL     1       6.906  -1.005 -13.975  1.00  0.00     0.022 A 
BRANCH  76  80
ATOM     80  S   UNL     1       9.262  -1.876 -15.188  1.00  0.00     0.124 S 
ATOM     81  O   UNL     1       9.900  -0.854 -16.009  1.00  0.00    -0.237 OA
ATOM     82  O   UNL     1      10.140  -2.616 -14.287  1.00  0.00    -0.237 OA
ATOM     83  O   UNL     1       8.249  -2.681 -15.867  1.00  0.00    -0.744 OA
ENDBRANCH  76  80
ENDBRANCH  49  73
BRANCH  61  84
ATOM     84  C   UNL     1      11.852   6.620 -14.251  1.00  0.00     0.023 A 
ATOM     85  C   UNL     1      10.927   7.112 -15.188  1.00  0.00     0.031 A 
ATOM     86  C   UNL     1      13.214   6.619 -14.597  1.00  0.00     0.131 A 
ATOM     87  C   UNL     1      11.373   7.537 -16.448  1.00  0.00     0.055 A 
ATOM     88  C   UNL     1      13.657   7.095 -15.831  1.00  0.00     0.041 A 
ATOM     89  F   UNL     1      14.137   6.160 -13.736  1.00  0.00    -0.206 F 
ATOM     90  C   UNL     1      12.733   7.545 -16.769  1.00  0.00     0.022 A 
BRANCH  87  91
ATOM     91  S   UNL     1      10.140   8.003 -17.693  1.00  0.00     0.124 S 
ATOM     92  O   UNL     1       9.358   6.777 -17.819  1.00  0.00    -0.237 OA
ATOM     93  O   UNL     1       9.463   9.128 -17.057  1.00  0.00    -0.237 OA
ATOM     94  O   UNL     1      10.947   8.346 -18.863  1.00  0.00    -0.744 OA
ENDBRANCH  87  91
ENDBRANCH  61  84
ENDBRANCH  35  36
ENDBRANCH  27  30
ENDBRANCH  25  26
ENDBRANCH  24  25
ENDBRANCH   1  24
TORSDOF 17
