REMARK SMILES O=C(NCc1ccc(C(=O)NCCCCNC(=O)c2ccc(-c3c4nc(c(-c5cc(S(=O)(=O)[O-])ccc5F)c5ccc([nH]5)c(-c5cc(S(=O)(=O)[O-])ccc5F)c5nc(c(-c6cc(S(=O)(=O)[O-])ccc6F)c6ccc3[nH]6)C=C5)C=C4)cc2)o1)Nc1ccc(F)c(Cl)c1
REMARK SMILES IDX 13 1 12 2 11 3 9 4 10 5 8 7 5 8 6 9 82 10 7 11 4 12 3 13
REMARK SMILES IDX 1 14 2 15 83 16 84 19 85 20 91 21 86 22 89 23 87 24 90 25
REMARK SMILES IDX 88 26 14 27 15 28 16 29 17 30 18 32 19 33 20 34 81 35 21 36
REMARK SMILES IDX 80 37 22 38 23 39 24 40 74 41 25 42 79 43 73 44 75 45 26 46
REMARK SMILES IDX 78 47 72 48 71 49 27 51 59 52 39 53 58 54 40 55 43 56 57 57
REMARK SMILES IDX 76 58 41 59 42 60 56 62 77 63 44 64 28 65 29 66 37 67 30 68
REMARK SMILES IDX 36 69 38 70 35 71 31 72 32 73 33 74 34 75 60 76 61 77 69 78
REMARK SMILES IDX 62 79 68 80 70 81 67 82 63 83 64 84 65 85 66 86 45 87 46 88
REMARK SMILES IDX 54 89 47 90 53 91 55 92 52 93 48 94 49 95 50 96 51 97
REMARK H PARENT 11 6 3 17 83 18 16 31 75 50 43 61
REMARK Flexibility Score: inf
ROOT
ATOM      1  C   UNL     1       7.724   2.384  -6.916  1.00  0.00     0.023 C 
ENDROOT
BRANCH   1   2
ATOM      2  C   UNL     1       6.308   1.825  -6.786  1.00  0.00     0.116 C 
BRANCH   2   3
ATOM      3  N   UNL     1       6.319   0.509  -6.189  1.00  0.00    -0.349 N 
ATOM      4  C   UNL     1       6.074   0.086  -4.903  1.00  0.00     0.286 C 
ATOM      5  O   UNL     1       6.122  -1.132  -4.729  1.00  0.00    -0.266 OA
ATOM      6  H   UNL     1       6.542  -0.216  -6.816  1.00  0.00     0.163 HD
BRANCH   4   7
ATOM      7  C   UNL     1       5.767   1.017  -3.827  1.00  0.00     0.191 A 
ATOM      8  C   UNL     1       5.052   1.440  -1.767  1.00  0.00     0.124 A 
ATOM      9  C   UNL     1       5.353   2.660  -2.325  1.00  0.00     0.048 A 
ATOM     10  O   UNL     1       5.296   0.450  -2.665  1.00  0.00    -0.454 OA
ATOM     11  C   UNL     1       5.842   2.386  -3.629  1.00  0.00     0.056 A 
BRANCH   8  12
ATOM     12  C   UNL     1       4.547   1.008  -0.444  1.00  0.00     0.193 C 
BRANCH  12  13
ATOM     13  N   UNL     1       3.102   0.973  -0.486  1.00  0.00    -0.331 N 
ATOM     14  O   UNL     1       1.060   0.118  -0.344  1.00  0.00    -0.248 OA
ATOM     15  C   UNL     1       2.246   0.017  -0.042  1.00  0.00     0.319 C 
ATOM     16  N   UNL     1       2.787  -0.966   0.740  1.00  0.00    -0.308 N 
ATOM     17  H   UNL     1       2.676   1.758  -0.899  1.00  0.00     0.165 HD
ATOM     18  H   UNL     1       3.694  -0.808   1.087  1.00  0.00     0.171 HD
BRANCH  16  19
ATOM     19  C   UNL     1       2.172  -2.183   1.097  1.00  0.00     0.044 A 
ATOM     20  C   UNL     1       2.743  -2.913   2.149  1.00  0.00     0.029 A 
ATOM     21  C   UNL     1       1.056  -2.700   0.430  1.00  0.00     0.049 A 
ATOM     22  C   UNL     1       2.181  -4.126   2.554  1.00  0.00     0.043 A 
ATOM     23  C   UNL     1       0.504  -3.920   0.828  1.00  0.00     0.078 A 
ATOM     24  C   UNL     1       1.063  -4.621   1.892  1.00  0.00     0.141 A 
ATOM     25  Cl  UNL     1      -0.862  -4.549  -0.012  1.00  0.00    -0.081 Cl
ATOM     26  F   UNL     1       0.539  -5.787   2.299  1.00  0.00    -0.205 F 
ENDBRANCH  16  19
ENDBRANCH  12  13
ENDBRANCH   8  12
ENDBRANCH   4   7
ENDBRANCH   2   3
ENDBRANCH   1   2
BRANCH   1  27
ATOM     27  C   UNL     1       8.486   1.860  -8.139  1.00  0.00     0.023 C 
BRANCH  27  28
ATOM     28  C   UNL     1       7.840   2.165  -9.490  1.00  0.00     0.116 C 
BRANCH  28  29
ATOM     29  N   UNL     1       7.587   3.584  -9.701  1.00  0.00    -0.352 N 
ATOM     30  C   UNL     1       7.746   4.319 -10.853  1.00  0.00     0.251 C 
ATOM     31  H   UNL     1       7.261   4.082  -8.917  1.00  0.00     0.163 HD
ATOM     32  O   UNL     1       7.595   5.536 -10.837  1.00  0.00    -0.269 OA
BRANCH  30  33
ATOM     33  C   UNL     1       8.147   3.621 -12.091  1.00  0.00     0.039 A 
ATOM     34  C   UNL     1       9.292   4.048 -12.766  1.00  0.00     0.014 A 
ATOM     35  C   UNL     1       7.446   2.490 -12.518  1.00  0.00     0.014 A 
ATOM     36  C   UNL     1       9.796   3.275 -13.813  1.00  0.00     0.010 A 
ATOM     37  C   UNL     1       7.988   1.688 -13.518  1.00  0.00     0.010 A 
ATOM     38  C   UNL     1       9.183   2.058 -14.155  1.00  0.00    -0.014 A 
BRANCH  38  39
ATOM     39  C   UNL     1       9.807   1.123 -15.126  1.00  0.00     0.031 A 
ATOM     40  C   UNL     1       9.100   0.777 -16.405  1.00  0.00     0.074 A 
ATOM     41  C   UNL     1      10.969   0.517 -14.806  1.00  0.00     0.049 A 
ATOM     42  N   UNL     1       9.425  -0.103 -17.316  1.00  0.00    -0.248 NA
ATOM     43  C   UNL     1       7.850   1.500 -16.682  1.00  0.00     0.031 C 
ATOM     44  C   UNL     1      11.732   0.749 -13.576  1.00  0.00     0.029 A 
ATOM     45  N   UNL     1      11.705  -0.430 -15.475  1.00  0.00    -0.354 N 
ATOM     46  C   UNL     1       8.417  -0.047 -18.272  1.00  0.00     0.074 A 
ATOM     47  C   UNL     1       7.443   0.915 -17.798  1.00  0.00     0.031 C 
ATOM     48  C   UNL     1      12.832  -0.019 -13.588  1.00  0.00     0.029 A 
ATOM     49  C   UNL     1      12.827  -0.843 -14.792  1.00  0.00     0.049 A 
ATOM     50  H   UNL     1      11.454  -0.781 -16.359  1.00  0.00     0.167 HD
ATOM     51  C   UNL     1       8.325  -0.723 -19.444  1.00  0.00     0.034 A 
ATOM     52  C   UNL     1      13.733  -1.798 -15.086  1.00  0.00     0.034 A 
ATOM     53  C   UNL     1       9.307  -1.677 -19.899  1.00  0.00     0.049 A 
ATOM     54  C   UNL     1      13.569  -2.586 -16.362  1.00  0.00     0.074 A 
ATOM     55  C   UNL     1       9.344  -2.368 -21.097  1.00  0.00     0.029 A 
ATOM     56  N   UNL     1      10.414  -2.091 -19.168  1.00  0.00    -0.354 N 
ATOM     57  N   UNL     1      12.642  -2.476 -17.286  1.00  0.00    -0.248 NA
ATOM     58  C   UNL     1      14.569  -3.627 -16.632  1.00  0.00     0.031 C 
ATOM     59  C   UNL     1      10.423  -3.257 -21.057  1.00  0.00     0.029 A 
ATOM     60  C   UNL     1      11.109  -3.065 -19.869  1.00  0.00     0.049 A 
ATOM     61  H   UNL     1      10.667  -1.744 -18.283  1.00  0.00     0.167 HD
ATOM     62  C   UNL     1      12.961  -3.423 -18.256  1.00  0.00     0.074 A 
ATOM     63  C   UNL     1      14.176  -4.077 -17.815  1.00  0.00     0.031 C 
ATOM     64  C   UNL     1      12.308  -3.725 -19.407  1.00  0.00     0.034 A 
BRANCH  51  65
ATOM     65  C   UNL     1       7.107  -0.472 -20.300  1.00  0.00     0.023 A 
ATOM     66  C   UNL     1       6.839   0.793 -20.850  1.00  0.00     0.031 A 
ATOM     67  C   UNL     1       6.194  -1.509 -20.560  1.00  0.00     0.131 A 
ATOM     68  C   UNL     1       5.656   1.007 -21.572  1.00  0.00     0.055 A 
ATOM     69  C   UNL     1       5.059  -1.310 -21.349  1.00  0.00     0.041 A 
ATOM     70  F   UNL     1       6.384  -2.734 -20.044  1.00  0.00    -0.206 F 
ATOM     71  C   UNL     1       4.777  -0.042 -21.848  1.00  0.00     0.022 A 
BRANCH  68  72
ATOM     72  S   UNL     1       5.215   2.707 -22.024  1.00  0.00     0.124 S 
ATOM     73  O   UNL     1       5.173   3.358 -20.717  1.00  0.00    -0.237 OA
ATOM     74  O   UNL     1       6.315   3.097 -22.897  1.00  0.00    -0.237 OA
ATOM     75  O   UNL     1       3.917   2.561 -22.681  1.00  0.00    -0.744 OA
ENDBRANCH  68  72
ENDBRANCH  51  65
BRANCH  52  76
ATOM     76  C   UNL     1      14.854  -2.096 -14.147  1.00  0.00     0.023 A 
ATOM     77  C   UNL     1      16.190  -1.911 -14.535  1.00  0.00     0.031 A 
ATOM     78  C   UNL     1      14.608  -2.618 -12.864  1.00  0.00     0.131 A 
ATOM     79  C   UNL     1      17.229  -2.289 -13.670  1.00  0.00     0.055 A 
ATOM     80  C   UNL     1      15.644  -2.938 -11.985  1.00  0.00     0.041 A 
ATOM     81  F   UNL     1      13.349  -2.816 -12.441  1.00  0.00    -0.206 F 
ATOM     82  C   UNL     1      16.965  -2.787 -12.392  1.00  0.00     0.022 A 
BRANCH  79  83
ATOM     83  S   UNL     1      18.936  -2.211 -14.279  1.00  0.00     0.124 S 
ATOM     84  O   UNL     1      18.873  -3.077 -15.450  1.00  0.00    -0.237 OA
ATOM     85  O   UNL     1      19.098  -0.785 -14.542  1.00  0.00    -0.237 OA
ATOM     86  O   UNL     1      19.720  -2.730 -13.160  1.00  0.00    -0.744 OA
ENDBRANCH  79  83
ENDBRANCH  52  76
BRANCH  64  87
ATOM     87  C   UNL     1      12.910  -4.800 -20.277  1.00  0.00     0.023 A 
ATOM     88  C   UNL     1      12.945  -6.144 -19.866  1.00  0.00     0.031 A 
ATOM     89  C   UNL     1      13.447  -4.479 -21.536  1.00  0.00     0.131 A 
ATOM     90  C   UNL     1      13.543  -7.111 -20.688  1.00  0.00     0.055 A 
ATOM     91  C   UNL     1      13.986  -5.454 -22.375  1.00  0.00     0.041 A 
ATOM     92  F   UNL     1      13.444  -3.210 -21.976  1.00  0.00    -0.206 F 
ATOM     93  C   UNL     1      14.045  -6.777 -21.949  1.00  0.00     0.022 A 
BRANCH  90  94
ATOM     94  S   UNL     1      13.721  -8.802 -20.057  1.00  0.00     0.124 S 
ATOM     95  O   UNL     1      14.564  -8.599 -18.884  1.00  0.00    -0.237 OA
ATOM     96  O   UNL     1      12.338  -9.184 -19.791  1.00  0.00    -0.237 OA
ATOM     97  O   UNL     1      14.358  -9.515 -21.163  1.00  0.00    -0.744 OA
ENDBRANCH  90  94
ENDBRANCH  64  87
ENDBRANCH  38  39
ENDBRANCH  30  33
ENDBRANCH  28  29
ENDBRANCH  27  28
ENDBRANCH   1  27
TORSDOF 17
