REMARK SMILES COc1ccc(N[C@]2(Br)C(=O)NC(=O)N[C@@H]2C(=O)NCCCCNC(=O)c2ccc(-c3c4nc(c(-c5cc(S(=O)(=O)[O-])ccc5F)c5ccc([nH]5)c(-c5cc(S(=O)(=O)[O-])ccc5F)c5nc(c(-c6cc(S(=O)(=O)[O-])ccc6F)c6ccc3[nH]6)C=C5)C=C4)cc2)cc1
REMARK SMILES IDX 21 1 20 2 19 3 17 4 18 5 16 7 8 8 10 9 9 10 11 11 12 12
REMARK SMILES IDX 15 13 13 14 14 17 7 18 6 20 3 21 4 22 91 23 5 24 90 25 2 26
REMARK SMILES IDX 1 27 22 28 23 29 24 30 25 31 26 33 27 34 28 35 89 36 29 37
REMARK SMILES IDX 88 38 30 39 31 40 32 41 82 42 33 43 87 44 81 45 83 46 34 47
REMARK SMILES IDX 86 48 80 49 79 50 35 52 67 53 47 54 66 55 48 56 51 57 65 58
REMARK SMILES IDX 84 59 49 60 50 61 64 63 85 64 52 65 36 66 37 67 45 68 38 69
REMARK SMILES IDX 44 70 46 71 43 72 39 73 40 74 41 75 42 76 68 77 69 78 77 79
REMARK SMILES IDX 70 80 76 81 78 82 75 83 71 84 72 85 73 86 74 87 53 88 54 89
REMARK SMILES IDX 62 90 55 91 61 92 63 93 60 94 56 95 57 96 58 97 59 98
REMARK H PARENT 19 6 12 15 15 16 7 19 24 32 83 51 51 62
REMARK Flexibility Score: inf
ROOT
ATOM      1  C   UNL     1      -1.930   5.726  -6.864  1.00  0.00     0.023 C 
ENDROOT
BRANCH   1   2
ATOM      2  C   UNL     1      -2.082   4.306  -6.330  1.00  0.00     0.116 C 
BRANCH   2   3
ATOM      3  N   UNL     1      -2.152   3.300  -7.373  1.00  0.00    -0.354 N 
ATOM      4  C   UNL     1      -1.447   2.136  -7.506  1.00  0.00     0.246 C 
ATOM      5  O   UNL     1      -1.980   1.227  -8.144  1.00  0.00    -0.273 OA
ATOM      6  H   UNL     1      -2.803   3.481  -8.089  1.00  0.00     0.163 HD
BRANCH   4   7
ATOM      7  C   UNL     1      -0.165   1.917  -6.699  1.00  0.00     0.219 C 
ATOM      8  C   UNL     1       0.903   1.125  -7.471  1.00  0.00     0.202 C 
ATOM      9  C   UNL     1       0.576  -0.373  -7.526  1.00  0.00     0.267 C 
ATOM     10  Br  UNL     1       2.551   1.119  -6.250  1.00  0.00    -0.048 Br
ATOM     11  O   UNL     1       1.099  -1.175  -8.303  1.00  0.00    -0.271 OA
ATOM     12  N   UNL     1      -0.280  -0.840  -6.546  1.00  0.00    -0.275 N 
ATOM     13  N   UNL     1      -0.617   1.201  -5.502  1.00  0.00    -0.322 N 
ATOM     14  C   UNL     1      -0.793  -0.148  -5.488  1.00  0.00     0.322 C 
ATOM     15  H   UNL     1      -0.551  -1.784  -6.620  1.00  0.00     0.174 HD
ATOM     16  H   UNL     1      -0.800   1.714  -4.682  1.00  0.00     0.166 HD
ATOM     17  O   UNL     1      -1.345  -0.704  -4.548  1.00  0.00    -0.248 OA
BRANCH   8  18
ATOM     18  N   UNL     1       1.449   1.756  -8.673  1.00  0.00    -0.360 N 
ATOM     19  H   UNL     1       2.337   2.167  -8.560  1.00  0.00     0.162 HD
BRANCH  18  20
ATOM     20  C   UNL     1       0.917   1.866  -9.937  1.00  0.00     0.036 A 
ATOM     21  C   UNL     1      -0.245   2.394 -12.454  1.00  0.00     0.119 A 
ATOM     22  C   UNL     1      -0.754   1.386 -11.649  1.00  0.00     0.048 A 
ATOM     23  C   UNL     1       0.849   3.136 -12.032  1.00  0.00     0.048 A 
ATOM     24  C   UNL     1      -0.160   1.117 -10.411  1.00  0.00     0.029 A 
ATOM     25  C   UNL     1       1.423   2.867 -10.785  1.00  0.00     0.029 A 
BRANCH  21  26
ATOM     26  O   UNL     1      -0.901   2.716 -13.608  1.00  0.00    -0.497 OA
ATOM     27  C   UNL     1      -0.270   2.109 -14.732  1.00  0.00     0.278 C 
ENDBRANCH  21  26
ENDBRANCH  18  20
ENDBRANCH   8  18
ENDBRANCH   4   7
ENDBRANCH   2   3
ENDBRANCH   1   2
BRANCH   1  28
ATOM     28  C   UNL     1      -2.991   6.183  -7.870  1.00  0.00     0.023 C 
BRANCH  28  29
ATOM     29  C   UNL     1      -4.447   5.940  -7.481  1.00  0.00     0.116 C 
BRANCH  29  30
ATOM     30  N   UNL     1      -4.827   6.589  -6.240  1.00  0.00    -0.352 N 
ATOM     31  C   UNL     1      -5.954   7.321  -5.944  1.00  0.00     0.251 C 
ATOM     32  H   UNL     1      -4.184   6.492  -5.501  1.00  0.00     0.163 HD
ATOM     33  O   UNL     1      -6.030   7.879  -4.852  1.00  0.00    -0.269 OA
BRANCH  31  34
ATOM     34  C   UNL     1      -7.046   7.473  -6.936  1.00  0.00     0.039 A 
ATOM     35  C   UNL     1      -7.632   8.734  -7.095  1.00  0.00     0.014 A 
ATOM     36  C   UNL     1      -7.514   6.392  -7.688  1.00  0.00     0.014 A 
ATOM     37  C   UNL     1      -8.642   8.922  -8.043  1.00  0.00     0.010 A 
ATOM     38  C   UNL     1      -8.477   6.595  -8.678  1.00  0.00     0.010 A 
ATOM     39  C   UNL     1      -9.056   7.861  -8.863  1.00  0.00    -0.014 A 
BRANCH  39  40
ATOM     40  C   UNL     1     -10.113   8.050  -9.892  1.00  0.00     0.031 A 
ATOM     41  C   UNL     1     -11.435   7.343  -9.753  1.00  0.00     0.074 A 
ATOM     42  C   UNL     1      -9.868   8.811 -10.977  1.00  0.00     0.049 A 
ATOM     43  N   UNL     1     -12.453   7.315 -10.575  1.00  0.00    -0.248 NA
ATOM     44  C   UNL     1     -11.619   6.534  -8.540  1.00  0.00     0.031 C 
ATOM     45  C   UNL     1      -8.613   9.515 -11.250  1.00  0.00     0.029 A 
ATOM     46  N   UNL     1     -10.659   9.111 -12.058  1.00  0.00    -0.354 N 
ATOM     47  C   UNL     1     -13.391   6.470  -9.989  1.00  0.00     0.074 A 
ATOM     48  C   UNL     1     -12.793   5.967  -8.770  1.00  0.00     0.031 C 
ATOM     49  C   UNL     1      -8.726  10.177 -12.414  1.00  0.00     0.029 A 
ATOM     50  C   UNL     1     -10.044   9.920 -12.986  1.00  0.00     0.049 A 
ATOM     51  H   UNL     1     -11.580   8.779 -12.160  1.00  0.00     0.167 HD
ATOM     52  C   UNL     1     -14.641   6.159 -10.416  1.00  0.00     0.034 A 
ATOM     53  C   UNL     1     -10.490  10.395 -14.165  1.00  0.00     0.034 A 
ATOM     54  C   UNL     1     -15.232   6.681 -11.625  1.00  0.00     0.049 A 
ATOM     55  C   UNL     1     -11.889  10.056 -14.610  1.00  0.00     0.074 A 
ATOM     56  C   UNL     1     -16.501   6.460 -12.134  1.00  0.00     0.029 A 
ATOM     57  N   UNL     1     -14.593   7.533 -12.517  1.00  0.00    -0.354 N 
ATOM     58  N   UNL     1     -12.777   9.284 -14.027  1.00  0.00    -0.248 NA
ATOM     59  C   UNL     1     -12.352  10.670 -15.861  1.00  0.00     0.031 C 
ATOM     60  C   UNL     1     -16.612   7.139 -13.354  1.00  0.00     0.029 A 
ATOM     61  C   UNL     1     -15.436   7.837 -13.576  1.00  0.00     0.049 A 
ATOM     62  H   UNL     1     -13.675   7.873 -12.413  1.00  0.00     0.167 HD
ATOM     63  C   UNL     1     -13.915   9.348 -14.826  1.00  0.00     0.074 A 
ATOM     64  C   UNL     1     -13.604  10.242 -15.922  1.00  0.00     0.031 C 
ATOM     65  C   UNL     1     -15.112   8.728 -14.665  1.00  0.00     0.034 A 
BRANCH  52  66
ATOM     66  C   UNL     1     -15.432   5.185  -9.575  1.00  0.00     0.023 A 
ATOM     67  C   UNL     1     -15.801   5.486  -8.252  1.00  0.00     0.031 A 
ATOM     68  C   UNL     1     -15.781   3.921 -10.083  1.00  0.00     0.131 A 
ATOM     69  C   UNL     1     -16.415   4.507  -7.455  1.00  0.00     0.055 A 
ATOM     70  C   UNL     1     -16.468   2.981  -9.311  1.00  0.00     0.041 A 
ATOM     71  F   UNL     1     -15.441   3.568 -11.332  1.00  0.00    -0.206 F 
ATOM     72  C   UNL     1     -16.773   3.265  -7.983  1.00  0.00     0.022 A 
BRANCH  69  73
ATOM     73  S   UNL     1     -16.594   4.827  -5.679  1.00  0.00     0.124 S 
ATOM     74  O   UNL     1     -15.204   5.019  -5.273  1.00  0.00    -0.237 OA
ATOM     75  O   UNL     1     -17.437   6.016  -5.655  1.00  0.00    -0.237 OA
ATOM     76  O   UNL     1     -17.220   3.607  -5.172  1.00  0.00    -0.744 OA
ENDBRANCH  69  73
ENDBRANCH  52  66
BRANCH  53  77
ATOM     77  C   UNL     1      -9.612  11.248 -15.014  1.00  0.00     0.023 A 
ATOM     78  C   UNL     1      -9.909  12.603 -15.229  1.00  0.00     0.031 A 
ATOM     79  C   UNL     1      -8.483  10.709 -15.655  1.00  0.00     0.131 A 
ATOM     80  C   UNL     1      -9.115  13.363 -16.101  1.00  0.00     0.055 A 
ATOM     81  C   UNL     1      -7.670  11.481 -16.487  1.00  0.00     0.041 A 
ATOM     82  F   UNL     1      -8.150   9.421 -15.473  1.00  0.00    -0.206 F 
ATOM     83  C   UNL     1      -7.992  12.814 -16.724  1.00  0.00     0.022 A 
BRANCH  80  84
ATOM     84  S   UNL     1      -9.615  15.068 -16.467  1.00  0.00     0.124 S 
ATOM     85  O   UNL     1     -10.952  14.875 -17.016  1.00  0.00    -0.237 OA
ATOM     86  O   UNL     1      -9.546  15.692 -15.149  1.00  0.00    -0.237 OA
ATOM     87  O   UNL     1      -8.606  15.521 -17.421  1.00  0.00    -0.744 OA
ENDBRANCH  80  84
ENDBRANCH  53  77
BRANCH  65  88
ATOM     88  C   UNL     1     -16.187   9.049 -15.673  1.00  0.00     0.023 A 
ATOM     89  C   UNL     1     -16.090   8.646 -17.016  1.00  0.00     0.031 A 
ATOM     90  C   UNL     1     -17.313   9.797 -15.285  1.00  0.00     0.131 A 
ATOM     91  C   UNL     1     -17.071   9.044 -17.937  1.00  0.00     0.055 A 
ATOM     92  C   UNL     1     -18.313  10.144 -16.194  1.00  0.00     0.041 A 
ATOM     93  F   UNL     1     -17.455  10.208 -14.015  1.00  0.00    -0.206 F 
ATOM     94  C   UNL     1     -18.188   9.779 -17.532  1.00  0.00     0.022 A 
BRANCH  91  95
ATOM     95  S   UNL     1     -16.819   8.672 -19.695  1.00  0.00     0.124 S 
ATOM     96  O   UNL     1     -15.520   9.285 -19.953  1.00  0.00    -0.237 OA
ATOM     97  O   UNL     1     -16.850   7.213 -19.712  1.00  0.00    -0.237 OA
ATOM     98  O   UNL     1     -17.952   9.323 -20.349  1.00  0.00    -0.744 OA
ENDBRANCH  91  95
ENDBRANCH  65  88
ENDBRANCH  39  40
ENDBRANCH  31  34
ENDBRANCH  29  30
ENDBRANCH  28  29
ENDBRANCH   1  28
TORSDOF 17
