REMARK SMILES C[C@H](C(=O)NCCCCNC(=O)c1ccc(-c2c3nc(c(-c4cc(S(=O)(=O)[O-])ccc4F)c4ccc([nH]4)c(-c4cc(S(=O)(=O)[O-])ccc4F)c4nc(c(-c5cc(S(=O)(=O)[O-])ccc5F)c5ccc2[nH]5)C=C4)C=C3)cc1)[C@H](C)[NH+]1CCN(c2ccccc2Cl)CC1
REMARK SMILES IDX 7 1 6 2 5 3 3 4 4 5 2 7 1 8 76 9 77 10 78 11 79 12 90 13
REMARK SMILES IDX 80 15 89 16 81 17 82 18 83 19 87 20 84 21 86 22 88 23 85 24
REMARK SMILES IDX 8 25 9 26 10 27 11 28 12 30 13 31 14 32 75 33 15 34 74 35
REMARK SMILES IDX 16 36 17 37 18 38 68 39 19 40 73 41 67 42 69 43 20 44 72 45
REMARK SMILES IDX 66 46 65 47 21 49 53 50 33 51 52 52 34 53 37 54 51 55 70 56
REMARK SMILES IDX 35 57 36 58 50 60 71 61 38 62 22 63 23 64 31 65 24 66 30 67
REMARK SMILES IDX 32 68 29 69 25 70 26 71 27 72 28 73 54 74 55 75 63 76 56 77
REMARK SMILES IDX 62 78 64 79 61 80 57 81 58 82 59 83 60 84 39 85 40 86 48 87
REMARK SMILES IDX 41 88 47 89 49 90 46 91 42 92 43 93 44 94 45 95
REMARK H PARENT 5 6 78 14 10 29 69 48 37 59
REMARK Flexibility Score: inf
ROOT
ATOM      1  C   UNL     1       0.319   2.426   4.204  1.00  0.00     0.023 C 
ENDROOT
BRANCH   1   2
ATOM      2  C   UNL     1      -0.318   1.065   3.934  1.00  0.00     0.116 C 
BRANCH   2   3
ATOM      3  N   UNL     1      -1.697   1.173   3.509  1.00  0.00    -0.356 N 
ATOM      4  C   UNL     1      -2.300   0.776   2.351  1.00  0.00     0.228 C 
ATOM      5  O   UNL     1      -3.532   0.827   2.306  1.00  0.00    -0.275 OA
ATOM      6  H   UNL     1      -2.298   1.601   4.160  1.00  0.00     0.163 HD
BRANCH   4   7
ATOM      7  C   UNL     1      -1.466   0.256   1.174  1.00  0.00     0.133 C 
ATOM      8  C   UNL     1      -2.312  -0.758   0.387  1.00  0.00     0.024 C 
BRANCH   7   9
ATOM      9  C   UNL     1      -0.908   1.385   0.236  1.00  0.00     0.193 C 
ATOM     10  C   UNL     1       0.600   1.565   0.472  1.00  0.00     0.076 C 
BRANCH   9  11
ATOM     11  N   UNL     1      -1.727   2.602   0.315  1.00  0.00    -0.329 N 
ATOM     12  C   UNL     1      -1.098   3.916   0.531  1.00  0.00     0.284 C 
ATOM     13  C   UNL     1      -2.755   2.708  -0.745  1.00  0.00     0.284 C 
ATOM     14  H   UNL     1      -2.149   2.405   1.223  1.00  0.00     0.348 HD
ATOM     15  C   UNL     1      -0.611   4.672  -0.731  1.00  0.00     0.178 C 
ATOM     16  C   UNL     1      -2.235   3.349  -2.052  1.00  0.00     0.178 C 
ATOM     17  N   UNL     1      -1.654   4.663  -1.761  1.00  0.00    -0.359 N 
BRANCH  17  18
ATOM     18  C   UNL     1      -1.893   5.761  -2.568  1.00  0.00     0.056 A 
ATOM     19  C   UNL     1      -0.809   6.483  -3.102  1.00  0.00     0.027 A 
ATOM     20  C   UNL     1      -3.186   6.239  -2.881  1.00  0.00     0.064 A 
ATOM     21  C   UNL     1      -0.994   7.604  -3.919  1.00  0.00     0.002 A 
ATOM     22  C   UNL     1      -3.372   7.361  -3.702  1.00  0.00     0.023 A 
ATOM     23  Cl  UNL     1      -4.627   5.554  -2.199  1.00  0.00    -0.082 Cl
ATOM     24  C   UNL     1      -2.277   8.041  -4.223  1.00  0.00     0.002 A 
ENDBRANCH  17  18
ENDBRANCH   9  11
ENDBRANCH   7   9
ENDBRANCH   4   7
ENDBRANCH   2   3
ENDBRANCH   1   2
BRANCH   1  25
ATOM     25  C   UNL     1      -0.297   3.223   5.353  1.00  0.00     0.023 C 
BRANCH  25  26
ATOM     26  C   UNL     1      -0.350   2.500   6.692  1.00  0.00     0.116 C 
BRANCH  26  27
ATOM     27  N   UNL     1       0.961   2.078   7.167  1.00  0.00    -0.352 N 
ATOM     28  C   UNL     1       1.476   2.166   8.440  1.00  0.00     0.251 C 
ATOM     29  H   UNL     1       1.554   1.679   6.491  1.00  0.00     0.163 HD
ATOM     30  O   UNL     1       2.647   1.868   8.655  1.00  0.00    -0.269 OA
BRANCH  28  31
ATOM     31  C   UNL     1       0.611   2.665   9.528  1.00  0.00     0.039 A 
ATOM     32  C   UNL     1       1.054   3.730  10.317  1.00  0.00     0.014 A 
ATOM     33  C   UNL     1      -0.665   2.127   9.712  1.00  0.00     0.014 A 
ATOM     34  C   UNL     1       0.180   4.315  11.237  1.00  0.00     0.010 A 
ATOM     35  C   UNL     1      -1.552   2.753  10.579  1.00  0.00     0.010 A 
ATOM     36  C   UNL     1      -1.143   3.861  11.340  1.00  0.00    -0.014 A 
BRANCH  36  37
ATOM     37  C   UNL     1      -2.137   4.517  12.228  1.00  0.00     0.031 A 
ATOM     38  C   UNL     1      -2.751   3.735  13.354  1.00  0.00     0.074 A 
ATOM     39  C   UNL     1      -2.582   5.754  11.938  1.00  0.00     0.049 A 
ATOM     40  N   UNL     1      -3.778   4.030  14.108  1.00  0.00    -0.248 NA
ATOM     41  C   UNL     1      -2.152   2.422  13.630  1.00  0.00     0.031 C 
ATOM     42  C   UNL     1      -2.097   6.593  10.841  1.00  0.00     0.029 A 
ATOM     43  N   UNL     1      -3.573   6.506  12.519  1.00  0.00    -0.354 N 
ATOM     44  C   UNL     1      -3.974   2.921  14.925  1.00  0.00     0.074 A 
ATOM     45  C   UNL     1      -2.989   1.934  14.532  1.00  0.00     0.031 C 
ATOM     46  C   UNL     1      -2.799   7.738  10.820  1.00  0.00     0.029 A 
ATOM     47  C   UNL     1      -3.812   7.695  11.870  1.00  0.00     0.049 A 
ATOM     48  H   UNL     1      -4.065   6.222  13.323  1.00  0.00     0.167 HD
ATOM     49  C   UNL     1      -4.885   2.750  15.916  1.00  0.00     0.034 A 
ATOM     50  C   UNL     1      -4.761   8.629  12.074  1.00  0.00     0.034 A 
ATOM     51  C   UNL     1      -5.844   3.756  16.302  1.00  0.00     0.049 A 
ATOM     52  C   UNL     1      -5.756   8.432  13.186  1.00  0.00     0.074 A 
ATOM     53  C   UNL     1      -6.760   3.725  17.340  1.00  0.00     0.029 A 
ATOM     54  N   UNL     1      -6.018   4.975  15.657  1.00  0.00    -0.354 N 
ATOM     55  N   UNL     1      -5.903   7.401  13.986  1.00  0.00    -0.248 NA
ATOM     56  C   UNL     1      -6.706   9.525  13.428  1.00  0.00     0.031 C 
ATOM     57  C   UNL     1      -7.524   4.897  17.287  1.00  0.00     0.029 A 
ATOM     58  C   UNL     1      -7.042   5.691  16.258  1.00  0.00     0.049 A 
ATOM     59  H   UNL     1      -5.491   5.285  14.886  1.00  0.00     0.167 HD
ATOM     60  C   UNL     1      -6.947   7.733  14.844  1.00  0.00     0.074 A 
ATOM     61  C   UNL     1      -7.391   9.059  14.464  1.00  0.00     0.031 C 
ATOM     62  C   UNL     1      -7.481   7.010  15.861  1.00  0.00     0.034 A 
BRANCH  49  63
ATOM     63  C   UNL     1      -4.896   1.409  16.613  1.00  0.00     0.023 A 
ATOM     64  C   UNL     1      -3.773   0.929  17.310  1.00  0.00     0.031 A 
ATOM     65  C   UNL     1      -6.017   0.565  16.516  1.00  0.00     0.131 A 
ATOM     66  C   UNL     1      -3.753  -0.391  17.783  1.00  0.00     0.055 A 
ATOM     67  C   UNL     1      -6.026  -0.715  17.074  1.00  0.00     0.041 A 
ATOM     68  F   UNL     1      -7.114   0.958  15.850  1.00  0.00    -0.206 F 
ATOM     69  C   UNL     1      -4.880  -1.210  17.692  1.00  0.00     0.022 A 
BRANCH  66  70
ATOM     70  S   UNL     1      -2.170  -1.081  18.341  1.00  0.00     0.124 S 
ATOM     71  O   UNL     1      -1.324  -0.866  17.169  1.00  0.00    -0.237 OA
ATOM     72  O   UNL     1      -1.864  -0.263  19.508  1.00  0.00    -0.237 OA
ATOM     73  O   UNL     1      -2.486  -2.480  18.622  1.00  0.00    -0.744 OA
ENDBRANCH  66  70
ENDBRANCH  49  63
BRANCH  50  74
ATOM     74  C   UNL     1      -4.831   9.819  11.183  1.00  0.00     0.023 A 
ATOM     75  C   UNL     1      -4.472  11.094  11.646  1.00  0.00     0.031 A 
ATOM     76  C   UNL     1      -5.247   9.691   9.846  1.00  0.00     0.131 A 
ATOM     77  C   UNL     1      -4.561  12.198  10.784  1.00  0.00     0.055 A 
ATOM     78  C   UNL     1      -5.299  10.786   8.983  1.00  0.00     0.041 A 
ATOM     79  F   UNL     1      -5.585   8.488   9.354  1.00  0.00    -0.206 F 
ATOM     80  C   UNL     1      -4.960  12.051   9.453  1.00  0.00     0.022 A 
BRANCH  77  81
ATOM     81  S   UNL     1      -4.168  13.845  11.436  1.00  0.00     0.124 S 
ATOM     82  O   UNL     1      -5.195  14.013  12.457  1.00  0.00    -0.237 OA
ATOM     83  O   UNL     1      -2.804  13.662  11.922  1.00  0.00    -0.237 OA
ATOM     84  O   UNL     1      -4.297  14.713  10.268  1.00  0.00    -0.744 OA
ENDBRANCH  77  81
ENDBRANCH  50  74
BRANCH  62  85
ATOM     85  C   UNL     1      -8.572   7.664  16.668  1.00  0.00     0.023 A 
ATOM     86  C   UNL     1      -9.859   7.874  16.146  1.00  0.00     0.031 A 
ATOM     87  C   UNL     1      -8.315   8.071  17.990  1.00  0.00     0.131 A 
ATOM     88  C   UNL     1     -10.834   8.509  16.931  1.00  0.00     0.055 A 
ATOM     89  C   UNL     1      -9.302   8.660  18.781  1.00  0.00     0.041 A 
ATOM     90  F   UNL     1      -7.101   7.894  18.535  1.00  0.00    -0.206 F 
ATOM     91  C   UNL     1     -10.568   8.889  18.250  1.00  0.00     0.022 A 
BRANCH  88  92
ATOM     92  S   UNL     1     -12.447   8.884  16.191  1.00  0.00     0.124 S 
ATOM     93  O   UNL     1     -12.079   9.785  15.103  1.00  0.00    -0.237 OA
ATOM     94  O   UNL     1     -12.925   7.564  15.792  1.00  0.00    -0.237 OA
ATOM     95  O   UNL     1     -13.191   9.506  17.285  1.00  0.00    -0.744 OA
ENDBRANCH  88  92
ENDBRANCH  62  85
ENDBRANCH  36  37
ENDBRANCH  28  31
ENDBRANCH  26  27
ENDBRANCH  25  26
ENDBRANCH   1  25
TORSDOF 17
