REMARK SMILES O=C(NCCCCNC(=O)c1ccc(-c2c3nc(c(-c4cc(S(=O)(=O)[O-])ccc4F)c4ccc([nH]4)c(-c4cc(S(=O)(=O)[O-])ccc4F)c4nc(c(-c5cc(S(=O)(=O)[O-])ccc5F)c5ccc2[nH]5)C=C4)C=C3)cc1)c1ccc(NS(=O)(=O)C2=Cc3ccccc3CC2)cc1
REMARK SMILES IDX 5 1 4 2 3 3 1 4 2 5 74 7 75 8 93 9 76 10 92 11 77 12 78 13
REMARK SMILES IDX 79 15 80 16 81 17 82 18 83 19 91 20 84 21 90 22 85 23 89 24
REMARK SMILES IDX 86 25 88 26 87 27 6 28 7 29 8 30 9 31 10 33 11 34 12 35
REMARK SMILES IDX 73 36 13 37 72 38 14 39 15 40 16 41 66 42 17 43 71 44 65 45
REMARK SMILES IDX 67 46 18 47 70 48 64 49 63 50 19 52 51 53 31 54 50 55 32 56
REMARK SMILES IDX 35 57 49 58 68 59 33 60 34 61 48 63 69 64 36 65 20 66 21 67
REMARK SMILES IDX 29 68 22 69 28 70 30 71 27 72 23 73 24 74 25 75 26 76 52 77
REMARK SMILES IDX 53 78 61 79 54 80 60 81 62 82 59 83 55 84 56 85 57 86 58 87
REMARK SMILES IDX 37 88 38 89 46 90 39 91 45 92 47 93 44 94 40 95 41 96 42 97
REMARK SMILES IDX 43 98
REMARK H PARENT 3 6 78 14 8 32 67 51 35 62
REMARK Flexibility Score: inf
ROOT
ATOM      1  C   UNL     1       4.995   2.646   0.306  1.00  0.00     0.023 C 
ENDROOT
BRANCH   1   2
ATOM      2  C   UNL     1       4.497   1.224   0.543  1.00  0.00     0.116 C 
BRANCH   2   3
ATOM      3  N   UNL     1       3.049   1.132   0.465  1.00  0.00    -0.352 N 
ATOM      4  O   UNL     1       1.076   0.444  -0.397  1.00  0.00    -0.269 OA
ATOM      5  C   UNL     1       2.286   0.274  -0.285  1.00  0.00     0.251 C 
ATOM      6  H   UNL     1       2.550   1.770   1.025  1.00  0.00     0.163 HD
BRANCH   5   7
ATOM      7  C   UNL     1       2.923  -0.878  -0.956  1.00  0.00     0.039 A 
ATOM      8  C   UNL     1       3.719  -1.762  -0.225  1.00  0.00     0.016 A 
ATOM      9  C   UNL     1       2.636  -1.140  -2.298  1.00  0.00     0.016 A 
ATOM     10  C   UNL     1       4.248  -2.893  -0.845  1.00  0.00     0.027 A 
ATOM     11  C   UNL     1       3.185  -2.269  -2.919  1.00  0.00     0.027 A 
ATOM     12  C   UNL     1       4.005  -3.144  -2.196  1.00  0.00     0.049 A 
BRANCH  12  13
ATOM     13  N   UNL     1       4.394  -4.390  -2.780  1.00  0.00    -0.280 N 
ATOM     14  H   UNL     1       3.700  -5.013  -3.096  1.00  0.00     0.180 HD
BRANCH  13  15
ATOM     15  S   UNL     1       6.034  -4.814  -2.936  1.00  0.00     0.258 S 
ATOM     16  O   UNL     1       6.008  -6.246  -3.155  1.00  0.00    -0.202 OA
ATOM     17  O   UNL     1       6.539  -3.959  -3.996  1.00  0.00    -0.202 OA
BRANCH  15  18
ATOM     18  C   UNL     1       6.879  -4.434  -1.433  1.00  0.00     0.066 C 
ATOM     19  C   UNL     1       7.138  -5.474  -0.610  1.00  0.00     0.026 C 
ATOM     20  C   UNL     1       7.979  -3.409  -1.566  1.00  0.00     0.055 C 
ATOM     21  C   UNL     1       8.449  -6.137  -0.867  1.00  0.00    -0.021 A 
ATOM     22  C   UNL     1       9.247  -4.072  -2.126  1.00  0.00     0.041 C 
ATOM     23  C   UNL     1       8.672  -7.425  -0.372  1.00  0.00     0.008 A 
ATOM     24  C   UNL     1       9.456  -5.480  -1.606  1.00  0.00    -0.040 A 
ATOM     25  C   UNL     1       9.869  -8.083  -0.654  1.00  0.00     0.001 A 
ATOM     26  C   UNL     1      10.642  -6.162  -1.902  1.00  0.00     0.004 A 
ATOM     27  C   UNL     1      10.844  -7.459  -1.431  1.00  0.00     0.000 A 
ENDBRANCH  15  18
ENDBRANCH  13  15
ENDBRANCH  12  13
ENDBRANCH   5   7
ENDBRANCH   2   3
ENDBRANCH   1   2
BRANCH   1  28
ATOM     28  C   UNL     1       4.569   3.671   1.358  1.00  0.00     0.023 C 
BRANCH  28  29
ATOM     29  C   UNL     1       4.918   3.320   2.801  1.00  0.00     0.116 C 
BRANCH  29  30
ATOM     30  N   UNL     1       6.341   3.107   3.006  1.00  0.00    -0.352 N 
ATOM     31  C   UNL     1       7.193   3.661   3.931  1.00  0.00     0.251 C 
ATOM     32  H   UNL     1       6.759   2.467   2.385  1.00  0.00     0.163 HD
ATOM     33  O   UNL     1       8.398   3.442   3.838  1.00  0.00    -0.269 OA
BRANCH  31  34
ATOM     34  C   UNL     1       6.675   4.541   5.004  1.00  0.00     0.039 A 
ATOM     35  C   UNL     1       7.381   5.707   5.310  1.00  0.00     0.014 A 
ATOM     36  C   UNL     1       5.508   4.229   5.708  1.00  0.00     0.014 A 
ATOM     37  C   UNL     1       6.878   6.593   6.267  1.00  0.00     0.010 A 
ATOM     38  C   UNL     1       4.968   5.150   6.606  1.00  0.00     0.010 A 
ATOM     39  C   UNL     1       5.646   6.343   6.895  1.00  0.00    -0.014 A 
BRANCH  39  40
ATOM     40  C   UNL     1       5.059   7.338   7.832  1.00  0.00     0.031 A 
ATOM     41  C   UNL     1       4.859   7.004   9.285  1.00  0.00     0.074 A 
ATOM     42  C   UNL     1       4.668   8.538   7.357  1.00  0.00     0.049 A 
ATOM     43  N   UNL     1       4.393   7.756  10.251  1.00  0.00    -0.248 NA
ATOM     44  C   UNL     1       5.197   5.636   9.701  1.00  0.00     0.031 C 
ATOM     45  C   UNL     1       4.744   8.956   5.955  1.00  0.00     0.029 A 
ATOM     46  N   UNL     1       4.136   9.628   7.998  1.00  0.00    -0.354 N 
ATOM     47  C   UNL     1       4.371   6.950  11.385  1.00  0.00     0.074 A 
ATOM     48  C   UNL     1       4.809   5.635  10.967  1.00  0.00     0.031 C 
ATOM     49  C   UNL     1       4.322  10.226   5.851  1.00  0.00     0.029 A 
ATOM     50  C   UNL     1       3.915  10.703   7.168  1.00  0.00     0.049 A 
ATOM     51  H   UNL     1       3.932   9.640   8.961  1.00  0.00     0.167 HD
ATOM     52  C   UNL     1       4.040   7.282  12.659  1.00  0.00     0.034 A 
ATOM     53  C   UNL     1       3.450  11.938   7.440  1.00  0.00     0.034 A 
ATOM     54  C   UNL     1       3.615   8.603  13.060  1.00  0.00     0.049 A 
ATOM     55  C   UNL     1       3.107  12.290   8.863  1.00  0.00     0.074 A 
ATOM     56  C   UNL     1       3.328   9.070  14.332  1.00  0.00     0.029 A 
ATOM     57  N   UNL     1       3.404   9.670  12.194  1.00  0.00    -0.354 N 
ATOM     58  N   UNL     1       3.172  11.541   9.941  1.00  0.00    -0.248 NA
ATOM     59  C   UNL     1       2.648  13.662   9.107  1.00  0.00     0.031 C 
ATOM     60  C   UNL     1       2.882  10.393  14.227  1.00  0.00     0.029 A 
ATOM     61  C   UNL     1       2.960  10.780  12.899  1.00  0.00     0.049 A 
ATOM     62  H   UNL     1       3.548   9.641  11.220  1.00  0.00     0.167 HD
ATOM     63  C   UNL     1       2.786  12.364  10.995  1.00  0.00     0.074 A 
ATOM     64  C   UNL     1       2.517  13.669  10.424  1.00  0.00     0.031 C 
ATOM     65  C   UNL     1       2.667  12.070  12.316  1.00  0.00     0.034 A 
BRANCH  52  66
ATOM     66  C   UNL     1       4.099   6.185  13.698  1.00  0.00     0.023 A 
ATOM     67  C   UNL     1       5.301   5.523  14.009  1.00  0.00     0.031 A 
ATOM     68  C   UNL     1       2.932   5.765  14.359  1.00  0.00     0.131 A 
ATOM     69  C   UNL     1       5.294   4.425  14.883  1.00  0.00     0.055 A 
ATOM     70  C   UNL     1       2.946   4.727  15.295  1.00  0.00     0.041 A 
ATOM     71  F   UNL     1       1.750   6.343  14.094  1.00  0.00    -0.206 F 
ATOM     72  C   UNL     1       4.129   4.038  15.547  1.00  0.00     0.022 A 
BRANCH  69  73
ATOM     73  S   UNL     1       6.793   3.411  15.011  1.00  0.00     0.124 S 
ATOM     74  O   UNL     1       6.999   3.012  13.621  1.00  0.00    -0.237 OA
ATOM     75  O   UNL     1       7.764   4.351  15.558  1.00  0.00    -0.237 OA
ATOM     76  O   UNL     1       6.398   2.327  15.909  1.00  0.00    -0.744 OA
ENDBRANCH  69  73
ENDBRANCH  52  66
BRANCH  53  77
ATOM     77  C   UNL     1       3.307  12.946   6.353  1.00  0.00     0.023 A 
ATOM     78  C   UNL     1       4.111  14.097   6.330  1.00  0.00     0.031 A 
ATOM     79  C   UNL     1       2.345  12.791   5.340  1.00  0.00     0.131 A 
ATOM     80  C   UNL     1       3.908  15.072   5.341  1.00  0.00     0.055 A 
ATOM     81  C   UNL     1       2.178  13.741   4.332  1.00  0.00     0.041 A 
ATOM     82  F   UNL     1       1.559  11.702   5.312  1.00  0.00    -0.206 F 
ATOM     83  C   UNL     1       2.954  14.896   4.336  1.00  0.00     0.022 A 
BRANCH  80  84
ATOM     84  S   UNL     1       4.867  16.609   5.428  1.00  0.00     0.124 S 
ATOM     85  O   UNL     1       4.478  17.129   6.734  1.00  0.00    -0.237 OA
ATOM     86  O   UNL     1       6.236  16.117   5.314  1.00  0.00    -0.237 OA
ATOM     87  O   UNL     1       4.386  17.375   4.280  1.00  0.00    -0.744 OA
ENDBRANCH  80  84
ENDBRANCH  53  77
BRANCH  65  88
ATOM     88  C   UNL     1       2.253  13.203  13.226  1.00  0.00     0.023 A 
ATOM     89  C   UNL     1       0.992  13.815  13.114  1.00  0.00     0.031 A 
ATOM     90  C   UNL     1       3.154  13.716  14.176  1.00  0.00     0.131 A 
ATOM     91  C   UNL     1       0.697  14.954  13.878  1.00  0.00     0.055 A 
ATOM     92  C   UNL     1       2.828  14.807  14.983  1.00  0.00     0.041 A 
ATOM     93  F   UNL     1       4.373  13.173  14.326  1.00  0.00    -0.206 F 
ATOM     94  C   UNL     1       1.601  15.445  14.823  1.00  0.00     0.022 A 
BRANCH  91  95
ATOM     95  S   UNL     1      -0.830  15.868  13.522  1.00  0.00     0.124 S 
ATOM     96  O   UNL     1      -0.702  16.128  12.091  1.00  0.00    -0.237 OA
ATOM     97  O   UNL     1      -1.861  14.910  13.906  1.00  0.00    -0.237 OA
ATOM     98  O   UNL     1      -0.731  17.049  14.378  1.00  0.00    -0.744 OA
ENDBRANCH  91  95
ENDBRANCH  65  88
ENDBRANCH  39  40
ENDBRANCH  31  34
ENDBRANCH  29  30
ENDBRANCH  28  29
ENDBRANCH   1  28
TORSDOF 17
