REMARK SMILES O=C(CCc1cn(-c2ccc(Br)cc2)nc1-c1ccccc1)NCCCCNC(=O)c1ccc(-c2c3nc(c(-c4cc(S(=O)(=O)[O-])ccc4F)c4ccc([nH]4)c(-c4cc(S(=O)(=O)[O-])ccc4F)c4nc(c(-c5cc(S(=O)(=O)[O-])ccc5F)c5ccc2[nH]5)C=C4)C=C3)cc1
REMARK SMILES IDX 25 1 24 2 23 3 1 4 2 5 3 7 4 8 5 9 6 10 16 11 7 12 15 13
REMARK SMILES IDX 17 14 18 15 22 16 19 17 21 18 20 19 8 20 9 21 14 22 10 23
REMARK SMILES IDX 13 24 11 25 12 26 26 27 27 28 28 29 29 30 30 32 31 33 32 34
REMARK SMILES IDX 93 35 33 36 92 37 34 38 35 39 36 40 86 41 37 42 91 43 85 44
REMARK SMILES IDX 87 45 38 46 90 47 84 48 83 49 39 51 71 52 51 53 70 54 52 55
REMARK SMILES IDX 55 56 69 57 88 58 53 59 54 60 68 62 89 63 56 64 40 65 41 66
REMARK SMILES IDX 49 67 42 68 48 69 50 70 47 71 43 72 44 73 45 74 46 75 72 76
REMARK SMILES IDX 73 77 81 78 74 79 80 80 82 81 79 82 75 83 76 84 77 85 78 86
REMARK SMILES IDX 57 87 58 88 66 89 59 90 65 91 67 92 64 93 60 94 61 95 62 96
REMARK SMILES IDX 63 97
REMARK H PARENT 23 6 28 31 87 50 55 61
REMARK Flexibility Score: inf
ROOT
ATOM      1  C   UNL     1       2.034   3.324  -1.250  1.00  0.00     0.023 C 
ENDROOT
BRANCH   1   2
ATOM      2  C   UNL     1       1.705   1.861  -1.607  1.00  0.00     0.116 C 
BRANCH   2   3
ATOM      3  N   UNL     1       2.488   0.883  -0.865  1.00  0.00    -0.356 N 
ATOM      4  O   UNL     1       0.770   0.162   0.452  1.00  0.00    -0.275 OA
ATOM      5  C   UNL     1       1.953   0.086   0.120  1.00  0.00     0.220 C 
ATOM      6  H   UNL     1       3.445   0.788  -1.079  1.00  0.00     0.163 HD
BRANCH   5   7
ATOM      7  C   UNL     1       2.906  -0.815   0.908  1.00  0.00     0.105 C 
BRANCH   7   8
ATOM      8  C   UNL     1       3.933  -1.647   0.136  1.00  0.00     0.049 C 
BRANCH   8   9
ATOM      9  C   UNL     1       5.133  -0.898  -0.352  1.00  0.00    -0.001 A 
ATOM     10  C   UNL     1       5.535   0.374   0.010  1.00  0.00     0.119 A 
ATOM     11  C   UNL     1       6.170  -1.332  -1.240  1.00  0.00     0.096 A 
ATOM     12  N   UNL     1       6.521   0.745  -0.866  1.00  0.00    -0.240 N 
ATOM     13  N   UNL     1       6.919  -0.288  -1.630  1.00  0.00    -0.168 NA
BRANCH  11  14
ATOM     14  C   UNL     1       6.513  -2.696  -1.648  1.00  0.00     0.002 A 
ATOM     15  C   UNL     1       7.840  -3.132  -1.485  1.00  0.00     0.010 A 
ATOM     16  C   UNL     1       5.560  -3.607  -2.108  1.00  0.00     0.010 A 
ATOM     17  C   UNL     1       8.201  -4.455  -1.751  1.00  0.00     0.001 A 
ATOM     18  C   UNL     1       5.921  -4.937  -2.353  1.00  0.00     0.001 A 
ATOM     19  C   UNL     1       7.237  -5.361  -2.180  1.00  0.00     0.000 A 
ENDBRANCH  11  14
BRANCH  12  20
ATOM     20  C   UNL     1       6.981   2.067  -1.078  1.00  0.00     0.065 A 
ATOM     21  C   UNL     1       6.947   3.015  -0.050  1.00  0.00     0.029 A 
ATOM     22  C   UNL     1       7.347   2.457  -2.369  1.00  0.00     0.029 A 
ATOM     23  C   UNL     1       7.256   4.349  -0.329  1.00  0.00     0.018 A 
ATOM     24  C   UNL     1       7.657   3.789  -2.648  1.00  0.00     0.018 A 
ATOM     25  C   UNL     1       7.591   4.732  -1.629  1.00  0.00     0.018 A 
ATOM     26  Br  UNL     1       7.884   6.556  -2.022  1.00  0.00    -0.051 Br
ENDBRANCH  12  20
ENDBRANCH   8   9
ENDBRANCH   7   8
ENDBRANCH   5   7
ENDBRANCH   2   3
ENDBRANCH   1   2
BRANCH   1  27
ATOM     27  C   UNL     1       3.474   3.789  -1.504  1.00  0.00     0.023 C 
BRANCH  27  28
ATOM     28  C   UNL     1       3.937   3.660  -2.948  1.00  0.00     0.116 C 
BRANCH  28  29
ATOM     29  N   UNL     1       3.639   4.786  -3.823  1.00  0.00    -0.352 N 
ATOM     30  C   UNL     1       4.242   5.059  -5.052  1.00  0.00     0.251 C 
ATOM     31  H   UNL     1       2.946   5.415  -3.519  1.00  0.00     0.163 HD
ATOM     32  O   UNL     1       4.152   6.168  -5.553  1.00  0.00    -0.269 OA
BRANCH  30  33
ATOM     33  C   UNL     1       5.012   3.976  -5.726  1.00  0.00     0.039 A 
ATOM     34  C   UNL     1       6.224   4.210  -6.383  1.00  0.00     0.014 A 
ATOM     35  C   UNL     1       4.518   2.680  -5.648  1.00  0.00     0.014 A 
ATOM     36  C   UNL     1       6.974   3.119  -6.854  1.00  0.00     0.010 A 
ATOM     37  C   UNL     1       5.325   1.609  -5.961  1.00  0.00     0.010 A 
ATOM     38  C   UNL     1       6.538   1.802  -6.616  1.00  0.00    -0.014 A 
BRANCH  38  39
ATOM     39  C   UNL     1       7.366   0.616  -6.920  1.00  0.00     0.031 A 
ATOM     40  C   UNL     1       8.788   0.711  -6.466  1.00  0.00     0.074 A 
ATOM     41  C   UNL     1       6.855  -0.566  -7.352  1.00  0.00     0.049 A 
ATOM     42  N   UNL     1       9.836   1.017  -7.162  1.00  0.00    -0.248 NA
ATOM     43  C   UNL     1       9.060   0.655  -5.023  1.00  0.00     0.031 C 
ATOM     44  C   UNL     1       5.452  -0.900  -7.642  1.00  0.00     0.029 A 
ATOM     45  N   UNL     1       7.474  -1.770  -7.543  1.00  0.00    -0.354 N 
ATOM     46  C   UNL     1      10.917   0.917  -6.282  1.00  0.00     0.074 A 
ATOM     47  C   UNL     1      10.343   1.017  -4.973  1.00  0.00     0.031 C 
ATOM     48  C   UNL     1       5.297  -2.240  -7.737  1.00  0.00     0.029 A 
ATOM     49  C   UNL     1       6.609  -2.857  -7.723  1.00  0.00     0.049 A 
ATOM     50  H   UNL     1       8.454  -1.865  -7.554  1.00  0.00     0.167 HD
ATOM     51  C   UNL     1      12.126   0.421  -6.685  1.00  0.00     0.034 A 
ATOM     52  C   UNL     1       6.933  -4.166  -7.918  1.00  0.00     0.034 A 
ATOM     53  C   UNL     1      12.145   0.289  -8.126  1.00  0.00     0.049 A 
ATOM     54  C   UNL     1       8.308  -4.167  -8.453  1.00  0.00     0.074 A 
ATOM     55  C   UNL     1      12.071   1.145  -9.204  1.00  0.00     0.029 A 
ATOM     56  N   UNL     1      11.859  -0.967  -8.610  1.00  0.00    -0.354 N 
ATOM     57  N   UNL     1       8.610  -3.664  -9.617  1.00  0.00    -0.248 NA
ATOM     58  C   UNL     1       9.421  -4.302  -7.528  1.00  0.00     0.031 C 
ATOM     59  C   UNL     1      11.323   0.432 -10.190  1.00  0.00     0.029 A 
ATOM     60  C   UNL     1      11.056  -0.853  -9.713  1.00  0.00     0.049 A 
ATOM     61  H   UNL     1      12.181  -1.814  -8.224  1.00  0.00     0.167 HD
ATOM     62  C   UNL     1       9.807  -3.002  -9.412  1.00  0.00     0.074 A 
ATOM     63  C   UNL     1      10.334  -3.562  -8.168  1.00  0.00     0.031 C 
ATOM     64  C   UNL     1      10.101  -1.869 -10.117  1.00  0.00     0.034 A 
BRANCH  51  65
ATOM     65  C   UNL     1      13.115  -0.379  -5.835  1.00  0.00     0.023 A 
ATOM     66  C   UNL     1      14.238  -0.915  -6.506  1.00  0.00     0.031 A 
ATOM     67  C   UNL     1      12.902  -0.883  -4.533  1.00  0.00     0.131 A 
ATOM     68  C   UNL     1      14.980  -1.980  -5.962  1.00  0.00     0.055 A 
ATOM     69  C   UNL     1      13.679  -1.905  -3.972  1.00  0.00     0.041 A 
ATOM     70  F   UNL     1      11.899  -0.485  -3.748  1.00  0.00    -0.206 F 
ATOM     71  C   UNL     1      14.700  -2.487  -4.700  1.00  0.00     0.022 A 
BRANCH  68  72
ATOM     72  S   UNL     1      16.195  -2.815  -7.017  1.00  0.00     0.124 S 
ATOM     73  O   UNL     1      15.379  -3.177  -8.171  1.00  0.00    -0.237 OA
ATOM     74  O   UNL     1      17.184  -1.764  -7.226  1.00  0.00    -0.237 OA
ATOM     75  O   UNL     1      16.642  -3.936  -6.194  1.00  0.00    -0.744 OA
ENDBRANCH  68  72
ENDBRANCH  51  65
BRANCH  52  76
ATOM     76  C   UNL     1       6.233  -5.412  -7.495  1.00  0.00     0.023 A 
ATOM     77  C   UNL     1       6.399  -6.668  -8.130  1.00  0.00     0.031 A 
ATOM     78  C   UNL     1       5.585  -5.421  -6.242  1.00  0.00     0.131 A 
ATOM     79  C   UNL     1       5.951  -7.857  -7.498  1.00  0.00     0.055 A 
ATOM     80  C   UNL     1       5.155  -6.599  -5.624  1.00  0.00     0.041 A 
ATOM     81  F   UNL     1       5.427  -4.288  -5.541  1.00  0.00    -0.206 F 
ATOM     82  C   UNL     1       5.355  -7.824  -6.238  1.00  0.00     0.022 A 
BRANCH  79  83
ATOM     83  S   UNL     1       6.188  -9.494  -8.274  1.00  0.00     0.124 S 
ATOM     84  O   UNL     1       5.314  -9.418  -9.438  1.00  0.00    -0.237 OA
ATOM     85  O   UNL     1       7.622  -9.518  -8.534  1.00  0.00    -0.237 OA
ATOM     86  O   UNL     1       5.743 -10.430  -7.239  1.00  0.00    -0.744 OA
ENDBRANCH  79  83
ENDBRANCH  52  76
BRANCH  64  87
ATOM     87  C   UNL     1       9.258  -1.573 -11.343  1.00  0.00     0.023 A 
ATOM     88  C   UNL     1       7.865  -1.321 -11.340  1.00  0.00     0.031 A 
ATOM     89  C   UNL     1       9.938  -1.460 -12.566  1.00  0.00     0.131 A 
ATOM     90  C   UNL     1       7.208  -0.981 -12.540  1.00  0.00     0.055 A 
ATOM     91  C   UNL     1       9.291  -1.099 -13.745  1.00  0.00     0.041 A 
ATOM     92  F   UNL     1      11.264  -1.667 -12.628  1.00  0.00    -0.206 F 
ATOM     93  C   UNL     1       7.921  -0.864 -13.738  1.00  0.00     0.022 A 
BRANCH  90  94
ATOM     94  S   UNL     1       5.405  -0.706 -12.573  1.00  0.00     0.124 S 
ATOM     95  O   UNL     1       4.866  -1.881 -11.899  1.00  0.00    -0.237 OA
ATOM     96  O   UNL     1       5.261   0.560 -11.860  1.00  0.00    -0.237 OA
ATOM     97  O   UNL     1       5.098  -0.632 -14.004  1.00  0.00    -0.744 OA
ENDBRANCH  90  94
ENDBRANCH  64  87
ENDBRANCH  38  39
ENDBRANCH  30  33
ENDBRANCH  28  29
ENDBRANCH  27  28
ENDBRANCH   1  27
TORSDOF 18
