REMARK SMILES O=C(NCCCCNC(=O)c1nn(-c2ccc([N+](=O)[O-])cc2)cc1CCO)c1ccc(-c2c3nc(c(-c4cc(S(=O)(=O)[O-])ccc4F)c4ccc([nH]4)c(-c4cc(S(=O)(=O)[O-])ccc4F)c4nc(c(-c5cc(S(=O)(=O)[O-])ccc5F)c5ccc2[nH]5)C=C4)C=C3)cc1
REMARK SMILES IDX 5 1 4 2 3 3 1 4 2 5 28 7 29 8 90 9 30 10 89 11 31 12 32 13
REMARK SMILES IDX 33 14 83 15 34 16 88 17 82 18 84 19 35 20 87 21 81 22 80 23
REMARK SMILES IDX 36 25 68 26 48 27 67 28 49 29 52 30 66 31 85 32 50 33 51 34
REMARK SMILES IDX 65 36 86 37 53 38 37 39 38 40 46 41 39 42 45 43 47 44 44 45
REMARK SMILES IDX 40 46 41 47 42 48 43 49 69 50 70 51 78 52 71 53 77 54 79 55
REMARK SMILES IDX 76 56 72 57 73 58 74 59 75 60 54 61 55 62 63 63 56 64 62 65
REMARK SMILES IDX 64 66 61 67 57 68 58 69 59 70 60 71 6 72 7 73 8 74 9 75
REMARK SMILES IDX 10 77 11 78 12 79 24 80 13 81 23 82 25 83 26 84 27 85 14 87
REMARK SMILES IDX 15 88 22 89 16 90 21 91 17 92 18 93 19 94 20 95
REMARK H PARENT 3 6 84 24 52 35 8 76 27 86
REMARK Flexibility Score: inf
ROOT
ATOM      1  C   UNL     1       4.985   1.760   1.377  1.00  0.00     0.023 C 
ENDROOT
BRANCH   1   2
ATOM      2  C   UNL     1       4.671   0.379   0.809  1.00  0.00     0.116 C 
BRANCH   2   3
ATOM      3  N   UNL     1       3.263   0.047   0.751  1.00  0.00    -0.352 N 
ATOM      4  O   UNL     1       1.231  -0.440   0.067  1.00  0.00    -0.269 OA
ATOM      5  C   UNL     1       2.263   0.198  -0.173  1.00  0.00     0.251 C 
ATOM      6  H   UNL     1       2.949  -0.394   1.573  1.00  0.00     0.163 HD
BRANCH   5   7
ATOM      7  C   UNL     1       2.289   1.085  -1.374  1.00  0.00     0.039 A 
ATOM      8  C   UNL     1       3.411   1.690  -1.938  1.00  0.00     0.014 A 
ATOM      9  C   UNL     1       1.035   1.327  -1.979  1.00  0.00     0.014 A 
ATOM     10  C   UNL     1       3.271   2.550  -3.039  1.00  0.00     0.010 A 
ATOM     11  C   UNL     1       0.891   2.187  -3.070  1.00  0.00     0.010 A 
ATOM     12  C   UNL     1       2.010   2.821  -3.596  1.00  0.00    -0.014 A 
BRANCH  12  13
ATOM     13  C   UNL     1       1.933   3.558  -4.869  1.00  0.00     0.031 A 
ATOM     14  C   UNL     1       2.574   2.831  -6.001  1.00  0.00     0.074 A 
ATOM     15  C   UNL     1       1.250   4.700  -5.119  1.00  0.00     0.049 A 
ATOM     16  N   UNL     1       3.666   3.143  -6.616  1.00  0.00    -0.248 NA
ATOM     17  C   UNL     1       2.025   1.525  -6.394  1.00  0.00     0.031 C 
ATOM     18  C   UNL     1       0.343   5.419  -4.224  1.00  0.00     0.029 A 
ATOM     19  N   UNL     1       1.170   5.432  -6.279  1.00  0.00    -0.354 N 
ATOM     20  C   UNL     1       3.816   2.208  -7.637  1.00  0.00     0.074 A 
ATOM     21  C   UNL     1       2.899   1.144  -7.327  1.00  0.00     0.031 C 
ATOM     22  C   UNL     1      -0.341   6.354  -4.927  1.00  0.00     0.029 A 
ATOM     23  C   UNL     1       0.160   6.399  -6.294  1.00  0.00     0.049 A 
ATOM     24  H   UNL     1       1.777   5.287  -7.040  1.00  0.00     0.167 HD
ATOM     25  C   UNL     1       4.517   2.508  -8.767  1.00  0.00     0.034 A 
ATOM     26  C   UNL     1      -0.256   7.168  -7.345  1.00  0.00     0.034 A 
ATOM     27  C   UNL     1       5.362   3.666  -8.554  1.00  0.00     0.049 A 
ATOM     28  C   UNL     1       0.866   7.231  -8.310  1.00  0.00     0.074 A 
ATOM     29  C   UNL     1       6.355   3.988  -7.647  1.00  0.00     0.029 A 
ATOM     30  N   UNL     1       4.981   4.866  -9.114  1.00  0.00    -0.354 N 
ATOM     31  N   UNL     1       1.988   7.846  -8.064  1.00  0.00    -0.248 NA
ATOM     32  C   UNL     1       0.924   6.228  -9.361  1.00  0.00     0.031 C 
ATOM     33  C   UNL     1       6.136   5.362  -7.337  1.00  0.00     0.029 A 
ATOM     34  C   UNL     1       5.093   5.825  -8.140  1.00  0.00     0.049 A 
ATOM     35  H   UNL     1       4.684   5.009 -10.042  1.00  0.00     0.167 HD
ATOM     36  C   UNL     1       2.966   7.014  -8.581  1.00  0.00     0.074 A 
ATOM     37  C   UNL     1       2.249   6.083  -9.451  1.00  0.00     0.031 C 
ATOM     38  C   UNL     1       4.221   6.979  -8.042  1.00  0.00     0.034 A 
BRANCH  25  39
ATOM     39  C   UNL     1       4.159   2.028 -10.163  1.00  0.00     0.023 A 
ATOM     40  C   UNL     1       4.920   2.553 -11.227  1.00  0.00     0.031 A 
ATOM     41  C   UNL     1       2.966   1.370 -10.538  1.00  0.00     0.131 A 
ATOM     42  C   UNL     1       4.418   2.569 -12.539  1.00  0.00     0.055 A 
ATOM     43  C   UNL     1       2.507   1.323 -11.859  1.00  0.00     0.041 A 
ATOM     44  F   UNL     1       2.134   0.809  -9.656  1.00  0.00    -0.206 F 
ATOM     45  C   UNL     1       3.211   1.963 -12.863  1.00  0.00     0.022 A 
BRANCH  42  46
ATOM     46  S   UNL     1       5.278   3.590 -13.763  1.00  0.00     0.124 S 
ATOM     47  O   UNL     1       5.279   4.889 -13.098  1.00  0.00    -0.237 OA
ATOM     48  O   UNL     1       6.568   2.915 -13.862  1.00  0.00    -0.237 OA
ATOM     49  O   UNL     1       4.427   3.489 -14.945  1.00  0.00    -0.744 OA
ENDBRANCH  42  46
ENDBRANCH  25  39
BRANCH  26  50
ATOM     50  C   UNL     1      -1.639   7.622  -7.702  1.00  0.00     0.023 A 
ATOM     51  C   UNL     1      -1.913   8.652  -8.639  1.00  0.00     0.031 A 
ATOM     52  C   UNL     1      -2.739   6.831  -7.307  1.00  0.00     0.131 A 
ATOM     53  C   UNL     1      -3.230   8.844  -9.134  1.00  0.00     0.055 A 
ATOM     54  C   UNL     1      -4.032   7.022  -7.801  1.00  0.00     0.041 A 
ATOM     55  F   UNL     1      -2.577   5.778  -6.491  1.00  0.00    -0.206 F 
ATOM     56  C   UNL     1      -4.282   8.023  -8.726  1.00  0.00     0.022 A 
BRANCH  53  57
ATOM     57  S   UNL     1      -3.596  10.112 -10.402  1.00  0.00     0.124 S 
ATOM     58  O   UNL     1      -3.433  11.355  -9.658  1.00  0.00    -0.237 OA
ATOM     59  O   UNL     1      -2.600   9.832 -11.429  1.00  0.00    -0.237 OA
ATOM     60  O   UNL     1      -4.974   9.813 -10.796  1.00  0.00    -0.744 OA
ENDBRANCH  53  57
ENDBRANCH  26  50
BRANCH  38  61
ATOM     61  C   UNL     1       4.663   8.105  -7.130  1.00  0.00     0.023 A 
ATOM     62  C   UNL     1       3.977   8.547  -5.975  1.00  0.00     0.031 A 
ATOM     63  C   UNL     1       5.910   8.694  -7.410  1.00  0.00     0.131 A 
ATOM     64  C   UNL     1       4.542   9.551  -5.163  1.00  0.00     0.055 A 
ATOM     65  C   UNL     1       6.476   9.668  -6.592  1.00  0.00     0.041 A 
ATOM     66  F   UNL     1       6.622   8.307  -8.482  1.00  0.00    -0.206 F 
ATOM     67  C   UNL     1       5.790  10.106  -5.467  1.00  0.00     0.022 A 
BRANCH  64  68
ATOM     68  S   UNL     1       3.655  10.183  -3.701  1.00  0.00     0.124 S 
ATOM     69  O   UNL     1       2.291  10.371  -4.180  1.00  0.00    -0.237 OA
ATOM     70  O   UNL     1       3.850   9.111  -2.728  1.00  0.00    -0.237 OA
ATOM     71  O   UNL     1       4.365  11.424  -3.384  1.00  0.00    -0.744 OA
ENDBRANCH  64  68
ENDBRANCH  38  61
ENDBRANCH  12  13
ENDBRANCH   5   7
ENDBRANCH   2   3
ENDBRANCH   1   2
BRANCH   1  72
ATOM     72  C   UNL     1       4.481   2.043   2.800  1.00  0.00     0.023 C 
BRANCH  72  73
ATOM     73  C   UNL     1       4.875   1.042   3.892  1.00  0.00     0.116 C 
BRANCH  73  74
ATOM     74  N   UNL     1       6.314   0.872   4.027  1.00  0.00    -0.351 N 
ATOM     75  C   UNL     1       7.115   1.051   5.134  1.00  0.00     0.272 C 
ATOM     76  H   UNL     1       6.783   0.589   3.208  1.00  0.00     0.163 HD
ATOM     77  O   UNL     1       8.331   0.907   5.028  1.00  0.00    -0.267 OA
BRANCH  75  78
ATOM     78  C   UNL     1       6.508   1.467   6.403  1.00  0.00     0.153 A 
ATOM     79  N   UNL     1       5.562   0.731   7.015  1.00  0.00    -0.162 NA
ATOM     80  C   UNL     1       6.858   2.607   7.187  1.00  0.00     0.006 A 
ATOM     81  N   UNL     1       5.144   1.494   8.046  1.00  0.00    -0.240 N 
ATOM     82  C   UNL     1       5.900   2.632   8.183  1.00  0.00     0.119 A 
BRANCH  80  83
ATOM     83  C   UNL     1       7.955   3.603   6.956  1.00  0.00     0.068 C 
BRANCH  83  84
ATOM     84  C   UNL     1       9.340   3.100   7.381  1.00  0.00     0.161 C 
BRANCH  84  85
ATOM     85  O   UNL     1      10.058   2.504   6.308  1.00  0.00    -0.396 OA
ATOM     86  H   UNL     1       9.570   1.732   5.982  1.00  0.00     0.210 HD
ENDBRANCH  84  85
ENDBRANCH  83  84
ENDBRANCH  80  83
BRANCH  81  87
ATOM     87  C   UNL     1       4.028   1.099   8.822  1.00  0.00     0.065 A 
ATOM     88  C   UNL     1       3.811  -0.267   9.058  1.00  0.00     0.035 A 
ATOM     89  C   UNL     1       3.130   2.057   9.309  1.00  0.00     0.035 A 
ATOM     90  C   UNL     1       2.705  -0.679   9.804  1.00  0.00     0.088 A 
ATOM     91  C   UNL     1       1.990   1.642  10.007  1.00  0.00     0.088 A 
ATOM     92  C   UNL     1       1.788   0.277  10.261  1.00  0.00     0.269 A 
BRANCH  92  93
ATOM     93  N   UNL     1       0.600  -0.158  11.007  1.00  0.00     0.062 N 
ATOM     94  O   UNL     1       0.527  -1.352  11.331  1.00  0.00    -0.258 OA
ATOM     95  O   UNL     1      -0.255   0.697  11.279  1.00  0.00    -0.258 OA
ENDBRANCH  92  93
ENDBRANCH  81  87
ENDBRANCH  75  78
ENDBRANCH  73  74
ENDBRANCH  72  73
ENDBRANCH   1  72
TORSDOF 19
