REMARK SMILES O=C(NCCCCNC(=O)c1cccnc1C[N@@H+]1CCC[C@H]1c1ccccn1)c1ccc(-c2c3nc(c(-c4cc(S(=O)(=O)[O-])ccc4F)c4ccc([nH]4)c(-c4cc(S(=O)(=O)[O-])ccc4F)c4nc(c(-c5cc(S(=O)(=O)[O-])ccc5F)c5ccc2[nH]5)C=C4)C=C3)cc1
REMARK SMILES IDX 5 1 4 2 3 3 1 4 2 5 29 7 30 8 91 9 31 10 90 11 32 12 33 13
REMARK SMILES IDX 34 14 84 15 35 16 89 17 83 18 85 19 36 20 88 21 82 22 81 23
REMARK SMILES IDX 37 25 69 26 49 27 68 28 50 29 53 30 67 31 86 32 51 33 52 34
REMARK SMILES IDX 66 36 87 37 54 38 38 39 39 40 47 41 40 42 46 43 48 44 45 45
REMARK SMILES IDX 41 46 42 47 43 48 44 49 70 50 71 51 79 52 72 53 78 54 80 55
REMARK SMILES IDX 77 56 73 57 74 58 75 59 76 60 55 61 56 62 64 63 57 64 63 65
REMARK SMILES IDX 65 66 62 67 58 68 59 69 60 70 61 71 6 72 7 73 8 74 9 75
REMARK SMILES IDX 10 77 11 78 12 79 16 80 13 81 15 82 14 83 17 84 18 85 19 86
REMARK SMILES IDX 22 87 20 89 21 90 23 91 24 92 28 93 25 94 27 95 26 96
REMARK H PARENT 3 6 85 24 53 35 8 76 18 88
REMARK Flexibility Score: inf
ROOT
ATOM      1  C   UNL     1       4.852  -1.720  -1.976  1.00  0.00     0.023 C 
ENDROOT
BRANCH   1   2
ATOM      2  C   UNL     1       4.519  -0.440  -1.223  1.00  0.00     0.116 C 
BRANCH   2   3
ATOM      3  N   UNL     1       3.088  -0.184  -1.130  1.00  0.00    -0.352 N 
ATOM      4  O   UNL     1       1.106   0.140  -0.099  1.00  0.00    -0.269 OA
ATOM      5  C   UNL     1       2.328   0.066  -0.010  1.00  0.00     0.251 C 
ATOM      6  H   UNL     1       2.598  -0.192  -1.984  1.00  0.00     0.163 HD
BRANCH   5   7
ATOM      7  C   UNL     1       2.995   0.216   1.301  1.00  0.00     0.039 A 
ATOM      8  C   UNL     1       4.124   1.028   1.428  1.00  0.00     0.014 A 
ATOM      9  C   UNL     1       2.504  -0.486   2.405  1.00  0.00     0.014 A 
ATOM     10  C   UNL     1       4.851   1.014   2.612  1.00  0.00     0.010 A 
ATOM     11  C   UNL     1       3.186  -0.424   3.623  1.00  0.00     0.010 A 
ATOM     12  C   UNL     1       4.384   0.301   3.728  1.00  0.00    -0.014 A 
BRANCH  12  13
ATOM     13  C   UNL     1       5.138   0.383   5.006  1.00  0.00     0.031 A 
ATOM     14  C   UNL     1       5.787  -0.832   5.610  1.00  0.00     0.074 A 
ATOM     15  C   UNL     1       5.254   1.585   5.604  1.00  0.00     0.049 A 
ATOM     16  N   UNL     1       6.481  -0.931   6.715  1.00  0.00    -0.248 NA
ATOM     17  C   UNL     1       5.628  -2.102   4.886  1.00  0.00     0.031 C 
ATOM     18  C   UNL     1       4.658   2.830   5.109  1.00  0.00     0.029 A 
ATOM     19  N   UNL     1       5.919   1.967   6.740  1.00  0.00    -0.354 N 
ATOM     20  C   UNL     1       6.826  -2.273   6.833  1.00  0.00     0.074 A 
ATOM     21  C   UNL     1       6.239  -2.954   5.698  1.00  0.00     0.031 C 
ATOM     22  C   UNL     1       5.021   3.841   5.910  1.00  0.00     0.029 A 
ATOM     23  C   UNL     1       5.809   3.310   7.015  1.00  0.00     0.049 A 
ATOM     24  H   UNL     1       6.426   1.340   7.305  1.00  0.00     0.167 HD
ATOM     25  C   UNL     1       7.568  -2.874   7.798  1.00  0.00     0.034 A 
ATOM     26  C   UNL     1       6.266   4.034   8.054  1.00  0.00     0.034 A 
ATOM     27  C   UNL     1       8.150  -2.172   8.919  1.00  0.00     0.049 A 
ATOM     28  C   UNL     1       7.061   3.337   9.123  1.00  0.00     0.074 A 
ATOM     29  C   UNL     1       8.952  -2.676   9.930  1.00  0.00     0.029 A 
ATOM     30  N   UNL     1       7.987  -0.817   9.186  1.00  0.00    -0.354 N 
ATOM     31  N   UNL     1       7.392   2.070   9.210  1.00  0.00    -0.248 NA
ATOM     32  C   UNL     1       7.544   4.168  10.231  1.00  0.00     0.031 C 
ATOM     33  C   UNL     1       9.213  -1.646  10.841  1.00  0.00     0.029 A 
ATOM     34  C   UNL     1       8.642  -0.478  10.361  1.00  0.00     0.049 A 
ATOM     35  H   UNL     1       7.480  -0.190   8.622  1.00  0.00     0.167 HD
ATOM     36  C   UNL     1       8.138   1.954  10.378  1.00  0.00     0.074 A 
ATOM     37  C   UNL     1       8.226   3.285  10.946  1.00  0.00     0.031 C 
ATOM     38  C   UNL     1       8.700   0.849  10.930  1.00  0.00     0.034 A 
BRANCH  25  39
ATOM     39  C   UNL     1       7.749  -4.373   7.713  1.00  0.00     0.023 A 
ATOM     40  C   UNL     1       8.452  -4.981   6.658  1.00  0.00     0.031 A 
ATOM     41  C   UNL     1       7.201  -5.208   8.704  1.00  0.00     0.131 A 
ATOM     42  C   UNL     1       8.538  -6.381   6.587  1.00  0.00     0.055 A 
ATOM     43  C   UNL     1       7.352  -6.596   8.666  1.00  0.00     0.041 A 
ATOM     44  F   UNL     1       6.502  -4.688   9.725  1.00  0.00    -0.206 F 
ATOM     45  C   UNL     1       8.013  -7.191   7.597  1.00  0.00     0.022 A 
BRANCH  42  46
ATOM     46  S   UNL     1       9.233  -7.135   5.091  1.00  0.00     0.124 S 
ATOM     47  O   UNL     1       8.356  -6.596   4.053  1.00  0.00    -0.237 OA
ATOM     48  O   UNL     1      10.602  -6.636   5.093  1.00  0.00    -0.237 OA
ATOM     49  O   UNL     1       9.091  -8.570   5.331  1.00  0.00    -0.744 OA
ENDBRANCH  42  46
ENDBRANCH  25  39
BRANCH  26  50
ATOM     50  C   UNL     1       5.946   5.485   8.148  1.00  0.00     0.023 A 
ATOM     51  C   UNL     1       6.952   6.459   8.083  1.00  0.00     0.031 A 
ATOM     52  C   UNL     1       4.617   5.917   8.314  1.00  0.00     0.131 A 
ATOM     53  C   UNL     1       6.619   7.816   8.217  1.00  0.00     0.055 A 
ATOM     54  C   UNL     1       4.284   7.269   8.393  1.00  0.00     0.041 A 
ATOM     55  F   UNL     1       3.615   5.024   8.376  1.00  0.00    -0.206 F 
ATOM     56  C   UNL     1       5.291   8.228   8.356  1.00  0.00     0.022 A 
BRANCH  53  57
ATOM     57  S   UNL     1       7.958   9.037   8.277  1.00  0.00     0.124 S 
ATOM     58  O   UNL     1       8.738   8.568   9.416  1.00  0.00    -0.237 OA
ATOM     59  O   UNL     1       8.575   8.874   6.965  1.00  0.00    -0.237 OA
ATOM     60  O   UNL     1       7.255  10.302   8.480  1.00  0.00    -0.744 OA
ENDBRANCH  53  57
ENDBRANCH  26  50
BRANCH  38  61
ATOM     61  C   UNL     1       9.484   1.053  12.203  1.00  0.00     0.023 A 
ATOM     62  C   UNL     1       8.857   1.436  13.402  1.00  0.00     0.031 A 
ATOM     63  C   UNL     1      10.880   0.890  12.207  1.00  0.00     0.131 A 
ATOM     64  C   UNL     1       9.633   1.702  14.540  1.00  0.00     0.055 A 
ATOM     65  C   UNL     1      11.640   1.097  13.359  1.00  0.00     0.041 A 
ATOM     66  F   UNL     1      11.530   0.530  11.089  1.00  0.00    -0.206 F 
ATOM     67  C   UNL     1      11.018   1.520  14.531  1.00  0.00     0.022 A 
BRANCH  64  68
ATOM     68  S   UNL     1       8.817   2.387  16.009  1.00  0.00     0.124 S 
ATOM     69  O   UNL     1       8.230   3.616  15.484  1.00  0.00    -0.237 OA
ATOM     70  O   UNL     1       7.875   1.331  16.363  1.00  0.00    -0.237 OA
ATOM     71  O   UNL     1       9.916   2.579  16.953  1.00  0.00    -0.744 OA
ENDBRANCH  64  68
ENDBRANCH  38  61
ENDBRANCH  12  13
ENDBRANCH   5   7
ENDBRANCH   2   3
ENDBRANCH   1   2
BRANCH   1  72
ATOM     72  C   UNL     1       4.376  -1.768  -3.425  1.00  0.00     0.023 C 
BRANCH  72  73
ATOM     73  C   UNL     1       4.764  -0.565  -4.275  1.00  0.00     0.116 C 
BRANCH  73  74
ATOM     74  N   UNL     1       6.205  -0.390  -4.384  1.00  0.00    -0.352 N 
ATOM     75  C   UNL     1       6.964  -0.269  -5.522  1.00  0.00     0.253 C 
ATOM     76  H   UNL     1       6.699  -0.353  -3.533  1.00  0.00     0.163 HD
ATOM     77  O   UNL     1       8.184  -0.161  -5.473  1.00  0.00    -0.269 OA
BRANCH  75  78
ATOM     78  C   UNL     1       6.282  -0.249  -6.822  1.00  0.00     0.067 A 
ATOM     79  C   UNL     1       5.398   0.811  -7.081  1.00  0.00     0.017 A 
ATOM     80  C   UNL     1       6.495  -1.234  -7.791  1.00  0.00     0.107 A 
ATOM     81  C   UNL     1       4.694   0.843  -8.274  1.00  0.00     0.021 A 
ATOM     82  N   UNL     1       5.802  -1.180  -8.965  1.00  0.00    -0.254 NA
ATOM     83  C   UNL     1       4.921  -0.176  -9.174  1.00  0.00     0.111 A 
BRANCH  80  84
ATOM     84  C   UNL     1       7.630  -2.260  -7.648  1.00  0.00     0.321 C 
BRANCH  84  85
ATOM     85  N   UNL     1       7.602  -3.558  -8.354  1.00  0.00    -0.322 N 
ATOM     86  C   UNL     1       6.965  -3.654  -9.655  1.00  0.00     0.263 C 
ATOM     87  C   UNL     1       7.168  -4.711  -7.538  1.00  0.00     0.234 C 
ATOM     88  H   UNL     1       8.604  -3.603  -8.540  1.00  0.00     0.349 HD
ATOM     89  C   UNL     1       5.628  -4.311  -9.373  1.00  0.00     0.068 C 
ATOM     90  C   UNL     1       5.932  -5.287  -8.246  1.00  0.00     0.078 C 
BRANCH  87  91
ATOM     91  C   UNL     1       8.295  -5.738  -7.386  1.00  0.00     0.098 A 
ATOM     92  C   UNL     1       8.895  -6.332  -8.501  1.00  0.00     0.030 A 
ATOM     93  N   UNL     1       8.722  -6.009  -6.127  1.00  0.00    -0.255 NA
ATOM     94  C   UNL     1       9.974  -7.196  -8.328  1.00  0.00     0.004 A 
ATOM     95  C   UNL     1       9.775  -6.849  -5.987  1.00  0.00     0.111 A 
ATOM     96  C   UNL     1      10.431  -7.455  -7.046  1.00  0.00     0.020 A 
ENDBRANCH  87  91
ENDBRANCH  84  85
ENDBRANCH  80  84
ENDBRANCH  75  78
ENDBRANCH  73  74
ENDBRANCH  72  73
ENDBRANCH   1  72
TORSDOF 17
