REMARK SMILES CC[C@@H]1CCC[C@@](Cc2cccc(O)c2)(C(=O)NCCCCNC(=O)c2ccc(-c3c4nc(c(-c5cc(S(=O)(=O)[O-])ccc5F)c5ccc([nH]5)c(-c5cc(S(=O)(=O)[O-])ccc5F)c5nc(c(-c6cc(S(=O)(=O)[O-])ccc6F)c6ccc3[nH]6)C=C5)C=C4)cc2)C1
REMARK SMILES IDX 20 1 19 2 18 3 16 4 17 5 7 7 3 8 4 9 89 10 5 11 6 12 2 13
REMARK SMILES IDX 1 14 8 15 9 16 10 17 15 18 11 19 13 20 12 21 14 22 21 24
REMARK SMILES IDX 22 25 23 26 24 27 25 29 26 30 27 31 88 32 28 33 87 34 29 35
REMARK SMILES IDX 30 36 31 37 81 38 32 39 86 40 80 41 82 42 33 43 85 44 79 45
REMARK SMILES IDX 78 46 34 48 66 49 46 50 65 51 47 52 50 53 64 54 83 55 48 56
REMARK SMILES IDX 49 57 63 59 84 60 51 61 35 62 36 63 44 64 37 65 43 66 45 67
REMARK SMILES IDX 42 68 38 69 39 70 40 71 41 72 67 73 68 74 76 75 69 76 75 77
REMARK SMILES IDX 77 78 74 79 70 80 71 81 72 82 73 83 52 84 53 85 61 86 54 87
REMARK SMILES IDX 60 88 62 89 59 90 55 91 56 92 57 93 58 94
REMARK H PARENT 18 6 14 23 23 28 82 47 50 58
REMARK Flexibility Score: inf
ROOT
ATOM      1  C   UNL     1       2.647  -6.856   3.973  1.00  0.00     0.023 C 
ENDROOT
BRANCH   1   2
ATOM      2  C   UNL     1       1.910  -5.613   4.448  1.00  0.00     0.116 C 
BRANCH   2   3
ATOM      3  N   UNL     1       2.397  -4.380   3.869  1.00  0.00    -0.356 N 
ATOM      4  C   UNL     1       1.746  -3.318   3.322  1.00  0.00     0.226 C 
ATOM      5  O   UNL     1       2.420  -2.283   3.233  1.00  0.00    -0.274 OA
ATOM      6  H   UNL     1       3.377  -4.294   3.871  1.00  0.00     0.163 HD
BRANCH   4   7
ATOM      7  C   UNL     1       0.262  -3.336   2.851  1.00  0.00     0.053 C 
ATOM      8  C   UNL     1       0.835  -2.306   0.501  1.00  0.00    -0.010 C 
ATOM      9  C   UNL     1       0.512  -3.656  -0.155  1.00  0.00     0.003 C 
ATOM     10  C   UNL     1       0.077  -2.142   1.837  1.00  0.00     0.020 C 
ATOM     11  C   UNL     1       0.668  -4.821   0.811  1.00  0.00     0.001 C 
ATOM     12  C   UNL     1      -0.165  -4.601   2.073  1.00  0.00     0.017 C 
BRANCH   8  13
ATOM     13  C   UNL     1       0.506  -1.173  -0.493  1.00  0.00     0.000 C 
ATOM     14  C   UNL     1       0.979   0.201  -0.040  1.00  0.00     0.004 C 
ENDBRANCH   8  13
BRANCH   7  15
ATOM     15  C   UNL     1      -0.692  -3.001   4.046  1.00  0.00     0.052 C 
BRANCH  15  16
ATOM     16  C   UNL     1      -0.726  -3.919   5.244  1.00  0.00    -0.043 A 
ATOM     17  C   UNL     1       0.042  -3.625   6.382  1.00  0.00     0.004 A 
ATOM     18  C   UNL     1      -1.500  -5.088   5.238  1.00  0.00     0.049 A 
ATOM     19  C   UNL     1       0.080  -4.509   7.465  1.00  0.00     0.004 A 
ATOM     20  C   UNL     1      -1.439  -5.972   6.313  1.00  0.00     0.115 A 
ATOM     21  C   UNL     1      -0.649  -5.696   7.425  1.00  0.00     0.046 A 
BRANCH  20  22
ATOM     22  O   UNL     1      -2.153  -7.131   6.225  1.00  0.00    -0.508 OA
ATOM     23  H   UNL     1      -2.134  -7.748   6.930  1.00  0.00     0.293 HD
ENDBRANCH  20  22
ENDBRANCH  15  16
ENDBRANCH   7  15
ENDBRANCH   4   7
ENDBRANCH   2   3
ENDBRANCH   1   2
BRANCH   1  24
ATOM     24  C   UNL     1       4.001  -7.099   4.638  1.00  0.00     0.023 C 
BRANCH  24  25
ATOM     25  C   UNL     1       4.032  -7.008   6.163  1.00  0.00     0.116 C 
BRANCH  25  26
ATOM     26  N   UNL     1       2.992  -7.776   6.835  1.00  0.00    -0.352 N 
ATOM     27  C   UNL     1       3.058  -8.408   8.057  1.00  0.00     0.251 C 
ATOM     28  H   UNL     1       2.135  -7.852   6.357  1.00  0.00     0.163 HD
ATOM     29  O   UNL     1       2.091  -9.029   8.488  1.00  0.00    -0.269 OA
BRANCH  27  30
ATOM     30  C   UNL     1       4.327  -8.360   8.812  1.00  0.00     0.039 A 
ATOM     31  C   UNL     1       4.959  -9.559   9.152  1.00  0.00     0.014 A 
ATOM     32  C   UNL     1       4.933  -7.133   9.094  1.00  0.00     0.014 A 
ATOM     33  C   UNL     1       6.246  -9.527   9.692  1.00  0.00     0.010 A 
ATOM     34  C   UNL     1       6.239  -7.107   9.574  1.00  0.00     0.010 A 
ATOM     35  C   UNL     1       6.915  -8.304   9.861  1.00  0.00    -0.014 A 
BRANCH  35  36
ATOM     36  C   UNL     1       8.333  -8.252  10.303  1.00  0.00     0.031 A 
ATOM     37  C   UNL     1       8.694  -7.620  11.617  1.00  0.00     0.074 A 
ATOM     38  C   UNL     1       9.303  -8.695   9.479  1.00  0.00     0.049 A 
ATOM     39  N   UNL     1       9.875  -7.407  12.138  1.00  0.00    -0.248 NA
ATOM     40  C   UNL     1       7.575  -7.134  12.434  1.00  0.00     0.031 C 
ATOM     41  C   UNL     1       9.085  -9.282   8.154  1.00  0.00     0.029 A 
ATOM     42  N   UNL     1      10.667  -8.709   9.627  1.00  0.00    -0.354 N 
ATOM     43  C   UNL     1       9.643  -6.750  13.342  1.00  0.00     0.074 A 
ATOM     44  C   UNL     1       8.212  -6.544  13.433  1.00  0.00     0.031 C 
ATOM     45  C   UNL     1      10.271  -9.620   7.623  1.00  0.00     0.029 A 
ATOM     46  C   UNL     1      11.335  -9.239   8.548  1.00  0.00     0.049 A 
ATOM     47  H   UNL     1      11.125  -8.371  10.430  1.00  0.00     0.167 HD
ATOM     48  C   UNL     1      10.537  -6.377  14.293  1.00  0.00     0.034 A 
ATOM     49  C   UNL     1      12.654  -9.395   8.325  1.00  0.00     0.034 A 
ATOM     50  C   UNL     1      11.960  -6.591  14.186  1.00  0.00     0.049 A 
ATOM     51  C   UNL     1      13.633  -8.950   9.379  1.00  0.00     0.074 A 
ATOM     52  C   UNL     1      12.950  -6.310  15.113  1.00  0.00     0.029 A 
ATOM     53  N   UNL     1      12.602  -7.128  13.076  1.00  0.00    -0.354 N 
ATOM     54  N   UNL     1      13.397  -8.382  10.538  1.00  0.00    -0.248 NA
ATOM     55  C   UNL     1      15.055  -9.176   9.094  1.00  0.00     0.031 C 
ATOM     56  C   UNL     1      14.190  -6.619  14.541  1.00  0.00     0.029 A 
ATOM     57  C   UNL     1      13.974  -7.157  13.283  1.00  0.00     0.049 A 
ATOM     58  H   UNL     1      12.149  -7.442  12.261  1.00  0.00     0.167 HD
ATOM     59  C   UNL     1      14.642  -8.206  11.134  1.00  0.00     0.074 A 
ATOM     60  C   UNL     1      15.623  -8.736  10.208  1.00  0.00     0.031 C 
ATOM     61  C   UNL     1      14.945  -7.666  12.342  1.00  0.00     0.034 A 
BRANCH  48  62
ATOM     62  C   UNL     1       9.984  -5.673  15.510  1.00  0.00     0.023 A 
ATOM     63  C   UNL     1       9.057  -6.301  16.363  1.00  0.00     0.031 A 
ATOM     64  C   UNL     1      10.328  -4.339  15.785  1.00  0.00     0.131 A 
ATOM     65  C   UNL     1       8.427  -5.566  17.377  1.00  0.00     0.055 A 
ATOM     66  C   UNL     1       9.766  -3.640  16.856  1.00  0.00     0.041 A 
ATOM     67  F   UNL     1      11.193  -3.679  14.999  1.00  0.00    -0.206 F 
ATOM     68  C   UNL     1       8.793  -4.245  17.646  1.00  0.00     0.022 A 
BRANCH  65  69
ATOM     69  S   UNL     1       6.994  -6.302  18.211  1.00  0.00     0.124 S 
ATOM     70  O   UNL     1       6.114  -6.596  17.081  1.00  0.00    -0.237 OA
ATOM     71  O   UNL     1       7.579  -7.456  18.883  1.00  0.00    -0.237 OA
ATOM     72  O   UNL     1       6.525  -5.235  19.092  1.00  0.00    -0.744 OA
ENDBRANCH  65  69
ENDBRANCH  48  62
BRANCH  49  73
ATOM     73  C   UNL     1      13.130 -10.007   7.055  1.00  0.00     0.023 A 
ATOM     74  C   UNL     1      13.717 -11.282   7.049  1.00  0.00     0.031 A 
ATOM     75  C   UNL     1      13.017  -9.322   5.833  1.00  0.00     0.131 A 
ATOM     76  C   UNL     1      14.199 -11.822   5.847  1.00  0.00     0.055 A 
ATOM     77  C   UNL     1      13.463  -9.880   4.634  1.00  0.00     0.041 A 
ATOM     78  F   UNL     1      12.451  -8.105   5.787  1.00  0.00    -0.206 F 
ATOM     79  C   UNL     1      14.067 -11.134   4.638  1.00  0.00     0.022 A 
BRANCH  76  80
ATOM     80  S   UNL     1      15.040 -13.428   5.892  1.00  0.00     0.124 S 
ATOM     81  O   UNL     1      16.188 -13.139   6.745  1.00  0.00    -0.237 OA
ATOM     82  O   UNL     1      14.014 -14.292   6.468  1.00  0.00    -0.237 OA
ATOM     83  O   UNL     1      15.353 -13.688   4.489  1.00  0.00    -0.744 OA
ENDBRANCH  76  80
ENDBRANCH  49  73
BRANCH  61  84
ATOM     84  C   UNL     1      16.400  -7.660  12.739  1.00  0.00     0.023 A 
ATOM     85  C   UNL     1      17.342  -6.846  12.086  1.00  0.00     0.031 A 
ATOM     86  C   UNL     1      16.852  -8.498  13.774  1.00  0.00     0.131 A 
ATOM     87  C   UNL     1      18.698  -6.925  12.441  1.00  0.00     0.055 A 
ATOM     88  C   UNL     1      18.192  -8.533  14.158  1.00  0.00     0.041 A 
ATOM     89  F   UNL     1      15.994  -9.298  14.428  1.00  0.00    -0.206 F 
ATOM     90  C   UNL     1      19.126  -7.752  13.483  1.00  0.00     0.022 A 
BRANCH  87  91
ATOM     91  S   UNL     1      19.911  -5.990  11.469  1.00  0.00     0.124 S 
ATOM     92  O   UNL     1      19.710  -6.535  10.130  1.00  0.00    -0.237 OA
ATOM     93  O   UNL     1      19.476  -4.612  11.668  1.00  0.00    -0.237 OA
ATOM     94  O   UNL     1      21.188  -6.333  12.092  1.00  0.00    -0.744 OA
ENDBRANCH  87  91
ENDBRANCH  61  84
ENDBRANCH  35  36
ENDBRANCH  27  30
ENDBRANCH  25  26
ENDBRANCH  24  25
ENDBRANCH   1  24
TORSDOF 18
