REMARK SMILES Cc1ccc(C(=O)NCCCCNC(=O)c2ccc(-c3c4nc(c(-c5cc(S(=O)(=O)[O-])ccc5F)c5ccc([nH]5)c(-c5cc(S(=O)(=O)[O-])ccc5F)c5nc(c(-c6cc(S(=O)(=O)[O-])ccc6F)c6ccc3[nH]6)C=C5)C=C4)cc2)c(Oc2cccc(F)c2C(N)=O)c1
REMARK SMILES IDX 10 1 9 2 8 3 6 4 7 5 5 7 1 8 2 9 3 10 91 11 4 12 79 13 80 14
REMARK SMILES IDX 81 15 82 16 87 17 83 18 85 19 84 20 86 21 88 22 89 23 90 24
REMARK SMILES IDX 11 27 12 28 13 29 14 30 15 32 16 33 17 34 78 35 18 36 77 37
REMARK SMILES IDX 19 38 20 39 21 40 71 41 22 42 76 43 70 44 72 45 23 46 75 47
REMARK SMILES IDX 69 48 68 49 24 51 56 52 36 53 55 54 37 55 40 56 54 57 73 58
REMARK SMILES IDX 38 59 39 60 53 62 74 63 41 64 25 65 26 66 34 67 27 68 33 69
REMARK SMILES IDX 35 70 32 71 28 72 29 73 30 74 31 75 57 76 58 77 66 78 59 79
REMARK SMILES IDX 65 80 67 81 64 82 60 83 61 84 62 85 63 86 42 87 43 88 51 89
REMARK SMILES IDX 44 90 50 91 52 92 49 93 45 94 46 95 47 96 48 97
REMARK H PARENT 8 6 89 25 89 26 13 31 72 50 40 61
REMARK Flexibility Score: inf
ROOT
ATOM      1  C   UNL     1      -3.791   3.143  -2.049  1.00  0.00     0.023 C 
ENDROOT
BRANCH   1   2
ATOM      2  C   UNL     1      -3.469   2.678  -0.624  1.00  0.00     0.116 C 
BRANCH   2   3
ATOM      3  N   UNL     1      -3.699   1.261  -0.381  1.00  0.00    -0.352 N 
ATOM      4  C   UNL     1      -2.941   0.168  -0.031  1.00  0.00     0.255 C 
ATOM      5  O   UNL     1      -3.592  -0.863   0.184  1.00  0.00    -0.269 OA
ATOM      6  H   UNL     1      -4.647   1.023  -0.496  1.00  0.00     0.163 HD
BRANCH   4   7
ATOM      7  C   UNL     1      -1.443   0.046   0.025  1.00  0.00     0.082 A 
ATOM      8  C   UNL     1       2.821  -0.829   0.030  1.00  0.00     0.044 C 
ATOM      9  C   UNL     1       1.349  -0.554   0.046  1.00  0.00    -0.047 A 
ATOM     10  C   UNL     1       0.420  -1.540  -0.273  1.00  0.00     0.004 A 
ATOM     11  C   UNL     1       0.877   0.702   0.424  1.00  0.00     0.051 A 
ATOM     12  C   UNL     1      -0.950  -1.244  -0.274  1.00  0.00     0.018 A 
ATOM     13  C   UNL     1      -0.495   1.015   0.381  1.00  0.00     0.140 A 
BRANCH  13  14
ATOM     14  O   UNL     1      -0.903   2.255   0.774  1.00  0.00    -0.456 OA
BRANCH  14  15
ATOM     15  C   UNL     1      -0.164   3.375   0.442  1.00  0.00     0.143 A 
ATOM     16  C   UNL     1      -0.112   4.287   1.509  1.00  0.00     0.048 A 
ATOM     17  C   UNL     1       0.402   3.717  -0.805  1.00  0.00     0.117 A 
ATOM     18  C   UNL     1       0.506   5.522   1.360  1.00  0.00     0.007 A 
ATOM     19  C   UNL     1       0.982   4.989  -0.936  1.00  0.00     0.139 A 
ATOM     20  C   UNL     1       1.034   5.883   0.128  1.00  0.00     0.040 A 
ATOM     21  F   UNL     1       1.474   5.402  -2.115  1.00  0.00    -0.206 F 
BRANCH  17  22
ATOM     22  C   UNL     1       0.511   2.860  -2.016  1.00  0.00     0.255 C 
ATOM     23  N   UNL     1      -0.549   2.099  -2.409  1.00  0.00    -0.365 N 
ATOM     24  O   UNL     1       1.542   2.815  -2.682  1.00  0.00    -0.269 OA
ATOM     25  H   UNL     1      -1.387   2.117  -1.892  1.00  0.00     0.159 HD
ATOM     26  H   UNL     1      -0.478   1.531  -3.210  1.00  0.00     0.159 HD
ENDBRANCH  17  22
ENDBRANCH  14  15
ENDBRANCH  13  14
ENDBRANCH   4   7
ENDBRANCH   2   3
ENDBRANCH   1   2
BRANCH   1  27
ATOM     27  C   UNL     1      -5.259   3.396  -2.359  1.00  0.00     0.023 C 
BRANCH  27  28
ATOM     28  C   UNL     1      -5.939   4.429  -1.473  1.00  0.00     0.116 C 
BRANCH  28  29
ATOM     29  N   UNL     1      -5.724   5.824  -1.810  1.00  0.00    -0.352 N 
ATOM     30  C   UNL     1      -6.249   6.960  -1.197  1.00  0.00     0.251 C 
ATOM     31  H   UNL     1      -5.127   5.990  -2.574  1.00  0.00     0.163 HD
ATOM     32  O   UNL     1      -6.165   8.039  -1.749  1.00  0.00    -0.269 OA
BRANCH  30  33
ATOM     33  C   UNL     1      -6.827   6.869   0.178  1.00  0.00     0.039 A 
ATOM     34  C   UNL     1      -6.543   7.902   1.085  1.00  0.00     0.014 A 
ATOM     35  C   UNL     1      -7.473   5.725   0.631  1.00  0.00     0.014 A 
ATOM     36  C   UNL     1      -6.692   7.683   2.456  1.00  0.00     0.010 A 
ATOM     37  C   UNL     1      -7.497   5.454   1.979  1.00  0.00     0.010 A 
ATOM     38  C   UNL     1      -7.060   6.416   2.891  1.00  0.00    -0.014 A 
BRANCH  38  39
ATOM     39  C   UNL     1      -6.951   5.926   4.257  1.00  0.00     0.031 A 
ATOM     40  C   UNL     1      -8.171   5.623   5.028  1.00  0.00     0.074 A 
ATOM     41  C   UNL     1      -5.735   5.524   4.684  1.00  0.00     0.049 A 
ATOM     42  N   UNL     1      -8.181   5.273   6.266  1.00  0.00    -0.248 NA
ATOM     43  C   UNL     1      -9.515   5.758   4.463  1.00  0.00     0.031 C 
ATOM     44  C   UNL     1      -5.411   4.609   5.775  1.00  0.00     0.029 A 
ATOM     45  N   UNL     1      -4.516   6.105   4.352  1.00  0.00    -0.354 N 
ATOM     46  C   UNL     1      -9.448   4.826   6.556  1.00  0.00     0.074 A 
ATOM     47  C   UNL     1     -10.264   5.284   5.464  1.00  0.00     0.031 C 
ATOM     48  C   UNL     1      -4.153   4.848   6.185  1.00  0.00     0.029 A 
ATOM     49  C   UNL     1      -3.714   6.056   5.503  1.00  0.00     0.049 A 
ATOM     50  H   UNL     1      -4.264   6.480   3.477  1.00  0.00     0.167 HD
ATOM     51  C   UNL     1      -9.611   3.983   7.612  1.00  0.00     0.034 A 
ATOM     52  C   UNL     1      -3.378   7.217   6.145  1.00  0.00     0.034 A 
ATOM     53  C   UNL     1      -8.439   4.028   8.491  1.00  0.00     0.049 A 
ATOM     54  C   UNL     1      -3.891   7.291   7.570  1.00  0.00     0.074 A 
ATOM     55  C   UNL     1      -7.408   3.146   8.759  1.00  0.00     0.029 A 
ATOM     56  N   UNL     1      -8.060   5.252   9.041  1.00  0.00    -0.354 N 
ATOM     57  N   UNL     1      -4.890   6.592   8.038  1.00  0.00    -0.248 NA
ATOM     58  C   UNL     1      -3.305   8.173   8.573  1.00  0.00     0.031 C 
ATOM     59  C   UNL     1      -6.350   3.889   9.358  1.00  0.00     0.029 A 
ATOM     60  C   UNL     1      -6.763   5.203   9.510  1.00  0.00     0.049 A 
ATOM     61  H   UNL     1      -8.641   6.046   9.089  1.00  0.00     0.167 HD
ATOM     62  C   UNL     1      -5.109   6.927   9.350  1.00  0.00     0.074 A 
ATOM     63  C   UNL     1      -4.068   7.899   9.644  1.00  0.00     0.031 C 
ATOM     64  C   UNL     1      -6.136   6.393  10.081  1.00  0.00     0.034 A 
BRANCH  51  65
ATOM     65  C   UNL     1     -10.725   2.959   7.746  1.00  0.00     0.023 A 
ATOM     66  C   UNL     1     -10.720   2.092   8.862  1.00  0.00     0.031 A 
ATOM     67  C   UNL     1     -11.713   2.669   6.775  1.00  0.00     0.131 A 
ATOM     68  C   UNL     1     -11.631   1.020   8.968  1.00  0.00     0.055 A 
ATOM     69  C   UNL     1     -12.656   1.642   6.911  1.00  0.00     0.041 A 
ATOM     70  F   UNL     1     -11.791   3.308   5.603  1.00  0.00    -0.206 F 
ATOM     71  C   UNL     1     -12.614   0.803   8.007  1.00  0.00     0.022 A 
BRANCH  68  72
ATOM     72  S   UNL     1     -11.469  -0.156  10.340  1.00  0.00     0.124 S 
ATOM     73  O   UNL     1     -10.152  -0.735  10.092  1.00  0.00    -0.237 OA
ATOM     74  O   UNL     1     -11.591   0.708  11.507  1.00  0.00    -0.237 OA
ATOM     75  O   UNL     1     -12.590  -1.074  10.134  1.00  0.00    -0.744 OA
ENDBRANCH  68  72
ENDBRANCH  51  65
BRANCH  52  76
ATOM     76  C   UNL     1      -3.273   8.390   5.222  1.00  0.00     0.023 A 
ATOM     77  C   UNL     1      -2.416   8.268   4.107  1.00  0.00     0.031 A 
ATOM     78  C   UNL     1      -4.247   9.398   5.187  1.00  0.00     0.131 A 
ATOM     79  C   UNL     1      -2.671   9.002   2.940  1.00  0.00     0.055 A 
ATOM     80  C   UNL     1      -4.437  10.191   4.046  1.00  0.00     0.041 A 
ATOM     81  F   UNL     1      -5.110   9.553   6.202  1.00  0.00    -0.206 F 
ATOM     82  C   UNL     1      -3.677   9.965   2.899  1.00  0.00     0.022 A 
BRANCH  79  83
ATOM     83  S   UNL     1      -1.824   8.489   1.422  1.00  0.00     0.124 S 
ATOM     84  O   UNL     1      -0.418   8.622   1.796  1.00  0.00    -0.237 OA
ATOM     85  O   UNL     1      -2.310   7.119   1.264  1.00  0.00    -0.237 OA
ATOM     86  O   UNL     1      -2.292   9.439   0.420  1.00  0.00    -0.744 OA
ENDBRANCH  79  83
ENDBRANCH  52  76
BRANCH  64  87
ATOM     87  C   UNL     1      -6.601   6.901  11.433  1.00  0.00     0.023 A 
ATOM     88  C   UNL     1      -6.249   8.157  11.951  1.00  0.00     0.031 A 
ATOM     89  C   UNL     1      -7.503   6.151  12.227  1.00  0.00     0.131 A 
ATOM     90  C   UNL     1      -6.679   8.574  13.223  1.00  0.00     0.055 A 
ATOM     91  C   UNL     1      -8.003   6.606  13.452  1.00  0.00     0.041 A 
ATOM     92  F   UNL     1      -7.947   4.945  11.844  1.00  0.00    -0.206 F 
ATOM     93  C   UNL     1      -7.574   7.816  13.971  1.00  0.00     0.022 A 
BRANCH  90  94
ATOM     94  S   UNL     1      -5.971  10.095  13.909  1.00  0.00     0.124 S 
ATOM     95  O   UNL     1      -4.550   9.762  13.972  1.00  0.00    -0.237 OA
ATOM     96  O   UNL     1      -6.343  11.093  12.911  1.00  0.00    -0.237 OA
ATOM     97  O   UNL     1      -6.633  10.232  15.204  1.00  0.00    -0.744 OA
ENDBRANCH  90  94
ENDBRANCH  64  87
ENDBRANCH  38  39
ENDBRANCH  30  33
ENDBRANCH  28  29
ENDBRANCH  27  28
ENDBRANCH   1  27
TORSDOF 17
