REMARK SMILES CC[C@H](C)Nc1ncnc(N2CCC(C(=O)NCCCCNC(=O)c3ccc(-c4c5nc(c(-c6cc(S(=O)(=O)[O-])ccc6F)c6ccc([nH]6)c(-c6cc(S(=O)(=O)[O-])ccc6F)c6nc(c(-c7cc(S(=O)(=O)[O-])ccc7F)c7ccc4[nH]7)C=C6)C=C5)cc3)CC2)c1[N+](=O)[O-]
REMARK SMILES IDX 19 1 18 2 17 3 15 4 16 5 14 7 11 8 12 9 89 10 13 11 88 12
REMARK SMILES IDX 10 13 6 14 7 15 90 16 8 17 9 18 5 19 3 21 4 22 2 23 1 24
REMARK SMILES IDX 91 25 92 26 93 27 20 28 21 29 22 30 23 31 24 33 25 34 26 35
REMARK SMILES IDX 87 36 27 37 86 38 28 39 29 40 30 41 80 42 31 43 85 44 79 45
REMARK SMILES IDX 81 46 32 47 84 48 78 49 77 50 33 52 65 53 45 54 64 55 46 56
REMARK SMILES IDX 49 57 63 58 82 59 47 60 48 61 62 63 83 64 50 65 34 66 35 67
REMARK SMILES IDX 43 68 36 69 42 70 44 71 41 72 37 73 38 74 39 75 40 76 66 77
REMARK SMILES IDX 67 78 75 79 68 80 74 81 76 82 73 83 69 84 70 85 71 86 72 87
REMARK SMILES IDX 51 88 52 89 60 90 53 91 59 92 61 93 58 94 54 95 55 96 56 97
REMARK SMILES IDX 57 98
REMARK H PARENT 17 6 5 20 22 32 81 51 49 62
REMARK Flexibility Score: inf
ROOT
ATOM      1  C   UNL     1       5.981  -1.791  10.338  1.00  0.00     0.023 C 
ENDROOT
BRANCH   1   2
ATOM      2  C   UNL     1       5.684  -0.304  10.154  1.00  0.00     0.116 C 
BRANCH   2   3
ATOM      3  N   UNL     1       6.887   0.511  10.244  1.00  0.00    -0.356 N 
ATOM      4  C   UNL     1       7.497   1.298   9.312  1.00  0.00     0.223 C 
ATOM      5  O   UNL     1       8.523   1.899   9.635  1.00  0.00    -0.275 OA
ATOM      6  H   UNL     1       7.334   0.490  11.121  1.00  0.00     0.163 HD
BRANCH   4   7
ATOM      7  C   UNL     1       6.925   1.454   7.909  1.00  0.00     0.082 C 
ATOM      8  N   UNL     1       4.722   0.597   6.361  1.00  0.00    -0.351 N 
ATOM      9  C   UNL     1       6.007   0.035   5.979  1.00  0.00     0.119 C 
ATOM     10  C   UNL     1       4.714   2.001   6.734  1.00  0.00     0.119 C 
ATOM     11  C   UNL     1       6.965   0.115   7.154  1.00  0.00     0.035 C 
ATOM     12  C   UNL     1       5.574   2.188   7.973  1.00  0.00     0.035 C 
BRANCH   8  13
ATOM     13  C   UNL     1       3.595  -0.077   5.948  1.00  0.00     0.213 A 
ATOM     14  C   UNL     1       1.639  -0.454   4.608  1.00  0.00     0.211 A 
ATOM     15  N   UNL     1       1.383  -1.575   5.308  1.00  0.00    -0.213 NA
ATOM     16  C   UNL     1       2.731   0.331   4.941  1.00  0.00     0.353 A 
ATOM     17  C   UNL     1       2.258  -1.915   6.266  1.00  0.00     0.227 A 
ATOM     18  N   UNL     1       3.364  -1.237   6.596  1.00  0.00    -0.212 NA
BRANCH  14  19
ATOM     19  N   UNL     1       0.722  -0.253   3.602  1.00  0.00    -0.362 N 
ATOM     20  H   UNL     1      -0.224  -0.438   3.804  1.00  0.00     0.162 HD
BRANCH  19  21
ATOM     21  C   UNL     1       1.045   0.211   2.256  1.00  0.00     0.077 C 
ATOM     22  C   UNL     1       0.752  -0.909   1.258  1.00  0.00     0.031 C 
BRANCH  21  23
ATOM     23  C   UNL     1       0.313   1.540   1.983  1.00  0.00     0.021 C 
ATOM     24  C   UNL     1      -0.972   1.444   1.174  1.00  0.00     0.006 C 
ENDBRANCH  21  23
ENDBRANCH  19  21
ENDBRANCH  14  19
BRANCH  16  25
ATOM     25  N   UNL     1       2.986   1.560   4.268  1.00  0.00     0.070 N 
ATOM     26  O   UNL     1       3.907   1.576   3.436  1.00  0.00    -0.258 OA
ATOM     27  O   UNL     1       2.286   2.537   4.571  1.00  0.00    -0.258 OA
ENDBRANCH  16  25
ENDBRANCH   8  13
ENDBRANCH   4   7
ENDBRANCH   2   3
ENDBRANCH   1   2
BRANCH   1  28
ATOM     28  C   UNL     1       6.456  -2.179  11.736  1.00  0.00     0.023 C 
BRANCH  28  29
ATOM     29  C   UNL     1       5.531  -1.764  12.873  1.00  0.00     0.116 C 
BRANCH  29  30
ATOM     30  N   UNL     1       4.183  -2.293  12.733  1.00  0.00    -0.352 N 
ATOM     31  C   UNL     1       3.392  -2.898  13.682  1.00  0.00     0.251 C 
ATOM     32  H   UNL     1       3.783  -2.207  11.838  1.00  0.00     0.163 HD
ATOM     33  O   UNL     1       2.326  -3.410  13.354  1.00  0.00    -0.269 OA
BRANCH  31  34
ATOM     34  C   UNL     1       3.858  -2.958  15.083  1.00  0.00     0.039 A 
ATOM     35  C   UNL     1       3.809  -4.177  15.762  1.00  0.00     0.014 A 
ATOM     36  C   UNL     1       4.383  -1.823  15.709  1.00  0.00     0.014 A 
ATOM     37  C   UNL     1       4.357  -4.276  17.042  1.00  0.00     0.010 A 
ATOM     38  C   UNL     1       4.996  -1.942  16.952  1.00  0.00     0.010 A 
ATOM     39  C   UNL     1       4.992  -3.171  17.631  1.00  0.00    -0.014 A 
BRANCH  39  40
ATOM     40  C   UNL     1       5.657  -3.276  18.956  1.00  0.00     0.031 A 
ATOM     41  C   UNL     1       5.148  -2.466  20.117  1.00  0.00     0.074 A 
ATOM     42  C   UNL     1       6.754  -4.045  19.096  1.00  0.00     0.049 A 
ATOM     43  N   UNL     1       5.635  -2.353  21.326  1.00  0.00    -0.248 NA
ATOM     44  C   UNL     1       3.950  -1.651  19.872  1.00  0.00     0.031 C 
ATOM     45  C   UNL     1       7.366  -4.847  18.034  1.00  0.00     0.029 A 
ATOM     46  N   UNL     1       7.555  -4.276  20.186  1.00  0.00    -0.354 N 
ATOM     47  C   UNL     1       4.809  -1.447  21.983  1.00  0.00     0.074 A 
ATOM     48  C   UNL     1       3.837  -0.990  21.013  1.00  0.00     0.031 C 
ATOM     49  C   UNL     1       8.426  -5.503  18.533  1.00  0.00     0.029 A 
ATOM     50  C   UNL     1       8.600  -5.135  19.934  1.00  0.00     0.049 A 
ATOM     51  H   UNL     1       7.397  -3.864  21.066  1.00  0.00     0.167 HD
ATOM     52  C   UNL     1       4.841  -1.055  23.282  1.00  0.00     0.034 A 
ATOM     53  C   UNL     1       9.589  -5.570  20.739  1.00  0.00     0.034 A 
ATOM     54  C   UNL     1       5.815  -1.525  24.237  1.00  0.00     0.049 A 
ATOM     55  C   UNL     1       9.629  -5.091  22.168  1.00  0.00     0.074 A 
ATOM     56  C   UNL     1       5.916  -1.228  25.585  1.00  0.00     0.029 A 
ATOM     57  N   UNL     1       6.863  -2.389  23.944  1.00  0.00    -0.354 N 
ATOM     58  N   UNL     1       8.816  -4.266  22.787  1.00  0.00    -0.248 NA
ATOM     59  C   UNL     1      10.715  -5.611  23.009  1.00  0.00     0.031 C 
ATOM     60  C   UNL     1       7.059  -1.859  26.090  1.00  0.00     0.029 A 
ATOM     61  C   UNL     1       7.631  -2.612  25.077  1.00  0.00     0.049 A 
ATOM     62  H   UNL     1       7.036  -2.786  23.059  1.00  0.00     0.167 HD
ATOM     63  C   UNL     1       9.275  -4.195  24.099  1.00  0.00     0.074 A 
ATOM     64  C   UNL     1      10.427  -5.070  24.183  1.00  0.00     0.031 C 
ATOM     65  C   UNL     1       8.785  -3.478  25.143  1.00  0.00     0.034 A 
BRANCH  52  66
ATOM     66  C   UNL     1       3.801  -0.051  23.723  1.00  0.00     0.023 A 
ATOM     67  C   UNL     1       2.426  -0.342  23.662  1.00  0.00     0.031 A 
ATOM     68  C   UNL     1       4.181   1.229  24.163  1.00  0.00     0.131 A 
ATOM     69  C   UNL     1       1.483   0.659  23.942  1.00  0.00     0.055 A 
ATOM     70  C   UNL     1       3.237   2.193  24.528  1.00  0.00     0.041 A 
ATOM     71  F   UNL     1       5.476   1.575  24.224  1.00  0.00    -0.206 F 
ATOM     72  C   UNL     1       1.879   1.917  24.400  1.00  0.00     0.022 A 
BRANCH  69  73
ATOM     73  S   UNL     1      -0.256   0.343  23.537  1.00  0.00     0.124 S 
ATOM     74  O   UNL     1      -0.178   0.061  22.105  1.00  0.00    -0.237 OA
ATOM     75  O   UNL     1      -0.580  -0.790  24.395  1.00  0.00    -0.237 OA
ATOM     76  O   UNL     1      -0.921   1.598  23.881  1.00  0.00    -0.744 OA
ENDBRANCH  69  73
ENDBRANCH  52  66
BRANCH  53  77
ATOM     77  C   UNL     1      10.626  -6.509  20.224  1.00  0.00     0.023 A 
ATOM     78  C   UNL     1      10.729  -7.814  20.730  1.00  0.00     0.031 A 
ATOM     79  C   UNL     1      11.552  -6.105  19.246  1.00  0.00     0.131 A 
ATOM     80  C   UNL     1      11.764  -8.655  20.291  1.00  0.00     0.055 A 
ATOM     81  C   UNL     1      12.548  -6.962  18.775  1.00  0.00     0.041 A 
ATOM     82  F   UNL     1      11.493  -4.869  18.724  1.00  0.00    -0.206 F 
ATOM     83  C   UNL     1      12.666  -8.242  19.308  1.00  0.00     0.022 A 
BRANCH  80  84
ATOM     84  S   UNL     1      11.959 -10.275  21.083  1.00  0.00     0.124 S 
ATOM     85  O   UNL     1      12.157  -9.902  22.479  1.00  0.00    -0.237 OA
ATOM     86  O   UNL     1      10.691 -10.923  20.764  1.00  0.00    -0.237 OA
ATOM     87  O   UNL     1      13.130 -10.841  20.415  1.00  0.00    -0.744 OA
ENDBRANCH  80  84
ENDBRANCH  53  77
BRANCH  65  88
ATOM     88  C   UNL     1       9.472  -3.653  26.475  1.00  0.00     0.023 A 
ATOM     89  C   UNL     1      10.788  -3.211  26.696  1.00  0.00     0.031 A 
ATOM     90  C   UNL     1       8.801  -4.289  27.536  1.00  0.00     0.131 A 
ATOM     91  C   UNL     1      11.411  -3.459  27.928  1.00  0.00     0.055 A 
ATOM     92  C   UNL     1       9.405  -4.479  28.779  1.00  0.00     0.041 A 
ATOM     93  F   UNL     1       7.544  -4.734  27.380  1.00  0.00    -0.206 F 
ATOM     94  C   UNL     1      10.723  -4.075  28.976  1.00  0.00     0.022 A 
BRANCH  91  95
ATOM     95  S   UNL     1      13.168  -3.046  28.116  1.00  0.00     0.124 S 
ATOM     96  O   UNL     1      13.781  -3.844  27.059  1.00  0.00    -0.237 OA
ATOM     97  O   UNL     1      13.173  -1.602  27.909  1.00  0.00    -0.237 OA
ATOM     98  O   UNL     1      13.479  -3.478  29.477  1.00  0.00    -0.744 OA
ENDBRANCH  91  95
ENDBRANCH  65  88
ENDBRANCH  39  40
ENDBRANCH  31  34
ENDBRANCH  29  30
ENDBRANCH  28  29
ENDBRANCH   1  28
TORSDOF 19
