REMARK SMILES O=C(NCCCCNC(=O)[C@@H]1C=C[C@H](NS(=O)(=O)c2ccc(Cl)cc2)C1)c1ccc(-c2c3nc(c(-c4cc(S(=O)(=O)[O-])ccc4F)c4ccc([nH]4)c(-c4cc(S(=O)(=O)[O-])ccc4F)c4nc(c(-c5cc(S(=O)(=O)[O-])ccc5F)c5ccc2[nH]5)C=C4)C=C3)cc1
REMARK SMILES IDX 5 1 4 2 3 3 1 4 2 5 27 7 28 8 89 9 29 10 88 11 30 12 31 13
REMARK SMILES IDX 32 14 82 15 33 16 87 17 81 18 83 19 34 20 86 21 80 22 79 23
REMARK SMILES IDX 35 25 67 26 47 27 66 28 48 29 51 30 65 31 84 32 49 33 50 34
REMARK SMILES IDX 64 36 85 37 52 38 36 39 37 40 45 41 38 42 44 43 46 44 43 45
REMARK SMILES IDX 39 46 40 47 41 48 42 49 68 50 69 51 77 52 70 53 76 54 78 55
REMARK SMILES IDX 75 56 71 57 72 58 73 59 74 60 53 61 54 62 62 63 55 64 61 65
REMARK SMILES IDX 63 66 60 67 56 68 57 69 58 70 59 71 6 72 7 73 8 74 9 75
REMARK SMILES IDX 10 77 11 78 12 79 26 80 13 81 14 82 15 83 16 85 17 86 18 87
REMARK SMILES IDX 19 88 20 89 25 90 21 91 24 92 22 93 23 94
REMARK H PARENT 3 6 83 24 51 35 8 76 15 84
REMARK Flexibility Score: inf
ROOT
ATOM      1  C   UNL     1       1.730   8.026  -0.824  1.00  0.00     0.023 C 
ENDROOT
BRANCH   1   2
ATOM      2  C   UNL     1       0.902   8.575   0.334  1.00  0.00     0.116 C 
BRANCH   2   3
ATOM      3  N   UNL     1       1.024  10.013   0.541  1.00  0.00    -0.352 N 
ATOM      4  O   UNL     1       0.220  12.133   0.723  1.00  0.00    -0.269 OA
ATOM      5  C   UNL     1      -0.002  10.932   0.621  1.00  0.00     0.251 C 
ATOM      6  H   UNL     1       1.938  10.366   0.634  1.00  0.00     0.163 HD
BRANCH   5   7
ATOM      7  C   UNL     1      -1.385  10.418   0.545  1.00  0.00     0.039 A 
ATOM      8  C   UNL     1      -1.770   9.386   1.403  1.00  0.00     0.014 A 
ATOM      9  C   UNL     1      -2.230  10.853  -0.477  1.00  0.00     0.014 A 
ATOM     10  C   UNL     1      -2.921   8.665   1.119  1.00  0.00     0.010 A 
ATOM     11  C   UNL     1      -3.450  10.201  -0.678  1.00  0.00     0.010 A 
ATOM     12  C   UNL     1      -3.792   9.081   0.097  1.00  0.00    -0.014 A 
BRANCH  12  13
ATOM     13  C   UNL     1      -5.095   8.384  -0.063  1.00  0.00     0.031 A 
ATOM     14  C   UNL     1      -5.466   7.672  -1.336  1.00  0.00     0.074 A 
ATOM     15  C   UNL     1      -5.941   8.389   0.988  1.00  0.00     0.049 A 
ATOM     16  N   UNL     1      -6.577   7.045  -1.629  1.00  0.00    -0.248 NA
ATOM     17  C   UNL     1      -4.473   7.665  -2.421  1.00  0.00     0.031 C 
ATOM     18  C   UNL     1      -5.677   9.047   2.273  1.00  0.00     0.029 A 
ATOM     19  N   UNL     1      -7.175   7.821   1.160  1.00  0.00    -0.354 N 
ATOM     20  C   UNL     1      -6.431   6.586  -2.934  1.00  0.00     0.074 A 
ATOM     21  C   UNL     1      -5.126   7.026  -3.384  1.00  0.00     0.031 C 
ATOM     22  C   UNL     1      -6.690   8.801   3.112  1.00  0.00     0.029 A 
ATOM     23  C   UNL     1      -7.722   8.063   2.399  1.00  0.00     0.049 A 
ATOM     24  H   UNL     1      -7.628   7.291   0.464  1.00  0.00     0.167 HD
ATOM     25  C   UNL     1      -7.309   5.868  -3.679  1.00  0.00     0.034 A 
ATOM     26  C   UNL     1      -8.936   7.768   2.898  1.00  0.00     0.034 A 
ATOM     27  C   UNL     1      -8.604   5.437  -3.203  1.00  0.00     0.049 A 
ATOM     28  C   UNL     1      -9.908   7.027   2.022  1.00  0.00     0.074 A 
ATOM     29  C   UNL     1      -9.549   4.669  -3.862  1.00  0.00     0.029 A 
ATOM     30  N   UNL     1      -9.145   5.745  -1.961  1.00  0.00    -0.354 N 
ATOM     31  N   UNL     1      -9.740   6.580   0.798  1.00  0.00    -0.248 NA
ATOM     32  C   UNL     1     -11.230   6.747   2.592  1.00  0.00     0.031 C 
ATOM     33  C   UNL     1     -10.691   4.590  -3.059  1.00  0.00     0.029 A 
ATOM     34  C   UNL     1     -10.426   5.222  -1.855  1.00  0.00     0.049 A 
ATOM     35  H   UNL     1      -8.686   6.259  -1.257  1.00  0.00     0.167 HD
ATOM     36  C   UNL     1     -10.930   5.942   0.465  1.00  0.00     0.074 A 
ATOM     37  C   UNL     1     -11.791   6.037   1.626  1.00  0.00     0.031 C 
ATOM     38  C   UNL     1     -11.280   5.334  -0.696  1.00  0.00     0.034 A 
BRANCH  25  39
ATOM     39  C   UNL     1      -6.934   5.538  -5.106  1.00  0.00     0.023 A 
ATOM     40  C   UNL     1      -5.868   4.680  -5.423  1.00  0.00     0.031 A 
ATOM     41  C   UNL     1      -7.694   6.062  -6.170  1.00  0.00     0.131 A 
ATOM     42  C   UNL     1      -5.568   4.401  -6.767  1.00  0.00     0.055 A 
ATOM     43  C   UNL     1      -7.436   5.724  -7.500  1.00  0.00     0.041 A 
ATOM     44  F   UNL     1      -8.712   6.905  -5.932  1.00  0.00    -0.206 F 
ATOM     45  C   UNL     1      -6.362   4.895  -7.806  1.00  0.00     0.022 A 
BRANCH  42  46
ATOM     46  S   UNL     1      -4.061   3.466  -7.149  1.00  0.00     0.124 S 
ATOM     47  O   UNL     1      -3.030   4.310  -6.549  1.00  0.00    -0.237 OA
ATOM     48  O   UNL     1      -4.305   2.189  -6.489  1.00  0.00    -0.237 OA
ATOM     49  O   UNL     1      -4.046   3.421  -8.610  1.00  0.00    -0.744 OA
ENDBRANCH  42  46
ENDBRANCH  25  39
BRANCH  26  50
ATOM     50  C   UNL     1      -9.325   8.227   4.263  1.00  0.00     0.023 A 
ATOM     51  C   UNL     1      -9.707   7.309   5.251  1.00  0.00     0.031 A 
ATOM     52  C   UNL     1      -9.384   9.597   4.579  1.00  0.00     0.131 A 
ATOM     53  C   UNL     1     -10.198   7.772   6.480  1.00  0.00     0.055 A 
ATOM     54  C   UNL     1      -9.795  10.050   5.832  1.00  0.00     0.041 A 
ATOM     55  F   UNL     1      -9.032  10.522   3.671  1.00  0.00    -0.206 F 
ATOM     56  C   UNL     1     -10.227   9.135   6.785  1.00  0.00     0.022 A 
BRANCH  53  57
ATOM     57  S   UNL     1     -10.935   6.571   7.620  1.00  0.00     0.124 S 
ATOM     58  O   UNL     1     -11.940   5.939   6.773  1.00  0.00    -0.237 OA
ATOM     59  O   UNL     1      -9.785   5.747   7.976  1.00  0.00    -0.237 OA
ATOM     60  O   UNL     1     -11.462   7.405   8.698  1.00  0.00    -0.744 OA
ENDBRANCH  53  57
ENDBRANCH  26  50
BRANCH  38  61
ATOM     61  C   UNL     1     -12.642   4.684  -0.739  1.00  0.00     0.023 A 
ATOM     62  C   UNL     1     -13.825   5.437  -0.638  1.00  0.00     0.031 A 
ATOM     63  C   UNL     1     -12.756   3.287  -0.853  1.00  0.00     0.131 A 
ATOM     64  C   UNL     1     -15.066   4.785  -0.583  1.00  0.00     0.055 A 
ATOM     65  C   UNL     1     -13.997   2.650  -0.873  1.00  0.00     0.041 A 
ATOM     66  F   UNL     1     -11.660   2.517  -0.945  1.00  0.00    -0.206 F 
ATOM     67  C   UNL     1     -15.161   3.398  -0.721  1.00  0.00     0.022 A 
BRANCH  64  68
ATOM     68  S   UNL     1     -16.547   5.764  -0.213  1.00  0.00     0.124 S 
ATOM     69  O   UNL     1     -16.206   6.353   1.078  1.00  0.00    -0.237 OA
ATOM     70  O   UNL     1     -16.601   6.689  -1.341  1.00  0.00    -0.237 OA
ATOM     71  O   UNL     1     -17.616   4.768  -0.178  1.00  0.00    -0.744 OA
ENDBRANCH  64  68
ENDBRANCH  38  61
ENDBRANCH  12  13
ENDBRANCH   5   7
ENDBRANCH   2   3
ENDBRANCH   1   2
BRANCH   1  72
ATOM     72  C   UNL     1       3.241   8.112  -0.656  1.00  0.00     0.023 C 
BRANCH  72  73
ATOM     73  C   UNL     1       3.726   7.490   0.641  1.00  0.00     0.116 C 
BRANCH  73  74
ATOM     74  N   UNL     1       4.343   6.191   0.531  1.00  0.00    -0.356 N 
ATOM     75  C   UNL     1       5.332   5.706   1.340  1.00  0.00     0.226 C 
ATOM     76  H   UNL     1       4.025   5.603  -0.191  1.00  0.00     0.163 HD
ATOM     77  O   UNL     1       5.241   4.522   1.690  1.00  0.00    -0.274 OA
BRANCH  75  78
ATOM     78  C   UNL     1       6.616   6.496   1.672  1.00  0.00     0.103 C 
ATOM     79  C   UNL     1       6.970   6.491   3.137  1.00  0.00    -0.016 C 
ATOM     80  C   UNL     1       6.816   7.972   1.313  1.00  0.00     0.042 C 
ATOM     81  C   UNL     1       7.080   7.728   3.636  1.00  0.00    -0.011 C 
ATOM     82  C   UNL     1       6.729   8.760   2.632  1.00  0.00     0.093 C 
BRANCH  82  83
ATOM     83  N   UNL     1       5.436   9.389   2.875  1.00  0.00    -0.204 NA
ATOM     84  H   UNL     1       5.029   9.501   1.947  1.00  0.00     0.142 HD
BRANCH  83  85
ATOM     85  S   UNL     1       4.168   8.845   3.824  1.00  0.00     0.241 S 
ATOM     86  O   UNL     1       3.134   9.841   3.673  1.00  0.00    -0.207 OA
ATOM     87  O   UNL     1       3.906   7.456   3.525  1.00  0.00    -0.207 OA
BRANCH  85  88
ATOM     88  C   UNL     1       4.761   8.928   5.483  1.00  0.00     0.082 A 
ATOM     89  C   UNL     1       4.970   7.739   6.194  1.00  0.00     0.023 A 
ATOM     90  C   UNL     1       4.996  10.171   6.071  1.00  0.00     0.023 A 
ATOM     91  C   UNL     1       5.480   7.793   7.489  1.00  0.00     0.022 A 
ATOM     92  C   UNL     1       5.496  10.218   7.372  1.00  0.00     0.022 A 
ATOM     93  C   UNL     1       5.747   9.032   8.069  1.00  0.00     0.041 A 
ATOM     94  Cl  UNL     1       6.401   9.100   9.658  1.00  0.00    -0.084 Cl
ENDBRANCH  85  88
ENDBRANCH  83  85
ENDBRANCH  82  83
ENDBRANCH  75  78
ENDBRANCH  73  74
ENDBRANCH  72  73
ENDBRANCH   1  72
TORSDOF 17
