REMARK SMILES O=C(COc1nc(-c2cccnc2)nc2c1CCCC2)NCCCCNC(=O)c1ccc(-c2c3nc(c(-c4cc(S(=O)(=O)[O-])ccc4F)c4ccc([nH]4)c(-c4cc(S(=O)(=O)[O-])ccc4F)c4nc(c(-c5cc(S(=O)(=O)[O-])ccc5F)c5ccc2[nH]5)C=C4)C=C3)cc1
REMARK SMILES IDX 23 1 22 2 21 3 1 4 2 5 3 7 4 8 5 9 6 10 16 11 7 12 15 13
REMARK SMILES IDX 17 14 14 15 20 16 18 17 19 18 8 19 9 20 13 21 10 22 12 23
REMARK SMILES IDX 11 24 24 25 25 26 26 27 27 28 28 30 29 31 30 32 91 33 31 34
REMARK SMILES IDX 90 35 32 36 33 37 34 38 84 39 35 40 89 41 83 42 85 43 36 44
REMARK SMILES IDX 88 45 82 46 81 47 37 49 69 50 49 51 68 52 50 53 53 54 67 55
REMARK SMILES IDX 86 56 51 57 52 58 66 60 87 61 54 62 38 63 39 64 47 65 40 66
REMARK SMILES IDX 46 67 48 68 45 69 41 70 42 71 43 72 44 73 70 74 71 75 79 76
REMARK SMILES IDX 72 77 78 78 80 79 77 80 73 81 74 82 75 83 76 84 55 85 56 86
REMARK SMILES IDX 64 87 57 88 63 89 65 90 62 91 58 92 59 93 60 94 61 95
REMARK H PARENT 21 6 26 29 85 48 53 59
REMARK Flexibility Score: inf
ROOT
ATOM      1  C   UNL     1       2.332   1.329   3.280  1.00  0.00     0.023 C 
ENDROOT
BRANCH   1   2
ATOM      2  C   UNL     1       1.934   1.758   1.869  1.00  0.00     0.116 C 
BRANCH   2   3
ATOM      3  N   UNL     1       2.603   0.996   0.838  1.00  0.00    -0.353 N 
ATOM      4  O   UNL     1       0.897  -0.506   0.492  1.00  0.00    -0.271 OA
ATOM      5  C   UNL     1       1.997  -0.053   0.183  1.00  0.00     0.258 C 
ATOM      6  H   UNL     1       3.526   1.236   0.595  1.00  0.00     0.163 HD
BRANCH   5   7
ATOM      7  C   UNL     1       2.848  -0.688  -0.925  1.00  0.00     0.331 C 
BRANCH   7   8
ATOM      8  O   UNL     1       3.784   0.149  -1.599  1.00  0.00    -0.467 OA
BRANCH   8   9
ATOM      9  C   UNL     1       3.151   0.876  -2.582  1.00  0.00     0.220 A 
ATOM     10  N   UNL     1       2.234   1.761  -2.167  1.00  0.00    -0.193 NA
ATOM     11  C   UNL     1       3.550   0.717  -3.896  1.00  0.00     0.036 A 
ATOM     12  C   UNL     1       1.638   2.479  -3.129  1.00  0.00     0.164 A 
ATOM     13  C   UNL     1       2.897   1.533  -4.805  1.00  0.00     0.051 A 
ATOM     14  C   UNL     1       4.646  -0.224  -4.298  1.00  0.00     0.043 C 
ATOM     15  N   UNL     1       1.915   2.386  -4.442  1.00  0.00    -0.232 NA
ATOM     16  C   UNL     1       3.215   1.483  -6.277  1.00  0.00     0.057 C 
ATOM     17  C   UNL     1       4.690  -0.482  -5.806  1.00  0.00     0.005 C 
ATOM     18  C   UNL     1       4.561   0.826  -6.577  1.00  0.00     0.007 C 
BRANCH  12  19
ATOM     19  C   UNL     1       0.630   3.449  -2.723  1.00  0.00     0.038 A 
ATOM     20  C   UNL     1       0.854   4.372  -1.692  1.00  0.00     0.015 A 
ATOM     21  C   UNL     1      -0.610   3.513  -3.353  1.00  0.00     0.123 A 
ATOM     22  C   UNL     1      -0.132   5.295  -1.349  1.00  0.00     0.021 A 
ATOM     23  N   UNL     1      -1.599   4.388  -3.035  1.00  0.00    -0.264 NA
ATOM     24  C   UNL     1      -1.332   5.260  -2.040  1.00  0.00     0.111 A 
ENDBRANCH  12  19
ENDBRANCH   8   9
ENDBRANCH   7   8
ENDBRANCH   5   7
ENDBRANCH   2   3
ENDBRANCH   1   2
BRANCH   1  25
ATOM     25  C   UNL     1       3.823   1.449   3.603  1.00  0.00     0.023 C 
BRANCH  25  26
ATOM     26  C   UNL     1       4.453   2.815   3.345  1.00  0.00     0.116 C 
BRANCH  26  27
ATOM     27  N   UNL     1       3.852   3.878   4.133  1.00  0.00    -0.352 N 
ATOM     28  C   UNL     1       4.451   4.817   4.940  1.00  0.00     0.251 C 
ATOM     29  H   UNL     1       2.871   3.935   4.080  1.00  0.00     0.163 HD
ATOM     30  O   UNL     1       3.751   5.558   5.626  1.00  0.00    -0.269 OA
BRANCH  28  31
ATOM     31  C   UNL     1       5.927   4.914   5.011  1.00  0.00     0.039 A 
ATOM     32  C   UNL     1       6.533   5.025   6.266  1.00  0.00     0.014 A 
ATOM     33  C   UNL     1       6.714   4.904   3.856  1.00  0.00     0.014 A 
ATOM     34  C   UNL     1       7.927   5.051   6.367  1.00  0.00     0.010 A 
ATOM     35  C   UNL     1       8.105   4.868   3.961  1.00  0.00     0.010 A 
ATOM     36  C   UNL     1       8.725   4.935   5.218  1.00  0.00    -0.014 A 
BRANCH  36  37
ATOM     37  C   UNL     1      10.208   4.885   5.315  1.00  0.00     0.031 A 
ATOM     38  C   UNL     1      11.042   6.000   4.749  1.00  0.00     0.074 A 
ATOM     39  C   UNL     1      10.805   3.817   5.880  1.00  0.00     0.049 A 
ATOM     40  N   UNL     1      12.345   6.103   4.676  1.00  0.00    -0.248 NA
ATOM     41  C   UNL     1      10.315   7.140   4.172  1.00  0.00     0.031 C 
ATOM     42  C   UNL     1      10.108   2.663   6.452  1.00  0.00     0.029 A 
ATOM     43  N   UNL     1      12.134   3.528   6.070  1.00  0.00    -0.354 N 
ATOM     44  C   UNL     1      12.594   7.315   4.044  1.00  0.00     0.074 A 
ATOM     45  C   UNL     1      11.307   7.884   3.704  1.00  0.00     0.031 C 
ATOM     46  C   UNL     1      11.013   1.811   6.961  1.00  0.00     0.029 A 
ATOM     47  C   UNL     1      12.354   2.333   6.713  1.00  0.00     0.049 A 
ATOM     48  H   UNL     1      12.861   4.122   5.772  1.00  0.00     0.167 HD
ATOM     49  C   UNL     1      13.786   7.912   3.792  1.00  0.00     0.034 A 
ATOM     50  C   UNL     1      13.504   1.722   7.061  1.00  0.00     0.034 A 
ATOM     51  C   UNL     1      15.063   7.346   4.146  1.00  0.00     0.049 A 
ATOM     52  C   UNL     1      14.816   2.379   6.728  1.00  0.00     0.074 A 
ATOM     53  C   UNL     1      16.325   7.886   3.962  1.00  0.00     0.029 A 
ATOM     54  N   UNL     1      15.244   6.113   4.757  1.00  0.00    -0.354 N 
ATOM     55  N   UNL     1      15.034   3.522   6.121  1.00  0.00    -0.248 NA
ATOM     56  C   UNL     1      16.037   1.661   7.120  1.00  0.00     0.031 C 
ATOM     57  C   UNL     1      17.269   6.958   4.412  1.00  0.00     0.029 A 
ATOM     58  C   UNL     1      16.596   5.864   4.933  1.00  0.00     0.049 A 
ATOM     59  H   UNL     1      14.519   5.504   5.026  1.00  0.00     0.167 HD
ATOM     60  C   UNL     1      16.416   3.668   6.074  1.00  0.00     0.074 A 
ATOM     61  C   UNL     1      16.982   2.500   6.717  1.00  0.00     0.031 C 
ATOM     62  C   UNL     1      17.149   4.684   5.552  1.00  0.00     0.034 A 
BRANCH  49  63
ATOM     63  C   UNL     1      13.756   9.242   3.085  1.00  0.00     0.023 A 
ATOM     64  C   UNL     1      13.217  10.385   3.700  1.00  0.00     0.031 A 
ATOM     65  C   UNL     1      14.263   9.369   1.780  1.00  0.00     0.131 A 
ATOM     66  C   UNL     1      13.142  11.591   2.988  1.00  0.00     0.055 A 
ATOM     67  C   UNL     1      14.249  10.589   1.103  1.00  0.00     0.041 A 
ATOM     68  F   UNL     1      14.772   8.305   1.139  1.00  0.00    -0.206 F 
ATOM     69  C   UNL     1      13.676  11.707   1.702  1.00  0.00     0.022 A 
BRANCH  66  70
ATOM     70  S   UNL     1      12.242  12.980   3.728  1.00  0.00     0.124 S 
ATOM     71  O   UNL     1      10.885  12.444   3.801  1.00  0.00    -0.237 OA
ATOM     72  O   UNL     1      12.928  13.159   5.003  1.00  0.00    -0.237 OA
ATOM     73  O   UNL     1      12.429  14.062   2.763  1.00  0.00    -0.744 OA
ENDBRANCH  66  70
ENDBRANCH  49  63
BRANCH  50  74
ATOM     74  C   UNL     1      13.464   0.412   7.765  1.00  0.00     0.023 A 
ATOM     75  C   UNL     1      13.816   0.314   9.119  1.00  0.00     0.031 A 
ATOM     76  C   UNL     1      13.061  -0.756   7.095  1.00  0.00     0.131 A 
ATOM     77  C   UNL     1      13.777  -0.934   9.760  1.00  0.00     0.055 A 
ATOM     78  C   UNL     1      12.992  -1.989   7.746  1.00  0.00     0.041 A 
ATOM     79  F   UNL     1      12.705  -0.708   5.802  1.00  0.00    -0.206 F 
ATOM     80  C   UNL     1      13.355  -2.083   9.086  1.00  0.00     0.022 A 
BRANCH  77  81
ATOM     81  S   UNL     1      14.296  -1.040  11.495  1.00  0.00     0.124 S 
ATOM     82  O   UNL     1      15.717  -0.726  11.398  1.00  0.00    -0.237 OA
ATOM     83  O   UNL     1      13.456  -0.030  12.129  1.00  0.00    -0.237 OA
ATOM     84  O   UNL     1      13.984  -2.421  11.858  1.00  0.00    -0.744 OA
ENDBRANCH  77  81
ENDBRANCH  50  74
BRANCH  62  85
ATOM     85  C   UNL     1      18.646   4.586   5.669  1.00  0.00     0.023 A 
ATOM     86  C   UNL     1      19.385   3.684   4.885  1.00  0.00     0.031 A 
ATOM     87  C   UNL     1      19.344   5.434   6.547  1.00  0.00     0.131 A 
ATOM     88  C   UNL     1      20.781   3.633   5.013  1.00  0.00     0.055 A 
ATOM     89  C   UNL     1      20.736   5.408   6.639  1.00  0.00     0.041 A 
ATOM     90  F   UNL     1      18.682   6.314   7.315  1.00  0.00    -0.206 F 
ATOM     91  C   UNL     1      21.462   4.500   5.873  1.00  0.00     0.022 A 
BRANCH  88  92
ATOM     92  S   UNL     1      21.701   2.394   4.060  1.00  0.00     0.124 S 
ATOM     93  O   UNL     1      21.220   1.146   4.644  1.00  0.00    -0.237 OA
ATOM     94  O   UNL     1      21.271   2.664   2.692  1.00  0.00    -0.237 OA
ATOM     95  O   UNL     1      23.099   2.713   4.342  1.00  0.00    -0.744 OA
ENDBRANCH  88  92
ENDBRANCH  62  85
ENDBRANCH  36  37
ENDBRANCH  28  31
ENDBRANCH  26  27
ENDBRANCH  25  26
ENDBRANCH   1  25
TORSDOF 17
