REMARK SMILES O=C(NCCCCNC(=O)[C@@H]1C=C[C@H](NC(=O)c2ccc(CO)cc2)C1)c1ccc(-c2c3nc(c(-c4cc(S(=O)(=O)[O-])ccc4F)c4ccc([nH]4)c(-c4cc(S(=O)(=O)[O-])ccc4F)c4nc(c(-c5cc(S(=O)(=O)[O-])ccc5F)c5ccc2[nH]5)C=C4)C=C3)cc1
REMARK SMILES IDX 6 1 5 2 4 3 3 4 1 5 2 6 27 8 28 9 89 10 29 11 88 12 30 13
REMARK SMILES IDX 31 14 32 15 82 16 33 17 87 18 81 19 83 20 34 21 86 22 80 23
REMARK SMILES IDX 79 24 35 26 67 27 47 28 66 29 48 30 51 31 65 32 84 33 49 34
REMARK SMILES IDX 50 35 64 37 85 38 52 39 36 40 37 41 45 42 38 43 44 44 46 45
REMARK SMILES IDX 43 46 39 47 40 48 41 49 42 50 68 51 69 52 77 53 70 54 76 55
REMARK SMILES IDX 78 56 75 57 71 58 72 59 73 60 74 61 53 62 54 63 62 64 55 65
REMARK SMILES IDX 61 66 63 67 60 68 56 69 57 70 58 71 59 72 7 73 8 74 9 75
REMARK SMILES IDX 10 77 11 78 12 79 26 80 13 81 14 82 15 83 16 84 17 86 18 87
REMARK SMILES IDX 19 88 25 89 20 90 24 91 21 92 22 93 23 94
REMARK H PARENT 3 7 83 25 51 36 8 76 15 85 23 95
REMARK Flexibility Score: inf
ROOT
ATOM      1  C   UNL     1      10.402  -2.537  -5.323  1.00  0.00     0.023 C 
ENDROOT
BRANCH   1   2
ATOM      2  C   UNL     1      11.509  -2.129  -6.308  1.00  0.00     0.023 C 
BRANCH   2   3
ATOM      3  C   UNL     1      12.032  -0.705  -6.139  1.00  0.00     0.116 C 
BRANCH   3   4
ATOM      4  N   UNL     1      12.658  -0.503  -4.840  1.00  0.00    -0.352 N 
ATOM      5  O   UNL     1      14.335  -0.391  -3.347  1.00  0.00    -0.269 OA
ATOM      6  C   UNL     1      13.984  -0.324  -4.516  1.00  0.00     0.251 C 
ATOM      7  H   UNL     1      12.037  -0.493  -4.076  1.00  0.00     0.163 HD
BRANCH   6   8
ATOM      8  C   UNL     1      14.979  -0.061  -5.581  1.00  0.00     0.039 A 
ATOM      9  C   UNL     1      14.705   0.857  -6.596  1.00  0.00     0.014 A 
ATOM     10  C   UNL     1      16.215  -0.714  -5.543  1.00  0.00     0.014 A 
ATOM     11  C   UNL     1      15.603   1.016  -7.646  1.00  0.00     0.010 A 
ATOM     12  C   UNL     1      17.154  -0.485  -6.555  1.00  0.00     0.010 A 
ATOM     13  C   UNL     1      16.847   0.364  -7.630  1.00  0.00    -0.014 A 
BRANCH  13  14
ATOM     14  C   UNL     1      17.830   0.643  -8.710  1.00  0.00     0.031 A 
ATOM     15  C   UNL     1      18.283  -0.439  -9.652  1.00  0.00     0.074 A 
ATOM     16  C   UNL     1      18.297   1.900  -8.847  1.00  0.00     0.049 A 
ATOM     17  N   UNL     1      19.136  -0.365 -10.643  1.00  0.00    -0.248 NA
ATOM     18  C   UNL     1      17.714  -1.779  -9.450  1.00  0.00     0.031 C 
ATOM     19  C   UNL     1      17.930   3.029  -7.987  1.00  0.00     0.029 A 
ATOM     20  N   UNL     1      19.163   2.449  -9.758  1.00  0.00    -0.354 N 
ATOM     21  C   UNL     1      19.219  -1.647 -11.175  1.00  0.00     0.074 A 
ATOM     22  C   UNL     1      18.353  -2.486 -10.371  1.00  0.00     0.031 C 
ATOM     23  C   UNL     1      18.530   4.140  -8.437  1.00  0.00     0.029 A 
ATOM     24  C   UNL     1      19.386   3.792  -9.565  1.00  0.00     0.049 A 
ATOM     25  H   UNL     1      19.584   1.931 -10.482  1.00  0.00     0.167 HD
ATOM     26  C   UNL     1      19.945  -2.078 -12.238  1.00  0.00     0.034 A 
ATOM     27  C   UNL     1      20.209   4.648 -10.201  1.00  0.00     0.034 A 
ATOM     28  C   UNL     1      20.804  -1.221 -13.024  1.00  0.00     0.049 A 
ATOM     29  C   UNL     1      21.039   4.134 -11.345  1.00  0.00     0.074 A 
ATOM     30  C   UNL     1      21.556  -1.546 -14.141  1.00  0.00     0.029 A 
ATOM     31  N   UNL     1      21.038   0.126 -12.773  1.00  0.00    -0.354 N 
ATOM     32  N   UNL     1      21.090   2.922 -11.848  1.00  0.00    -0.248 NA
ATOM     33  C   UNL     1      21.918   5.102 -12.010  1.00  0.00     0.031 C 
ATOM     34  C   UNL     1      22.302  -0.423 -14.513  1.00  0.00     0.029 A 
ATOM     35  C   UNL     1      21.951   0.633 -13.688  1.00  0.00     0.049 A 
ATOM     36  H   UNL     1      20.618   0.646 -12.050  1.00  0.00     0.167 HD
ATOM     37  C   UNL     1      21.991   2.989 -12.906  1.00  0.00     0.074 A 
ATOM     38  C   UNL     1      22.440   4.365 -12.980  1.00  0.00     0.031 C 
ATOM     39  C   UNL     1      22.408   2.003 -13.741  1.00  0.00     0.034 A 
BRANCH  26  40
ATOM     40  C   UNL     1      19.884  -3.549 -12.582  1.00  0.00     0.023 A 
ATOM     41  C   UNL     1      18.693  -4.168 -13.001  1.00  0.00     0.031 A 
ATOM     42  C   UNL     1      21.038  -4.348 -12.488  1.00  0.00     0.131 A 
ATOM     43  C   UNL     1      18.669  -5.550 -13.248  1.00  0.00     0.055 A 
ATOM     44  C   UNL     1      21.026  -5.706 -12.812  1.00  0.00     0.041 A 
ATOM     45  F   UNL     1      22.202  -3.821 -12.074  1.00  0.00    -0.206 F 
ATOM     46  C   UNL     1      19.833  -6.318 -13.182  1.00  0.00     0.022 A 
BRANCH  43  47
ATOM     47  S   UNL     1      17.067  -6.356 -13.524  1.00  0.00     0.124 S 
ATOM     48  O   UNL     1      16.346  -6.007 -12.302  1.00  0.00    -0.237 OA
ATOM     49  O   UNL     1      16.598  -5.715 -14.747  1.00  0.00    -0.237 OA
ATOM     50  O   UNL     1      17.412  -7.770 -13.652  1.00  0.00    -0.744 OA
ENDBRANCH  43  47
ENDBRANCH  26  40
BRANCH  27  51
ATOM     51  C   UNL     1      20.319   6.062  -9.741  1.00  0.00     0.023 A 
ATOM     52  C   UNL     1      19.954   7.130 -10.574  1.00  0.00     0.031 A 
ATOM     53  C   UNL     1      20.820   6.365  -8.461  1.00  0.00     0.131 A 
ATOM     54  C   UNL     1      20.133   8.451 -10.134  1.00  0.00     0.055 A 
ATOM     55  C   UNL     1      20.938   7.678  -8.005  1.00  0.00     0.041 A 
ATOM     56  F   UNL     1      21.183   5.381  -7.623  1.00  0.00    -0.206 F 
ATOM     57  C   UNL     1      20.606   8.732  -8.850  1.00  0.00     0.022 A 
BRANCH  54  58
ATOM     58  S   UNL     1      19.823   9.804 -11.300  1.00  0.00     0.124 S 
ATOM     59  O   UNL     1      20.729   9.468 -12.393  1.00  0.00    -0.237 OA
ATOM     60  O   UNL     1      18.399   9.646 -11.576  1.00  0.00    -0.237 OA
ATOM     61  O   UNL     1      20.179  10.999 -10.538  1.00  0.00    -0.744 OA
ENDBRANCH  54  58
ENDBRANCH  27  51
BRANCH  39  62
ATOM     62  C   UNL     1      23.371   2.398 -14.834  1.00  0.00     0.023 A 
ATOM     63  C   UNL     1      24.672   2.850 -14.549  1.00  0.00     0.031 A 
ATOM     64  C   UNL     1      22.971   2.347 -16.181  1.00  0.00     0.131 A 
ATOM     65  C   UNL     1      25.503   3.292 -15.590  1.00  0.00     0.055 A 
ATOM     66  C   UNL     1      23.826   2.723 -17.218  1.00  0.00     0.041 A 
ATOM     67  F   UNL     1      21.738   1.930 -16.513  1.00  0.00    -0.206 F 
ATOM     68  C   UNL     1      25.095   3.214 -16.924  1.00  0.00     0.022 A 
BRANCH  65  69
ATOM     69  S   UNL     1      27.084   4.075 -15.169  1.00  0.00     0.124 S 
ATOM     70  O   UNL     1      26.657   5.185 -14.324  1.00  0.00    -0.237 OA
ATOM     71  O   UNL     1      27.797   2.995 -14.494  1.00  0.00    -0.237 OA
ATOM     72  O   UNL     1      27.632   4.460 -16.469  1.00  0.00    -0.744 OA
ENDBRANCH  65  69
ENDBRANCH  39  62
ENDBRANCH  13  14
ENDBRANCH   6   8
ENDBRANCH   3   4
ENDBRANCH   2   3
ENDBRANCH   1   2
BRANCH   1  73
ATOM     73  C   UNL     1       9.071  -1.790  -5.489  1.00  0.00     0.116 C 
BRANCH  73  74
ATOM     74  N   UNL     1       8.450  -2.158  -6.747  1.00  0.00    -0.356 N 
ATOM     75  C   UNL     1       7.178  -2.506  -7.074  1.00  0.00     0.227 C 
ATOM     76  H   UNL     1       9.069  -2.153  -7.512  1.00  0.00     0.163 HD
ATOM     77  O   UNL     1       7.032  -2.997  -8.197  1.00  0.00    -0.274 OA
BRANCH  75  78
ATOM     78  C   UNL     1       5.995  -2.250  -6.130  1.00  0.00     0.103 C 
ATOM     79  C   UNL     1       4.859  -3.152  -6.525  1.00  0.00    -0.016 C 
ATOM     80  C   UNL     1       5.313  -0.869  -6.253  1.00  0.00     0.047 C 
ATOM     81  C   UNL     1       3.863  -2.487  -7.128  1.00  0.00    -0.006 C 
ATOM     82  C   UNL     1       4.116  -1.005  -7.221  1.00  0.00     0.106 C 
BRANCH  82  83
ATOM     83  N   UNL     1       4.159  -0.673  -8.649  1.00  0.00    -0.346 N 
ATOM     84  C   UNL     1       4.548   0.450  -9.355  1.00  0.00     0.251 C 
ATOM     85  H   UNL     1       3.842  -1.405  -9.228  1.00  0.00     0.164 HD
ATOM     86  O   UNL     1       3.840   0.853 -10.276  1.00  0.00    -0.269 OA
BRANCH  84  87
ATOM     87  C   UNL     1       5.846   1.115  -9.102  1.00  0.00     0.039 A 
ATOM     88  C   UNL     1       6.102   2.445  -9.437  1.00  0.00     0.014 A 
ATOM     89  C   UNL     1       6.894   0.353  -8.621  1.00  0.00     0.014 A 
ATOM     90  C   UNL     1       7.334   3.030  -9.090  1.00  0.00     0.007 A 
ATOM     91  C   UNL     1       8.074   0.936  -8.185  1.00  0.00     0.007 A 
ATOM     92  C   UNL     1       8.292   2.295  -8.380  1.00  0.00    -0.023 A 
BRANCH  92  93
ATOM     93  C   UNL     1       9.569   2.891  -7.857  1.00  0.00     0.191 C 
BRANCH  93  94
ATOM     94  O   UNL     1      10.687   2.436  -8.605  1.00  0.00    -0.392 OA
ATOM     95  H   UNL     1      10.753   1.471  -8.532  1.00  0.00     0.211 HD
ENDBRANCH  93  94
ENDBRANCH  92  93
ENDBRANCH  84  87
ENDBRANCH  82  83
ENDBRANCH  75  78
ENDBRANCH  73  74
ENDBRANCH   1  73
TORSDOF 18
