REMARK SMILES C=C1C(=O)O[C@@H]2[C@H]1[C@H](OC(=O)[C@]1(C)O[C@@H]1C)[C@@H](OC(C)=O)/C(C(=O)NCCCCNC(=O)c1ccc(-c3c4nc(c(-c5cc(S(=O)(=O)[O-])ccc5F)c5ccc([nH]5)c(-c5cc(S(=O)(=O)[O-])ccc5F)c5nc(c(-c6cc(S(=O)(=O)[O-])ccc6F)c6ccc3[nH]6)C=C5)C=C4)cc1)=C\[C@H]1O[C@H]1[C@@]1(C)O[C@@H]21
REMARK SMILES IDX 26 1 25 2 23 3 24 4 22 6 96 7 17 8 8 9 7 10 1 11 2 12 3 13
REMARK SMILES IDX 4 14 5 15 6 16 9 18 10 19 11 20 12 21 14 22 15 23 13 24
REMARK SMILES IDX 16 25 18 26 19 27 20 28 21 29 97 30 98 31 99 32 100 33
REMARK SMILES IDX 101 34 102 35 103 36 27 38 28 39 29 40 30 41 31 42 32 44
REMARK SMILES IDX 33 45 34 46 95 47 35 48 94 49 36 50 37 51 38 52 88 53 39 54
REMARK SMILES IDX 93 55 87 56 89 57 40 58 92 59 86 60 85 61 41 63 73 64 53 65
REMARK SMILES IDX 72 66 54 67 57 68 71 69 90 70 55 71 56 72 70 74 91 75 58 76
REMARK SMILES IDX 42 77 43 78 51 79 44 80 50 81 52 82 49 83 45 84 46 85 47 86
REMARK SMILES IDX 48 87 74 88 75 89 83 90 76 91 82 92 84 93 81 94 77 95 78 96
REMARK SMILES IDX 79 97 80 98 59 99 60 100 68 101 61 102 67 103 69 104 66 105
REMARK SMILES IDX 62 106 63 107 64 108 65 109
REMARK H PARENT 25 5 30 43 89 62 57 73
REMARK Flexibility Score: 90.00
ROOT
ATOM      1  C   UNL     1      -4.324  -9.863   0.230  1.00  0.00     0.116 C 
ENDROOT
BRANCH   1   2
ATOM      2  N   UNL     1      -3.085  -9.623   0.923  1.00  0.00    -0.352 N 
ATOM      3  C   UNL     1      -2.594  -8.412   1.328  1.00  0.00     0.250 C 
ATOM      4  O   UNL     1      -1.490  -8.340   1.854  1.00  0.00    -0.270 OA
ATOM      5  H   UNL     1      -2.534 -10.413   1.127  1.00  0.00     0.163 HD
BRANCH   3   6
ATOM      6  C   UNL     1      -3.421  -7.147   1.082  1.00  0.00     0.060 C 
ATOM      7  C   UNL     1      -3.069  -6.596  -0.143  1.00  0.00     0.020 C 
BRANCH   6   8
ATOM      8  C   UNL     1      -4.320  -6.860   2.427  1.00  0.00     0.253 C 
BRANCH   8   9
ATOM      9  C   UNL     1      -4.103  -5.538   3.651  1.00  0.00     0.233 C 
BRANCH   9  10
ATOM     10  C   UNL     1      -4.762  -3.853   3.952  1.00  0.00     0.115 C 
ATOM     11  C   UNL     1      -2.918  -3.251   5.705  1.00  0.00     0.021 C 
ATOM     12  C   UNL     1      -4.001  -3.019   4.952  1.00  0.00     0.041 C 
ATOM     13  C   UNL     1      -4.591  -1.661   5.017  1.00  0.00     0.334 C 
ATOM     14  O   UNL     1      -4.516  -0.901   5.966  1.00  0.00    -0.247 OA
ATOM     15  O   UNL     1      -5.219  -1.369   3.857  1.00  0.00    -0.455 OA
ATOM     16  C   UNL     1      -5.298  -2.500   2.939  1.00  0.00     0.220 CG0
ATOM     17  G   UNL     1      -4.726  -1.869   1.445  1.00  0.00     0.000 G0
ENDBRANCH   9  10
BRANCH   9  18
ATOM     18  O   UNL     1      -2.675  -5.519   3.823  1.00  0.00    -0.455 OA
BRANCH  18  19
ATOM     19  C   UNL     1      -1.967  -5.257   2.699  1.00  0.00     0.341 C 
ATOM     20  O   UNL     1      -0.793  -5.549   2.577  1.00  0.00    -0.249 OA
BRANCH  19  21
ATOM     21  C   UNL     1      -2.640  -4.381   1.664  1.00  0.00     0.188 C 
ATOM     22  O   UNL     1      -3.818  -3.872   1.985  1.00  0.00    -0.354 OA
ATOM     23  C   UNL     1      -4.550  -4.745   1.274  1.00  0.00     0.160 C 
ATOM     24  C   UNL     1      -1.763  -3.126   1.503  1.00  0.00     0.058 C 
ATOM     25  C   UNL     1      -6.010  -4.771   1.733  1.00  0.00     0.042 C 
ENDBRANCH  19  21
ENDBRANCH  18  19
ENDBRANCH   9  18
ENDBRANCH   8   9
BRANCH   8  26
ATOM     26  O   UNL     1      -5.704  -7.395   2.380  1.00  0.00    -0.453 OA
BRANCH  26  27
ATOM     27  C   UNL     1      -6.655  -7.666   1.461  1.00  0.00     0.303 C 
ATOM     28  C   UNL     1      -6.441  -7.467  -0.020  1.00  0.00     0.139 C 
ATOM     29  O   UNL     1      -7.752  -8.059   1.854  1.00  0.00    -0.253 OA
ENDBRANCH  26  27
ENDBRANCH   8  26
ENDBRANCH   6   8
BRANCH   7  30
ATOM     30  C   UNL     1      -3.306  -5.456  -1.186  1.00  0.00     0.174 C 
ATOM     31  O   UNL     1      -4.542  -4.821  -1.547  1.00  0.00    -0.362 OA
ATOM     32  C   UNL     1      -3.550  -3.863  -1.059  1.00  0.00     0.186 C 
BRANCH  32  33
ATOM     33  C   UNL     1      -4.122  -2.432  -0.169  1.00  0.00     0.125 C 
ATOM     34  C   UNL     1      -3.653  -1.226  -0.967  1.00  0.00     0.048 C 
ATOM     35  O   UNL     1      -5.465  -2.327   0.281  1.00  0.00    -0.359 OA
ATOM     36  C   UNL     1      -4.726  -1.869   1.445  1.00  0.00     0.195 CG0
ATOM     37  G   UNL     1      -5.298  -2.500   2.939  1.00  0.00     0.000 G0
ENDBRANCH  32  33
ENDBRANCH   7  30
ENDBRANCH   3   6
ENDBRANCH   1   2
BRANCH   1  38
ATOM     38  C   UNL     1      -4.698 -11.317  -0.013  1.00  0.00     0.023 C 
BRANCH  38  39
ATOM     39  C   UNL     1      -5.441 -11.998   1.143  1.00  0.00     0.023 C 
BRANCH  39  40
ATOM     40  C   UNL     1      -6.730 -11.328   1.633  1.00  0.00     0.116 C 
BRANCH  40  41
ATOM     41  N   UNL     1      -7.682 -11.035   0.570  1.00  0.00    -0.352 N 
ATOM     42  C   UNL     1      -9.031 -11.303   0.514  1.00  0.00     0.251 C 
ATOM     43  H   UNL     1      -7.308 -10.582  -0.220  1.00  0.00     0.163 HD
ATOM     44  O   UNL     1      -9.669 -11.038  -0.500  1.00  0.00    -0.269 OA
BRANCH  42  45
ATOM     45  C   UNL     1      -9.679 -11.973   1.658  1.00  0.00     0.039 A 
ATOM     46  C   UNL     1     -10.321 -13.195   1.444  1.00  0.00     0.014 A 
ATOM     47  C   UNL     1      -9.580 -11.435   2.943  1.00  0.00     0.014 A 
ATOM     48  C   UNL     1     -10.788 -13.925   2.538  1.00  0.00     0.010 A 
ATOM     49  C   UNL     1      -9.989 -12.197   4.037  1.00  0.00     0.010 A 
ATOM     50  C   UNL     1     -10.581 -13.457   3.847  1.00  0.00    -0.014 A 
BRANCH  50  51
ATOM     51  C   UNL     1     -10.947 -14.294   5.022  1.00  0.00     0.031 A 
ATOM     52  C   UNL     1     -11.999 -13.830   5.989  1.00  0.00     0.074 A 
ATOM     53  C   UNL     1     -10.276 -15.441   5.254  1.00  0.00     0.049 A 
ATOM     54  N   UNL     1     -12.418 -14.396   7.093  1.00  0.00    -0.248 NA
ATOM     55  C   UNL     1     -12.640 -12.542   5.692  1.00  0.00     0.031 C 
ATOM     56  C   UNL     1      -9.190 -15.966   4.423  1.00  0.00     0.029 A 
ATOM     57  N   UNL     1     -10.397 -16.367   6.261  1.00  0.00    -0.354 N 
ATOM     58  C   UNL     1     -13.359 -13.525   7.632  1.00  0.00     0.074 A 
ATOM     59  C   UNL     1     -13.399 -12.367   6.763  1.00  0.00     0.031 C 
ATOM     60  C   UNL     1      -8.758 -17.126   4.943  1.00  0.00     0.029 A 
ATOM     61  C   UNL     1      -9.505 -17.410   6.165  1.00  0.00     0.049 A 
ATOM     62  H   UNL     1     -11.061 -16.292   6.985  1.00  0.00     0.167 HD
ATOM     63  C   UNL     1     -14.131 -13.687   8.737  1.00  0.00     0.034 A 
ATOM     64  C   UNL     1      -9.299 -18.470   6.973  1.00  0.00     0.034 A 
ATOM     65  C   UNL     1     -14.079 -14.854   9.586  1.00  0.00     0.049 A 
ATOM     66  C   UNL     1     -10.168 -18.634   8.193  1.00  0.00     0.074 A 
ATOM     67  C   UNL     1     -14.870 -15.160  10.680  1.00  0.00     0.029 A 
ATOM     68  N   UNL     1     -13.174 -15.901   9.449  1.00  0.00    -0.354 N 
ATOM     69  N   UNL     1     -11.114 -17.843   8.646  1.00  0.00    -0.248 NA
ATOM     70  C   UNL     1      -9.953 -19.840   9.002  1.00  0.00     0.031 C 
ATOM     71  C   UNL     1     -14.394 -16.347  11.248  1.00  0.00     0.029 A 
ATOM     72  C   UNL     1     -13.361 -16.832  10.461  1.00  0.00     0.049 A 
ATOM     73  H   UNL     1     -12.499 -15.972   8.736  1.00  0.00     0.167 HD
ATOM     74  C   UNL     1     -11.622 -18.469   9.780  1.00  0.00     0.074 A 
ATOM     75  C   UNL     1     -10.889 -19.710   9.930  1.00  0.00     0.031 C 
ATOM     76  C   UNL     1     -12.610 -18.057  10.617  1.00  0.00     0.034 A 
BRANCH  63  77
ATOM     77  C   UNL     1     -15.066 -12.555   9.100  1.00  0.00     0.023 A 
ATOM     78  C   UNL     1     -16.086 -12.128   8.231  1.00  0.00     0.031 A 
ATOM     79  C   UNL     1     -14.907 -11.861  10.313  1.00  0.00     0.131 A 
ATOM     80  C   UNL     1     -16.839 -10.985   8.540  1.00  0.00     0.055 A 
ATOM     81  C   UNL     1     -15.722 -10.780  10.657  1.00  0.00     0.041 A 
ATOM     82  F   UNL     1     -13.941 -12.208  11.178  1.00  0.00    -0.206 F 
ATOM     83  C   UNL     1     -16.682 -10.323   9.759  1.00  0.00     0.022 A 
BRANCH  80  84
ATOM     84  S   UNL     1     -17.902 -10.276   7.252  1.00  0.00     0.124 S 
ATOM     85  O   UNL     1     -16.946 -10.052   6.170  1.00  0.00    -0.237 OA
ATOM     86  O   UNL     1     -18.880 -11.335   7.032  1.00  0.00    -0.237 OA
ATOM     87  O   UNL     1     -18.426  -9.059   7.870  1.00  0.00    -0.744 OA
ENDBRANCH  80  84
ENDBRANCH  63  77
BRANCH  64  88
ATOM     88  C   UNL     1      -8.218 -19.449   6.662  1.00  0.00     0.023 A 
ATOM     89  C   UNL     1      -8.513 -20.774   6.304  1.00  0.00     0.031 A 
ATOM     90  C   UNL     1      -6.865 -19.070   6.731  1.00  0.00     0.131 A 
ATOM     91  C   UNL     1      -7.469 -21.682   6.062  1.00  0.00     0.055 A 
ATOM     92  C   UNL     1      -5.832 -19.964   6.443  1.00  0.00     0.041 A 
ATOM     93  F   UNL     1      -6.529 -17.813   7.060  1.00  0.00    -0.206 F 
ATOM     94  C   UNL     1      -6.132 -21.282   6.115  1.00  0.00     0.022 A 
BRANCH  91  95
ATOM     95  S   UNL     1      -7.882 -23.417   5.729  1.00  0.00     0.124 S 
ATOM     96  O   UNL     1      -8.586 -23.795   6.949  1.00  0.00    -0.237 OA
ATOM     97  O   UNL     1      -8.698 -23.309   4.524  1.00  0.00    -0.237 OA
ATOM     98  O   UNL     1      -6.577 -24.047   5.539  1.00  0.00    -0.744 OA
ENDBRANCH  91  95
ENDBRANCH  64  88
BRANCH  76  99
ATOM     99  C   UNL     1     -12.977 -18.983  11.753  1.00  0.00     0.023 A 
ATOM    100  C   UNL     1     -12.083 -19.264  12.801  1.00  0.00     0.031 A 
ATOM    101  C   UNL     1     -14.241 -19.601  11.780  1.00  0.00     0.131 A 
ATOM    102  C   UNL     1     -12.442 -20.182  13.800  1.00  0.00     0.055 A 
ATOM    103  C   UNL     1     -14.616 -20.463  12.811  1.00  0.00     0.041 A 
ATOM    104  F   UNL     1     -15.134 -19.374  10.804  1.00  0.00    -0.206 F 
ATOM    105  C   UNL     1     -13.710 -20.769  13.822  1.00  0.00     0.022 A 
BRANCH 102 106
ATOM    106  S   UNL     1     -11.193 -20.679  15.018  1.00  0.00     0.124 S 
ATOM    107  O   UNL     1     -10.133 -21.208  14.167  1.00  0.00    -0.237 OA
ATOM    108  O   UNL     1     -10.899 -19.420  15.695  1.00  0.00    -0.237 OA
ATOM    109  O   UNL     1     -11.887 -21.674  15.835  1.00  0.00    -0.744 OA
ENDBRANCH 102 106
ENDBRANCH  76  99
ENDBRANCH  50  51
ENDBRANCH  42  45
ENDBRANCH  40  41
ENDBRANCH  39  40
ENDBRANCH  38  39
ENDBRANCH   1  38
TORSDOF 19
