REMARK SMILES Cc1nc(C(F)(F)F)c(C(=O)NCCCCNC(=O)c2ccc(-c3c4nc(c(-c5cc(S(=O)(=O)[O-])ccc5F)c5ccc([nH]5)c(-c5cc(S(=O)(=O)[O-])ccc5F)c5nc(c(-c6cc(S(=O)(=O)[O-])ccc6F)c6ccc3[nH]6)C=C5)C=C4)cc2)s1
REMARK SMILES IDX 15 1 14 2 13 3 12 4 10 5 11 6 9 8 1 9 2 10 3 11 83 12 4 13
REMARK SMILES IDX 5 14 6 15 7 16 8 17 16 18 17 19 18 20 19 22 20 23 21 24
REMARK SMILES IDX 82 25 22 26 81 27 23 28 24 29 25 30 75 31 26 32 80 33 74 34
REMARK SMILES IDX 76 35 27 36 79 37 73 38 72 39 28 41 60 42 40 43 59 44 41 45
REMARK SMILES IDX 44 46 58 47 77 48 42 49 43 50 57 52 78 53 45 54 29 55 30 56
REMARK SMILES IDX 38 57 31 58 37 59 39 60 36 61 32 62 33 63 34 64 35 65 61 66
REMARK SMILES IDX 62 67 70 68 63 69 69 70 71 71 68 72 64 73 65 74 66 75 67 76
REMARK SMILES IDX 46 77 47 78 55 79 48 80 54 81 56 82 53 83 49 84 50 85 51 86
REMARK SMILES IDX 52 87
REMARK H PARENT 12 7 17 21 76 40 44 51
REMARK Flexibility Score: inf
ROOT
ATOM      1  C   UNL     1       5.928  -2.478  -1.568  1.00  0.00     0.023 C 
ENDROOT
BRANCH   1   2
ATOM      2  C   UNL     1       4.439  -2.471  -1.217  1.00  0.00     0.023 C 
BRANCH   2   3
ATOM      3  C   UNL     1       4.102  -1.803   0.116  1.00  0.00     0.116 C 
BRANCH   3   4
ATOM      4  N   UNL     1       3.728  -0.423  -0.069  1.00  0.00    -0.351 N 
ATOM      5  C   UNL     1       2.572   0.299  -0.142  1.00  0.00     0.263 C 
ATOM      6  O   UNL     1       2.816   1.504  -0.305  1.00  0.00    -0.268 OA
ATOM      7  H   UNL     1       4.519   0.153  -0.170  1.00  0.00     0.163 HD
BRANCH   5   8
ATOM      8  C   UNL     1       1.194  -0.190  -0.043  1.00  0.00     0.124 A 
ATOM      9  C   UNL     1      -2.682   0.495   0.046  1.00  0.00     0.079 C 
ATOM     10  C   UNL     1      -1.274   0.019   0.046  1.00  0.00     0.091 A 
ATOM     11  N   UNL     1      -0.923  -1.237   0.078  1.00  0.00    -0.236 NA
ATOM     12  S   UNL     1       0.012   1.119  -0.007  1.00  0.00    -0.113 S 
ATOM     13  C   UNL     1       0.480  -1.393   0.014  1.00  0.00     0.168 A 
BRANCH  13  14
ATOM     14  C   UNL     1       0.939  -2.817  -0.007  1.00  0.00     0.435 C 
ATOM     15  F   UNL     1       1.817  -3.060  -1.008  1.00  0.00    -0.164 F 
ATOM     16  F   UNL     1       1.518  -3.189   1.164  1.00  0.00    -0.164 F 
ATOM     17  F   UNL     1      -0.086  -3.695  -0.202  1.00  0.00    -0.164 F 
ENDBRANCH  13  14
ENDBRANCH   5   8
ENDBRANCH   3   4
ENDBRANCH   2   3
ENDBRANCH   1   2
BRANCH   1  18
ATOM     18  C   UNL     1       6.820  -3.225  -0.580  1.00  0.00     0.116 C 
BRANCH  18  19
ATOM     19  N   UNL     1       6.391  -4.589  -0.309  1.00  0.00    -0.352 N 
ATOM     20  C   UNL     1       7.169  -5.674   0.038  1.00  0.00     0.251 C 
ATOM     21  H   UNL     1       5.424  -4.759  -0.384  1.00  0.00     0.163 HD
ATOM     22  O   UNL     1       6.671  -6.780   0.159  1.00  0.00    -0.269 OA
BRANCH  20  23
ATOM     23  C   UNL     1       8.624  -5.471   0.204  1.00  0.00     0.039 A 
ATOM     24  C   UNL     1       9.501  -6.270  -0.531  1.00  0.00     0.014 A 
ATOM     25  C   UNL     1       9.106  -4.441   1.015  1.00  0.00     0.014 A 
ATOM     26  C   UNL     1      10.866  -5.979  -0.518  1.00  0.00     0.010 A 
ATOM     27  C   UNL     1      10.455  -4.109   0.969  1.00  0.00     0.010 A 
ATOM     28  C   UNL     1      11.347  -4.868   0.194  1.00  0.00    -0.014 A 
BRANCH  28  29
ATOM     29  C   UNL     1      12.777  -4.472   0.136  1.00  0.00     0.031 A 
ATOM     30  C   UNL     1      13.613  -4.500   1.384  1.00  0.00     0.074 A 
ATOM     31  C   UNL     1      13.293  -4.008  -1.019  1.00  0.00     0.049 A 
ATOM     32  N   UNL     1      14.846  -4.105   1.565  1.00  0.00    -0.248 NA
ATOM     33  C   UNL     1      12.957  -5.004   2.599  1.00  0.00     0.031 C 
ATOM     34  C   UNL     1      12.562  -3.881  -2.283  1.00  0.00     0.029 A 
ATOM     35  N   UNL     1      14.549  -3.544  -1.316  1.00  0.00    -0.354 N 
ATOM     36  C   UNL     1      15.108  -4.290   2.918  1.00  0.00     0.074 A 
ATOM     37  C   UNL     1      13.882  -4.773   3.518  1.00  0.00     0.031 C 
ATOM     38  C   UNL     1      13.390  -3.397  -3.223  1.00  0.00     0.029 A 
ATOM     39  C   UNL     1      14.695  -3.142  -2.623  1.00  0.00     0.049 A 
ATOM     40  H   UNL     1      15.277  -3.503  -0.655  1.00  0.00     0.167 HD
ATOM     41  C   UNL     1      16.270  -4.100   3.591  1.00  0.00     0.034 A 
ATOM     42  C   UNL     1      15.760  -2.619  -3.263  1.00  0.00     0.034 A 
ATOM     43  C   UNL     1      17.488  -3.639   2.970  1.00  0.00     0.049 A 
ATOM     44  C   UNL     1      17.042  -2.419  -2.498  1.00  0.00     0.074 A 
ATOM     45  C   UNL     1      18.740  -3.478   3.537  1.00  0.00     0.029 A 
ATOM     46  N   UNL     1      17.605  -3.258   1.639  1.00  0.00    -0.354 N 
ATOM     47  N   UNL     1      17.293  -2.654  -1.230  1.00  0.00    -0.248 NA
ATOM     48  C   UNL     1      18.186  -1.893  -3.253  1.00  0.00     0.031 C 
ATOM     49  C   UNL     1      19.597  -2.947   2.566  1.00  0.00     0.029 A 
ATOM     50  C   UNL     1      18.899  -2.838   1.374  1.00  0.00     0.049 A 
ATOM     51  H   UNL     1      16.874  -3.283   0.979  1.00  0.00     0.167 HD
ATOM     52  C   UNL     1      18.633  -2.329  -1.044  1.00  0.00     0.074 A 
ATOM     53  C   UNL     1      19.138  -1.894  -2.330  1.00  0.00     0.031 C 
ATOM     54  C   UNL     1      19.381  -2.392   0.087  1.00  0.00     0.034 A 
BRANCH  41  55
ATOM     55  C   UNL     1      16.256  -4.369   5.078  1.00  0.00     0.023 A 
ATOM     56  C   UNL     1      15.970  -5.646   5.593  1.00  0.00     0.031 A 
ATOM     57  C   UNL     1      16.474  -3.325   5.994  1.00  0.00     0.131 A 
ATOM     58  C   UNL     1      15.813  -5.825   6.975  1.00  0.00     0.055 A 
ATOM     59  C   UNL     1      16.405  -3.531   7.374  1.00  0.00     0.041 A 
ATOM     60  F   UNL     1      16.733  -2.080   5.564  1.00  0.00    -0.206 F 
ATOM     61  C   UNL     1      16.053  -4.782   7.872  1.00  0.00     0.022 A 
BRANCH  58  62
ATOM     62  S   UNL     1      15.124  -7.395   7.568  1.00  0.00     0.124 S 
ATOM     63  O   UNL     1      13.842  -7.436   6.869  1.00  0.00    -0.237 OA
ATOM     64  O   UNL     1      16.122  -8.363   7.129  1.00  0.00    -0.237 OA
ATOM     65  O   UNL     1      15.031  -7.204   9.014  1.00  0.00    -0.744 OA
ENDBRANCH  58  62
ENDBRANCH  41  55
BRANCH  42  66
ATOM     66  C   UNL     1      15.666  -2.252  -4.703  1.00  0.00     0.023 A 
ATOM     67  C   UNL     1      16.390  -2.961  -5.675  1.00  0.00     0.031 A 
ATOM     68  C   UNL     1      14.873  -1.171  -5.126  1.00  0.00     0.131 A 
ATOM     69  C   UNL     1      16.337  -2.557  -7.018  1.00  0.00     0.055 A 
ATOM     70  C   UNL     1      14.790  -0.801  -6.469  1.00  0.00     0.041 A 
ATOM     71  F   UNL     1      14.153  -0.469  -4.237  1.00  0.00    -0.206 F 
ATOM     72  C   UNL     1      15.534  -1.489  -7.423  1.00  0.00     0.022 A 
BRANCH  69  73
ATOM     73  S   UNL     1      17.385  -3.416  -8.224  1.00  0.00     0.124 S 
ATOM     74  O   UNL     1      18.719  -3.173  -7.686  1.00  0.00    -0.237 OA
ATOM     75  O   UNL     1      16.894  -4.787  -8.129  1.00  0.00    -0.237 OA
ATOM     76  O   UNL     1      17.084  -2.735  -9.481  1.00  0.00    -0.744 OA
ENDBRANCH  69  73
ENDBRANCH  42  66
BRANCH  54  77
ATOM     77  C   UNL     1      20.836  -2.017  -0.038  1.00  0.00     0.023 A 
ATOM     78  C   UNL     1      21.239  -0.694  -0.292  1.00  0.00     0.031 A 
ATOM     79  C   UNL     1      21.831  -3.002   0.085  1.00  0.00     0.131 A 
ATOM     80  C   UNL     1      22.600  -0.401  -0.465  1.00  0.00     0.055 A 
ATOM     81  C   UNL     1      23.187  -2.695  -0.035  1.00  0.00     0.041 A 
ATOM     82  F   UNL     1      21.500  -4.281   0.325  1.00  0.00    -0.206 F 
ATOM     83  C   UNL     1      23.577  -1.390  -0.324  1.00  0.00     0.022 A 
BRANCH  80  84
ATOM     84  S   UNL     1      23.073   1.278  -0.961  1.00  0.00     0.124 S 
ATOM     85  O   UNL     1      22.358   1.435  -2.224  1.00  0.00    -0.237 OA
ATOM     86  O   UNL     1      22.583   2.083   0.153  1.00  0.00    -0.237 OA
ATOM     87  O   UNL     1      24.529   1.205  -1.078  1.00  0.00    -0.744 OA
ENDBRANCH  80  84
ENDBRANCH  54  77
ENDBRANCH  28  29
ENDBRANCH  20  23
ENDBRANCH  18  19
ENDBRANCH   1  18
TORSDOF 15
