REMARK SMILES COc1ccc(N2C(=O)/C(=C\c3ccc(-c4ccc(Cl)c(C(=O)NCCCCNC(=O)c5ccc(-c6c7nc(c(-c8cc(S(=O)(=O)[O-])ccc8F)c8ccc([nH]8)c(-c8cc(S(=O)(=O)[O-])ccc8F)c8nc(c(-c9cc(S(=O)(=O)[O-])ccc9F)c9ccc6[nH]9)C=C8)C=C7)cc5)c4)o3)SC2=S)cc1
REMARK SMILES IDX 26 1 25 2 24 3 22 4 23 5 21 7 16 8 17 9 95 10 18 11 19 12
REMARK SMILES IDX 20 13 15 14 12 15 13 16 96 17 14 18 11 19 7 20 8 21 98 22
REMARK SMILES IDX 9 23 10 24 97 25 99 26 6 27 3 28 4 29 101 30 5 31 100 32
REMARK SMILES IDX 2 33 1 34 27 35 28 36 29 37 30 38 31 40 32 41 33 42 94 43
REMARK SMILES IDX 34 44 93 45 35 46 36 47 37 48 87 49 38 50 92 51 86 52 88 53
REMARK SMILES IDX 39 54 91 55 85 56 84 57 40 59 72 60 52 61 71 62 53 63 56 64
REMARK SMILES IDX 70 65 89 66 54 67 55 68 69 70 90 71 57 72 41 73 42 74 50 75
REMARK SMILES IDX 43 76 49 77 51 78 48 79 44 80 45 81 46 82 47 83 73 84 74 85
REMARK SMILES IDX 82 86 75 87 81 88 83 89 80 90 76 91 77 92 78 93 79 94 58 95
REMARK SMILES IDX 59 96 67 97 60 98 66 99 68 100 65 101 61 102 62 103 63 104
REMARK SMILES IDX 64 105
REMARK H PARENT 24 6 29 39 88 58 56 69
REMARK Flexibility Score: inf
ROOT
ATOM      1  C   UNL     1       0.503 -13.510   6.161  1.00  0.00     0.023 C 
ENDROOT
BRANCH   1   2
ATOM      2  C   UNL     1      -0.594 -12.708   5.474  1.00  0.00     0.116 C 
BRANCH   2   3
ATOM      3  N   UNL     1      -1.937 -13.269   5.573  1.00  0.00    -0.352 N 
ATOM      4  C   UNL     1      -3.161 -12.682   5.851  1.00  0.00     0.252 C 
ATOM      5  O   UNL     1      -4.173 -13.370   5.752  1.00  0.00    -0.269 OA
ATOM      6  H   UNL     1      -1.981 -14.239   5.415  1.00  0.00     0.163 HD
BRANCH   4   7
ATOM      7  C   UNL     1      -3.262 -11.258   6.273  1.00  0.00     0.059 A 
ATOM      8  C   UNL     1      -2.204  -9.068   6.229  1.00  0.00     0.018 A 
ATOM      9  C   UNL     1      -3.010  -8.655   7.289  1.00  0.00     0.013 A 
ATOM     10  C   UNL     1      -2.443 -10.316   5.645  1.00  0.00     0.027 A 
ATOM     11  C   UNL     1      -3.986  -9.516   7.797  1.00  0.00     0.022 A 
ATOM     12  C   UNL     1      -4.087 -10.833   7.323  1.00  0.00     0.053 A 
ATOM     13  Cl  UNL     1      -5.208 -11.861   8.140  1.00  0.00    -0.083 Cl
BRANCH   8  14
ATOM     14  C   UNL     1      -1.012  -8.341   5.822  1.00  0.00     0.134 A 
ATOM     15  C   UNL     1       0.850  -7.233   6.301  1.00  0.00     0.128 A 
ATOM     16  C   UNL     1       0.912  -7.616   4.966  1.00  0.00     0.051 A 
ATOM     17  O   UNL     1      -0.331  -7.705   6.819  1.00  0.00    -0.457 OA
ATOM     18  C   UNL     1      -0.283  -8.295   4.655  1.00  0.00     0.051 A 
BRANCH  15  19
ATOM     19  C   UNL     1       1.807  -6.507   7.056  1.00  0.00     0.068 C 
ATOM     20  N   UNL     1       2.232  -3.229   5.517  1.00  0.00    -0.261 N 
ATOM     21  C   UNL     1       1.477  -4.377   5.732  1.00  0.00     0.270 C 
ATOM     22  C   UNL     1       3.319  -3.040   6.356  1.00  0.00     0.152 C 
ATOM     23  O   UNL     1       0.425  -4.670   5.176  1.00  0.00    -0.268 OA
ATOM     24  C   UNL     1       2.130  -5.241   6.755  1.00  0.00     0.084 C 
ATOM     25  S   UNL     1       3.444  -4.400   7.479  1.00  0.00    -0.054 SA
ATOM     26  S   UNL     1       4.362  -1.738   6.480  1.00  0.00    -0.051 S 
BRANCH  20  27
ATOM     27  C   UNL     1       1.834  -2.337   4.478  1.00  0.00     0.051 A 
ATOM     28  C   UNL     1       0.976  -0.731   2.330  1.00  0.00     0.119 A 
ATOM     29  C   UNL     1       0.076  -1.124   3.317  1.00  0.00     0.048 A 
ATOM     30  C   UNL     1       2.311  -1.124   2.424  1.00  0.00     0.048 A 
ATOM     31  C   UNL     1       0.495  -1.936   4.371  1.00  0.00     0.030 A 
ATOM     32  C   UNL     1       2.739  -1.919   3.496  1.00  0.00     0.030 A 
BRANCH  28  33
ATOM     33  O   UNL     1       0.450   0.060   1.347  1.00  0.00    -0.497 OA
ATOM     34  C   UNL     1       1.083  -0.036   0.076  1.00  0.00     0.278 C 
ENDBRANCH  28  33
ENDBRANCH  20  27
ENDBRANCH  15  19
ENDBRANCH   8  14
ENDBRANCH   4   7
ENDBRANCH   2   3
ENDBRANCH   1   2
BRANCH   1  35
ATOM     35  C   UNL     1       0.761 -14.912   5.628  1.00  0.00     0.023 C 
BRANCH  35  36
ATOM     36  C   UNL     1       0.979 -15.037   4.125  1.00  0.00     0.116 C 
BRANCH  36  37
ATOM     37  N   UNL     1       2.057 -14.207   3.612  1.00  0.00    -0.352 N 
ATOM     38  C   UNL     1       3.085 -14.533   2.756  1.00  0.00     0.251 C 
ATOM     39  H   UNL     1       2.051 -13.273   3.922  1.00  0.00     0.163 HD
ATOM     40  O   UNL     1       3.949 -13.695   2.511  1.00  0.00    -0.269 OA
BRANCH  38  41
ATOM     41  C   UNL     1       3.175 -15.892   2.170  1.00  0.00     0.039 A 
ATOM     42  C   UNL     1       4.423 -16.519   2.108  1.00  0.00     0.014 A 
ATOM     43  C   UNL     1       2.044 -16.552   1.686  1.00  0.00     0.014 A 
ATOM     44  C   UNL     1       4.524 -17.825   1.619  1.00  0.00     0.010 A 
ATOM     45  C   UNL     1       2.130 -17.884   1.290  1.00  0.00     0.010 A 
ATOM     46  C   UNL     1       3.373 -18.531   1.232  1.00  0.00    -0.014 A 
BRANCH  46  47
ATOM     47  C   UNL     1       3.462 -19.927   0.724  1.00  0.00     0.031 A 
ATOM     48  C   UNL     1       3.032 -20.242  -0.686  1.00  0.00     0.074 A 
ATOM     49  C   UNL     1       3.873 -20.917   1.540  1.00  0.00     0.049 A 
ATOM     50  N   UNL     1       2.999 -21.393  -1.308  1.00  0.00    -0.248 NA
ATOM     51  C   UNL     1       2.531 -19.116  -1.487  1.00  0.00     0.031 C 
ATOM     52  C   UNL     1       4.247 -20.752   2.946  1.00  0.00     0.029 A 
ATOM     53  N   UNL     1       4.039 -22.259   1.309  1.00  0.00    -0.354 N 
ATOM     54  C   UNL     1       2.455 -21.132  -2.562  1.00  0.00     0.074 A 
ATOM     55  C   UNL     1       2.100 -19.729  -2.576  1.00  0.00     0.031 C 
ATOM     56  C   UNL     1       4.625 -21.941   3.443  1.00  0.00     0.029 A 
ATOM     57  C   UNL     1       4.490 -22.958   2.405  1.00  0.00     0.049 A 
ATOM     58  H   UNL     1       3.853 -22.683   0.440  1.00  0.00     0.167 HD
ATOM     59  C   UNL     1       2.294 -21.974  -3.614  1.00  0.00     0.034 A 
ATOM     60  C   UNL     1       4.765 -24.269   2.556  1.00  0.00     0.034 A 
ATOM     61  C   UNL     1       2.672 -23.366  -3.584  1.00  0.00     0.049 A 
ATOM     62  C   UNL     1       4.613 -25.184   1.369  1.00  0.00     0.074 A 
ATOM     63  C   UNL     1       2.621 -24.298  -4.606  1.00  0.00     0.029 A 
ATOM     64  N   UNL     1       3.166 -24.032  -2.467  1.00  0.00    -0.354 N 
ATOM     65  N   UNL     1       4.171 -24.909   0.163  1.00  0.00    -0.248 NA
ATOM     66  C   UNL     1       5.024 -26.580   1.556  1.00  0.00     0.031 C 
ATOM     67  C   UNL     1       3.017 -25.538  -4.090  1.00  0.00     0.029 A 
ATOM     68  C   UNL     1       3.397 -25.366  -2.768  1.00  0.00     0.049 A 
ATOM     69  H   UNL     1       3.328 -23.616  -1.590  1.00  0.00     0.167 HD
ATOM     70  C   UNL     1       4.280 -26.093  -0.562  1.00  0.00     0.074 A 
ATOM     71  C   UNL     1       4.847 -27.076   0.340  1.00  0.00     0.031 C 
ATOM     72  C   UNL     1       3.949 -26.343  -1.856  1.00  0.00     0.034 A 
BRANCH  59  73
ATOM     73  C   UNL     1       1.658 -21.404  -4.864  1.00  0.00     0.023 A 
ATOM     74  C   UNL     1       2.228 -20.320  -5.558  1.00  0.00     0.031 A 
ATOM     75  C   UNL     1       0.430 -21.904  -5.332  1.00  0.00     0.131 A 
ATOM     76  C   UNL     1       1.524 -19.706  -6.605  1.00  0.00     0.055 A 
ATOM     77  C   UNL     1      -0.218 -21.351  -6.440  1.00  0.00     0.041 A 
ATOM     78  F   UNL     1      -0.178 -22.923  -4.706  1.00  0.00    -0.206 F 
ATOM     79  C   UNL     1       0.317 -20.230  -7.069  1.00  0.00     0.022 A 
BRANCH  76  80
ATOM     80  S   UNL     1       2.115 -18.104  -7.219  1.00  0.00     0.124 S 
ATOM     81  O   UNL     1       2.122 -17.304  -5.996  1.00  0.00    -0.237 OA
ATOM     82  O   UNL     1       3.422 -18.439  -7.771  1.00  0.00    -0.237 OA
ATOM     83  O   UNL     1       1.102 -17.717  -8.200  1.00  0.00    -0.744 OA
ENDBRANCH  76  80
ENDBRANCH  59  73
BRANCH  60  84
ATOM     84  C   UNL     1       5.224 -24.790   3.875  1.00  0.00     0.023 A 
ATOM     85  C   UNL     1       6.527 -25.284   4.051  1.00  0.00     0.031 A 
ATOM     86  C   UNL     1       4.356 -24.811   4.981  1.00  0.00     0.131 A 
ATOM     87  C   UNL     1       6.914 -25.812   5.293  1.00  0.00     0.055 A 
ATOM     88  C   UNL     1       4.760 -25.295   6.227  1.00  0.00     0.041 A 
ATOM     89  F   UNL     1       3.104 -24.341   4.870  1.00  0.00    -0.206 F 
ATOM     90  C   UNL     1       6.043 -25.809   6.385  1.00  0.00     0.022 A 
BRANCH  87  91
ATOM     91  S   UNL     1       8.561 -26.556   5.449  1.00  0.00     0.124 S 
ATOM     92  O   UNL     1       8.497 -27.630   4.465  1.00  0.00    -0.237 OA
ATOM     93  O   UNL     1       9.434 -25.434   5.119  1.00  0.00    -0.237 OA
ATOM     94  O   UNL     1       8.608 -26.988   6.844  1.00  0.00    -0.744 OA
ENDBRANCH  87  91
ENDBRANCH  60  84
BRANCH  72  95
ATOM     95  C   UNL     1       4.241 -27.729  -2.381  1.00  0.00     0.023 A 
ATOM     96  C   UNL     1       3.593 -28.869  -1.874  1.00  0.00     0.031 A 
ATOM     97  C   UNL     1       5.207 -27.913  -3.387  1.00  0.00     0.131 A 
ATOM     98  C   UNL     1       3.970 -30.145  -2.320  1.00  0.00     0.055 A 
ATOM     99  C   UNL     1       5.527 -29.180  -3.878  1.00  0.00     0.041 A 
ATOM    100  F   UNL     1       5.861 -26.863  -3.908  1.00  0.00    -0.206 F 
ATOM    101  C   UNL     1       4.920 -30.306  -3.331  1.00  0.00     0.022 A 
BRANCH  98 102
ATOM    102  S   UNL     1       3.293 -31.599  -1.472  1.00  0.00     0.124 S 
ATOM    103  O   UNL     1       3.654 -31.336  -0.083  1.00  0.00    -0.237 OA
ATOM    104  O   UNL     1       1.872 -31.511  -1.790  1.00  0.00    -0.237 OA
ATOM    105  O   UNL     1       3.999 -32.718  -2.094  1.00  0.00    -0.744 OA
ENDBRANCH  98 102
ENDBRANCH  72  95
ENDBRANCH  46  47
ENDBRANCH  38  41
ENDBRANCH  36  37
ENDBRANCH  35  36
ENDBRANCH   1  35
TORSDOF 18
