REMARK SMILES C[C@H]1CN(C(=O)Nc2ccc(C(=O)NCCCCNC(=O)c3ccc(-c4c5nc(c(-c6cc(S(=O)(=O)[O-])ccc6F)c6ccc([nH]6)c(-c6cc(S(=O)(=O)[O-])ccc6F)c6nc(c(-c7cc(S(=O)(=O)[O-])ccc7F)c7ccc4[nH]7)C=C6)C=C5)cc3)cc2Br)C[C@@H]1C
REMARK SMILES IDX 17 1 16 2 15 3 14 4 12 5 13 6 11 8 8 9 9 10 86 11 10 12
REMARK SMILES IDX 85 13 87 14 7 15 1 16 2 17 3 18 89 19 4 20 88 21 90 22 5 23
REMARK SMILES IDX 6 24 18 26 19 27 20 28 21 30 22 31 23 32 84 33 24 34 83 35
REMARK SMILES IDX 25 36 26 37 27 38 77 39 28 40 82 41 76 42 78 43 29 44 81 45
REMARK SMILES IDX 75 46 74 47 30 49 62 50 42 51 61 52 43 53 46 54 60 55 79 56
REMARK SMILES IDX 44 57 45 58 59 60 80 61 47 62 31 63 32 64 40 65 33 66 39 67
REMARK SMILES IDX 41 68 38 69 34 70 35 71 36 72 37 73 63 74 64 75 72 76 65 77
REMARK SMILES IDX 71 78 73 79 70 80 66 81 67 82 68 83 69 84 48 85 49 86 57 87
REMARK SMILES IDX 50 88 56 89 58 90 55 91 51 92 52 93 53 94 54 95
REMARK H PARENT 14 7 7 25 19 29 78 48 46 59
REMARK Flexibility Score: inf
ROOT
ATOM      1  C   UNL     1       6.957   3.227  -1.250  1.00  0.00     0.023 C 
ENDROOT
BRANCH   1   2
ATOM      2  C   UNL     1       5.493   3.184  -1.690  1.00  0.00     0.023 C 
BRANCH   2   3
ATOM      3  C   UNL     1       4.499   2.949  -0.551  1.00  0.00     0.116 C 
BRANCH   3   4
ATOM      4  N   UNL     1       4.353   4.143   0.267  1.00  0.00    -0.352 N 
ATOM      5  C   UNL     1       3.372   5.103   0.300  1.00  0.00     0.251 C 
ATOM      6  O   UNL     1       3.436   6.000   1.138  1.00  0.00    -0.269 OA
ATOM      7  H   UNL     1       5.086   4.288   0.908  1.00  0.00     0.163 HD
BRANCH   5   8
ATOM      8  C   UNL     1       2.184   5.031  -0.585  1.00  0.00     0.041 A 
ATOM      9  C   UNL     1      -0.166   4.536  -2.006  1.00  0.00     0.057 A 
ATOM     10  C   UNL     1      -0.234   5.122  -0.741  1.00  0.00     0.028 A 
ATOM     11  C   UNL     1       1.078   4.388  -2.636  1.00  0.00     0.042 A 
ATOM     12  C   UNL     1       0.941   5.340  -0.020  1.00  0.00     0.016 A 
ATOM     13  C   UNL     1       2.251   4.658  -1.928  1.00  0.00     0.031 A 
ATOM     14  Br  UNL     1       1.251   3.818  -4.441  1.00  0.00    -0.049 Br
BRANCH   9  15
ATOM     15  N   UNL     1      -1.370   4.083  -2.552  1.00  0.00    -0.307 N 
ATOM     16  C   UNL     1       1.351  -0.366  -2.299  1.00  0.00     0.010 C 
ATOM     17  C   UNL     1       0.213   0.075  -1.374  1.00  0.00     0.010 C 
ATOM     18  C   UNL     1      -0.057   1.577  -1.503  1.00  0.00     0.125 C 
ATOM     19  C   UNL     1      -1.130  -0.545  -1.779  1.00  0.00     0.010 C 
ATOM     20  N   UNL     1      -1.095   1.716  -2.522  1.00  0.00    -0.324 N 
ATOM     21  C   UNL     1      -1.629   0.406  -2.873  1.00  0.00     0.125 C 
ATOM     22  C   UNL     1      -2.097  -0.591  -0.593  1.00  0.00     0.010 C 
ATOM     23  C   UNL     1      -1.734   2.842  -2.980  1.00  0.00     0.321 C 
ATOM     24  O   UNL     1      -2.744   2.768  -3.688  1.00  0.00    -0.248 OA
ATOM     25  H   UNL     1      -2.068   4.772  -2.642  1.00  0.00     0.171 HD
ENDBRANCH   9  15
ENDBRANCH   5   8
ENDBRANCH   3   4
ENDBRANCH   2   3
ENDBRANCH   1   2
BRANCH   1  26
ATOM     26  C   UNL     1       7.502   1.920  -0.686  1.00  0.00     0.116 C 
BRANCH  26  27
ATOM     27  N   UNL     1       7.410   0.812  -1.624  1.00  0.00    -0.352 N 
ATOM     28  C   UNL     1       8.316  -0.196  -1.860  1.00  0.00     0.251 C 
ATOM     29  H   UNL     1       6.587   0.779  -2.164  1.00  0.00     0.163 HD
ATOM     30  O   UNL     1       8.126  -0.984  -2.777  1.00  0.00    -0.269 OA
BRANCH  28  31
ATOM     31  C   UNL     1       9.534  -0.288  -1.025  1.00  0.00     0.039 A 
ATOM     32  C   UNL     1      10.771  -0.450  -1.654  1.00  0.00     0.014 A 
ATOM     33  C   UNL     1       9.458  -0.182   0.366  1.00  0.00     0.014 A 
ATOM     34  C   UNL     1      11.940  -0.432  -0.891  1.00  0.00     0.010 A 
ATOM     35  C   UNL     1      10.627  -0.092   1.115  1.00  0.00     0.010 A 
ATOM     36  C   UNL     1      11.880  -0.215   0.494  1.00  0.00    -0.014 A 
BRANCH  36  37
ATOM     37  C   UNL     1      13.114  -0.109   1.313  1.00  0.00     0.031 A 
ATOM     38  C   UNL     1      13.393  -1.121   2.389  1.00  0.00     0.074 A 
ATOM     39  C   UNL     1      13.935   0.947   1.147  1.00  0.00     0.049 A 
ATOM     40  N   UNL     1      14.363  -1.154   3.266  1.00  0.00    -0.248 NA
ATOM     41  C   UNL     1      12.425  -2.219   2.519  1.00  0.00     0.031 C 
ATOM     42  C   UNL     1      13.732   2.030   0.181  1.00  0.00     0.029 A 
ATOM     43  N   UNL     1      15.091   1.295   1.798  1.00  0.00    -0.354 N 
ATOM     44  C   UNL     1      14.114  -2.265   4.064  1.00  0.00     0.074 A 
ATOM     45  C   UNL     1      12.862  -2.833   3.607  1.00  0.00     0.031 C 
ATOM     46  C   UNL     1      14.732   2.917   0.301  1.00  0.00     0.029 A 
ATOM     47  C   UNL     1      15.626   2.488   1.372  1.00  0.00     0.049 A 
ATOM     48  H   UNL     1      15.498   0.743   2.504  1.00  0.00     0.167 HD
ATOM     49  C   UNL     1      14.870  -2.778   5.068  1.00  0.00     0.034 A 
ATOM     50  C   UNL     1      16.705   3.169   1.806  1.00  0.00     0.034 A 
ATOM     51  C   UNL     1      16.119  -2.199   5.502  1.00  0.00     0.049 A 
ATOM     52  C   UNL     1      17.539   2.583   2.914  1.00  0.00     0.074 A 
ATOM     53  C   UNL     1      17.007  -2.672   6.452  1.00  0.00     0.029 A 
ATOM     54  N   UNL     1      16.652  -1.007   5.022  1.00  0.00    -0.354 N 
ATOM     55  N   UNL     1      17.335   1.487   3.608  1.00  0.00    -0.248 NA
ATOM     56  C   UNL     1      18.756   3.316   3.284  1.00  0.00     0.031 C 
ATOM     57  C   UNL     1      18.038  -1.736   6.595  1.00  0.00     0.029 A 
ATOM     58  C   UNL     1      17.837  -0.713   5.681  1.00  0.00     0.049 A 
ATOM     59  H   UNL     1      16.247  -0.452   4.317  1.00  0.00     0.167 HD
ATOM     60  C   UNL     1      18.411   1.389   4.486  1.00  0.00     0.074 A 
ATOM     61  C   UNL     1      19.267   2.528   4.220  1.00  0.00     0.031 C 
ATOM     62  C   UNL     1      18.669   0.441   5.423  1.00  0.00     0.034 A 
BRANCH  49  63
ATOM     63  C   UNL     1      14.339  -4.007   5.771  1.00  0.00     0.023 A 
ATOM     64  C   UNL     1      14.095  -5.206   5.078  1.00  0.00     0.031 A 
ATOM     65  C   UNL     1      14.009  -3.963   7.137  1.00  0.00     0.131 A 
ATOM     66  C   UNL     1      13.440  -6.268   5.720  1.00  0.00     0.055 A 
ATOM     67  C   UNL     1      13.446  -5.059   7.795  1.00  0.00     0.041 A 
ATOM     68  F   UNL     1      14.200  -2.843   7.852  1.00  0.00    -0.206 F 
ATOM     69  C   UNL     1      13.137  -6.213   7.081  1.00  0.00     0.022 A 
BRANCH  66  70
ATOM     70  S   UNL     1      12.821  -7.639   4.705  1.00  0.00     0.124 S 
ATOM     71  O   UNL     1      11.976  -6.935   3.742  1.00  0.00    -0.237 OA
ATOM     72  O   UNL     1      14.050  -8.217   4.173  1.00  0.00    -0.237 OA
ATOM     73  O   UNL     1      12.098  -8.475   5.661  1.00  0.00    -0.744 OA
ENDBRANCH  66  70
ENDBRANCH  49  63
BRANCH  50  74
ATOM     74  C   UNL     1      17.044   4.486   1.199  1.00  0.00     0.023 A 
ATOM     75  C   UNL     1      18.188   4.650   0.404  1.00  0.00     0.031 A 
ATOM     76  C   UNL     1      16.217   5.605   1.408  1.00  0.00     0.131 A 
ATOM     77  C   UNL     1      18.492   5.912  -0.130  1.00  0.00     0.055 A 
ATOM     78  C   UNL     1      16.501   6.847   0.841  1.00  0.00     0.041 A 
ATOM     79  F   UNL     1      15.103   5.495   2.150  1.00  0.00    -0.206 F 
ATOM     80  C   UNL     1      17.650   7.008   0.073  1.00  0.00     0.022 A 
BRANCH  77  81
ATOM     81  S   UNL     1      20.035   6.114  -1.063  1.00  0.00     0.124 S 
ATOM     82  O   UNL     1      21.036   5.771  -0.060  1.00  0.00    -0.237 OA
ATOM     83  O   UNL     1      19.859   5.157  -2.150  1.00  0.00    -0.237 OA
ATOM     84  O   UNL     1      20.008   7.519  -1.464  1.00  0.00    -0.744 OA
ENDBRANCH  77  81
ENDBRANCH  50  74
BRANCH  62  85
ATOM     85  C   UNL     1      19.951   0.586   6.206  1.00  0.00     0.023 A 
ATOM     86  C   UNL     1      20.145   1.638   7.119  1.00  0.00     0.031 A 
ATOM     87  C   UNL     1      20.997  -0.338   6.029  1.00  0.00     0.131 A 
ATOM     88  C   UNL     1      21.376   1.771   7.780  1.00  0.00     0.055 A 
ATOM     89  C   UNL     1      22.197  -0.234   6.733  1.00  0.00     0.041 A 
ATOM     90  F   UNL     1      20.866  -1.360   5.168  1.00  0.00    -0.206 F 
ATOM     91  C   UNL     1      22.396   0.832   7.606  1.00  0.00     0.022 A 
BRANCH  88  92
ATOM     92  S   UNL     1      21.660   3.238   8.809  1.00  0.00     0.124 S 
ATOM     93  O   UNL     1      21.473   4.322   7.849  1.00  0.00    -0.237 OA
ATOM     94  O   UNL     1      20.628   3.107   9.832  1.00  0.00    -0.237 OA
ATOM     95  O   UNL     1      23.030   3.063   9.286  1.00  0.00    -0.744 OA
ENDBRANCH  88  92
ENDBRANCH  62  85
ENDBRANCH  36  37
ENDBRANCH  28  31
ENDBRANCH  26  27
ENDBRANCH   1  26
TORSDOF 15
