REMARK SMILES CC(C)(C)c1ccc(C(=O)C[C@H](C(=O)NCCCCNC(=O)c2ccc(-c3c4nc(c(-c5cc(S(=O)(=O)[O-])ccc5F)c5ccc([nH]5)c(-c5cc(S(=O)(=O)[O-])ccc5F)c5nc(c(-c6cc(S(=O)(=O)[O-])ccc6F)c6ccc3[nH]6)C=C5)C=C4)cc2)[NH+]2CCCC2)cc1
REMARK SMILES IDX 17 1 16 2 15 3 13 4 14 5 12 7 11 8 9 9 10 10 8 11 5 12 6 13
REMARK SMILES IDX 92 14 7 15 91 16 2 17 1 18 3 19 4 20 86 21 87 22 90 23 88 25
REMARK SMILES IDX 89 26 18 27 19 28 20 29 21 30 22 32 23 33 24 34 85 35 25 36
REMARK SMILES IDX 84 37 26 38 27 39 28 40 78 41 29 42 83 43 77 44 79 45 30 46
REMARK SMILES IDX 82 47 76 48 75 49 31 51 63 52 43 53 62 54 44 55 47 56 61 57
REMARK SMILES IDX 80 58 45 59 46 60 60 62 81 63 48 64 32 65 33 66 41 67 34 68
REMARK SMILES IDX 40 69 42 70 39 71 35 72 36 73 37 74 38 75 64 76 65 77 73 78
REMARK SMILES IDX 66 79 72 80 74 81 71 82 67 83 68 84 69 85 70 86 49 87 50 88
REMARK SMILES IDX 58 89 51 90 57 91 59 92 56 93 52 94 53 95 54 96 55 97
REMARK H PARENT 15 6 86 24 20 31 79 50 47 61
REMARK Flexibility Score: inf
ROOT
ATOM      1  C   UNL     1       3.446  -7.807   2.381  1.00  0.00     0.023 C 
ENDROOT
BRANCH   1   2
ATOM      2  C   UNL     1       3.154  -6.310   2.449  1.00  0.00     0.116 C 
BRANCH   2   3
ATOM      3  N   UNL     1       2.267  -5.974   3.544  1.00  0.00    -0.351 N 
ATOM      4  C   UNL     1       2.455  -5.189   4.638  1.00  0.00     0.278 C 
ATOM      5  O   UNL     1       1.453  -4.950   5.318  1.00  0.00    -0.268 OA
ATOM      6  H   UNL     1       1.374  -6.385   3.486  1.00  0.00     0.163 HD
BRANCH   4   7
ATOM      7  C   UNL     1       3.846  -4.606   4.978  1.00  0.00     0.281 C 
BRANCH   7   8
ATOM      8  C   UNL     1       3.792  -3.091   4.701  1.00  0.00     0.156 C 
BRANCH   8   9
ATOM      9  C   UNL     1       5.168  -2.455   4.567  1.00  0.00     0.169 C 
ATOM     10  O   UNL     1       5.647  -2.197   3.462  1.00  0.00    -0.294 OA
BRANCH   9  11
ATOM     11  C   UNL     1       5.974  -2.189   5.792  1.00  0.00     0.018 A 
ATOM     12  C   UNL     1       7.552  -2.189   8.144  1.00  0.00    -0.043 A 
ATOM     13  C   UNL     1       8.143  -2.098   6.871  1.00  0.00     0.005 A 
ATOM     14  C   UNL     1       6.152  -2.122   8.202  1.00  0.00     0.005 A 
ATOM     15  C   UNL     1       7.365  -2.111   5.705  1.00  0.00     0.012 A 
ATOM     16  C   UNL     1       5.376  -2.092   7.043  1.00  0.00     0.012 A 
BRANCH  12  17
ATOM     17  C   UNL     1       8.376  -2.320   9.435  1.00  0.00    -0.013 C 
ATOM     18  C   UNL     1       9.762  -2.961   9.199  1.00  0.00     0.016 C 
ATOM     19  C   UNL     1       7.671  -3.210  10.490  1.00  0.00     0.016 C 
ATOM     20  C   UNL     1       8.566  -0.910  10.020  1.00  0.00     0.016 C 
ENDBRANCH  12  17
ENDBRANCH   9  11
ENDBRANCH   8   9
ENDBRANCH   7   8
BRANCH   7  21
ATOM     21  N   UNL     1       4.311  -4.982   6.343  1.00  0.00    -0.324 N 
ATOM     22  C   UNL     1       4.682  -6.397   6.464  1.00  0.00     0.263 C 
ATOM     23  C   UNL     1       3.408  -4.684   7.466  1.00  0.00     0.263 C 
ATOM     24  H   UNL     1       5.121  -4.368   6.428  1.00  0.00     0.348 HD
ATOM     25  C   UNL     1       3.528  -7.071   7.178  1.00  0.00     0.067 C 
ATOM     26  C   UNL     1       3.028  -6.003   8.124  1.00  0.00     0.067 C 
ENDBRANCH   7  21
ENDBRANCH   4   7
ENDBRANCH   2   3
ENDBRANCH   1   2
BRANCH   1  27
ATOM     27  C   UNL     1       2.212  -8.713   2.285  1.00  0.00     0.023 C 
BRANCH  27  28
ATOM     28  C   UNL     1       1.202  -8.357   1.197  1.00  0.00     0.116 C 
BRANCH  28  29
ATOM     29  N   UNL     1       1.772  -8.386  -0.139  1.00  0.00    -0.352 N 
ATOM     30  C   UNL     1       1.320  -9.023  -1.270  1.00  0.00     0.251 C 
ATOM     31  H   UNL     1       2.606  -7.875  -0.251  1.00  0.00     0.163 HD
ATOM     32  O   UNL     1       2.028  -9.039  -2.275  1.00  0.00    -0.269 OA
BRANCH  30  33
ATOM     33  C   UNL     1       0.013  -9.719  -1.271  1.00  0.00     0.039 A 
ATOM     34  C   UNL     1      -0.066 -10.995  -1.835  1.00  0.00     0.014 A 
ATOM     35  C   UNL     1      -1.128  -9.132  -0.716  1.00  0.00     0.014 A 
ATOM     36  C   UNL     1      -1.263 -11.714  -1.766  1.00  0.00     0.010 A 
ATOM     37  C   UNL     1      -2.300  -9.877  -0.585  1.00  0.00     0.010 A 
ATOM     38  C   UNL     1      -2.377 -11.182  -1.095  1.00  0.00    -0.014 A 
BRANCH  38  39
ATOM     39  C   UNL     1      -3.606 -11.995  -0.883  1.00  0.00     0.031 A 
ATOM     40  C   UNL     1      -4.919 -11.571  -1.485  1.00  0.00     0.074 A 
ATOM     41  C   UNL     1      -3.549 -13.087  -0.093  1.00  0.00     0.049 A 
ATOM     42  N   UNL     1      -6.103 -12.113  -1.351  1.00  0.00    -0.248 NA
ATOM     43  C   UNL     1      -4.900 -10.368  -2.329  1.00  0.00     0.031 C 
ATOM     44  C   UNL     1      -2.343 -13.582   0.574  1.00  0.00     0.029 A 
ATOM     45  N   UNL     1      -4.525 -13.974   0.291  1.00  0.00    -0.354 N 
ATOM     46  C   UNL     1      -6.972 -11.316  -2.088  1.00  0.00     0.074 A 
ATOM     47  C   UNL     1      -6.185 -10.221  -2.617  1.00  0.00     0.031 C 
ATOM     48  C   UNL     1      -2.644 -14.695   1.261  1.00  0.00     0.029 A 
ATOM     49  C   UNL     1      -4.073 -14.964   1.134  1.00  0.00     0.049 A 
ATOM     50  H   UNL     1      -5.460 -13.908  -0.009  1.00  0.00     0.167 HD
ATOM     51  C   UNL     1      -8.298 -11.492  -2.317  1.00  0.00     0.034 A 
ATOM     52  C   UNL     1      -4.733 -15.963   1.753  1.00  0.00     0.034 A 
ATOM     53  C   UNL     1      -9.069 -12.589  -1.780  1.00  0.00     0.049 A 
ATOM     54  C   UNL     1      -6.217 -16.106   1.525  1.00  0.00     0.074 A 
ATOM     55  C   UNL     1     -10.405 -12.887  -1.991  1.00  0.00     0.029 A 
ATOM     56  N   UNL     1      -8.582 -13.559  -0.912  1.00  0.00    -0.354 N 
ATOM     57  N   UNL     1      -7.014 -15.372   0.783  1.00  0.00    -0.248 NA
ATOM     58  C   UNL     1      -6.888 -17.218   2.211  1.00  0.00     0.031 C 
ATOM     59  C   UNL     1     -10.744 -13.982  -1.190  1.00  0.00     0.029 A 
ATOM     60  C   UNL     1      -9.600 -14.429  -0.548  1.00  0.00     0.049 A 
ATOM     61  H   UNL     1      -7.650 -13.621  -0.602  1.00  0.00     0.167 HD
ATOM     62  C   UNL     1      -8.275 -15.954   0.891  1.00  0.00     0.074 A 
ATOM     63  C   UNL     1      -8.126 -17.109   1.752  1.00  0.00     0.031 C 
ATOM     64  C   UNL     1      -9.448 -15.570   0.325  1.00  0.00     0.034 A 
BRANCH  51  65
ATOM     65  C   UNL     1      -9.005 -10.456  -3.161  1.00  0.00     0.023 A 
ATOM     66  C   UNL     1      -8.654 -10.231  -4.504  1.00  0.00     0.031 A 
ATOM     67  C   UNL     1     -10.037  -9.674  -2.614  1.00  0.00     0.131 A 
ATOM     68  C   UNL     1      -9.276  -9.203  -5.229  1.00  0.00     0.055 A 
ATOM     69  C   UNL     1     -10.712  -8.710  -3.367  1.00  0.00     0.041 A 
ATOM     70  F   UNL     1     -10.404  -9.826  -1.331  1.00  0.00    -0.206 F 
ATOM     71  C   UNL     1     -10.322  -8.459  -4.679  1.00  0.00     0.022 A 
BRANCH  68  72
ATOM     72  S   UNL     1      -8.598  -8.755  -6.851  1.00  0.00     0.124 S 
ATOM     73  O   UNL     1      -7.216  -8.422  -6.511  1.00  0.00    -0.237 OA
ATOM     74  O   UNL     1      -8.790  -9.977  -7.622  1.00  0.00    -0.237 OA
ATOM     75  O   UNL     1      -9.420  -7.619  -7.264  1.00  0.00    -0.744 OA
ENDBRANCH  68  72
ENDBRANCH  51  65
BRANCH  52  76
ATOM     76  C   UNL     1      -4.011 -16.897   2.667  1.00  0.00     0.023 A 
ATOM     77  C   UNL     1      -3.931 -18.270   2.385  1.00  0.00     0.031 A 
ATOM     78  C   UNL     1      -3.431 -16.436   3.863  1.00  0.00     0.131 A 
ATOM     79  C   UNL     1      -3.333 -19.140   3.310  1.00  0.00     0.055 A 
ATOM     80  C   UNL     1      -2.781 -17.297   4.749  1.00  0.00     0.041 A 
ATOM     81  F   UNL     1      -3.477 -15.133   4.183  1.00  0.00    -0.206 F 
ATOM     82  C   UNL     1      -2.743 -18.661   4.481  1.00  0.00     0.022 A 
BRANCH  79  83
ATOM     83  S   UNL     1      -3.424 -20.926   3.005  1.00  0.00     0.124 S 
ATOM     84  O   UNL     1      -4.864 -21.139   2.922  1.00  0.00    -0.237 OA
ATOM     85  O   UNL     1      -2.681 -21.059   1.756  1.00  0.00    -0.237 OA
ATOM     86  O   UNL     1      -2.773 -21.505   4.179  1.00  0.00    -0.744 OA
ENDBRANCH  79  83
ENDBRANCH  52  76
BRANCH  64  87
ATOM     87  C   UNL     1     -10.656 -16.439   0.589  1.00  0.00     0.023 A 
ATOM     88  C   UNL     1     -11.203 -16.579   1.877  1.00  0.00     0.031 A 
ATOM     89  C   UNL     1     -11.259 -17.151  -0.464  1.00  0.00     0.131 A 
ATOM     90  C   UNL     1     -12.277 -17.457   2.090  1.00  0.00     0.055 A 
ATOM     91  C   UNL     1     -12.372 -17.968  -0.258  1.00  0.00     0.041 A 
ATOM     92  F   UNL     1     -10.778 -17.061  -1.714  1.00  0.00    -0.206 F 
ATOM     93  C   UNL     1     -12.878 -18.137   1.027  1.00  0.00     0.022 A 
BRANCH  90  94
ATOM     94  S   UNL     1     -12.813 -17.781   3.792  1.00  0.00     0.124 S 
ATOM     95  O   UNL     1     -11.589 -18.288   4.404  1.00  0.00    -0.237 OA
ATOM     96  O   UNL     1     -13.251 -16.463   4.239  1.00  0.00    -0.237 OA
ATOM     97  O   UNL     1     -13.881 -18.767   3.634  1.00  0.00    -0.744 OA
ENDBRANCH  90  94
ENDBRANCH  64  87
ENDBRANCH  38  39
ENDBRANCH  30  33
ENDBRANCH  28  29
ENDBRANCH  27  28
ENDBRANCH   1  27
TORSDOF 19
