REMARK SMILES Cc1c(C(=O)Nc2ccc(C(=O)Nc3ccccc3C(=O)NCCCCNC(=O)c3ccc(-c4c5nc(c(-c6cc(S(=O)(=O)[O-])ccc6F)c6ccc([nH]6)c(-c6cc(S(=O)(=O)[O-])ccc6F)c6nc(c(-c7cc(S(=O)(=O)[O-])ccc7F)c7ccc4[nH]7)C=C6)C=C5)cc3)cc2)cccc1[N+](=O)[O-]
REMARK SMILES IDX 23 1 22 2 20 3 21 4 19 6 14 7 15 8 16 9 18 10 17 11 13 12
REMARK SMILES IDX 11 13 12 14 10 16 7 17 8 18 94 19 9 20 93 21 6 22 4 23 5 24
REMARK SMILES IDX 3 26 1 27 2 28 98 29 95 30 97 31 96 32 99 33 100 34 101 35
REMARK SMILES IDX 24 36 25 37 26 38 27 39 28 40 29 42 30 43 31 44 92 45 32 46
REMARK SMILES IDX 91 47 33 48 34 49 35 50 85 51 36 52 90 53 84 54 86 55 37 56
REMARK SMILES IDX 89 57 83 58 82 59 38 61 70 62 50 63 69 64 51 65 54 66 68 67
REMARK SMILES IDX 87 68 52 69 53 70 67 72 88 73 55 74 39 75 40 76 48 77 41 78
REMARK SMILES IDX 47 79 49 80 46 81 42 82 43 83 44 84 45 85 71 86 72 87 80 88
REMARK SMILES IDX 73 89 79 90 81 91 78 92 74 93 75 94 76 95 77 96 56 97 57 98
REMARK SMILES IDX 65 99 58 100 64 101 66 102 63 103 59 104 60 105 61 106
REMARK SMILES IDX 62 107
REMARK H PARENT 22 5 13 15 6 25 27 41 86 60 54 71
REMARK Flexibility Score: inf
ROOT
ATOM      1  C   UNL     1       3.097  -0.389   4.496  1.00  0.00     0.116 C 
ENDROOT
BRANCH   1   2
ATOM      2  N   UNL     1       4.368   0.044   3.904  1.00  0.00    -0.352 N 
ATOM      3  C   UNL     1       4.873   1.260   3.489  1.00  0.00     0.253 C 
ATOM      4  O   UNL     1       6.067   1.310   3.193  1.00  0.00    -0.269 OA
ATOM      5  H   UNL     1       5.002  -0.698   3.773  1.00  0.00     0.163 HD
BRANCH   3   6
ATOM      6  C   UNL     1       4.037   2.483   3.326  1.00  0.00     0.063 A 
ATOM      7  C   UNL     1       4.214   3.389   2.248  1.00  0.00     0.054 A 
ATOM      8  C   UNL     1       3.395   4.533   2.168  1.00  0.00     0.027 A 
ATOM      9  C   UNL     1       2.383   4.761   3.098  1.00  0.00     0.002 A 
ATOM     10  C   UNL     1       3.101   2.810   4.320  1.00  0.00     0.016 A 
ATOM     11  C   UNL     1       2.247   3.907   4.183  1.00  0.00     0.001 A 
BRANCH   7  12
ATOM     12  N   UNL     1       5.117   3.272   1.166  1.00  0.00    -0.321 N 
ATOM     13  C   UNL     1       5.534   2.200   0.406  1.00  0.00     0.255 C 
ATOM     14  O   UNL     1       6.482   2.353  -0.369  1.00  0.00    -0.269 OA
ATOM     15  H   UNL     1       5.529   4.126   0.902  1.00  0.00     0.170 HD
BRANCH  13  16
ATOM     16  C   UNL     1       4.748   0.940   0.317  1.00  0.00     0.040 A 
ATOM     17  C   UNL     1       3.182  -1.340  -0.207  1.00  0.00     0.041 A 
ATOM     18  C   UNL     1       2.668  -0.270   0.506  1.00  0.00     0.027 A 
ATOM     19  C   UNL     1       4.543  -1.336  -0.526  1.00  0.00     0.027 A 
ATOM     20  C   UNL     1       3.405   0.891   0.671  1.00  0.00     0.016 A 
ATOM     21  C   UNL     1       5.324  -0.199  -0.260  1.00  0.00     0.016 A 
BRANCH  17  22
ATOM     22  N   UNL     1       2.367  -2.372  -0.709  1.00  0.00    -0.322 N 
ATOM     23  C   UNL     1       1.002  -2.421  -0.943  1.00  0.00     0.256 C 
ATOM     24  O   UNL     1       0.490  -3.465  -1.348  1.00  0.00    -0.269 OA
ATOM     25  H   UNL     1       2.850  -3.201  -0.931  1.00  0.00     0.170 HD
BRANCH  23  26
ATOM     26  C   UNL     1       0.111  -1.243  -0.740  1.00  0.00     0.049 A 
ATOM     27  C   UNL     1       1.311   0.201  -2.462  1.00  0.00     0.053 C 
ATOM     28  C   UNL     1       0.323   0.023  -1.339  1.00  0.00     0.039 A 
ATOM     29  C   UNL     1      -0.401   1.111  -0.799  1.00  0.00     0.273 A 
ATOM     30  C   UNL     1      -0.942  -1.433   0.173  1.00  0.00     0.014 A 
ATOM     31  C   UNL     1      -1.433   0.923   0.136  1.00  0.00     0.086 A 
ATOM     32  C   UNL     1      -1.730  -0.359   0.586  1.00  0.00     0.008 A 
BRANCH  29  33
ATOM     33  N   UNL     1      -0.032   2.498  -1.101  1.00  0.00     0.063 N 
ATOM     34  O   UNL     1      -0.953   3.316  -1.239  1.00  0.00    -0.258 OA
ATOM     35  O   UNL     1       1.173   2.776  -1.158  1.00  0.00    -0.258 OA
ENDBRANCH  29  33
ENDBRANCH  23  26
ENDBRANCH  17  22
ENDBRANCH  13  16
ENDBRANCH   7  12
ENDBRANCH   3   6
ENDBRANCH   1   2
BRANCH   1  36
ATOM     36  C   UNL     1       2.357  -1.521   3.769  1.00  0.00     0.023 C 
BRANCH  36  37
ATOM     37  C   UNL     1       3.187  -2.701   3.280  1.00  0.00     0.023 C 
BRANCH  37  38
ATOM     38  C   UNL     1       3.725  -3.579   4.399  1.00  0.00     0.116 C 
BRANCH  38  39
ATOM     39  N   UNL     1       2.876  -4.715   4.748  1.00  0.00    -0.352 N 
ATOM     40  C   UNL     1       3.110  -5.711   5.686  1.00  0.00     0.251 C 
ATOM     41  H   UNL     1       2.028  -4.784   4.253  1.00  0.00     0.163 HD
ATOM     42  O   UNL     1       2.352  -6.658   5.827  1.00  0.00    -0.269 OA
BRANCH  40  43
ATOM     43  C   UNL     1       4.243  -5.529   6.625  1.00  0.00     0.039 A 
ATOM     44  C   UNL     1       3.936  -5.482   7.990  1.00  0.00     0.014 A 
ATOM     45  C   UNL     1       5.486  -5.110   6.161  1.00  0.00     0.014 A 
ATOM     46  C   UNL     1       4.768  -4.771   8.847  1.00  0.00     0.010 A 
ATOM     47  C   UNL     1       6.253  -4.310   6.983  1.00  0.00     0.010 A 
ATOM     48  C   UNL     1       5.855  -4.084   8.306  1.00  0.00    -0.014 A 
BRANCH  48  49
ATOM     49  C   UNL     1       6.554  -3.020   9.016  1.00  0.00     0.031 A 
ATOM     50  C   UNL     1       7.917  -3.242   9.530  1.00  0.00     0.074 A 
ATOM     51  C   UNL     1       5.966  -1.813   9.165  1.00  0.00     0.049 A 
ATOM     52  N   UNL     1       8.455  -2.575  10.492  1.00  0.00    -0.248 NA
ATOM     53  C   UNL     1       8.769  -4.309   9.026  1.00  0.00     0.031 C 
ATOM     54  C   UNL     1       6.579  -0.575   9.638  1.00  0.00     0.029 A 
ATOM     55  N   UNL     1       4.598  -1.544   9.159  1.00  0.00    -0.354 N 
ATOM     56  C   UNL     1       9.791  -2.906  10.540  1.00  0.00     0.074 A 
ATOM     57  C   UNL     1       9.909  -4.052   9.672  1.00  0.00     0.031 C 
ATOM     58  C   UNL     1       5.618   0.218  10.137  1.00  0.00     0.029 A 
ATOM     59  C   UNL     1       4.379  -0.538  10.118  1.00  0.00     0.049 A 
ATOM     60  H   UNL     1       3.917  -1.975   8.593  1.00  0.00     0.167 HD
ATOM     61  C   UNL     1      10.652  -2.080  11.204  1.00  0.00     0.034 A 
ATOM     62  C   UNL     1       3.577  -0.769  11.197  1.00  0.00     0.034 A 
ATOM     63  C   UNL     1       9.921  -1.048  11.951  1.00  0.00     0.049 A 
ATOM     64  C   UNL     1       4.301  -0.651  12.521  1.00  0.00     0.074 A 
ATOM     65  C   UNL     1       9.680   0.298  11.730  1.00  0.00     0.029 A 
ATOM     66  N   UNL     1       9.061  -1.432  12.978  1.00  0.00    -0.354 N 
ATOM     67  N   UNL     1       5.601  -0.628  12.652  1.00  0.00    -0.248 NA
ATOM     68  C   UNL     1       3.614  -0.557  13.803  1.00  0.00     0.031 C 
ATOM     69  C   UNL     1       8.614   0.700  12.583  1.00  0.00     0.029 A 
ATOM     70  C   UNL     1       8.232  -0.389  13.348  1.00  0.00     0.049 A 
ATOM     71  H   UNL     1       9.045  -2.328  13.386  1.00  0.00     0.167 HD
ATOM     72  C   UNL     1       5.934  -0.548  13.982  1.00  0.00     0.074 A 
ATOM     73  C   UNL     1       4.649  -0.472  14.657  1.00  0.00     0.031 C 
ATOM     74  C   UNL     1       7.238  -0.566  14.405  1.00  0.00     0.034 A 
BRANCH  61  75
ATOM     75  C   UNL     1      12.151  -2.018  10.949  1.00  0.00     0.023 A 
ATOM     76  C   UNL     1      12.849  -0.822  11.232  1.00  0.00     0.031 A 
ATOM     77  C   UNL     1      12.940  -3.034  10.371  1.00  0.00     0.131 A 
ATOM     78  C   UNL     1      14.197  -0.642  10.858  1.00  0.00     0.055 A 
ATOM     79  C   UNL     1      14.263  -2.841   9.951  1.00  0.00     0.041 A 
ATOM     80  F   UNL     1      12.502  -4.289  10.236  1.00  0.00    -0.206 F 
ATOM     81  C   UNL     1      14.898  -1.635  10.182  1.00  0.00     0.022 A 
BRANCH  78  82
ATOM     82  S   UNL     1      15.037   0.913  11.268  1.00  0.00     0.124 S 
ATOM     83  O   UNL     1      14.232   1.898  10.552  1.00  0.00    -0.237 OA
ATOM     84  O   UNL     1      14.949   0.938  12.723  1.00  0.00    -0.237 OA
ATOM     85  O   UNL     1      16.387   0.719  10.738  1.00  0.00    -0.744 OA
ENDBRANCH  78  82
ENDBRANCH  61  75
BRANCH  62  86
ATOM     86  C   UNL     1       2.436  -1.680  10.885  1.00  0.00     0.023 A 
ATOM     87  C   UNL     1       1.589  -1.294   9.820  1.00  0.00     0.031 A 
ATOM     88  C   UNL     1       2.412  -3.021  11.286  1.00  0.00     0.131 A 
ATOM     89  C   UNL     1       0.908  -2.260   9.068  1.00  0.00     0.055 A 
ATOM     90  C   UNL     1       1.661  -3.974  10.582  1.00  0.00     0.041 A 
ATOM     91  F   UNL     1       3.211  -3.456  12.271  1.00  0.00    -0.206 F 
ATOM     92  C   UNL     1       0.947  -3.605   9.438  1.00  0.00     0.022 A 
BRANCH  89  93
ATOM     93  S   UNL     1       0.231  -1.782   7.448  1.00  0.00     0.124 S 
ATOM     94  O   UNL     1      -1.137  -1.404   7.781  1.00  0.00    -0.237 OA
ATOM     95  O   UNL     1       1.104  -0.684   7.031  1.00  0.00    -0.237 OA
ATOM     96  O   UNL     1       0.375  -2.991   6.642  1.00  0.00    -0.744 OA
ENDBRANCH  89  93
ENDBRANCH  62  86
BRANCH  74  97
ATOM     97  C   UNL     1       7.715  -0.675  15.847  1.00  0.00     0.023 A 
ATOM     98  C   UNL     1       6.884  -1.014  16.924  1.00  0.00     0.031 A 
ATOM     99  C   UNL     1       9.083  -0.494  16.179  1.00  0.00     0.131 A 
ATOM    100  C   UNL     1       7.374  -1.074  18.244  1.00  0.00     0.055 A 
ATOM    101  C   UNL     1       9.585  -0.634  17.478  1.00  0.00     0.041 A 
ATOM    102  F   UNL     1      10.003  -0.180  15.255  1.00  0.00    -0.206 F 
ATOM    103  C   UNL     1       8.725  -0.909  18.527  1.00  0.00     0.022 A 
BRANCH 100 104
ATOM    104  S   UNL     1       6.183  -1.308  19.591  1.00  0.00     0.124 S 
ATOM    105  O   UNL     1       5.353  -0.112  19.469  1.00  0.00    -0.237 OA
ATOM    106  O   UNL     1       5.538  -2.565  19.225  1.00  0.00    -0.237 OA
ATOM    107  O   UNL     1       7.019  -1.363  20.788  1.00  0.00    -0.744 OA
ENDBRANCH 100 104
ENDBRANCH  74  97
ENDBRANCH  48  49
ENDBRANCH  40  43
ENDBRANCH  38  39
ENDBRANCH  37  38
ENDBRANCH  36  37
ENDBRANCH   1  36
TORSDOF 19
