REMARK SMILES Cc1cc(C(=O)N2C[C@@H](C(=O)NCCCCNC(=O)c3ccc(-c4c5nc(c(-c6cc(S(=O)(=O)[O-])ccc6F)c6ccc([nH]6)c(-c6cc(S(=O)(=O)[O-])ccc6F)c6nc(c(-c7cc(S(=O)(=O)[O-])ccc7F)c7ccc4[nH]7)C=C6)C=C5)cc3)[C@H](C3CC3)C2)sc1C
REMARK SMILES IDX 15 1 14 2 13 3 12 4 10 5 11 6 9 8 7 9 8 10 87 11 83 12 5 13
REMARK SMILES IDX 6 14 4 15 1 16 2 17 3 18 89 19 88 20 90 21 84 22 85 23 86 24
REMARK SMILES IDX 16 25 17 26 18 27 19 29 20 30 21 31 82 32 22 33 81 34 23 35
REMARK SMILES IDX 24 36 25 37 75 38 26 39 80 40 74 41 76 42 27 43 79 44 73 45
REMARK SMILES IDX 72 46 28 48 60 49 40 50 59 51 41 52 44 53 58 54 77 55 42 56
REMARK SMILES IDX 43 57 57 59 78 60 45 61 29 62 30 63 38 64 31 65 37 66 39 67
REMARK SMILES IDX 36 68 32 69 33 70 34 71 35 72 61 73 62 74 70 75 63 76 69 77
REMARK SMILES IDX 71 78 68 79 64 80 65 81 66 82 67 83 46 84 47 85 55 86 48 87
REMARK SMILES IDX 54 88 56 89 53 90 49 91 50 92 51 93 52 94
REMARK H PARENT 12 7 17 28 76 47 44 58
REMARK Flexibility Score: inf
ROOT
ATOM      1  C   UNL     1       7.519   4.430   0.481  1.00  0.00     0.023 C 
ENDROOT
BRANCH   1   2
ATOM      2  C   UNL     1       6.236   3.792  -0.048  1.00  0.00     0.023 C 
BRANCH   2   3
ATOM      3  C   UNL     1       6.334   2.330  -0.464  1.00  0.00     0.116 C 
BRANCH   3   4
ATOM      4  N   UNL     1       6.659   1.425   0.625  1.00  0.00    -0.356 N 
ATOM      5  C   UNL     1       6.282   0.125   0.812  1.00  0.00     0.225 C 
ATOM      6  O   UNL     1       6.806  -0.505   1.732  1.00  0.00    -0.275 OA
ATOM      7  H   UNL     1       7.232   1.803   1.330  1.00  0.00     0.163 HD
BRANCH   5   8
ATOM      8  C   UNL     1       5.229  -0.503  -0.079  1.00  0.00     0.103 C 
ATOM      9  N   UNL     1       3.502  -2.047  -0.130  1.00  0.00    -0.337 N 
ATOM     10  C   UNL     1       4.141  -1.129   0.793  1.00  0.00     0.133 C 
ATOM     11  C   UNL     1       4.511  -2.660  -0.966  1.00  0.00     0.124 C 
ATOM     12  C   UNL     1       5.739  -1.716  -0.897  1.00  0.00     0.026 C 
BRANCH   9  13
ATOM     13  C   UNL     1       2.165  -2.340  -0.337  1.00  0.00     0.263 C 
ATOM     14  O   UNL     1       1.865  -3.437  -0.819  1.00  0.00    -0.268 OA
BRANCH  13  15
ATOM     15  C   UNL     1       1.132  -1.339  -0.081  1.00  0.00     0.093 A 
ATOM     16  C   UNL     1      -2.525  -0.452   0.179  1.00  0.00     0.045 C 
ATOM     17  C   UNL     1      -1.034  -0.416   0.099  1.00  0.00    -0.037 A 
ATOM     18  C   UNL     1      -0.218  -1.596   0.084  1.00  0.00     0.029 A 
ATOM     19  C   UNL     1      -0.253   0.721  -0.006  1.00  0.00     0.005 A 
ATOM     20  S   UNL     1       1.396   0.342  -0.233  1.00  0.00    -0.135 S 
ATOM     21  C   UNL     1      -0.680   2.152  -0.007  1.00  0.00     0.056 C 
ENDBRANCH  13  15
ENDBRANCH   9  13
BRANCH  12  22
ATOM     22  C   UNL     1       6.265  -1.455  -2.292  1.00  0.00    -0.005 C 
ATOM     23  C   UNL     1       6.013  -0.199  -3.090  1.00  0.00     0.004 C 
ATOM     24  C   UNL     1       7.386  -0.481  -2.541  1.00  0.00     0.004 C 
ENDBRANCH  12  22
ENDBRANCH   5   8
ENDBRANCH   3   4
ENDBRANCH   2   3
ENDBRANCH   1   2
BRANCH   1  25
ATOM     25  C   UNL     1       8.771   4.235  -0.370  1.00  0.00     0.116 C 
BRANCH  25  26
ATOM     26  N   UNL     1       8.635   4.725  -1.734  1.00  0.00    -0.352 N 
ATOM     27  C   UNL     1       9.350   5.691  -2.409  1.00  0.00     0.251 C 
ATOM     28  H   UNL     1       7.918   4.298  -2.257  1.00  0.00     0.163 HD
ATOM     29  O   UNL     1       9.008   6.019  -3.537  1.00  0.00    -0.269 OA
BRANCH  27  30
ATOM     30  C   UNL     1      10.492   6.364  -1.749  1.00  0.00     0.039 A 
ATOM     31  C   UNL     1      10.547   7.760  -1.763  1.00  0.00     0.014 A 
ATOM     32  C   UNL     1      11.477   5.631  -1.082  1.00  0.00     0.014 A 
ATOM     33  C   UNL     1      11.518   8.422  -1.007  1.00  0.00     0.010 A 
ATOM     34  C   UNL     1      12.396   6.292  -0.270  1.00  0.00     0.010 A 
ATOM     35  C   UNL     1      12.408   7.694  -0.201  1.00  0.00    -0.014 A 
BRANCH  35  36
ATOM     36  C   UNL     1      13.305   8.376   0.770  1.00  0.00     0.031 A 
ATOM     37  C   UNL     1      14.799   8.264   0.642  1.00  0.00     0.074 A 
ATOM     38  C   UNL     1      12.765   9.023   1.823  1.00  0.00     0.049 A 
ATOM     39  N   UNL     1      15.733   8.706   1.445  1.00  0.00    -0.248 NA
ATOM     40  C   UNL     1      15.306   7.535  -0.530  1.00  0.00     0.031 C 
ATOM     41  C   UNL     1      11.330   9.159   2.087  1.00  0.00     0.029 A 
ATOM     42  N   UNL     1      13.354   9.676   2.878  1.00  0.00    -0.354 N 
ATOM     43  C   UNL     1      16.939   8.301   0.884  1.00  0.00     0.074 A 
ATOM     44  C   UNL     1      16.610   7.531  -0.298  1.00  0.00     0.031 C 
ATOM     45  C   UNL     1      11.152   9.866   3.214  1.00  0.00     0.029 A 
ATOM     46  C   UNL     1      12.455  10.193   3.783  1.00  0.00     0.049 A 
ATOM     47  H   UNL     1      14.330   9.765   2.978  1.00  0.00     0.167 HD
ATOM     48  C   UNL     1      18.202   8.564   1.305  1.00  0.00     0.034 A 
ATOM     49  C   UNL     1      12.653  10.840   4.948  1.00  0.00     0.034 A 
ATOM     50  C   UNL     1      18.513   9.340   2.481  1.00  0.00     0.049 A 
ATOM     51  C   UNL     1      14.065  11.094   5.410  1.00  0.00     0.074 A 
ATOM     52  C   UNL     1      19.756   9.723   2.957  1.00  0.00     0.029 A 
ATOM     53  N   UNL     1      17.577   9.844   3.375  1.00  0.00    -0.354 N 
ATOM     54  N   UNL     1      15.195  10.753   4.835  1.00  0.00    -0.248 NA
ATOM     55  C   UNL     1      14.226  11.824   6.674  1.00  0.00     0.031 C 
ATOM     56  C   UNL     1      19.575  10.397   4.170  1.00  0.00     0.029 A 
ATOM     57  C   UNL     1      18.215  10.500   4.417  1.00  0.00     0.049 A 
ATOM     58  H   UNL     1      16.601   9.748   3.283  1.00  0.00     0.167 HD
ATOM     59  C   UNL     1      16.202  11.248   5.659  1.00  0.00     0.074 A 
ATOM     60  C   UNL     1      15.544  11.926   6.757  1.00  0.00     0.031 C 
ATOM     61  C   UNL     1      17.549  11.153   5.519  1.00  0.00     0.034 A 
BRANCH  48  62
ATOM     62  C   UNL     1      19.337   7.985   0.495  1.00  0.00     0.023 A 
ATOM     63  C   UNL     1      19.561   8.368  -0.839  1.00  0.00     0.031 A 
ATOM     64  C   UNL     1      20.196   7.024   1.058  1.00  0.00     0.131 A 
ATOM     65  C   UNL     1      20.569   7.742  -1.588  1.00  0.00     0.055 A 
ATOM     66  C   UNL     1      21.248   6.462   0.331  1.00  0.00     0.041 A 
ATOM     67  F   UNL     1      20.021   6.606   2.321  1.00  0.00    -0.206 F 
ATOM     68  C   UNL     1      21.430   6.809  -1.005  1.00  0.00     0.022 A 
BRANCH  65  69
ATOM     69  S   UNL     1      20.650   8.065  -3.370  1.00  0.00     0.124 S 
ATOM     70  O   UNL     1      19.328   7.624  -3.810  1.00  0.00    -0.237 OA
ATOM     71  O   UNL     1      20.893   9.502  -3.420  1.00  0.00    -0.237 OA
ATOM     72  O   UNL     1      21.760   7.228  -3.821  1.00  0.00    -0.744 OA
ENDBRANCH  65  69
ENDBRANCH  48  62
BRANCH  49  73
ATOM     73  C   UNL     1      11.494  11.277   5.777  1.00  0.00     0.023 A 
ATOM     74  C   UNL     1      11.237  12.640   5.998  1.00  0.00     0.031 A 
ATOM     75  C   UNL     1      10.651  10.338   6.398  1.00  0.00     0.131 A 
ATOM     76  C   UNL     1      10.194  13.025   6.854  1.00  0.00     0.055 A 
ATOM     77  C   UNL     1       9.583  10.727   7.207  1.00  0.00     0.041 A 
ATOM     78  F   UNL     1      10.849   9.023   6.214  1.00  0.00    -0.206 F 
ATOM     79  C   UNL     1       9.357  12.078   7.450  1.00  0.00     0.022 A 
BRANCH  76  80
ATOM     80  S   UNL     1       9.994  14.786   7.241  1.00  0.00     0.124 S 
ATOM     81  O   UNL     1      11.296  15.114   7.811  1.00  0.00    -0.237 OA
ATOM     82  O   UNL     1       9.706  15.353   5.928  1.00  0.00    -0.237 OA
ATOM     83  O   UNL     1       8.878  14.802   8.184  1.00  0.00    -0.744 OA
ENDBRANCH  76  80
ENDBRANCH  49  73
BRANCH  61  84
ATOM     84  C   UNL     1      18.392  11.828   6.573  1.00  0.00     0.023 A 
ATOM     85  C   UNL     1      18.426  11.362   7.899  1.00  0.00     0.031 A 
ATOM     86  C   UNL     1      19.154  12.964   6.250  1.00  0.00     0.131 A 
ATOM     87  C   UNL     1      19.163  12.062   8.866  1.00  0.00     0.055 A 
ATOM     88  C   UNL     1      19.932  13.622   7.203  1.00  0.00     0.041 A 
ATOM     89  F   UNL     1      19.156  13.453   4.999  1.00  0.00    -0.206 F 
ATOM     90  C   UNL     1      19.929  13.179   8.523  1.00  0.00     0.022 A 
BRANCH  87  91
ATOM     91  S   UNL     1      19.038  11.543  10.600  1.00  0.00     0.124 S 
ATOM     92  O   UNL     1      17.610  11.691  10.859  1.00  0.00    -0.237 OA
ATOM     93  O   UNL     1      19.539  10.174  10.553  1.00  0.00    -0.237 OA
ATOM     94  O   UNL     1      19.898  12.493  11.305  1.00  0.00    -0.744 OA
ENDBRANCH  87  91
ENDBRANCH  61  84
ENDBRANCH  35  36
ENDBRANCH  27  30
ENDBRANCH  25  26
ENDBRANCH   1  25
TORSDOF 17
