REMARK SMILES O=C(NCCCCNC(=O)[C@@H]1CCCN1S(=O)(=O)c1ccc2[nH]c(=O)c(=O)[nH]c2c1)c1ccc(-c2c3nc(c(-c4cc(S(=O)(=O)[O-])ccc4F)c4ccc([nH]4)c(-c4cc(S(=O)(=O)[O-])ccc4F)c4nc(c(-c5cc(S(=O)(=O)[O-])ccc5F)c5ccc2[nH]5)C=C4)C=C3)cc1
REMARK SMILES IDX 5 1 4 2 3 3 1 4 2 5 31 7 32 8 93 9 33 10 92 11 34 12 35 13
REMARK SMILES IDX 36 14 86 15 37 16 91 17 85 18 87 19 38 20 90 21 84 22 83 23
REMARK SMILES IDX 39 25 71 26 51 27 70 28 52 29 55 30 69 31 88 32 53 33 54 34
REMARK SMILES IDX 68 36 89 37 56 38 40 39 41 40 49 41 42 42 48 43 50 44 47 45
REMARK SMILES IDX 43 46 44 47 45 48 46 49 72 50 73 51 81 52 74 53 80 54 82 55
REMARK SMILES IDX 79 56 75 57 76 58 77 59 78 60 57 61 58 62 66 63 59 64 65 65
REMARK SMILES IDX 67 66 64 67 60 68 61 69 62 70 63 71 6 72 7 73 8 74 9 75
REMARK SMILES IDX 10 77 11 78 12 79 15 80 13 81 14 82 16 83 17 84 18 85 19 86
REMARK SMILES IDX 20 87 30 88 21 89 29 90 22 91 28 92 23 93 26 94 24 96 27 98
REMARK SMILES IDX 25 99
REMARK H PARENT 3 6 87 24 55 35 8 76 28 95 23 97
REMARK Flexibility Score: inf
ROOT
ATOM      1  C   UNL     1       4.695   1.960  -1.843  1.00  0.00     0.023 C 
ENDROOT
BRANCH   1   2
ATOM      2  C   UNL     1       4.422   1.315  -0.488  1.00  0.00     0.116 C 
BRANCH   2   3
ATOM      3  N   UNL     1       2.999   1.149  -0.230  1.00  0.00    -0.352 N 
ATOM      4  O   UNL     1       1.037   0.052  -0.095  1.00  0.00    -0.269 OA
ATOM      5  C   UNL     1       2.263  -0.008  -0.107  1.00  0.00     0.251 C 
ATOM      6  H   UNL     1       2.490   1.985  -0.127  1.00  0.00     0.163 HD
BRANCH   5   7
ATOM      7  C   UNL     1       2.951  -1.313  -0.000  1.00  0.00     0.039 A 
ATOM      8  C   UNL     1       4.051  -1.456   0.844  1.00  0.00     0.014 A 
ATOM      9  C   UNL     1       2.487  -2.409  -0.731  1.00  0.00     0.014 A 
ATOM     10  C   UNL     1       4.780  -2.639   0.843  1.00  0.00     0.010 A 
ATOM     11  C   UNL     1       3.168  -3.631  -0.657  1.00  0.00     0.010 A 
ATOM     12  C   UNL     1       4.340  -3.749   0.108  1.00  0.00    -0.014 A 
BRANCH  12  13
ATOM     13  C   UNL     1       5.096  -5.028   0.200  1.00  0.00     0.031 A 
ATOM     14  C   UNL     1       5.762  -5.624  -1.011  1.00  0.00     0.074 A 
ATOM     15  C   UNL     1       5.210  -5.633   1.399  1.00  0.00     0.049 A 
ATOM     16  N   UNL     1       6.444  -6.737  -1.116  1.00  0.00    -0.248 NA
ATOM     17  C   UNL     1       5.638  -4.878  -2.271  1.00  0.00     0.031 C 
ATOM     18  C   UNL     1       4.624  -5.138   2.649  1.00  0.00     0.029 A 
ATOM     19  N   UNL     1       5.868  -6.776   1.775  1.00  0.00    -0.354 N 
ATOM     20  C   UNL     1       6.817  -6.836  -2.452  1.00  0.00     0.074 A 
ATOM     21  C   UNL     1       6.253  -5.685  -3.126  1.00  0.00     0.031 C 
ATOM     22  C   UNL     1       4.990  -5.943   3.656  1.00  0.00     0.029 A 
ATOM     23  C   UNL     1       5.767  -7.053   3.119  1.00  0.00     0.049 A 
ATOM     24  H   UNL     1       6.366  -7.344   1.143  1.00  0.00     0.167 HD
ATOM     25  C   UNL     1       7.566  -7.795  -3.054  1.00  0.00     0.034 A 
ATOM     26  C   UNL     1       6.225  -8.094   3.840  1.00  0.00     0.034 A 
ATOM     27  C   UNL     1       8.127  -8.933  -2.361  1.00  0.00     0.049 A 
ATOM     28  C   UNL     1       7.005  -9.170   3.137  1.00  0.00     0.074 A 
ATOM     29  C   UNL     1       8.916  -9.950  -2.871  1.00  0.00     0.029 A 
ATOM     30  N   UNL     1       7.954  -9.209  -1.010  1.00  0.00    -0.354 N 
ATOM     31  N   UNL     1       7.342  -9.253   1.871  1.00  0.00    -0.248 NA
ATOM     32  C   UNL     1       7.467 -10.294   3.960  1.00  0.00     0.031 C 
ATOM     33  C   UNL     1       9.161 -10.874  -1.848  1.00  0.00     0.029 A 
ATOM     34  C   UNL     1       8.591 -10.397  -0.678  1.00  0.00     0.049 A 
ATOM     35  H   UNL     1       7.452  -8.645  -0.379  1.00  0.00     0.167 HD
ATOM     36  C   UNL     1       8.073 -10.430   1.750  1.00  0.00     0.074 A 
ATOM     37  C   UNL     1       8.144 -11.011   3.075  1.00  0.00     0.031 C 
ATOM     38  C   UNL     1       8.636 -10.978   0.643  1.00  0.00     0.034 A 
BRANCH  25  39
ATOM     39  C   UNL     1       7.777  -7.679  -4.547  1.00  0.00     0.023 A 
ATOM     40  C   UNL     1       8.493  -6.612  -5.118  1.00  0.00     0.031 A 
ATOM     41  C   UNL     1       7.238  -8.646  -5.414  1.00  0.00     0.131 A 
ATOM     42  C   UNL     1       8.592  -6.502  -6.515  1.00  0.00     0.055 A 
ATOM     43  C   UNL     1       7.406  -8.573  -6.799  1.00  0.00     0.041 A 
ATOM     44  F   UNL     1       6.527  -9.678  -4.931  1.00  0.00    -0.206 F 
ATOM     45  C   UNL     1       8.075  -7.488  -7.358  1.00  0.00     0.022 A 
BRANCH  42  46
ATOM     46  S   UNL     1       9.289  -4.982  -7.221  1.00  0.00     0.124 S 
ATOM     47  O   UNL     1       8.410  -3.961  -6.655  1.00  0.00    -0.237 OA
ATOM     48  O   UNL     1      10.657  -4.996  -6.717  1.00  0.00    -0.237 OA
ATOM     49  O   UNL     1       9.152  -5.178  -8.663  1.00  0.00    -0.744 OA
ENDBRANCH  42  46
ENDBRANCH  25  39
BRANCH  26  50
ATOM     50  C   UNL     1       5.914  -8.191   5.295  1.00  0.00     0.023 A 
ATOM     51  C   UNL     1       6.931  -8.163   6.262  1.00  0.00     0.031 A 
ATOM     52  C   UNL     1       4.587  -8.341   5.737  1.00  0.00     0.131 A 
ATOM     53  C   UNL     1       6.607  -8.320   7.619  1.00  0.00     0.055 A 
ATOM     54  C   UNL     1       4.265  -8.437   7.091  1.00  0.00     0.041 A 
ATOM     55  F   UNL     1       3.576  -8.376   4.854  1.00  0.00    -0.206 F 
ATOM     56  C   UNL     1       5.281  -8.440   8.041  1.00  0.00     0.022 A 
BRANCH  53  57
ATOM     57  S   UNL     1       7.955  -8.454   8.826  1.00  0.00     0.124 S 
ATOM     58  O   UNL     1       8.704  -9.595   8.312  1.00  0.00    -0.237 OA
ATOM     59  O   UNL     1       8.605  -7.153   8.705  1.00  0.00    -0.237 OA
ATOM     60  O   UNL     1       7.258  -8.684  10.090  1.00  0.00    -0.744 OA
ENDBRANCH  53  57
ENDBRANCH  26  50
BRANCH  38  61
ATOM     61  C   UNL     1       9.409 -12.259   0.841  1.00  0.00     0.023 A 
ATOM     62  C   UNL     1       8.771 -13.458   1.204  1.00  0.00     0.031 A 
ATOM     63  C   UNL     1      10.807 -12.271   0.692  1.00  0.00     0.131 A 
ATOM     64  C   UNL     1       9.536 -14.606   1.462  1.00  0.00     0.055 A 
ATOM     65  C   UNL     1      11.557 -13.430   0.894  1.00  0.00     0.041 A 
ATOM     66  F   UNL     1      11.467 -11.153   0.350  1.00  0.00    -0.206 F 
ATOM     67  C   UNL     1      10.923 -14.603   1.294  1.00  0.00     0.022 A 
BRANCH  64  68
ATOM     68  S   UNL     1       8.704 -16.082   2.111  1.00  0.00     0.124 S 
ATOM     69  O   UNL     1       8.111 -15.579   3.346  1.00  0.00    -0.237 OA
ATOM     70  O   UNL     1       7.768 -16.409   1.040  1.00  0.00    -0.237 OA
ATOM     71  O   UNL     1       9.794 -17.039   2.292  1.00  0.00    -0.744 OA
ENDBRANCH  64  68
ENDBRANCH  38  61
ENDBRANCH  12  13
ENDBRANCH   5   7
ENDBRANCH   2   3
ENDBRANCH   1   2
BRANCH   1  72
ATOM     72  C   UNL     1       4.205   3.402  -1.970  1.00  0.00     0.023 C 
BRANCH  72  73
ATOM     73  C   UNL     1       4.849   4.385  -0.996  1.00  0.00     0.116 C 
BRANCH  73  74
ATOM     74  N   UNL     1       6.260   4.598  -1.274  1.00  0.00    -0.355 N 
ATOM     75  C   UNL     1       6.991   5.741  -1.065  1.00  0.00     0.238 C 
ATOM     76  H   UNL     1       6.748   3.834  -1.657  1.00  0.00     0.163 HD
ATOM     77  O   UNL     1       8.179   5.760  -1.381  1.00  0.00    -0.273 OA
BRANCH  75  78
ATOM     78  C   UNL     1       6.274   6.941  -0.498  1.00  0.00     0.162 C 
ATOM     79  C   UNL     1       7.035   8.255  -0.570  1.00  0.00     0.032 C 
ATOM     80  N   UNL     1       5.727   6.910   0.897  1.00  0.00    -0.185 NA
ATOM     81  C   UNL     1       6.095   9.205   0.158  1.00  0.00     0.019 C 
ATOM     82  C   UNL     1       5.254   8.330   1.097  1.00  0.00     0.103 C 
BRANCH  80  83
ATOM     83  S   UNL     1       6.712   6.416   2.220  1.00  0.00     0.243 S 
ATOM     84  O   UNL     1       7.951   7.170   2.167  1.00  0.00    -0.207 OA
ATOM     85  O   UNL     1       5.874   6.502   3.394  1.00  0.00    -0.207 OA
BRANCH  83  86
ATOM     86  C   UNL     1       7.112   4.699   2.015  1.00  0.00     0.084 A 
ATOM     87  C   UNL     1       8.292   4.335   1.356  1.00  0.00     0.024 A 
ATOM     88  C   UNL     1       6.350   3.728   2.678  1.00  0.00     0.050 A 
ATOM     89  C   UNL     1       8.645   2.990   1.233  1.00  0.00     0.030 A 
ATOM     90  C   UNL     1       6.746   2.393   2.610  1.00  0.00     0.066 A 
ATOM     91  C   UNL     1       7.868   2.021   1.860  1.00  0.00     0.065 A 
ATOM     92  N   UNL     1       6.030   1.419   3.309  1.00  0.00    -0.316 N 
ATOM     93  N   UNL     1       8.222   0.677   1.750  1.00  0.00    -0.316 N 
ATOM     94  C   UNL     1       6.361   0.081   3.295  1.00  0.00     0.314 A 
ATOM     95  H   UNL     1       5.250   1.703   3.839  1.00  0.00     0.170 HD
ATOM     96  C   UNL     1       7.547  -0.336   2.392  1.00  0.00     0.314 A 
ATOM     97  H   UNL     1       8.993   0.441   1.186  1.00  0.00     0.170 HD
ATOM     98  O   UNL     1       5.715  -0.738   3.933  1.00  0.00    -0.263 OA
ATOM     99  O   UNL     1       7.854  -1.509   2.241  1.00  0.00    -0.263 OA
ENDBRANCH  83  86
ENDBRANCH  80  83
ENDBRANCH  75  78
ENDBRANCH  73  74
ENDBRANCH  72  73
ENDBRANCH   1  72
TORSDOF 16
