REMARK SMILES O=C(CC1(NS(=O)(=O)C[C@H]2CCCO2)CCC1)NCCCCNC(=O)c1ccc(-c2c3nc(c(-c4cc(S(=O)(=O)[O-])ccc4F)c4ccc([nH]4)c(-c4cc(S(=O)(=O)[O-])ccc4F)c4nc(c(-c5cc(S(=O)(=O)[O-])ccc5F)c5ccc2[nH]5)C=C4)C=C3)cc1
REMARK SMILES IDX 19 1 18 2 1 3 2 4 3 6 4 7 15 8 17 9 16 10 5 11 6 13 7 14
REMARK SMILES IDX 8 15 9 16 10 17 11 18 14 19 12 20 13 21 20 22 21 23 22 24
REMARK SMILES IDX 23 25 24 26 25 28 26 29 27 30 88 31 28 32 87 33 29 34 30 35
REMARK SMILES IDX 31 36 81 37 32 38 86 39 80 40 82 41 33 42 85 43 79 44 78 45
REMARK SMILES IDX 34 47 66 48 46 49 65 50 47 51 50 52 64 53 83 54 48 55 49 56
REMARK SMILES IDX 63 58 84 59 51 60 35 61 36 62 44 63 37 64 43 65 45 66 42 67
REMARK SMILES IDX 38 68 39 69 40 70 41 71 67 72 68 73 76 74 69 75 75 76 77 77
REMARK SMILES IDX 74 78 70 79 71 80 72 81 73 82 52 83 53 84 61 85 54 86 60 87
REMARK SMILES IDX 62 88 59 89 55 90 56 91 57 92 58 93
REMARK H PARENT 18 5 5 12 23 27 82 46 50 57
REMARK Flexibility Score: inf
ROOT
ATOM      1  C   UNL     1       1.496  -1.293   4.203  1.00  0.00     0.116 C 
ENDROOT
BRANCH   1   2
ATOM      2  N   UNL     1       1.114  -0.319   3.206  1.00  0.00    -0.356 N 
ATOM      3  O   UNL     1       1.926  -1.436   1.383  1.00  0.00    -0.275 OA
ATOM      4  C   UNL     1       1.346  -0.467   1.865  1.00  0.00     0.221 C 
ATOM      5  H   UNL     1       0.659   0.500   3.509  1.00  0.00     0.163 HD
BRANCH   4   6
ATOM      6  C   UNL     1       0.901   0.698   1.016  1.00  0.00     0.123 C 
BRANCH   6   7
ATOM      7  C   UNL     1      -0.604   1.000   0.979  1.00  0.00     0.042 C 
ATOM      8  C   UNL     1      -1.295   1.502   2.294  1.00  0.00     0.024 C 
ATOM      9  C   UNL     1      -0.819   2.471   0.458  1.00  0.00     0.024 C 
ATOM     10  C   UNL     1      -1.936   2.641   1.496  1.00  0.00     0.004 C 
BRANCH   7  11
ATOM     11  N   UNL     1      -1.326  -0.025   0.131  1.00  0.00    -0.208 NA
ATOM     12  H   UNL     1      -0.646  -0.276  -0.586  1.00  0.00     0.141 HD
BRANCH  11  13
ATOM     13  S   UNL     1      -2.025  -1.486   0.556  1.00  0.00     0.214 S 
ATOM     14  O   UNL     1      -2.336  -1.437   1.967  1.00  0.00    -0.212 OA
ATOM     15  O   UNL     1      -3.082  -1.687  -0.415  1.00  0.00    -0.212 OA
BRANCH  13  16
ATOM     16  C   UNL     1      -0.777  -2.740   0.324  1.00  0.00     0.185 C 
BRANCH  16  17
ATOM     17  C   UNL     1       0.085  -2.594  -0.920  1.00  0.00     0.134 C 
ATOM     18  C   UNL     1       1.248  -3.589  -0.899  1.00  0.00     0.035 C 
ATOM     19  O   UNL     1      -0.680  -2.927  -2.096  1.00  0.00    -0.377 OA
ATOM     20  C   UNL     1       0.662  -4.798  -1.586  1.00  0.00     0.031 C 
ATOM     21  C   UNL     1      -0.175  -4.146  -2.660  1.00  0.00     0.160 C 
ENDBRANCH  16  17
ENDBRANCH  13  16
ENDBRANCH  11  13
ENDBRANCH   7  11
ENDBRANCH   6   7
ENDBRANCH   4   6
ENDBRANCH   1   2
BRANCH   1  22
ATOM     22  C   UNL     1       2.834  -0.940   4.850  1.00  0.00     0.023 C 
BRANCH  22  23
ATOM     23  C   UNL     1       2.937   0.497   5.376  1.00  0.00     0.023 C 
BRANCH  23  24
ATOM     24  C   UNL     1       1.835   0.926   6.340  1.00  0.00     0.116 C 
BRANCH  24  25
ATOM     25  N   UNL     1       1.845   0.159   7.572  1.00  0.00    -0.352 N 
ATOM     26  C   UNL     1       1.916   0.603   8.871  1.00  0.00     0.251 C 
ATOM     27  H   UNL     1       1.793  -0.819   7.462  1.00  0.00     0.163 HD
ATOM     28  O   UNL     1       2.105  -0.202   9.778  1.00  0.00    -0.269 OA
BRANCH  26  29
ATOM     29  C   UNL     1       1.798   2.050   9.168  1.00  0.00     0.039 A 
ATOM     30  C   UNL     1       2.701   2.632  10.060  1.00  0.00     0.014 A 
ATOM     31  C   UNL     1       0.805   2.830   8.569  1.00  0.00     0.014 A 
ATOM     32  C   UNL     1       2.650   4.008  10.300  1.00  0.00     0.010 A 
ATOM     33  C   UNL     1       0.803   4.213   8.752  1.00  0.00     0.010 A 
ATOM     34  C   UNL     1       1.726   4.818   9.619  1.00  0.00    -0.014 A 
BRANCH  34  35
ATOM     35  C   UNL     1       1.718   6.296   9.800  1.00  0.00     0.031 A 
ATOM     36  C   UNL     1       0.512   6.983  10.383  1.00  0.00     0.074 A 
ATOM     37  C   UNL     1       2.777   7.025   9.393  1.00  0.00     0.049 A 
ATOM     38  N   UNL     1       0.293   8.261  10.563  1.00  0.00    -0.248 NA
ATOM     39  C   UNL     1      -0.605   6.120  10.794  1.00  0.00     0.031 C 
ATOM     40  C   UNL     1       3.994   6.480   8.785  1.00  0.00     0.029 A 
ATOM     41  N   UNL     1       3.004   8.380   9.422  1.00  0.00    -0.354 N 
ATOM     42  C   UNL     1      -0.988   8.356  11.096  1.00  0.00     0.074 A 
ATOM     43  C   UNL     1      -1.518   7.010  11.152  1.00  0.00     0.031 C 
ATOM     44  C   UNL     1       4.848   7.484   8.532  1.00  0.00     0.029 A 
ATOM     45  C   UNL     1       4.225   8.750   8.905  1.00  0.00     0.049 A 
ATOM     46  H   UNL     1       2.354   9.026   9.781  1.00  0.00     0.167 HD
ATOM     47  C   UNL     1      -1.652   9.461  11.519  1.00  0.00     0.034 A 
ATOM     48  C   UNL     1       4.775   9.969   8.736  1.00  0.00     0.034 A 
ATOM     49  C   UNL     1      -1.106  10.796  11.466  1.00  0.00     0.049 A 
ATOM     50  C   UNL     1       3.997  11.187   9.172  1.00  0.00     0.074 A 
ATOM     51  C   UNL     1      -1.671  11.975  11.919  1.00  0.00     0.029 A 
ATOM     52  N   UNL     1       0.124  11.133  10.915  1.00  0.00    -0.354 N 
ATOM     53  N   UNL     1       2.806  11.253   9.722  1.00  0.00    -0.248 NA
ATOM     54  C   UNL     1       4.641  12.491   8.973  1.00  0.00     0.031 C 
ATOM     55  C   UNL     1      -0.825  13.032  11.567  1.00  0.00     0.029 A 
ATOM     56  C   UNL     1       0.315  12.506  10.980  1.00  0.00     0.049 A 
ATOM     57  H   UNL     1       0.767  10.492  10.535  1.00  0.00     0.167 HD
ATOM     58  C   UNL     1       2.578  12.605   9.969  1.00  0.00     0.074 A 
ATOM     59  C   UNL     1       3.759  13.313   9.521  1.00  0.00     0.031 C 
ATOM     60  C   UNL     1       1.493  13.206  10.522  1.00  0.00     0.034 A 
BRANCH  47  61
ATOM     61  C   UNL     1      -3.057   9.275  12.046  1.00  0.00     0.023 A 
ATOM     62  C   UNL     1      -3.325   8.499  13.188  1.00  0.00     0.031 A 
ATOM     63  C   UNL     1      -4.147   9.873  11.390  1.00  0.00     0.131 A 
ATOM     64  C   UNL     1      -4.650   8.282  13.593  1.00  0.00     0.055 A 
ATOM     65  C   UNL     1      -5.457   9.725  11.850  1.00  0.00     0.041 A 
ATOM     66  F   UNL     1      -3.960  10.607  10.281  1.00  0.00    -0.206 F 
ATOM     67  C   UNL     1      -5.717   8.912  12.949  1.00  0.00     0.022 A 
BRANCH  64  68
ATOM     68  S   UNL     1      -4.970   7.044  14.880  1.00  0.00     0.124 S 
ATOM     69  O   UNL     1      -4.380   5.845  14.288  1.00  0.00    -0.237 OA
ATOM     70  O   UNL     1      -4.270   7.599  16.032  1.00  0.00    -0.237 OA
ATOM     71  O   UNL     1      -6.428   7.025  14.983  1.00  0.00    -0.744 OA
ENDBRANCH  64  68
ENDBRANCH  47  61
BRANCH  48  72
ATOM     72  C   UNL     1       6.125  10.116   8.115  1.00  0.00     0.023 A 
ATOM     73  C   UNL     1       7.192  10.682   8.830  1.00  0.00     0.031 A 
ATOM     74  C   UNL     1       6.355   9.745   6.777  1.00  0.00     0.131 A 
ATOM     75  C   UNL     1       8.420  10.914   8.191  1.00  0.00     0.055 A 
ATOM     76  C   UNL     1       7.597   9.919   6.165  1.00  0.00     0.041 A 
ATOM     77  F   UNL     1       5.371   9.199   6.045  1.00  0.00    -0.206 F 
ATOM     78  C   UNL     1       8.635  10.522   6.869  1.00  0.00     0.022 A 
BRANCH  75  79
ATOM     79  S   UNL     1       9.702  11.838   9.083  1.00  0.00     0.124 S 
ATOM     80  O   UNL     1       9.008  13.083   9.391  1.00  0.00    -0.237 OA
ATOM     81  O   UNL     1       9.977  10.958  10.214  1.00  0.00    -0.237 OA
ATOM     82  O   UNL     1      10.782  11.950   8.105  1.00  0.00    -0.744 OA
ENDBRANCH  75  79
ENDBRANCH  48  72
BRANCH  60  83
ATOM     83  C   UNL     1       1.558  14.702  10.720  1.00  0.00     0.023 A 
ATOM     84  C   UNL     1       1.626  15.595   9.636  1.00  0.00     0.031 A 
ATOM     85  C   UNL     1       1.561  15.242  12.020  1.00  0.00     0.131 A 
ATOM     86  C   UNL     1       1.754  16.973   9.872  1.00  0.00     0.055 A 
ATOM     87  C   UNL     1       1.617  16.617  12.246  1.00  0.00     0.041 A 
ATOM     88  F   UNL     1       1.503  14.438  13.094  1.00  0.00    -0.206 F 
ATOM     89  C   UNL     1       1.730  17.491  11.169  1.00  0.00     0.022 A 
BRANCH  86  90
ATOM     90  S   UNL     1       2.061  18.072   8.462  1.00  0.00     0.124 S 
ATOM     91  O   UNL     1       3.287  17.512   7.902  1.00  0.00    -0.237 OA
ATOM     92  O   UNL     1       0.855  17.895   7.660  1.00  0.00    -0.237 OA
ATOM     93  O   UNL     1       2.207  19.389   9.079  1.00  0.00    -0.744 OA
ENDBRANCH  86  90
ENDBRANCH  60  83
ENDBRANCH  34  35
ENDBRANCH  26  29
ENDBRANCH  24  25
ENDBRANCH  23  24
ENDBRANCH  22  23
ENDBRANCH   1  22
TORSDOF 19
