REMARK SMILES C[C@@H]1[C@H](C(=O)NCCCCNC(=O)c2ccc(-c3c4nc(c(-c5cc(S(=O)(=O)[O-])ccc5F)c5ccc([nH]5)c(-c5cc(S(=O)(=O)[O-])ccc5F)c5nc(c(-c6cc(S(=O)(=O)[O-])ccc6F)c6ccc3[nH]6)C=C5)C=C4)cc2)CCN1C(=O)c1c(Cl)cccc1[N+](=O)[O-]
REMARK SMILES IDX 8 1 7 2 6 3 4 4 5 5 3 7 1 8 2 9 79 10 77 11 78 12 80 13
REMARK SMILES IDX 81 14 82 15 83 16 88 17 84 18 85 19 87 20 86 21 89 22 90 23
REMARK SMILES IDX 91 24 9 25 10 26 11 27 12 28 13 30 14 31 15 32 76 33 16 34
REMARK SMILES IDX 75 35 17 36 18 37 19 38 69 39 20 40 74 41 68 42 70 43 21 44
REMARK SMILES IDX 73 45 67 46 66 47 22 49 54 50 34 51 53 52 35 53 38 54 52 55
REMARK SMILES IDX 71 56 36 57 37 58 51 60 72 61 39 62 23 63 24 64 32 65 25 66
REMARK SMILES IDX 31 67 33 68 30 69 26 70 27 71 28 72 29 73 55 74 56 75 64 76
REMARK SMILES IDX 57 77 63 78 65 79 62 80 58 81 59 82 60 83 61 84 40 85 41 86
REMARK SMILES IDX 49 87 42 88 48 89 50 90 47 91 43 92 44 93 45 94 46 95
REMARK H PARENT 6 6 11 29 70 48 38 59
REMARK Flexibility Score: inf
ROOT
ATOM      1  C   UNL     1       2.827   1.120   2.388  1.00  0.00     0.023 C 
ENDROOT
BRANCH   1   2
ATOM      2  C   UNL     1       1.369   1.452   2.065  1.00  0.00     0.116 C 
BRANCH   2   3
ATOM      3  N   UNL     1       1.247   2.421   0.988  1.00  0.00    -0.356 N 
ATOM      4  C   UNL     1       0.617   2.365  -0.214  1.00  0.00     0.225 C 
ATOM      5  O   UNL     1       0.719   3.354  -0.948  1.00  0.00    -0.275 OA
ATOM      6  H   UNL     1       1.704   3.275   1.163  1.00  0.00     0.163 HD
BRANCH   4   7
ATOM      7  C   UNL     1      -0.176   1.159  -0.699  1.00  0.00     0.102 C 
ATOM      8  C   UNL     1       2.102  -0.090  -0.861  1.00  0.00     0.032 C 
ATOM      9  C   UNL     1       0.598  -0.125  -1.073  1.00  0.00     0.094 C 
ATOM     10  N   UNL     1      -0.126  -1.214  -0.389  1.00  0.00    -0.335 N 
ATOM     11  C   UNL     1      -1.315   0.744   0.233  1.00  0.00     0.037 C 
ATOM     12  C   UNL     1      -1.425  -0.756   0.068  1.00  0.00     0.121 C 
BRANCH  10  13
ATOM     13  C   UNL     1       0.077  -2.586  -0.428  1.00  0.00     0.262 C 
ATOM     14  O   UNL     1      -0.764  -3.411  -0.080  1.00  0.00    -0.269 OA
BRANCH  13  15
ATOM     15  C   UNL     1       1.355  -3.126  -0.901  1.00  0.00     0.136 A 
ATOM     16  C   UNL     1       1.477  -3.539  -2.233  1.00  0.00     0.060 A 
ATOM     17  C   UNL     1       2.444  -3.296  -0.036  1.00  0.00     0.283 A 
ATOM     18  Cl  UNL     1       0.184  -3.395  -3.371  1.00  0.00    -0.083 Cl
ATOM     19  C   UNL     1       2.687  -4.073  -2.696  1.00  0.00     0.022 A 
ATOM     20  C   UNL     1       3.664  -3.814  -0.504  1.00  0.00     0.086 A 
ATOM     21  C   UNL     1       3.780  -4.202  -1.837  1.00  0.00     0.009 A 
BRANCH  17  22
ATOM     22  N   UNL     1       2.380  -2.888   1.361  1.00  0.00     0.063 N 
ATOM     23  O   UNL     1       3.370  -2.293   1.809  1.00  0.00    -0.258 OA
ATOM     24  O   UNL     1       1.371  -3.170   2.013  1.00  0.00    -0.258 OA
ENDBRANCH  17  22
ENDBRANCH  13  15
ENDBRANCH  10  13
ENDBRANCH   4   7
ENDBRANCH   2   3
ENDBRANCH   1   2
BRANCH   1  25
ATOM     25  C   UNL     1       3.658   2.256   2.970  1.00  0.00     0.023 C 
BRANCH  25  26
ATOM     26  C   UNL     1       3.145   2.823   4.282  1.00  0.00     0.116 C 
BRANCH  26  27
ATOM     27  N   UNL     1       3.034   1.824   5.334  1.00  0.00    -0.352 N 
ATOM     28  C   UNL     1       3.528   1.855   6.619  1.00  0.00     0.251 C 
ATOM     29  H   UNL     1       2.535   1.011   5.093  1.00  0.00     0.163 HD
ATOM     30  O   UNL     1       3.448   0.863   7.331  1.00  0.00    -0.269 OA
BRANCH  28  31
ATOM     31  C   UNL     1       4.192   3.082   7.111  1.00  0.00     0.039 A 
ATOM     32  C   UNL     1       5.410   2.973   7.784  1.00  0.00     0.014 A 
ATOM     33  C   UNL     1       3.633   4.338   6.865  1.00  0.00     0.014 A 
ATOM     34  C   UNL     1       6.106   4.130   8.143  1.00  0.00     0.010 A 
ATOM     35  C   UNL     1       4.372   5.483   7.131  1.00  0.00     0.010 A 
ATOM     36  C   UNL     1       5.611   5.394   7.783  1.00  0.00    -0.014 A 
BRANCH  36  37
ATOM     37  C   UNL     1       6.346   6.643   8.112  1.00  0.00     0.031 A 
ATOM     38  C   UNL     1       5.700   7.665   9.008  1.00  0.00     0.074 A 
ATOM     39  C   UNL     1       7.544   6.891   7.548  1.00  0.00     0.049 A 
ATOM     40  N   UNL     1       6.105   8.867   9.325  1.00  0.00    -0.248 NA
ATOM     41  C   UNL     1       4.398   7.299   9.587  1.00  0.00     0.031 C 
ATOM     42  C   UNL     1       8.248   5.997   6.624  1.00  0.00     0.029 A 
ATOM     43  N   UNL     1       8.379   7.973   7.660  1.00  0.00    -0.354 N 
ATOM     44  C   UNL     1       5.097   9.409  10.116  1.00  0.00     0.074 A 
ATOM     45  C   UNL     1       4.031   8.431  10.164  1.00  0.00     0.031 C 
ATOM     46  C   UNL     1       9.419   6.556   6.279  1.00  0.00     0.029 A 
ATOM     47  C   UNL     1       9.532   7.863   6.917  1.00  0.00     0.049 A 
ATOM     48  H   UNL     1       8.172   8.756   8.220  1.00  0.00     0.167 HD
ATOM     49  C   UNL     1       5.074  10.598  10.768  1.00  0.00     0.034 A 
ATOM     50  C   UNL     1      10.559   8.723   6.765  1.00  0.00     0.034 A 
ATOM     51  C   UNL     1       6.160  11.546  10.731  1.00  0.00     0.049 A 
ATOM     52  C   UNL     1      10.519  10.036   7.505  1.00  0.00     0.074 A 
ATOM     53  C   UNL     1       6.274  12.757  11.389  1.00  0.00     0.029 A 
ATOM     54  N   UNL     1       7.327  11.385   9.993  1.00  0.00    -0.354 N 
ATOM     55  N   UNL     1       9.577  10.519   8.283  1.00  0.00    -0.248 NA
ATOM     56  C   UNL     1      11.688  10.913   7.359  1.00  0.00     0.031 C 
ATOM     57  C   UNL     1       7.481  13.353  11.007  1.00  0.00     0.029 A 
ATOM     58  C   UNL     1       8.156  12.482  10.166  1.00  0.00     0.049 A 
ATOM     59  H   UNL     1       7.535  10.605   9.429  1.00  0.00     0.167 HD
ATOM     60  C   UNL     1      10.057  11.740   8.747  1.00  0.00     0.074 A 
ATOM     61  C   UNL     1      11.375  11.913   8.170  1.00  0.00     0.031 C 
ATOM     62  C   UNL     1       9.467  12.636   9.580  1.00  0.00     0.034 A 
BRANCH  49  63
ATOM     63  C   UNL     1       3.826  10.932  11.552  1.00  0.00     0.023 A 
ATOM     64  C   UNL     1       3.393  10.132  12.625  1.00  0.00     0.031 A 
ATOM     65  C   UNL     1       3.025  12.029  11.189  1.00  0.00     0.131 A 
ATOM     66  C   UNL     1       2.151  10.379  13.229  1.00  0.00     0.055 A 
ATOM     67  C   UNL     1       1.835  12.326  11.858  1.00  0.00     0.041 A 
ATOM     68  F   UNL     1       3.373  12.820  10.161  1.00  0.00    -0.206 F 
ATOM     69  C   UNL     1       1.381  11.487  12.871  1.00  0.00     0.022 A 
BRANCH  66  70
ATOM     70  S   UNL     1       1.483   9.134  14.367  1.00  0.00     0.124 S 
ATOM     71  O   UNL     1       1.419   7.955  13.507  1.00  0.00    -0.237 OA
ATOM     72  O   UNL     1       2.486   9.101  15.424  1.00  0.00    -0.237 OA
ATOM     73  O   UNL     1       0.185   9.685  14.754  1.00  0.00    -0.744 OA
ENDBRANCH  66  70
ENDBRANCH  49  63
BRANCH  50  74
ATOM     74  C   UNL     1      11.714   8.375   5.890  1.00  0.00     0.023 A 
ATOM     75  C   UNL     1      12.995   8.178   6.430  1.00  0.00     0.031 A 
ATOM     76  C   UNL     1      11.563   8.268   4.496  1.00  0.00     0.131 A 
ATOM     77  C   UNL     1      14.084   7.931   5.580  1.00  0.00     0.055 A 
ATOM     78  C   UNL     1      12.641   7.973   3.658  1.00  0.00     0.041 A 
ATOM     79  F   UNL     1      10.358   8.438   3.928  1.00  0.00    -0.206 F 
ATOM     80  C   UNL     1      13.913   7.815   4.199  1.00  0.00     0.022 A 
BRANCH  77  81
ATOM     81  S   UNL     1      15.746   7.837   6.301  1.00  0.00     0.124 S 
ATOM     82  O   UNL     1      15.868   9.144   6.937  1.00  0.00    -0.237 OA
ATOM     83  O   UNL     1      15.621   6.694   7.200  1.00  0.00    -0.237 OA
ATOM     84  O   UNL     1      16.608   7.623   5.141  1.00  0.00    -0.744 OA
ENDBRANCH  77  81
ENDBRANCH  50  74
BRANCH  62  85
ATOM     85  C   UNL     1      10.274  13.853   9.958  1.00  0.00     0.023 A 
ATOM     86  C   UNL     1      10.605  14.845   9.019  1.00  0.00     0.031 A 
ATOM     87  C   UNL     1      10.726  14.013  11.280  1.00  0.00     0.131 A 
ATOM     88  C   UNL     1      11.414  15.925   9.403  1.00  0.00     0.055 A 
ATOM     89  C   UNL     1      11.480  15.120  11.669  1.00  0.00     0.041 A 
ATOM     90  F   UNL     1      10.439  13.094  12.216  1.00  0.00    -0.206 F 
ATOM     91  C   UNL     1      11.840  16.077  10.726  1.00  0.00     0.022 A 
BRANCH  88  92
ATOM     92  S   UNL     1      11.982  17.084   8.128  1.00  0.00     0.124 S 
ATOM     93  O   UNL     1      12.683  16.200   7.204  1.00  0.00    -0.237 OA
ATOM     94  O   UNL     1      10.728  17.651   7.641  1.00  0.00    -0.237 OA
ATOM     95  O   UNL     1      12.836  18.014   8.865  1.00  0.00    -0.744 OA
ENDBRANCH  88  92
ENDBRANCH  62  85
ENDBRANCH  36  37
ENDBRANCH  28  31
ENDBRANCH  26  27
ENDBRANCH  25  26
ENDBRANCH   1  25
TORSDOF 17
