REMARK SMILES O=C(NCCCCNC(=O)c1ccccc1-c1ccc(/C=C2\C(=O)N(c3cccc(Br)c3)C(=O)N=C2O)o1)c1ccc(-c2c3nc(c(-c4cc(S(=O)(=O)[O-])ccc4F)c4ccc([nH]4)c(-c4cc(S(=O)(=O)[O-])ccc4F)c4nc(c(-c5cc(S(=O)(=O)[O-])ccc5F)c5ccc2[nH]5)C=C4)C=C3)cc1
REMARK SMILES IDX 5 1 4 2 3 3 1 4 2 5 39 7 40 8 101 9 41 10 100 11 42 12 43 13
REMARK SMILES IDX 44 14 94 15 45 16 99 17 93 18 95 19 46 20 98 21 92 22 91 23
REMARK SMILES IDX 47 25 79 26 59 27 78 28 60 29 63 30 77 31 96 32 61 33 62 34
REMARK SMILES IDX 76 36 97 37 64 38 48 39 49 40 57 41 50 42 56 43 58 44 55 45
REMARK SMILES IDX 51 46 52 47 53 48 54 49 80 50 81 51 89 52 82 53 88 54 90 55
REMARK SMILES IDX 87 56 83 57 84 58 85 59 86 60 65 61 66 62 74 63 67 64 73 65
REMARK SMILES IDX 75 66 72 67 68 68 69 69 70 70 71 71 6 72 7 73 8 74 9 75
REMARK SMILES IDX 10 77 11 78 12 79 16 80 13 81 15 82 14 83 17 84 18 85 38 86
REMARK SMILES IDX 19 87 20 88 21 89 22 90 23 91 36 92 24 93 25 94 35 95 33 96
REMARK SMILES IDX 34 97 37 98 26 100 27 101 32 102 28 103 30 104 29 105 31 106
REMARK H PARENT 3 6 95 24 63 35 8 76 37 99
REMARK Flexibility Score: inf
ROOT
ATOM      1  C   UNL     1       5.191  -2.508   0.197  1.00  0.00     0.023 C 
ENDROOT
BRANCH   1   2
ATOM      2  C   UNL     1       4.802  -1.173  -0.428  1.00  0.00     0.116 C 
BRANCH   2   3
ATOM      3  N   UNL     1       3.362  -0.985  -0.560  1.00  0.00    -0.352 N 
ATOM      4  O   UNL     1       1.343  -0.014  -0.282  1.00  0.00    -0.269 OA
ATOM      5  C   UNL     1       2.553   0.019  -0.073  1.00  0.00     0.251 C 
ATOM      6  H   UNL     1       2.896  -1.682  -1.076  1.00  0.00     0.163 HD
BRANCH   5   7
ATOM      7  C   UNL     1       3.150   1.109   0.734  1.00  0.00     0.039 A 
ATOM      8  C   UNL     1       4.297   1.764   0.289  1.00  0.00     0.014 A 
ATOM      9  C   UNL     1       2.608   1.422   1.984  1.00  0.00     0.014 A 
ATOM     10  C   UNL     1       5.022   2.554   1.175  1.00  0.00     0.010 A 
ATOM     11  C   UNL     1       3.284   2.309   2.833  1.00  0.00     0.010 A 
ATOM     12  C   UNL     1       4.532   2.835   2.462  1.00  0.00    -0.014 A 
BRANCH  12  13
ATOM     13  C   UNL     1       5.352   3.672   3.385  1.00  0.00     0.031 A 
ATOM     14  C   UNL     1       5.871   3.122   4.692  1.00  0.00     0.074 A 
ATOM     15  C   UNL     1       5.687   4.923   3.008  1.00  0.00     0.049 A 
ATOM     16  N   UNL     1       6.637   3.698   5.586  1.00  0.00    -0.248 NA
ATOM     17  C   UNL     1       5.469   1.753   5.047  1.00  0.00     0.031 C 
ATOM     18  C   UNL     1       5.252   5.569   1.767  1.00  0.00     0.029 A 
ATOM     19  N   UNL     1       6.488   5.864   3.605  1.00  0.00    -0.354 N 
ATOM     20  C   UNL     1       6.790   2.775   6.617  1.00  0.00     0.074 A 
ATOM     21  C   UNL     1       6.004   1.615   6.251  1.00  0.00     0.031 C 
ATOM     22  C   UNL     1       5.841   6.768   1.664  1.00  0.00     0.029 A 
ATOM     23  C   UNL     1       6.630   7.015   2.865  1.00  0.00     0.049 A 
ATOM     24  H   UNL     1       6.920   5.727   4.479  1.00  0.00     0.167 HD
ATOM     25  C   UNL     1       7.522   2.882   7.756  1.00  0.00     0.034 A 
ATOM     26  C   UNL     1       7.303   8.152   3.126  1.00  0.00     0.034 A 
ATOM     27  C   UNL     1       8.310   4.044   8.102  1.00  0.00     0.049 A 
ATOM     28  C   UNL     1       8.075   8.260   4.414  1.00  0.00     0.074 A 
ATOM     29  C   UNL     1       9.116   4.241   9.211  1.00  0.00     0.029 A 
ATOM     30  N   UNL     1       8.386   5.212   7.352  1.00  0.00    -0.354 N 
ATOM     31  N   UNL     1       8.222   7.369   5.367  1.00  0.00    -0.248 NA
ATOM     32  C   UNL     1       8.777   9.525   4.656  1.00  0.00     0.031 C 
ATOM     33  C   UNL     1       9.610   5.549   9.174  1.00  0.00     0.029 A 
ATOM     34  C   UNL     1       9.194   6.142   7.992  1.00  0.00     0.049 A 
ATOM     35  H   UNL     1       7.932   5.358   6.490  1.00  0.00     0.167 HD
ATOM     36  C   UNL     1       9.066   7.956   6.306  1.00  0.00     0.074 A 
ATOM     37  C   UNL     1       9.406   9.268   5.793  1.00  0.00     0.031 C 
ATOM     38  C   UNL     1       9.522   7.453   7.481  1.00  0.00     0.034 A 
BRANCH  25  39
ATOM     39  C   UNL     1       7.464   1.732   8.740  1.00  0.00     0.023 A 
ATOM     40  C   UNL     1       7.922   0.443   8.413  1.00  0.00     0.031 A 
ATOM     41  C   UNL     1       6.926   1.927  10.026  1.00  0.00     0.131 A 
ATOM     42  C   UNL     1       7.763  -0.612   9.326  1.00  0.00     0.055 A 
ATOM     43  C   UNL     1       6.850   0.892  10.961  1.00  0.00     0.041 A 
ATOM     44  F   UNL     1       6.453   3.128  10.394  1.00  0.00    -0.206 F 
ATOM     45  C   UNL     1       7.255  -0.391  10.608  1.00  0.00     0.022 A 
BRANCH  42  46
ATOM     46  S   UNL     1       8.086  -2.305   8.760  1.00  0.00     0.124 S 
ATOM     47  O   UNL     1       7.188  -2.410   7.612  1.00  0.00    -0.237 OA
ATOM     48  O   UNL     1       9.511  -2.269   8.455  1.00  0.00    -0.237 OA
ATOM     49  O   UNL     1       7.713  -3.128   9.909  1.00  0.00    -0.744 OA
ENDBRANCH  42  46
ENDBRANCH  25  39
BRANCH  26  50
ATOM     50  C   UNL     1       7.262   9.289   2.161  1.00  0.00     0.023 A 
ATOM     51  C   UNL     1       8.430   9.753   1.537  1.00  0.00     0.031 A 
ATOM     52  C   UNL     1       6.055   9.954   1.879  1.00  0.00     0.131 A 
ATOM     53  C   UNL     1       8.376  10.878   0.701  1.00  0.00     0.055 A 
ATOM     54  C   UNL     1       5.996  11.034   0.997  1.00  0.00     0.041 A 
ATOM     55  F   UNL     1       4.907   9.550   2.446  1.00  0.00    -0.206 F 
ATOM     56  C   UNL     1       7.164  11.511   0.414  1.00  0.00     0.022 A 
BRANCH  53  57
ATOM     57  S   UNL     1       9.930  11.563   0.066  1.00  0.00     0.124 S 
ATOM     58  O   UNL     1      10.656  11.844   1.300  1.00  0.00    -0.237 OA
ATOM     59  O   UNL     1      10.439  10.459  -0.741  1.00  0.00    -0.237 OA
ATOM     60  O   UNL     1       9.500  12.738  -0.688  1.00  0.00    -0.744 OA
ENDBRANCH  53  57
ENDBRANCH  26  50
BRANCH  38  61
ATOM     61  C   UNL     1      10.493   8.310   8.261  1.00  0.00     0.023 A 
ATOM     62  C   UNL     1      10.125   9.556   8.798  1.00  0.00     0.031 A 
ATOM     63  C   UNL     1      11.823   7.886   8.434  1.00  0.00     0.131 A 
ATOM     64  C   UNL     1      11.092  10.366   9.414  1.00  0.00     0.055 A 
ATOM     65  C   UNL     1      12.762   8.663   9.113  1.00  0.00     0.041 A 
ATOM     66  F   UNL     1      12.236   6.708   7.939  1.00  0.00    -0.206 F 
ATOM     67  C   UNL     1      12.403   9.920   9.592  1.00  0.00     0.022 A 
BRANCH  64  68
ATOM     68  S   UNL     1      10.644  12.065   9.868  1.00  0.00     0.124 S 
ATOM     69  O   UNL     1      10.181  12.607   8.594  1.00  0.00    -0.237 OA
ATOM     70  O   UNL     1       9.617  11.856  10.883  1.00  0.00    -0.237 OA
ATOM     71  O   UNL     1      11.898  12.630  10.362  1.00  0.00    -0.744 OA
ENDBRANCH  64  68
ENDBRANCH  38  61
ENDBRANCH  12  13
ENDBRANCH   5   7
ENDBRANCH   2   3
ENDBRANCH   1   2
BRANCH   1  72
ATOM     72  C   UNL     1       4.784  -3.753  -0.583  1.00  0.00     0.023 C 
BRANCH  72  73
ATOM     73  C   UNL     1       5.202  -3.769  -2.046  1.00  0.00     0.116 C 
BRANCH  73  74
ATOM     74  N   UNL     1       6.634  -3.763  -2.276  1.00  0.00    -0.352 N 
ATOM     75  C   UNL     1       7.286  -4.291  -3.367  1.00  0.00     0.252 C 
ATOM     76  H   UNL     1       7.193  -3.340  -1.586  1.00  0.00     0.163 HD
ATOM     77  O   UNL     1       8.492  -4.138  -3.530  1.00  0.00    -0.269 OA
BRANCH  75  78
ATOM     78  C   UNL     1       6.526  -5.124  -4.324  1.00  0.00     0.050 A 
ATOM     79  C   UNL     1       6.751  -6.507  -4.241  1.00  0.00     0.014 A 
ATOM     80  C   UNL     1       5.571  -4.594  -5.211  1.00  0.00     0.030 A 
ATOM     81  C   UNL     1       5.991  -7.381  -5.012  1.00  0.00     0.001 A 
ATOM     82  C   UNL     1       4.808  -5.495  -5.970  1.00  0.00     0.013 A 
ATOM     83  C   UNL     1       5.014  -6.877  -5.868  1.00  0.00     0.001 A 
BRANCH  80  84
ATOM     84  C   UNL     1       5.308  -3.164  -5.300  1.00  0.00     0.135 A 
ATOM     85  C   UNL     1       6.093  -2.039  -5.394  1.00  0.00     0.051 A 
ATOM     86  O   UNL     1       4.007  -2.796  -5.125  1.00  0.00    -0.457 OA
ATOM     87  C   UNL     1       5.228  -0.940  -5.163  1.00  0.00     0.051 A 
ATOM     88  C   UNL     1       3.954  -1.438  -4.907  1.00  0.00     0.128 A 
BRANCH  88  89
ATOM     89  C   UNL     1       2.795  -0.718  -4.491  1.00  0.00     0.066 C 
ATOM     90  C   UNL     1       1.747  -1.218  -3.804  1.00  0.00     0.106 C 
ATOM     91  C   UNL     1       1.574  -2.600  -3.292  1.00  0.00     0.272 C 
ATOM     92  C   UNL     1       0.627  -0.349  -3.466  1.00  0.00     0.228 C 
ATOM     93  O   UNL     1       2.550  -3.309  -3.073  1.00  0.00    -0.268 OA
ATOM     94  N   UNL     1       0.255  -2.983  -3.043  1.00  0.00    -0.226 N 
ATOM     95  N   UNL     1      -0.538  -0.714  -3.101  1.00  0.00    -0.156 NA
ATOM     96  C   UNL     1      -0.809  -2.059  -2.997  1.00  0.00     0.358 C 
ATOM     97  O   UNL     1      -1.976  -2.404  -2.833  1.00  0.00    -0.245 OA
BRANCH  92  98
ATOM     98  O   UNL     1       0.879   0.966  -3.520  1.00  0.00    -0.493 OA
ATOM     99  H   UNL     1       1.724   1.271  -3.784  1.00  0.00     0.295 HD
ENDBRANCH  92  98
BRANCH  94 100
ATOM    100  C   UNL     1      -0.010  -4.387  -2.810  1.00  0.00     0.055 A 
ATOM    101  C   UNL     1      -1.099  -5.025  -3.424  1.00  0.00     0.027 A 
ATOM    102  C   UNL     1       0.853  -5.175  -2.028  1.00  0.00     0.042 A 
ATOM    103  C   UNL     1      -1.293  -6.406  -3.297  1.00  0.00     0.003 A 
ATOM    104  C   UNL     1       0.657  -6.551  -1.904  1.00  0.00     0.020 A 
ATOM    105  C   UNL     1      -0.408  -7.173  -2.543  1.00  0.00     0.016 A 
ATOM    106  Br  UNL     1       1.866  -7.579  -0.874  1.00  0.00    -0.051 Br
ENDBRANCH  94 100
ENDBRANCH  88  89
ENDBRANCH  80  84
ENDBRANCH  75  78
ENDBRANCH  73  74
ENDBRANCH  72  73
ENDBRANCH   1  72
TORSDOF 18
