REMARK SMILES CNS(=O)(=O)c1cc(C(=O)NCCCCNC(=O)c2ccc(-c3c4nc(c(-c5cc(S(=O)(=O)[O-])ccc5F)c5ccc([nH]5)c(-c5cc(S(=O)(=O)[O-])ccc5F)c5nc(c(-c6cc(S(=O)(=O)[O-])ccc6F)c6ccc3[nH]6)C=C5)C=C4)cc2)ccc1N(C)C
REMARK SMILES IDX 14 1 13 2 12 3 11 4 9 5 10 6 8 8 6 9 7 10 84 11 83 12 82 13
REMARK SMILES IDX 3 14 4 15 5 16 2 17 1 18 85 20 86 21 87 22 15 23 16 24 17 25
REMARK SMILES IDX 18 27 19 28 20 29 81 30 21 31 80 32 22 33 23 34 24 35 74 36
REMARK SMILES IDX 25 37 79 38 73 39 75 40 26 41 78 42 72 43 71 44 27 46 59 47
REMARK SMILES IDX 39 48 58 49 40 50 43 51 57 52 76 53 41 54 42 55 56 57 77 58
REMARK SMILES IDX 44 59 28 60 29 61 37 62 30 63 36 64 38 65 35 66 31 67 32 68
REMARK SMILES IDX 33 69 34 70 60 71 61 72 69 73 62 74 68 75 70 76 67 77 63 78
REMARK SMILES IDX 64 79 65 80 66 81 45 82 46 83 54 84 47 85 53 86 55 87 52 88
REMARK SMILES IDX 48 89 49 90 50 91 51 92
REMARK H PARENT 11 7 2 19 16 26 75 45 43 56
REMARK Flexibility Score: inf
ROOT
ATOM      1  C   UNL     1      -3.769   8.430   0.684  1.00  0.00     0.023 C 
ENDROOT
BRANCH   1   2
ATOM      2  C   UNL     1      -4.162   6.984   0.394  1.00  0.00     0.023 C 
BRANCH   2   3
ATOM      3  C   UNL     1      -3.151   6.151  -0.386  1.00  0.00     0.116 C 
BRANCH   3   4
ATOM      4  N   UNL     1      -1.874   5.982   0.288  1.00  0.00    -0.352 N 
ATOM      5  C   UNL     1      -1.133   4.850   0.534  1.00  0.00     0.251 C 
ATOM      6  O   UNL     1      -0.086   4.941   1.171  1.00  0.00    -0.269 OA
ATOM      7  H   UNL     1      -1.474   6.816   0.625  1.00  0.00     0.163 HD
BRANCH   5   8
ATOM      8  C   UNL     1      -1.591   3.510   0.090  1.00  0.00     0.041 A 
ATOM      9  C   UNL     1      -1.821   1.105   0.572  1.00  0.00     0.106 A 
ATOM     10  C   UNL     1      -1.352   2.408   0.907  1.00  0.00     0.037 A 
ATOM     11  C   UNL     1      -2.694   0.919  -0.520  1.00  0.00     0.056 A 
ATOM     12  C   UNL     1      -2.739   2.029  -1.409  1.00  0.00     0.028 A 
ATOM     13  C   UNL     1      -2.176   3.281  -1.139  1.00  0.00     0.016 A 
BRANCH   9  14
ATOM     14  S   UNL     1      -1.049  -0.149   1.582  1.00  0.00     0.242 S 
ATOM     15  O   UNL     1      -1.126  -1.478   1.026  1.00  0.00    -0.207 OA
ATOM     16  O   UNL     1      -1.409   0.107   2.961  1.00  0.00    -0.207 OA
BRANCH  14  17
ATOM     17  N   UNL     1       0.591   0.258   1.438  1.00  0.00    -0.214 NA
ATOM     18  C   UNL     1       1.241  -0.016   0.157  1.00  0.00     0.120 C 
ATOM     19  H   UNL     1       0.674   1.259   1.615  1.00  0.00     0.141 HD
ENDBRANCH  14  17
ENDBRANCH   9  14
BRANCH  11  20
ATOM     20  N   UNL     1      -3.559  -0.138  -0.793  1.00  0.00    -0.377 N 
ATOM     21  C   UNL     1      -4.760   0.100  -1.606  1.00  0.00     0.143 C 
ATOM     22  C   UNL     1      -3.450  -1.491  -0.274  1.00  0.00     0.143 C 
ENDBRANCH  11  20
ENDBRANCH   5   8
ENDBRANCH   3   4
ENDBRANCH   2   3
ENDBRANCH   1   2
BRANCH   1  23
ATOM     23  C   UNL     1      -3.298   9.250  -0.511  1.00  0.00     0.116 C 
BRANCH  23  24
ATOM     24  N   UNL     1      -4.270   9.317  -1.591  1.00  0.00    -0.352 N 
ATOM     25  C   UNL     1      -4.765  10.409  -2.266  1.00  0.00     0.251 C 
ATOM     26  H   UNL     1      -4.628   8.448  -1.884  1.00  0.00     0.163 HD
ATOM     27  O   UNL     1      -5.665  10.249  -3.086  1.00  0.00    -0.269 OA
BRANCH  25  28
ATOM     28  C   UNL     1      -4.248  11.768  -1.981  1.00  0.00     0.039 A 
ATOM     29  C   UNL     1      -5.157  12.825  -1.869  1.00  0.00     0.014 A 
ATOM     30  C   UNL     1      -2.882  12.009  -1.824  1.00  0.00     0.014 A 
ATOM     31  C   UNL     1      -4.702  14.104  -1.531  1.00  0.00     0.010 A 
ATOM     32  C   UNL     1      -2.440  13.261  -1.404  1.00  0.00     0.010 A 
ATOM     33  C   UNL     1      -3.343  14.326  -1.260  1.00  0.00    -0.014 A 
BRANCH  33  34
ATOM     34  C   UNL     1      -2.837  15.669  -0.864  1.00  0.00     0.031 A 
ATOM     35  C   UNL     1      -1.847  16.384  -1.745  1.00  0.00     0.074 A 
ATOM     36  C   UNL     1      -3.212  16.214   0.311  1.00  0.00     0.049 A 
ATOM     37  N   UNL     1      -1.208  17.507  -1.537  1.00  0.00    -0.248 NA
ATOM     38  C   UNL     1      -1.504  15.726  -3.014  1.00  0.00     0.031 C 
ATOM     39  C   UNL     1      -4.132  15.603   1.273  1.00  0.00     0.029 A 
ATOM     40  N   UNL     1      -2.856  17.401   0.903  1.00  0.00    -0.354 N 
ATOM     41  C   UNL     1      -0.372  17.677  -2.636  1.00  0.00     0.074 A 
ATOM     42  C   UNL     1      -0.538  16.507  -3.472  1.00  0.00     0.031 C 
ATOM     43  C   UNL     1      -4.286  16.429   2.321  1.00  0.00     0.029 A 
ATOM     44  C   UNL     1      -3.444  17.607   2.131  1.00  0.00     0.049 A 
ATOM     45  H   UNL     1      -2.238  18.045   0.488  1.00  0.00     0.167 HD
ATOM     46  C   UNL     1       0.439  18.723  -2.936  1.00  0.00     0.034 A 
ATOM     47  C   UNL     1      -3.313  18.623   3.006  1.00  0.00     0.034 A 
ATOM     48  C   UNL     1       0.576  19.893  -2.104  1.00  0.00     0.049 A 
ATOM     49  C   UNL     1      -2.403  19.775   2.655  1.00  0.00     0.074 A 
ATOM     50  C   UNL     1       1.328  21.032  -2.333  1.00  0.00     0.029 A 
ATOM     51  N   UNL     1      -0.055  20.076  -0.879  1.00  0.00    -0.354 N 
ATOM     52  N   UNL     1      -1.652  19.941   1.591  1.00  0.00    -0.248 NA
ATOM     53  C   UNL     1      -2.337  20.883   3.617  1.00  0.00     0.031 C 
ATOM     54  C   UNL     1       1.200  21.875  -1.222  1.00  0.00     0.029 A 
ATOM     55  C   UNL     1       0.308  21.297  -0.333  1.00  0.00     0.049 A 
ATOM     56  H   UNL     1      -0.669  19.431  -0.460  1.00  0.00     0.167 HD
ATOM     57  C   UNL     1      -1.053  21.189   1.740  1.00  0.00     0.074 A 
ATOM     58  C   UNL     1      -1.540  21.736   2.990  1.00  0.00     0.031 C 
ATOM     59  C   UNL     1      -0.185  21.829   0.916  1.00  0.00     0.034 A 
BRANCH  46  60
ATOM     60  C   UNL     1       1.253  18.627  -4.206  1.00  0.00     0.023 A 
ATOM     61  C   UNL     1       0.641  18.530  -5.469  1.00  0.00     0.031 A 
ATOM     62  C   UNL     1       2.657  18.590  -4.154  1.00  0.00     0.131 A 
ATOM     63  C   UNL     1       1.423  18.311  -6.613  1.00  0.00     0.055 A 
ATOM     64  C   UNL     1       3.434  18.463  -5.307  1.00  0.00     0.041 A 
ATOM     65  F   UNL     1       3.300  18.658  -2.977  1.00  0.00    -0.206 F 
ATOM     66  C   UNL     1       2.817  18.304  -6.545  1.00  0.00     0.022 A 
BRANCH  63  67
ATOM     67  S   UNL     1       0.585  17.878  -8.162  1.00  0.00     0.124 S 
ATOM     68  O   UNL     1      -0.128  16.660  -7.780  1.00  0.00    -0.237 OA
ATOM     69  O   UNL     1      -0.243  19.051  -8.413  1.00  0.00    -0.237 OA
ATOM     70  O   UNL     1       1.685  17.677  -9.102  1.00  0.00    -0.744 OA
ENDBRANCH  63  67
ENDBRANCH  46  60
BRANCH  47  71
ATOM     71  C   UNL     1      -4.054  18.609   4.301  1.00  0.00     0.023 A 
ATOM     72  C   UNL     1      -5.040  19.569   4.579  1.00  0.00     0.031 A 
ATOM     73  C   UNL     1      -3.754  17.664   5.298  1.00  0.00     0.131 A 
ATOM     74  C   UNL     1      -5.657  19.595   5.840  1.00  0.00     0.055 A 
ATOM     75  C   UNL     1      -4.407  17.662   6.532  1.00  0.00     0.041 A 
ATOM     76  F   UNL     1      -2.824  16.721   5.082  1.00  0.00    -0.206 F 
ATOM     77  C   UNL     1      -5.356  18.640   6.814  1.00  0.00     0.022 A 
BRANCH  74  78
ATOM     78  S   UNL     1      -6.799  20.952   6.220  1.00  0.00     0.124 S 
ATOM     79  O   UNL     1      -5.950  22.120   6.020  1.00  0.00    -0.237 OA
ATOM     80  O   UNL     1      -7.852  20.746   5.231  1.00  0.00    -0.237 OA
ATOM     81  O   UNL     1      -7.188  20.691   7.604  1.00  0.00    -0.744 OA
ENDBRANCH  74  78
ENDBRANCH  47  71
BRANCH  59  82
ATOM     82  C   UNL     1       0.244  23.220   1.317  1.00  0.00     0.023 A 
ATOM     83  C   UNL     1       1.038  23.456   2.452  1.00  0.00     0.031 A 
ATOM     84  C   UNL     1      -0.161  24.328   0.550  1.00  0.00     0.131 A 
ATOM     85  C   UNL     1       1.354  24.772   2.822  1.00  0.00     0.055 A 
ATOM     86  C   UNL     1       0.208  25.630   0.888  1.00  0.00     0.041 A 
ATOM     87  F   UNL     1      -0.921  24.160  -0.544  1.00  0.00    -0.206 F 
ATOM     88  C   UNL     1       0.959  25.859   2.038  1.00  0.00     0.022 A 
BRANCH  85  89
ATOM     89  S   UNL     1       2.214  25.054   4.394  1.00  0.00     0.124 S 
ATOM     90  O   UNL     1       1.303  24.437   5.353  1.00  0.00    -0.237 OA
ATOM     91  O   UNL     1       3.482  24.363   4.184  1.00  0.00    -0.237 OA
ATOM     92  O   UNL     1       2.309  26.510   4.477  1.00  0.00    -0.744 OA
ENDBRANCH  85  89
ENDBRANCH  59  82
ENDBRANCH  33  34
ENDBRANCH  25  28
ENDBRANCH  23  24
ENDBRANCH   1  23
TORSDOF 17
