REMARK SMILES O=C(CNC(=O)N1CC(NCCCCNC(=O)c2ccc(-c3c4nc(c(-c5cc(S(=O)(=O)[O-])ccc5F)c5ccc([nH]5)c(-c5cc(S(=O)(=O)[O-])ccc5F)c5nc(c(-c6cc(S(=O)(=O)[O-])ccc6F)c6ccc3[nH]6)C=C5)C=C4)cc2)=[NH+]c2ccccc21)N[C@H](C(=O)[O-])c1ccccc1
REMARK SMILES IDX 12 1 11 2 10 3 7 4 8 5 87 6 9 7 82 8 86 9 81 10 83 11 85 12
REMARK SMILES IDX 84 15 5 16 4 17 6 19 3 20 2 21 1 22 88 23 89 25 93 26 94 27
REMARK SMILES IDX 98 28 95 29 97 30 96 31 90 32 91 33 92 34 13 35 14 36 15 37
REMARK SMILES IDX 16 38 17 40 18 41 19 42 80 43 20 44 79 45 21 46 22 47 23 48
REMARK SMILES IDX 73 49 24 50 78 51 72 52 74 53 25 54 77 55 71 56 70 57 26 59
REMARK SMILES IDX 58 60 38 61 57 62 39 63 42 64 56 65 75 66 40 67 41 68 55 70
REMARK SMILES IDX 76 71 43 72 27 73 28 74 36 75 29 76 35 77 37 78 34 79 30 80
REMARK SMILES IDX 31 81 32 82 33 83 59 84 60 85 68 86 61 87 67 88 69 89 66 90
REMARK SMILES IDX 62 91 63 92 64 93 65 94 44 95 45 96 53 97 46 98 52 99 54 100
REMARK SMILES IDX 51 101 47 102 48 103 49 104 50 105
REMARK H PARENT 10 13 81 14 4 18 88 24 15 39 74 58 42 69
REMARK Flexibility Score: inf
ROOT
ATOM      1  C   UNL     1       1.720   7.589   1.796  1.00  0.00     0.048 C 
ENDROOT
BRANCH   1   2
ATOM      2  C   UNL     1       1.570   8.156   3.204  1.00  0.00     0.233 C 
BRANCH   2   3
ATOM      3  N   UNL     1       0.797   7.261   4.030  1.00  0.00    -0.277 N 
ATOM      4  N   UNL     1       3.083   4.898   5.651  1.00  0.00    -0.278 N 
ATOM      5  C   UNL     1       2.735   6.267   5.322  1.00  0.00     0.255 C 
ATOM      6  C   UNL     1       2.180   4.259   6.535  1.00  0.00     0.093 A 
ATOM      7  C   UNL     1       1.251   6.345   4.944  1.00  0.00     0.268 C 
ATOM      8  C   UNL     1       0.821   4.616   6.437  1.00  0.00     0.148 A 
ATOM      9  C   UNL     1       2.595   3.275   7.441  1.00  0.00     0.031 A 
ATOM     10  N   UNL     1       0.358   5.581   5.518  1.00  0.00    -0.241 N 
ATOM     11  C   UNL     1      -0.117   3.908   7.191  1.00  0.00     0.054 A 
ATOM     12  C   UNL     1       1.647   2.605   8.215  1.00  0.00     0.002 A 
ATOM     13  H   UNL     1      -0.180   7.315   3.925  1.00  0.00     0.304 HD
ATOM     14  H   UNL     1      -0.601   5.676   5.316  1.00  0.00     0.312 HD
ATOM     15  C   UNL     1       0.292   2.905   8.074  1.00  0.00     0.005 A 
BRANCH   4  16
ATOM     16  C   UNL     1       4.205   4.364   5.072  1.00  0.00     0.323 C 
ATOM     17  N   UNL     1       4.188   3.082   4.622  1.00  0.00    -0.329 N 
ATOM     18  H   UNL     1       5.065   2.730   4.346  1.00  0.00     0.165 HD
ATOM     19  O   UNL     1       5.206   5.046   4.842  1.00  0.00    -0.248 OA
BRANCH  17  20
ATOM     20  C   UNL     1       3.079   2.143   4.480  1.00  0.00     0.218 C 
BRANCH  20  21
ATOM     21  C   UNL     1       2.663   1.722   3.074  1.00  0.00     0.240 C 
ATOM     22  O   UNL     1       1.924   0.748   2.928  1.00  0.00    -0.273 OA
ATOM     23  N   UNL     1       3.020   2.569   2.050  1.00  0.00    -0.342 N 
ATOM     24  H   UNL     1       3.391   3.461   2.240  1.00  0.00     0.164 HD
BRANCH  23  25
ATOM     25  C   UNL     1       2.835   2.107   0.655  1.00  0.00     0.158 C 
BRANCH  25  26
ATOM     26  C   UNL     1       3.107   3.241  -0.340  1.00  0.00    -0.020 A 
ATOM     27  C   UNL     1       3.986   3.092  -1.427  1.00  0.00     0.006 A 
ATOM     28  C   UNL     1       2.435   4.468  -0.219  1.00  0.00     0.006 A 
ATOM     29  C   UNL     1       4.212   4.129  -2.337  1.00  0.00     0.000 A 
ATOM     30  C   UNL     1       2.676   5.510  -1.125  1.00  0.00     0.000 A 
ATOM     31  C   UNL     1       3.564   5.344  -2.180  1.00  0.00     0.000 A 
ENDBRANCH  25  26
BRANCH  25  32
ATOM     32  C   UNL     1       3.707   0.824   0.345  1.00  0.00     0.068 C 
ATOM     33  O   UNL     1       3.211  -0.003  -0.477  1.00  0.00    -0.548 OA
ATOM     34  O   UNL     1       4.838   0.782   0.931  1.00  0.00    -0.548 OA
ENDBRANCH  25  32
ENDBRANCH  23  25
ENDBRANCH  20  21
ENDBRANCH  17  20
ENDBRANCH   4  16
ENDBRANCH   2   3
ENDBRANCH   1   2
BRANCH   1  35
ATOM     35  C   UNL     1       0.401   7.512   1.024  1.00  0.00     0.025 C 
BRANCH  35  36
ATOM     36  C   UNL     1      -0.295   8.844   0.792  1.00  0.00     0.116 C 
BRANCH  36  37
ATOM     37  N   UNL     1       0.536   9.819   0.098  1.00  0.00    -0.352 N 
ATOM     38  C   UNL     1       0.265  10.590  -1.006  1.00  0.00     0.251 C 
ATOM     39  H   UNL     1       1.435   9.944   0.480  1.00  0.00     0.163 HD
ATOM     40  O   UNL     1       1.165  11.272  -1.496  1.00  0.00    -0.269 OA
BRANCH  38  41
ATOM     41  C   UNL     1      -1.081  10.584  -1.625  1.00  0.00     0.039 A 
ATOM     42  C   UNL     1      -1.183  10.640  -3.018  1.00  0.00     0.014 A 
ATOM     43  C   UNL     1      -2.240  10.520  -0.850  1.00  0.00     0.014 A 
ATOM     44  C   UNL     1      -2.438  10.563  -3.627  1.00  0.00     0.010 A 
ATOM     45  C   UNL     1      -3.476  10.327  -1.459  1.00  0.00     0.010 A 
ATOM     46  C   UNL     1      -3.594  10.360  -2.855  1.00  0.00    -0.014 A 
BRANCH  46  47
ATOM     47  C   UNL     1      -4.930  10.201  -3.490  1.00  0.00     0.031 A 
ATOM     48  C   UNL     1      -6.039  11.172  -3.177  1.00  0.00     0.074 A 
ATOM     49  C   UNL     1      -5.158   9.156  -4.312  1.00  0.00     0.049 A 
ATOM     50  N   UNL     1      -7.278  11.181  -3.599  1.00  0.00    -0.248 NA
ATOM     51  C   UNL     1      -5.722  12.259  -2.238  1.00  0.00     0.031 C 
ATOM     52  C   UNL     1      -4.181   8.118  -4.649  1.00  0.00     0.029 A 
ATOM     53  N   UNL     1      -6.279   8.792  -5.014  1.00  0.00    -0.354 N 
ATOM     54  C   UNL     1      -7.888  12.261  -2.969  1.00  0.00     0.074 A 
ATOM     55  C   UNL     1      -6.903  12.835  -2.079  1.00  0.00     0.031 C 
ATOM     56  C   UNL     1      -4.730   7.264  -5.527  1.00  0.00     0.029 A 
ATOM     57  C   UNL     1      -6.112   7.658  -5.776  1.00  0.00     0.049 A 
ATOM     58  H   UNL     1      -7.125   9.296  -4.977  1.00  0.00     0.167 HD
ATOM     59  C   UNL     1      -9.142  12.749  -3.139  1.00  0.00     0.034 A 
ATOM     60  C   UNL     1      -6.976   7.007  -6.580  1.00  0.00     0.034 A 
ATOM     61  C   UNL     1     -10.110  12.165  -4.037  1.00  0.00     0.049 A 
ATOM     62  C   UNL     1      -8.372   7.555  -6.736  1.00  0.00     0.074 A 
ATOM     63  C   UNL     1     -11.393  12.600  -4.324  1.00  0.00     0.029 A 
ATOM     64  N   UNL     1      -9.907  11.013  -4.789  1.00  0.00    -0.354 N 
ATOM     65  N   UNL     1      -8.917   8.612  -6.177  1.00  0.00    -0.248 NA
ATOM     66  C   UNL     1      -9.265   6.829  -7.647  1.00  0.00     0.031 C 
ATOM     67  C   UNL     1     -11.989  11.673  -5.186  1.00  0.00     0.029 A 
ATOM     68  C   UNL     1     -11.050  10.708  -5.515  1.00  0.00     0.049 A 
ATOM     69  H   UNL     1      -9.073  10.490  -4.805  1.00  0.00     0.167 HD
ATOM     70  C   UNL     1     -10.205   8.696  -6.699  1.00  0.00     0.074 A 
ATOM     71  C   UNL     1     -10.344   7.597  -7.633  1.00  0.00     0.031 C 
ATOM     72  C   UNL     1     -11.183   9.601  -6.434  1.00  0.00     0.034 A 
BRANCH  59  73
ATOM     73  C   UNL     1      -9.537  13.955  -2.316  1.00  0.00     0.023 A 
ATOM     74  C   UNL     1      -8.861  15.184  -2.430  1.00  0.00     0.031 A 
ATOM     75  C   UNL     1     -10.584  13.870  -1.382  1.00  0.00     0.131 A 
ATOM     76  C   UNL     1      -9.183  16.247  -1.571  1.00  0.00     0.055 A 
ATOM     77  C   UNL     1     -10.959  14.959  -0.592  1.00  0.00     0.041 A 
ATOM     78  F   UNL     1     -11.255  12.720  -1.209  1.00  0.00    -0.206 F 
ATOM     79  C   UNL     1     -10.246  16.151  -0.671  1.00  0.00     0.022 A 
BRANCH  76  80
ATOM     80  S   UNL     1      -8.096  17.700  -1.540  1.00  0.00     0.124 S 
ATOM     81  O   UNL     1      -6.812  17.102  -1.185  1.00  0.00    -0.237 OA
ATOM     82  O   UNL     1      -8.211  18.209  -2.901  1.00  0.00    -0.237 OA
ATOM     83  O   UNL     1      -8.687  18.547  -0.506  1.00  0.00    -0.744 OA
ENDBRANCH  76  80
ENDBRANCH  59  73
BRANCH  60  84
ATOM     84  C   UNL     1      -6.556   5.771  -7.304  1.00  0.00     0.023 A 
ATOM     85  C   UNL     1      -6.529   5.728  -8.707  1.00  0.00     0.031 A 
ATOM     86  C   UNL     1      -6.223   4.598  -6.604  1.00  0.00     0.131 A 
ATOM     87  C   UNL     1      -6.231   4.525  -9.367  1.00  0.00     0.055 A 
ATOM     88  C   UNL     1      -5.863   3.421  -7.264  1.00  0.00     0.041 A 
ATOM     89  F   UNL     1      -6.236   4.582  -5.261  1.00  0.00    -0.206 F 
ATOM     90  C   UNL     1      -5.881   3.376  -8.655  1.00  0.00     0.022 A 
BRANCH  87  91
ATOM     91  S   UNL     1      -6.411   4.458 -11.171  1.00  0.00     0.124 S 
ATOM     92  O   UNL     1      -7.808   4.840 -11.346  1.00  0.00    -0.237 OA
ATOM     93  O   UNL     1      -5.421   5.435 -11.615  1.00  0.00    -0.237 OA
ATOM     94  O   UNL     1      -6.101   3.067 -11.496  1.00  0.00    -0.744 OA
ENDBRANCH  87  91
ENDBRANCH  60  84
BRANCH  72  95
ATOM     95  C   UNL     1     -12.471   9.463  -7.215  1.00  0.00     0.023 A 
ATOM     96  C   UNL     1     -13.299   8.332  -7.095  1.00  0.00     0.031 A 
ATOM     97  C   UNL     1     -12.854  10.466  -8.124  1.00  0.00     0.131 A 
ATOM     98  C   UNL     1     -14.421   8.195  -7.927  1.00  0.00     0.055 A 
ATOM     99  C   UNL     1     -14.013  10.359  -8.894  1.00  0.00     0.041 A 
ATOM    100  F   UNL     1     -12.104  11.568  -8.286  1.00  0.00    -0.206 F 
ATOM    101  C   UNL     1     -14.793   9.210  -8.812  1.00  0.00     0.022 A 
BRANCH  98 102
ATOM    102  S   UNL     1     -15.313   6.615  -7.935  1.00  0.00     0.124 S 
ATOM    103  O   UNL     1     -14.251   5.668  -8.252  1.00  0.00    -0.237 OA
ATOM    104  O   UNL     1     -15.843   6.550  -6.577  1.00  0.00    -0.237 OA
ATOM    105  O   UNL     1     -16.317   6.794  -8.982  1.00  0.00    -0.744 OA
ENDBRANCH  98 102
ENDBRANCH  72  95
ENDBRANCH  46  47
ENDBRANCH  38  41
ENDBRANCH  36  37
ENDBRANCH  35  36
ENDBRANCH   1  35
TORSDOF 19
