REMARK SMILES CCOc1ccc(NC(=O)CC2(CC(=O)NCCCCNC(=O)c3ccc(-c4c5nc(c(-c6cc(S(=O)(=O)[O-])ccc6F)c6ccc([nH]6)c(-c6cc(S(=O)(=O)[O-])ccc6F)c6nc(c(-c7cc(S(=O)(=O)[O-])ccc7F)c7ccc4[nH]7)C=C6)C=C5)cc3)CCCCC2)cc1
REMARK SMILES IDX 17 1 16 2 14 3 15 4 13 6 12 7 87 8 91 9 88 10 90 11 89 12
REMARK SMILES IDX 11 13 9 14 8 15 10 17 7 18 4 19 5 20 93 21 6 22 92 23 3 24
REMARK SMILES IDX 2 25 1 26 18 27 19 28 20 29 21 30 22 31 23 33 24 34 25 35
REMARK SMILES IDX 86 36 26 37 85 38 27 39 28 40 29 41 79 42 30 43 84 44 78 45
REMARK SMILES IDX 80 46 31 47 83 48 77 49 76 50 32 52 64 53 44 54 63 55 45 56
REMARK SMILES IDX 48 57 62 58 81 59 46 60 47 61 61 63 82 64 49 65 33 66 34 67
REMARK SMILES IDX 42 68 35 69 41 70 43 71 40 72 36 73 37 74 38 75 39 76 65 77
REMARK SMILES IDX 66 78 74 79 67 80 73 81 75 82 72 83 68 84 69 85 70 86 71 87
REMARK SMILES IDX 50 88 51 89 59 90 52 91 58 92 60 93 57 94 53 95 54 96 55 97
REMARK SMILES IDX 56 98
REMARK H PARENT 16 5 8 16 21 32 80 51 48 62
REMARK Flexibility Score: inf
ROOT
ATOM      1  C   UNL     1       3.339  -2.925   3.130  1.00  0.00     0.116 C 
ENDROOT
BRANCH   1   2
ATOM      2  N   UNL     1       3.041  -3.579   1.873  1.00  0.00    -0.356 N 
ATOM      3  C   UNL     1       3.049  -4.891   1.520  1.00  0.00     0.220 C 
ATOM      4  O   UNL     1       2.393  -5.238   0.531  1.00  0.00    -0.275 OA
ATOM      5  H   UNL     1       2.789  -2.966   1.146  1.00  0.00     0.163 HD
BRANCH   3   6
ATOM      6  C   UNL     1       3.742  -5.971   2.321  1.00  0.00     0.107 C 
BRANCH   6   7
ATOM      7  C   UNL     1       5.302  -6.094   2.382  1.00  0.00    -0.012 C 
ATOM      8  C   UNL     1       5.613  -7.572   2.823  1.00  0.00     0.008 C 
ATOM      9  C   UNL     1       5.948  -5.266   3.513  1.00  0.00     0.008 C 
ATOM     10  C   UNL     1       5.040  -7.936   4.203  1.00  0.00     0.001 C 
ATOM     11  C   UNL     1       5.314  -5.497   4.886  1.00  0.00     0.001 C 
ATOM     12  C   UNL     1       5.430  -6.953   5.307  1.00  0.00     0.000 C 
BRANCH   7  13
ATOM     13  C   UNL     1       5.941  -5.864   0.955  1.00  0.00     0.108 C 
BRANCH  13  14
ATOM     14  C   UNL     1       6.886  -4.680   0.741  1.00  0.00     0.224 C 
ATOM     15  N   UNL     1       6.596  -3.541   0.046  1.00  0.00    -0.326 N 
ATOM     16  H   UNL     1       7.356  -2.917   0.000  1.00  0.00     0.169 HD
ATOM     17  O   UNL     1       8.010  -4.723   1.264  1.00  0.00    -0.275 OA
BRANCH  15  18
ATOM     18  C   UNL     1       5.455  -3.058  -0.620  1.00  0.00     0.041 A 
ATOM     19  C   UNL     1       2.916  -2.008  -1.082  1.00  0.00     0.119 A 
ATOM     20  C   UNL     1       3.209  -3.317  -1.452  1.00  0.00     0.048 A 
ATOM     21  C   UNL     1       3.953  -1.145  -0.763  1.00  0.00     0.048 A 
ATOM     22  C   UNL     1       4.485  -3.846  -1.217  1.00  0.00     0.030 A 
ATOM     23  C   UNL     1       5.240  -1.672  -0.570  1.00  0.00     0.030 A 
BRANCH  19  24
ATOM     24  O   UNL     1       1.647  -1.800  -0.606  1.00  0.00    -0.494 OA
BRANCH  24  25
ATOM     25  C   UNL     1       0.881  -0.777  -1.229  1.00  0.00     0.226 C 
ATOM     26  C   UNL     1       0.825   0.465  -0.356  1.00  0.00     0.049 C 
ENDBRANCH  24  25
ENDBRANCH  19  24
ENDBRANCH  15  18
ENDBRANCH  13  14
ENDBRANCH   7  13
ENDBRANCH   6   7
ENDBRANCH   3   6
ENDBRANCH   1   2
BRANCH   1  27
ATOM     27  C   UNL     1       4.677  -2.184   3.160  1.00  0.00     0.023 C 
BRANCH  27  28
ATOM     28  C   UNL     1       4.723  -0.709   2.805  1.00  0.00     0.023 C 
BRANCH  28  29
ATOM     29  C   UNL     1       3.692   0.186   3.444  1.00  0.00     0.116 C 
BRANCH  29  30
ATOM     30  N   UNL     1       3.922   0.395   4.862  1.00  0.00    -0.352 N 
ATOM     31  C   UNL     1       4.149   1.585   5.518  1.00  0.00     0.251 C 
ATOM     32  H   UNL     1       3.916  -0.413   5.423  1.00  0.00     0.163 HD
ATOM     33  O   UNL     1       4.489   1.583   6.697  1.00  0.00    -0.269 OA
BRANCH  31  34
ATOM     34  C   UNL     1       4.024   2.857   4.768  1.00  0.00     0.039 A 
ATOM     35  C   UNL     1       5.031   3.818   4.877  1.00  0.00     0.014 A 
ATOM     36  C   UNL     1       2.951   3.062   3.896  1.00  0.00     0.014 A 
ATOM     37  C   UNL     1       4.997   4.947   4.054  1.00  0.00     0.010 A 
ATOM     38  C   UNL     1       2.987   4.119   2.995  1.00  0.00     0.010 A 
ATOM     39  C   UNL     1       4.000   5.086   3.075  1.00  0.00    -0.014 A 
BRANCH  39  40
ATOM     40  C   UNL     1       3.962   6.257   2.157  1.00  0.00     0.031 A 
ATOM     41  C   UNL     1       2.758   7.165   2.164  1.00  0.00     0.074 A 
ATOM     42  C   UNL     1       4.968   6.472   1.285  1.00  0.00     0.049 A 
ATOM     43  N   UNL     1       2.482   8.182   1.390  1.00  0.00    -0.248 NA
ATOM     44  C   UNL     1       1.706   6.857   3.146  1.00  0.00     0.031 C 
ATOM     45  C   UNL     1       6.166   5.640   1.150  1.00  0.00     0.029 A 
ATOM     46  N   UNL     1       5.144   7.456   0.344  1.00  0.00    -0.354 N 
ATOM     47  C   UNL     1       1.220   8.622   1.781  1.00  0.00     0.074 A 
ATOM     48  C   UNL     1       0.754   7.708   2.800  1.00  0.00     0.031 C 
ATOM     49  C   UNL     1       6.967   6.169   0.211  1.00  0.00     0.029 A 
ATOM     50  C   UNL     1       6.322   7.347  -0.361  1.00  0.00     0.049 A 
ATOM     51  H   UNL     1       4.489   8.173   0.186  1.00  0.00     0.167 HD
ATOM     52  C   UNL     1       0.529   9.708   1.357  1.00  0.00     0.034 A 
ATOM     53  C   UNL     1       6.820   8.104  -1.359  1.00  0.00     0.034 A 
ATOM     54  C   UNL     1       1.021  10.626   0.361  1.00  0.00     0.049 A 
ATOM     55  C   UNL     1       6.021   9.293  -1.835  1.00  0.00     0.074 A 
ATOM     56  C   UNL     1       0.437  11.793  -0.098  1.00  0.00     0.029 A 
ATOM     57  N   UNL     1       2.214  10.478  -0.334  1.00  0.00    -0.354 N 
ATOM     58  N   UNL     1       4.854   9.726  -1.415  1.00  0.00    -0.248 NA
ATOM     59  C   UNL     1       6.608  10.097  -2.914  1.00  0.00     0.031 C 
ATOM     60  C   UNL     1       1.240  12.311  -1.120  1.00  0.00     0.029 A 
ATOM     61  C   UNL     1       2.365  11.511  -1.246  1.00  0.00     0.049 A 
ATOM     62  H   UNL     1       2.859   9.746  -0.200  1.00  0.00     0.167 HD
ATOM     63  C   UNL     1       4.582  10.869  -2.163  1.00  0.00     0.074 A 
ATOM     64  C   UNL     1       5.715  11.067  -3.043  1.00  0.00     0.031 C 
ATOM     65  C   UNL     1       3.495  11.683  -2.128  1.00  0.00     0.034 A 
BRANCH  52  66
ATOM     66  C   UNL     1      -0.836   9.941   1.962  1.00  0.00     0.023 A 
ATOM     67  C   UNL     1      -1.006  10.164   3.341  1.00  0.00     0.031 A 
ATOM     68  C   UNL     1      -1.989   9.900   1.158  1.00  0.00     0.131 A 
ATOM     69  C   UNL     1      -2.296  10.248   3.884  1.00  0.00     0.055 A 
ATOM     70  C   UNL     1      -3.267  10.076   1.693  1.00  0.00     0.041 A 
ATOM     71  F   UNL     1      -1.895   9.668  -0.161  1.00  0.00    -0.206 F 
ATOM     72  C   UNL     1      -3.428  10.233   3.067  1.00  0.00     0.022 A 
BRANCH  69  73
ATOM     73  S   UNL     1      -2.477  10.213   5.689  1.00  0.00     0.124 S 
ATOM     74  O   UNL     1      -1.843   8.940   6.023  1.00  0.00    -0.237 OA
ATOM     75  O   UNL     1      -1.758  11.412   6.101  1.00  0.00    -0.237 OA
ATOM     76  O   UNL     1      -3.924  10.251   5.889  1.00  0.00    -0.744 OA
ENDBRANCH  69  73
ENDBRANCH  52  66
BRANCH  53  77
ATOM     77  C   UNL     1       8.130   7.767  -1.990  1.00  0.00     0.023 A 
ATOM     78  C   UNL     1       9.222   8.645  -1.905  1.00  0.00     0.031 A 
ATOM     79  C   UNL     1       8.296   6.581  -2.728  1.00  0.00     0.131 A 
ATOM     80  C   UNL     1      10.414   8.350  -2.585  1.00  0.00     0.055 A 
ATOM     81  C   UNL     1       9.502   6.265  -3.357  1.00  0.00     0.041 A 
ATOM     82  F   UNL     1       7.285   5.704  -2.841  1.00  0.00    -0.206 F 
ATOM     83  C   UNL     1      10.566   7.159  -3.299  1.00  0.00     0.022 A 
BRANCH  80  84
ATOM     84  S   UNL     1      11.739   9.590  -2.597  1.00  0.00     0.124 S 
ATOM     85  O   UNL     1      11.063  10.740  -3.187  1.00  0.00    -0.237 OA
ATOM     86  O   UNL     1      12.067   9.695  -1.179  1.00  0.00    -0.237 OA
ATOM     87  O   UNL     1      12.771   8.976  -3.430  1.00  0.00    -0.744 OA
ENDBRANCH  80  84
ENDBRANCH  53  77
BRANCH  65  88
ATOM     88  C   UNL     1       3.503  12.876  -3.051  1.00  0.00     0.023 A 
ATOM     89  C   UNL     1       3.451  12.728  -4.447  1.00  0.00     0.031 A 
ATOM     90  C   UNL     1       3.567  14.179  -2.525  1.00  0.00     0.131 A 
ATOM     91  C   UNL     1       3.520  13.860  -5.273  1.00  0.00     0.055 A 
ATOM     92  C   UNL     1       3.571  15.305  -3.350  1.00  0.00     0.041 A 
ATOM     93  F   UNL     1       3.620  14.379  -1.198  1.00  0.00    -0.206 F 
ATOM     94  C   UNL     1       3.560  15.148  -4.733  1.00  0.00     0.022 A 
BRANCH  91  95
ATOM     95  S   UNL     1       3.648  13.621  -7.066  1.00  0.00     0.124 S 
ATOM     96  O   UNL     1       4.872  12.834  -7.179  1.00  0.00    -0.237 OA
ATOM     97  O   UNL     1       2.408  12.920  -7.378  1.00  0.00    -0.237 OA
ATOM     98  O   UNL     1       3.737  14.984  -7.588  1.00  0.00    -0.744 OA
ENDBRANCH  91  95
ENDBRANCH  65  88
ENDBRANCH  39  40
ENDBRANCH  31  34
ENDBRANCH  29  30
ENDBRANCH  28  29
ENDBRANCH  27  28
ENDBRANCH   1  27
TORSDOF 20
