REMARK SMILES COc1ccc2cc([C@H](C)C(=O)NCCCCNC(=O)c3ccc(-c4c5nc(c(-c6cc(S(=O)(=O)[O-])ccc6F)c6ccc([nH]6)c(-c6cc(S(=O)(=O)[O-])ccc6F)c6nc(c(-c7cc(S(=O)(=O)[O-])ccc7F)c7ccc4[nH]7)C=C6)C=C5)cc3)ccc2c1
REMARK SMILES IDX 16 1 15 2 14 3 13 4 11 5 12 6 9 8 10 9 8 10 3 11 4 12 87 13
REMARK SMILES IDX 5 14 86 15 6 16 85 17 7 18 84 19 2 20 1 21 17 22 18 23 19 24
REMARK SMILES IDX 20 26 21 27 22 28 83 29 23 30 82 31 24 32 25 33 26 34 76 35
REMARK SMILES IDX 27 36 81 37 75 38 77 39 28 40 80 41 74 42 73 43 29 45 61 46
REMARK SMILES IDX 41 47 60 48 42 49 45 50 59 51 78 52 43 53 44 54 58 56 79 57
REMARK SMILES IDX 46 58 30 59 31 60 39 61 32 62 38 63 40 64 37 65 33 66 34 67
REMARK SMILES IDX 35 68 36 69 62 70 63 71 71 72 64 73 70 74 72 75 69 76 65 77
REMARK SMILES IDX 66 78 67 79 68 80 47 81 48 82 56 83 49 84 55 85 57 86 54 87
REMARK SMILES IDX 50 88 51 89 52 90 53 91
REMARK H PARENT 13 7 18 25 77 44 45 55
REMARK Flexibility Score: inf
ROOT
ATOM      1  C   UNL     1       5.359   1.223   6.444  1.00  0.00     0.023 C 
ENDROOT
BRANCH   1   2
ATOM      2  C   UNL     1       4.067   0.511   6.066  1.00  0.00     0.023 C 
BRANCH   2   3
ATOM      3  C   UNL     1       3.579  -0.525   7.068  1.00  0.00     0.116 C 
BRANCH   3   4
ATOM      4  N   UNL     1       2.998   0.030   8.277  1.00  0.00    -0.356 N 
ATOM      5  C   UNL     1       2.001  -0.492   9.064  1.00  0.00     0.227 C 
ATOM      6  O   UNL     1       1.735   0.086  10.122  1.00  0.00    -0.274 OA
ATOM      7  H   UNL     1       3.367   0.894   8.571  1.00  0.00     0.163 HD
BRANCH   5   8
ATOM      8  C   UNL     1       1.214  -1.759   8.643  1.00  0.00     0.105 C 
ATOM      9  C   UNL     1       0.323  -1.435   7.438  1.00  0.00     0.023 C 
BRANCH   8  10
ATOM     10  C   UNL     1       2.161  -2.956   8.561  1.00  0.00    -0.035 A 
ATOM     11  C   UNL     1       6.471  -5.130   7.191  1.00  0.00     0.119 A 
ATOM     12  C   UNL     1       5.783  -4.876   6.008  1.00  0.00     0.047 A 
ATOM     13  C   UNL     1       5.830  -4.990   8.421  1.00  0.00     0.055 A 
ATOM     14  C   UNL     1       4.469  -4.408   6.056  1.00  0.00     0.012 A 
ATOM     15  C   UNL     1       4.532  -4.463   8.486  1.00  0.00    -0.015 A 
ATOM     16  C   UNL     1       3.850  -4.153   7.288  1.00  0.00    -0.018 A 
ATOM     17  C   UNL     1       3.933  -4.157   9.713  1.00  0.00     0.009 A 
ATOM     18  C   UNL     1       2.619  -3.483   7.346  1.00  0.00     0.013 A 
ATOM     19  C   UNL     1       2.772  -3.386   9.750  1.00  0.00     0.005 A 
BRANCH  11  20
ATOM     20  O   UNL     1       7.776  -5.543   7.218  1.00  0.00    -0.497 OA
ATOM     21  C   UNL     1       8.637  -4.686   6.461  1.00  0.00     0.278 C 
ENDBRANCH  11  20
ENDBRANCH   8  10
ENDBRANCH   5   8
ENDBRANCH   3   4
ENDBRANCH   2   3
ENDBRANCH   1   2
BRANCH   1  22
ATOM     22  C   UNL     1       6.557   0.321   6.726  1.00  0.00     0.116 C 
BRANCH  22  23
ATOM     23  N   UNL     1       6.915  -0.549   5.612  1.00  0.00    -0.352 N 
ATOM     24  C   UNL     1       8.126  -0.694   4.974  1.00  0.00     0.251 C 
ATOM     25  H   UNL     1       6.186  -1.113   5.266  1.00  0.00     0.163 HD
ATOM     26  O   UNL     1       8.217  -1.425   3.990  1.00  0.00    -0.269 OA
BRANCH  24  27
ATOM     27  C   UNL     1       9.307   0.051   5.465  1.00  0.00     0.039 A 
ATOM     28  C   UNL     1      10.088   0.775   4.560  1.00  0.00     0.014 A 
ATOM     29  C   UNL     1       9.619   0.060   6.826  1.00  0.00     0.014 A 
ATOM     30  C   UNL     1      11.134   1.574   5.034  1.00  0.00     0.010 A 
ATOM     31  C   UNL     1      10.602   0.922   7.303  1.00  0.00     0.010 A 
ATOM     32  C   UNL     1      11.374   1.687   6.414  1.00  0.00    -0.014 A 
BRANCH  32  33
ATOM     33  C   UNL     1      12.443   2.569   6.954  1.00  0.00     0.031 A 
ATOM     34  C   UNL     1      13.584   1.968   7.732  1.00  0.00     0.074 A 
ATOM     35  C   UNL     1      12.355   3.907   6.815  1.00  0.00     0.049 A 
ATOM     36  N   UNL     1      14.555   2.560   8.378  1.00  0.00    -0.248 NA
ATOM     37  C   UNL     1      13.607   0.501   7.825  1.00  0.00     0.031 C 
ATOM     38  C   UNL     1      11.283   4.619   6.117  1.00  0.00     0.029 A 
ATOM     39  N   UNL     1      13.180   4.909   7.262  1.00  0.00    -0.354 N 
ATOM     40  C   UNL     1      15.294   1.540   8.969  1.00  0.00     0.074 A 
ATOM     41  C   UNL     1      14.607   0.301   8.667  1.00  0.00     0.031 C 
ATOM     42  C   UNL     1      11.533   5.938   6.155  1.00  0.00     0.029 A 
ATOM     43  C   UNL     1      12.756   6.172   6.917  1.00  0.00     0.049 A 
ATOM     44  H   UNL     1      13.999   4.740   7.781  1.00  0.00     0.167 HD
ATOM     45  C   UNL     1      16.453   1.621   9.669  1.00  0.00     0.034 A 
ATOM     46  C   UNL     1      13.290   7.380   7.187  1.00  0.00     0.034 A 
ATOM     47  C   UNL     1      17.133   2.862   9.952  1.00  0.00     0.049 A 
ATOM     48  C   UNL     1      14.563   7.452   7.993  1.00  0.00     0.074 A 
ATOM     49  C   UNL     1      18.328   3.061  10.621  1.00  0.00     0.029 A 
ATOM     50  N   UNL     1      16.674   4.120   9.581  1.00  0.00    -0.354 N 
ATOM     51  N   UNL     1      15.268   6.476   8.517  1.00  0.00    -0.248 NA
ATOM     52  C   UNL     1      15.116   8.792   8.233  1.00  0.00     0.031 C 
ATOM     53  C   UNL     1      18.562   4.439  10.704  1.00  0.00     0.029 A 
ATOM     54  C   UNL     1      17.551   5.099  10.024  1.00  0.00     0.049 A 
ATOM     55  H   UNL     1      15.846   4.292   9.076  1.00  0.00     0.167 HD
ATOM     56  C   UNL     1      16.370   7.084   9.114  1.00  0.00     0.074 A 
ATOM     57  C   UNL     1      16.237   8.507   8.879  1.00  0.00     0.031 C 
ATOM     58  C   UNL     1      17.404   6.516   9.786  1.00  0.00     0.034 A 
BRANCH  45  59
ATOM     59  C   UNL     1      17.032   0.324  10.188  1.00  0.00     0.023 A 
ATOM     60  C   UNL     1      17.408  -0.712   9.314  1.00  0.00     0.031 A 
ATOM     61  C   UNL     1      17.148   0.090  11.569  1.00  0.00     0.131 A 
ATOM     62  C   UNL     1      17.775  -1.965   9.827  1.00  0.00     0.055 A 
ATOM     63  C   UNL     1      17.609  -1.129  12.073  1.00  0.00     0.041 A 
ATOM     64  F   UNL     1      16.789   1.032  12.456  1.00  0.00    -0.206 F 
ATOM     65  C   UNL     1      17.904  -2.173  11.201  1.00  0.00     0.022 A 
BRANCH  62  66
ATOM     66  S   UNL     1      17.896  -3.363   8.677  1.00  0.00     0.124 S 
ATOM     67  O   UNL     1      16.555  -3.382   8.095  1.00  0.00    -0.237 OA
ATOM     68  O   UNL     1      18.973  -2.948   7.787  1.00  0.00    -0.237 OA
ATOM     69  O   UNL     1      18.205  -4.496   9.547  1.00  0.00    -0.744 OA
ENDBRANCH  62  66
ENDBRANCH  45  59
BRANCH  46  70
ATOM     70  C   UNL     1      12.641   8.624   6.686  1.00  0.00     0.023 A 
ATOM     71  C   UNL     1      13.280   9.430   5.730  1.00  0.00     0.031 A 
ATOM     72  C   UNL     1      11.396   9.048   7.180  1.00  0.00     0.131 A 
ATOM     73  C   UNL     1      12.695  10.641   5.331  1.00  0.00     0.055 A 
ATOM     74  C   UNL     1      10.794  10.231   6.745  1.00  0.00     0.041 A 
ATOM     75  F   UNL     1      10.739   8.310   8.090  1.00  0.00    -0.206 F 
ATOM     76  C   UNL     1      11.451  11.041   5.823  1.00  0.00     0.022 A 
BRANCH  73  77
ATOM     77  S   UNL     1      13.621  11.724   4.210  1.00  0.00     0.124 S 
ATOM     78  O   UNL     1      14.834  11.980   4.978  1.00  0.00    -0.237 OA
ATOM     79  O   UNL     1      13.774  10.879   3.030  1.00  0.00    -0.237 OA
ATOM     80  O   UNL     1      12.735  12.874   4.038  1.00  0.00    -0.744 OA
ENDBRANCH  73  77
ENDBRANCH  46  70
BRANCH  58  81
ATOM     81  C   UNL     1      18.502   7.437  10.259  1.00  0.00     0.023 A 
ATOM     82  C   UNL     1      18.288   8.393  11.267  1.00  0.00     0.031 A 
ATOM     83  C   UNL     1      19.780   7.363   9.676  1.00  0.00     0.131 A 
ATOM     84  C   UNL     1      19.320   9.276  11.622  1.00  0.00     0.055 A 
ATOM     85  C   UNL     1      20.819   8.204  10.074  1.00  0.00     0.041 A 
ATOM     86  F   UNL     1      20.039   6.469   8.709  1.00  0.00    -0.206 F 
ATOM     87  C   UNL     1      20.589   9.177  11.043  1.00  0.00     0.022 A 
BRANCH  84  88
ATOM     88  S   UNL     1      18.958  10.618  12.787  1.00  0.00     0.124 S 
ATOM     89  O   UNL     1      17.871  11.321  12.113  1.00  0.00    -0.237 OA
ATOM     90  O   UNL     1      18.592   9.890  13.997  1.00  0.00    -0.237 OA
ATOM     91  O   UNL     1      20.218  11.355  12.865  1.00  0.00    -0.744 OA
ENDBRANCH  84  88
ENDBRANCH  58  81
ENDBRANCH  32  33
ENDBRANCH  24  27
ENDBRANCH  22  23
ENDBRANCH   1  22
TORSDOF 16
