REMARK SMILES Cc1ccc(NC(=O)[C@H]2CC=CC[C@H]2C(=O)NCCCCNC(=O)c2ccc(-c3c4nc(c(-c5cc(S(=O)(=O)[O-])ccc5F)c5ccc([nH]5)c(-c5cc(S(=O)(=O)[O-])ccc5F)c5nc(c(-c6cc(S(=O)(=O)[O-])ccc6F)c6ccc3[nH]6)C=C5)C=C4)cc2)cc1F
REMARK SMILES IDX 20 1 19 2 18 3 17 4 15 5 16 6 14 8 9 9 10 10 11 11 13 12
REMARK SMILES IDX 12 13 7 14 6 15 8 17 5 18 1 19 2 20 3 21 89 22 4 23 88 24
REMARK SMILES IDX 90 25 21 26 22 27 23 28 24 30 25 31 26 32 87 33 27 34 86 35
REMARK SMILES IDX 28 36 29 37 30 38 80 39 31 40 85 41 79 42 81 43 32 44 84 45
REMARK SMILES IDX 78 46 77 47 33 49 65 50 45 51 64 52 46 53 49 54 63 55 82 56
REMARK SMILES IDX 47 57 48 58 62 60 83 61 50 62 34 63 35 64 43 65 36 66 42 67
REMARK SMILES IDX 44 68 41 69 37 70 38 71 39 72 40 73 66 74 67 75 75 76 68 77
REMARK SMILES IDX 74 78 76 79 73 80 69 81 70 82 71 83 72 84 51 85 52 86 60 87
REMARK SMILES IDX 53 88 59 89 61 90 58 91 54 92 55 93 56 94 57 95
REMARK H PARENT 17 7 6 16 22 29 81 48 49 59
REMARK Flexibility Score: inf
ROOT
ATOM      1  C   UNL     1      -5.162  -1.435  -0.060  1.00  0.00     0.023 C 
ENDROOT
BRANCH   1   2
ATOM      2  C   UNL     1      -4.679  -2.886  -0.084  1.00  0.00     0.023 C 
BRANCH   2   3
ATOM      3  C   UNL     1      -3.912  -3.333  -1.329  1.00  0.00     0.116 C 
BRANCH   3   4
ATOM      4  N   UNL     1      -2.880  -2.404  -1.748  1.00  0.00    -0.356 N 
ATOM      5  C   UNL     1      -1.531  -2.536  -1.824  1.00  0.00     0.224 C 
ATOM      6  O   UNL     1      -0.896  -1.613  -2.342  1.00  0.00    -0.275 OA
ATOM      7  H   UNL     1      -3.217  -1.522  -2.026  1.00  0.00     0.163 HD
BRANCH   5   8
ATOM      8  C   UNL     1      -0.800  -3.792  -1.364  1.00  0.00     0.095 C 
ATOM      9  C   UNL     1      -0.730  -4.097   0.161  1.00  0.00     0.095 C 
ATOM     10  C   UNL     1      -0.760  -5.606   0.538  1.00  0.00     0.041 C 
ATOM     11  C   UNL     1      -1.075  -6.599  -0.528  1.00  0.00    -0.030 C 
ATOM     12  C   UNL     1      -1.155  -4.919  -2.358  1.00  0.00     0.041 C 
ATOM     13  C   UNL     1      -1.250  -6.297  -1.813  1.00  0.00    -0.030 C 
BRANCH   9  14
ATOM     14  C   UNL     1      -1.625  -3.301   1.127  1.00  0.00     0.228 C 
ATOM     15  N   UNL     1      -1.690  -1.941   1.169  1.00  0.00    -0.326 N 
ATOM     16  H   UNL     1      -2.525  -1.610   1.573  1.00  0.00     0.169 HD
ATOM     17  O   UNL     1      -2.364  -3.888   1.929  1.00  0.00    -0.274 OA
BRANCH  15  18
ATOM     18  C   UNL     1      -0.834  -0.911   0.767  1.00  0.00     0.044 A 
ATOM     19  C   UNL     1       1.662   2.462  -0.214  1.00  0.00     0.047 C 
ATOM     20  C   UNL     1       0.771   1.304   0.109  1.00  0.00    -0.015 A 
ATOM     21  C   UNL     1      -0.607   1.461   0.258  1.00  0.00     0.008 A 
ATOM     22  C   UNL     1       1.322   0.034   0.287  1.00  0.00     0.128 A 
ATOM     23  C   UNL     1      -1.400   0.363   0.603  1.00  0.00     0.026 A 
ATOM     24  C   UNL     1       0.536  -1.067   0.614  1.00  0.00     0.065 A 
ATOM     25  F   UNL     1       2.648  -0.137   0.185  1.00  0.00    -0.207 F 
ENDBRANCH  15  18
ENDBRANCH   9  14
ENDBRANCH   5   8
ENDBRANCH   3   4
ENDBRANCH   2   3
ENDBRANCH   1   2
BRANCH   1  26
ATOM     26  C   UNL     1      -6.350  -1.246  -0.968  1.00  0.00     0.116 C 
BRANCH  26  27
ATOM     27  N   UNL     1      -7.471  -2.067  -0.520  1.00  0.00    -0.352 N 
ATOM     28  C   UNL     1      -8.759  -2.106  -1.020  1.00  0.00     0.251 C 
ATOM     29  H   UNL     1      -7.286  -2.670   0.235  1.00  0.00     0.163 HD
ATOM     30  O   UNL     1      -9.629  -2.676  -0.403  1.00  0.00    -0.269 OA
BRANCH  28  31
ATOM     31  C   UNL     1      -8.965  -1.447  -2.321  1.00  0.00     0.039 A 
ATOM     32  C   UNL     1      -9.976  -0.512  -2.540  1.00  0.00     0.014 A 
ATOM     33  C   UNL     1      -8.014  -1.722  -3.295  1.00  0.00     0.014 A 
ATOM     34  C   UNL     1      -9.998   0.186  -3.750  1.00  0.00     0.010 A 
ATOM     35  C   UNL     1      -7.907  -0.890  -4.369  1.00  0.00     0.010 A 
ATOM     36  C   UNL     1      -8.947   0.003  -4.652  1.00  0.00    -0.014 A 
BRANCH  36  37
ATOM     37  C   UNL     1      -8.893   0.555  -6.000  1.00  0.00     0.031 A 
ATOM     38  C   UNL     1      -9.056   1.982  -6.279  1.00  0.00     0.074 A 
ATOM     39  C   UNL     1      -8.686  -0.333  -7.000  1.00  0.00     0.049 A 
ATOM     40  N   UNL     1      -9.604   2.424  -7.356  1.00  0.00    -0.248 NA
ATOM     41  C   UNL     1      -8.634   3.032  -5.360  1.00  0.00     0.031 C 
ATOM     42  C   UNL     1      -8.360  -0.122  -8.396  1.00  0.00     0.029 A 
ATOM     43  N   UNL     1      -8.893  -1.715  -6.907  1.00  0.00    -0.354 N 
ATOM     44  C   UNL     1      -9.337   3.772  -7.420  1.00  0.00     0.074 A 
ATOM     45  C   UNL     1      -8.862   4.127  -6.099  1.00  0.00     0.031 C 
ATOM     46  C   UNL     1      -8.639  -1.254  -9.071  1.00  0.00     0.029 A 
ATOM     47  C   UNL     1      -9.315  -2.165  -8.154  1.00  0.00     0.049 A 
ATOM     48  H   UNL     1      -8.762  -2.269  -6.104  1.00  0.00     0.167 HD
ATOM     49  C   UNL     1      -9.365   4.391  -8.635  1.00  0.00     0.034 A 
ATOM     50  C   UNL     1     -10.534  -2.761  -8.311  1.00  0.00     0.034 A 
ATOM     51  C   UNL     1      -9.674   3.426  -9.698  1.00  0.00     0.049 A 
ATOM     52  C   UNL     1     -11.433  -1.961  -9.229  1.00  0.00     0.074 A 
ATOM     53  C   UNL     1      -8.878   2.724 -10.589  1.00  0.00     0.029 A 
ATOM     54  N   UNL     1     -10.914   2.812  -9.732  1.00  0.00    -0.354 N 
ATOM     55  N   UNL     1     -11.103  -0.819  -9.762  1.00  0.00    -0.248 NA
ATOM     56  C   UNL     1     -12.819  -2.325  -9.512  1.00  0.00     0.031 C 
ATOM     57  C   UNL     1      -9.661   1.690 -11.171  1.00  0.00     0.029 A 
ATOM     58  C   UNL     1     -10.939   1.774 -10.652  1.00  0.00     0.049 A 
ATOM     59  H   UNL     1     -11.681   3.078  -9.174  1.00  0.00     0.167 HD
ATOM     60  C   UNL     1     -12.202  -0.244 -10.337  1.00  0.00     0.074 A 
ATOM     61  C   UNL     1     -13.249  -1.237 -10.174  1.00  0.00     0.031 C 
ATOM     62  C   UNL     1     -12.176   1.024 -10.842  1.00  0.00     0.034 A 
BRANCH  49  63
ATOM     63  C   UNL     1      -8.823   5.782  -8.908  1.00  0.00     0.023 A 
ATOM     64  C   UNL     1      -8.640   6.774  -7.920  1.00  0.00     0.031 A 
ATOM     65  C   UNL     1      -8.426   6.152 -10.212  1.00  0.00     0.131 A 
ATOM     66  C   UNL     1      -7.985   7.990  -8.209  1.00  0.00     0.055 A 
ATOM     67  C   UNL     1      -7.820   7.379 -10.509  1.00  0.00     0.041 A 
ATOM     68  F   UNL     1      -8.576   5.329 -11.259  1.00  0.00    -0.206 F 
ATOM     69  C   UNL     1      -7.572   8.296  -9.502  1.00  0.00     0.022 A 
BRANCH  66  70
ATOM     70  S   UNL     1      -7.567   9.175  -6.896  1.00  0.00     0.124 S 
ATOM     71  O   UNL     1      -6.125   9.341  -7.076  1.00  0.00    -0.237 OA
ATOM     72  O   UNL     1      -8.375  10.338  -7.248  1.00  0.00    -0.237 OA
ATOM     73  O   UNL     1      -7.952   8.486  -5.667  1.00  0.00    -0.744 OA
ENDBRANCH  66  70
ENDBRANCH  49  63
BRANCH  50  74
ATOM     74  C   UNL     1     -11.017  -3.467  -7.076  1.00  0.00     0.023 A 
ATOM     75  C   UNL     1     -11.944  -2.852  -6.218  1.00  0.00     0.031 A 
ATOM     76  C   UNL     1     -10.248  -4.533  -6.557  1.00  0.00     0.131 A 
ATOM     77  C   UNL     1     -12.004  -3.232  -4.865  1.00  0.00     0.055 A 
ATOM     78  C   UNL     1     -10.283  -4.877  -5.202  1.00  0.00     0.041 A 
ATOM     79  F   UNL     1      -9.350  -5.162  -7.335  1.00  0.00    -0.206 F 
ATOM     80  C   UNL     1     -11.142  -4.201  -4.341  1.00  0.00     0.022 A 
BRANCH  77  81
ATOM     81  S   UNL     1     -13.146  -2.367  -3.748  1.00  0.00     0.124 S 
ATOM     82  O   UNL     1     -14.356  -3.166  -3.907  1.00  0.00    -0.237 OA
ATOM     83  O   UNL     1     -12.492  -2.474  -2.450  1.00  0.00    -0.237 OA
ATOM     84  O   UNL     1     -13.188  -1.020  -4.308  1.00  0.00    -0.744 OA
ENDBRANCH  77  81
ENDBRANCH  50  74
BRANCH  62  85
ATOM     85  C   UNL     1     -13.336   1.699 -11.530  1.00  0.00     0.023 A 
ATOM     86  C   UNL     1     -13.442   3.108 -11.501  1.00  0.00     0.031 A 
ATOM     87  C   UNL     1     -14.273   1.029 -12.332  1.00  0.00     0.131 A 
ATOM     88  C   UNL     1     -14.460   3.785 -12.178  1.00  0.00     0.055 A 
ATOM     89  C   UNL     1     -15.323   1.700 -12.971  1.00  0.00     0.041 A 
ATOM     90  F   UNL     1     -14.166  -0.286 -12.579  1.00  0.00    -0.206 F 
ATOM     91  C   UNL     1     -15.425   3.083 -12.891  1.00  0.00     0.022 A 
BRANCH  88  92
ATOM     92  S   UNL     1     -14.503   5.598 -12.213  1.00  0.00     0.124 S 
ATOM     93  O   UNL     1     -14.444   5.869 -13.648  1.00  0.00    -0.237 OA
ATOM     94  O   UNL     1     -15.787   5.878 -11.576  1.00  0.00    -0.237 OA
ATOM     95  O   UNL     1     -13.324   5.992 -11.452  1.00  0.00    -0.744 OA
ENDBRANCH  88  92
ENDBRANCH  62  85
ENDBRANCH  36  37
ENDBRANCH  28  31
ENDBRANCH  26  27
ENDBRANCH   1  26
TORSDOF 16
