REMARK SMILES COc1ccc([C@H]2CC(c3ccccc3)=NN2C(=O)CCCC(=O)NCCCCNC(=O)c2ccc(-c3c4nc(c(-c5cc(S(=O)(=O)[O-])ccc5F)c5ccc([nH]5)c(-c5cc(S(=O)(=O)[O-])ccc5F)c5nc(c(-c6cc(S(=O)(=O)[O-])ccc6F)c6ccc3[nH]6)C=C5)C=C4)cc2)cc1
REMARK SMILES IDX 26 1 25 2 23 3 24 4 22 6 21 7 20 8 18 9 19 10 17 11 7 12
REMARK SMILES IDX 8 13 9 14 16 15 6 16 3 17 4 18 97 19 5 20 96 21 2 22 1 23
REMARK SMILES IDX 10 24 11 25 15 26 12 27 14 28 13 29 27 30 28 31 29 32 30 33
REMARK SMILES IDX 31 34 32 36 33 37 34 38 95 39 35 40 94 41 36 42 37 43 38 44
REMARK SMILES IDX 88 45 39 46 93 47 87 48 89 49 40 50 92 51 86 52 85 53 41 55
REMARK SMILES IDX 73 56 53 57 72 58 54 59 57 60 71 61 90 62 55 63 56 64 70 66
REMARK SMILES IDX 91 67 58 68 42 69 43 70 51 71 44 72 50 73 52 74 49 75 45 76
REMARK SMILES IDX 46 77 47 78 48 79 74 80 75 81 83 82 76 83 82 84 84 85 81 86
REMARK SMILES IDX 77 87 78 88 79 89 80 90 59 91 60 92 68 93 61 94 67 95 69 96
REMARK SMILES IDX 66 97 62 98 63 99 64 100 65 101
REMARK H PARENT 25 5 30 35 89 54 57 65
REMARK Flexibility Score: inf
ROOT
ATOM      1  C   UNL     1      -0.013   6.040  -3.812  1.00  0.00     0.116 C 
ENDROOT
BRANCH   1   2
ATOM      2  N   UNL     1      -0.589   5.726  -2.421  1.00  0.00    -0.356 N 
ATOM      3  C   UNL     1      -0.323   5.029  -1.225  1.00  0.00     0.220 C 
ATOM      4  O   UNL     1      -1.030   5.435  -0.277  1.00  0.00    -0.275 OA
ATOM      5  H   UNL     1      -1.460   6.175  -2.334  1.00  0.00     0.163 HD
BRANCH   3   6
ATOM      6  C   UNL     1       0.842   3.654  -0.759  1.00  0.00     0.100 C 
BRANCH   6   7
ATOM      7  C   UNL     1       2.469   2.765  -1.954  1.00  0.00     0.020 C 
BRANCH   7   8
ATOM      8  C   UNL     1       3.249   3.466  -3.461  1.00  0.00     0.103 C 
BRANCH   8   9
ATOM      9  C   UNL     1       4.168   4.744  -3.574  1.00  0.00     0.243 C 
ATOM     10  O   UNL     1       5.135   4.694  -4.342  1.00  0.00    -0.273 OA
BRANCH   9  11
ATOM     11  N   UNL     1       3.826   5.905  -2.897  1.00  0.00    -0.225 N 
ATOM     12  C   UNL     1       2.674   6.085  -2.073  1.00  0.00     0.147 C 
ATOM     13  C   UNL     1       3.161   7.038  -0.995  1.00  0.00     0.091 C 
ATOM     14  C   UNL     1       4.164   7.752  -1.867  1.00  0.00     0.071 C 
ATOM     15  N   UNL     1       4.592   7.060  -2.890  1.00  0.00    -0.174 NA
BRANCH  12  16
ATOM     16  C   UNL     1       2.164   4.747  -1.731  1.00  0.00    -0.023 A 
ATOM     17  C   UNL     1       1.170   1.460  -0.719  1.00  0.00     0.118 A 
ATOM     18  C   UNL     1       0.406   2.126  -2.149  1.00  0.00     0.047 A 
ATOM     19  C   UNL     1       2.365   2.359   0.197  1.00  0.00     0.047 A 
ATOM     20  C   UNL     1       0.939   3.727  -2.713  1.00  0.00     0.010 A 
ATOM     21  C   UNL     1       2.912   3.980  -0.296  1.00  0.00     0.010 A 
BRANCH  17  22
ATOM     22  O   UNL     1       0.717   0.204  -0.423  1.00  0.00    -0.497 OA
ATOM     23  C   UNL     1       1.294  -0.397   0.718  1.00  0.00     0.278 C 
ENDBRANCH  17  22
ENDBRANCH  12  16
BRANCH  14  24
ATOM     24  C   UNL     1       4.613   9.107  -1.517  1.00  0.00    -0.002 A 
ATOM     25  C   UNL     1       4.633  10.102  -2.497  1.00  0.00     0.010 A 
ATOM     26  C   UNL     1       5.017   9.391  -0.210  1.00  0.00     0.010 A 
ATOM     27  C   UNL     1       5.101  11.378  -2.173  1.00  0.00     0.001 A 
ATOM     28  C   UNL     1       5.506  10.660   0.101  1.00  0.00     0.001 A 
ATOM     29  C   UNL     1       5.557  11.649  -0.882  1.00  0.00     0.000 A 
ENDBRANCH  14  24
ENDBRANCH   9  11
ENDBRANCH   8   9
ENDBRANCH   7   8
ENDBRANCH   6   7
ENDBRANCH   3   6
ENDBRANCH   1   2
BRANCH   1  30
ATOM     30  C   UNL     1      -0.312   5.191  -5.090  1.00  0.00     0.023 C 
BRANCH  30  31
ATOM     31  C   UNL     1      -1.394   5.676  -5.988  1.00  0.00     0.023 C 
BRANCH  31  32
ATOM     32  C   UNL     1      -1.147   7.077  -6.458  1.00  0.00     0.116 C 
BRANCH  32  33
ATOM     33  N   UNL     1       0.122   7.268  -7.162  1.00  0.00    -0.352 N 
ATOM     34  C   UNL     1       0.307   8.049  -8.283  1.00  0.00     0.251 C 
ATOM     35  H   UNL     1       0.910   6.798  -6.805  1.00  0.00     0.163 HD
ATOM     36  O   UNL     1       1.364   8.075  -8.895  1.00  0.00    -0.269 OA
BRANCH  34  37
ATOM     37  C   UNL     1      -0.874   8.810  -8.724  1.00  0.00     0.039 A 
ATOM     38  C   UNL     1      -1.458   8.481  -9.944  1.00  0.00     0.014 A 
ATOM     39  C   UNL     1      -1.550   9.573  -7.766  1.00  0.00     0.014 A 
ATOM     40  C   UNL     1      -2.772   8.873 -10.178  1.00  0.00     0.010 A 
ATOM     41  C   UNL     1      -2.903   9.802  -7.938  1.00  0.00     0.010 A 
ATOM     42  C   UNL     1      -3.520   9.487  -9.157  1.00  0.00    -0.014 A 
BRANCH  42  43
ATOM     43  C   UNL     1      -4.939   9.862  -9.365  1.00  0.00     0.031 A 
ATOM     44  C   UNL     1      -5.337  11.305  -9.212  1.00  0.00     0.074 A 
ATOM     45  C   UNL     1      -5.858   8.920  -9.657  1.00  0.00     0.049 A 
ATOM     46  N   UNL     1      -6.519  11.851  -9.319  1.00  0.00    -0.248 NA
ATOM     47  C   UNL     1      -4.270  12.256  -8.854  1.00  0.00     0.031 C 
ATOM     48  C   UNL     1      -5.593   7.484  -9.779  1.00  0.00     0.029 A 
ATOM     49  N   UNL     1      -7.201   9.030  -9.913  1.00  0.00    -0.354 N 
ATOM     50  C   UNL     1      -6.335  13.198  -9.032  1.00  0.00     0.074 A 
ATOM     51  C   UNL     1      -4.952  13.369  -8.652  1.00  0.00     0.031 C 
ATOM     52  C   UNL     1      -6.725   6.857 -10.138  1.00  0.00     0.029 A 
ATOM     53  C   UNL     1      -7.810   7.831 -10.208  1.00  0.00     0.049 A 
ATOM     54  H   UNL     1      -7.686   9.886  -9.888  1.00  0.00     0.167 HD
ATOM     55  C   UNL     1      -7.229  14.209  -9.114  1.00  0.00     0.034 A 
ATOM     56  C   UNL     1      -9.098   7.549 -10.488  1.00  0.00     0.034 A 
ATOM     57  C   UNL     1      -8.601  14.018  -9.504  1.00  0.00     0.049 A 
ATOM     58  C   UNL     1     -10.091   8.685 -10.525  1.00  0.00     0.074 A 
ATOM     59  C   UNL     1      -9.586  14.973  -9.671  1.00  0.00     0.029 A 
ATOM     60  N   UNL     1      -9.188  12.786  -9.770  1.00  0.00    -0.354 N 
ATOM     61  N   UNL     1      -9.889   9.966 -10.311  1.00  0.00    -0.248 NA
ATOM     62  C   UNL     1     -11.480   8.342 -10.849  1.00  0.00     0.031 C 
ATOM     63  C   UNL     1     -10.789  14.313  -9.935  1.00  0.00     0.029 A 
ATOM     64  C   UNL     1     -10.534  12.955 -10.049  1.00  0.00     0.049 A 
ATOM     65  H   UNL     1      -8.716  11.922  -9.761  1.00  0.00     0.167 HD
ATOM     66  C   UNL     1     -11.121  10.583 -10.507  1.00  0.00     0.074 A 
ATOM     67  C   UNL     1     -12.053   9.536 -10.872  1.00  0.00     0.031 C 
ATOM     68  C   UNL     1     -11.453  11.896 -10.401  1.00  0.00     0.034 A 
BRANCH  55  69
ATOM     69  C   UNL     1      -6.753  15.592  -8.741  1.00  0.00     0.023 A 
ATOM     70  C   UNL     1      -5.703  16.229  -9.427  1.00  0.00     0.031 A 
ATOM     71  C   UNL     1      -7.331  16.268  -7.653  1.00  0.00     0.131 A 
ATOM     72  C   UNL     1      -5.210  17.458  -8.968  1.00  0.00     0.055 A 
ATOM     73  C   UNL     1      -6.903  17.538  -7.264  1.00  0.00     0.041 A 
ATOM     74  F   UNL     1      -8.313  15.698  -6.936  1.00  0.00    -0.206 F 
ATOM     75  C   UNL     1      -5.825  18.134  -7.912  1.00  0.00     0.022 A 
BRANCH  72  76
ATOM     76  S   UNL     1      -3.648  18.075  -9.653  1.00  0.00     0.124 S 
ATOM     77  O   UNL     1      -2.741  16.968  -9.360  1.00  0.00    -0.237 OA
ATOM     78  O   UNL     1      -3.978  18.275 -11.060  1.00  0.00    -0.237 OA
ATOM     79  O   UNL     1      -3.397  19.295  -8.889  1.00  0.00    -0.744 OA
ENDBRANCH  72  76
ENDBRANCH  55  69
BRANCH  56  80
ATOM     80  C   UNL     1      -9.533   6.140 -10.724  1.00  0.00     0.023 A 
ATOM     81  C   UNL     1     -10.096   5.742 -11.947  1.00  0.00     0.031 A 
ATOM     82  C   UNL     1      -9.432   5.177  -9.703  1.00  0.00     0.131 A 
ATOM     83  C   UNL     1     -10.583   4.433 -12.100  1.00  0.00     0.055 A 
ATOM     84  C   UNL     1      -9.854   3.859  -9.884  1.00  0.00     0.041 A 
ATOM     85  F   UNL     1      -8.908   5.503  -8.511  1.00  0.00    -0.206 F 
ATOM     86  C   UNL     1     -10.447   3.484 -11.084  1.00  0.00     0.022 A 
BRANCH  83  87
ATOM     87  S   UNL     1     -11.503   4.017 -13.608  1.00  0.00     0.124 S 
ATOM     88  O   UNL     1     -12.580   5.000 -13.576  1.00  0.00    -0.237 OA
ATOM     89  O   UNL     1     -10.492   4.204 -14.642  1.00  0.00    -0.237 OA
ATOM     90  O   UNL     1     -11.914   2.633 -13.383  1.00  0.00    -0.744 OA
ENDBRANCH  83  87
ENDBRANCH  56  80
BRANCH  68  91
ATOM     91  C   UNL     1     -12.874  12.281 -10.735  1.00  0.00     0.023 A 
ATOM     92  C   UNL     1     -13.966  11.826  -9.977  1.00  0.00     0.031 A 
ATOM     93  C   UNL     1     -13.136  13.122 -11.832  1.00  0.00     0.131 A 
ATOM     94  C   UNL     1     -15.271  12.160 -10.366  1.00  0.00     0.055 A 
ATOM     95  C   UNL     1     -14.431  13.519 -12.163  1.00  0.00     0.041 A 
ATOM     96  F   UNL     1     -12.132  13.582 -12.598  1.00  0.00    -0.206 F 
ATOM     97  C   UNL     1     -15.510  13.024 -11.438  1.00  0.00     0.022 A 
BRANCH  94  98
ATOM     98  S   UNL     1     -16.660  11.350  -9.528  1.00  0.00     0.124 S 
ATOM     99  O   UNL     1     -16.365   9.938  -9.754  1.00  0.00    -0.237 OA
ATOM    100  O   UNL     1     -16.514  11.820  -8.155  1.00  0.00    -0.237 OA
ATOM    101  O   UNL     1     -17.832  11.860 -10.237  1.00  0.00    -0.744 OA
ENDBRANCH  94  98
ENDBRANCH  68  91
ENDBRANCH  42  43
ENDBRANCH  34  37
ENDBRANCH  32  33
ENDBRANCH  31  32
ENDBRANCH  30  31
ENDBRANCH   1  30
TORSDOF 21
