REMARK SMILES CCc1nc(N2CC[N@H+](CC=C(C)C)[C@H](C(=O)NCCCCNC(=O)c3ccc(-c4c5nc(c(-c6cc(S(=O)(=O)[O-])ccc6F)c6ccc([nH]6)c(-c6cc(S(=O)(=O)[O-])ccc6F)c6nc(c(-c7cc(S(=O)(=O)[O-])ccc7F)c7ccc4[nH]7)C=C6)C=C5)cc3)C2)no1
REMARK SMILES IDX 21 1 20 2 19 3 18 4 16 5 17 6 15 8 6 9 7 10 89 11 8 12 9 13
REMARK SMILES IDX 5 15 3 16 4 17 91 18 90 19 2 20 1 21 10 22 11 23 12 24 13 25
REMARK SMILES IDX 14 26 22 27 23 28 24 29 25 31 26 32 27 33 88 34 28 35 87 36
REMARK SMILES IDX 29 37 30 38 31 39 81 40 32 41 86 42 80 43 82 44 33 45 85 46
REMARK SMILES IDX 79 47 78 48 34 50 66 51 46 52 65 53 47 54 50 55 64 56 83 57
REMARK SMILES IDX 48 58 49 59 63 61 84 62 51 63 35 64 36 65 44 66 37 67 43 68
REMARK SMILES IDX 45 69 42 70 38 71 39 72 40 73 41 74 67 75 68 76 76 77 69 78
REMARK SMILES IDX 75 79 77 80 74 81 70 82 71 83 72 84 73 85 52 86 53 87 61 88
REMARK SMILES IDX 54 89 60 90 62 91 59 92 55 93 56 94 57 95 58 96
REMARK H PARENT 18 7 9 14 23 30 82 49 50 60
REMARK Flexibility Score: inf
ROOT
ATOM      1  C   UNL     1       0.948 -13.487  -0.555  1.00  0.00     0.023 C 
ENDROOT
BRANCH   1   2
ATOM      2  C   UNL     1       0.054 -12.505   0.201  1.00  0.00     0.023 C 
BRANCH   2   3
ATOM      3  C   UNL     1       0.575 -11.080   0.361  1.00  0.00     0.116 C 
BRANCH   3   4
ATOM      4  N   UNL     1       0.867 -10.363  -0.872  1.00  0.00    -0.351 N 
ATOM      5  C   UNL     1       1.046  -9.002  -1.031  1.00  0.00     0.280 C 
ATOM      6  O   UNL     1       1.470  -8.601  -2.118  1.00  0.00    -0.268 OA
ATOM      7  H   UNL     1       0.945 -10.911  -1.686  1.00  0.00     0.163 HD
BRANCH   5   8
ATOM      8  C   UNL     1       0.626  -8.016   0.091  1.00  0.00     0.294 C 
ATOM      9  N   UNL     1       0.669  -5.611   0.902  1.00  0.00    -0.326 N 
ATOM     10  C   UNL     1       0.676  -6.110   2.288  1.00  0.00     0.181 C 
ATOM     11  C   UNL     1       0.964  -6.531  -0.224  1.00  0.00     0.195 C 
ATOM     12  C   UNL     1       0.424  -7.615   2.436  1.00  0.00     0.284 C 
ATOM     13  N   UNL     1       1.073  -8.458   1.434  1.00  0.00    -0.318 N 
ATOM     14  H   UNL     1       0.759  -9.421   1.553  1.00  0.00     0.349 HD
BRANCH   9  15
ATOM     15  C   UNL     1       0.863  -4.273   0.761  1.00  0.00     0.266 A 
ATOM     16  C   UNL     1       0.798  -2.373  -0.125  1.00  0.00     0.227 A 
ATOM     17  N   UNL     1       0.627  -3.642  -0.434  1.00  0.00    -0.176 NA
ATOM     18  O   UNL     1       1.189  -2.185   1.164  1.00  0.00    -0.337 OA
ATOM     19  N   UNL     1       1.218  -3.434   1.748  1.00  0.00    -0.038 NA
BRANCH  16  20
ATOM     20  C   UNL     1       0.535  -1.152  -0.930  1.00  0.00     0.097 C 
ATOM     21  C   UNL     1       0.998   0.137  -0.260  1.00  0.00     0.014 C 
ENDBRANCH  16  20
ENDBRANCH   9  15
BRANCH  13  22
ATOM     22  C   UNL     1       2.502  -8.699   1.627  1.00  0.00     0.291 C 
BRANCH  22  23
ATOM     23  C   UNL     1       3.410  -7.539   1.899  1.00  0.00     0.032 C 
ATOM     24  C   UNL     1       4.030  -7.273   3.067  1.00  0.00    -0.075 C 
ATOM     25  C   UNL     1       4.945  -6.090   3.207  1.00  0.00     0.039 C 
ATOM     26  C   UNL     1       3.843  -8.104   4.307  1.00  0.00     0.039 C 
ENDBRANCH  22  23
ENDBRANCH  13  22
ENDBRANCH   5   8
ENDBRANCH   3   4
ENDBRANCH   2   3
ENDBRANCH   1   2
BRANCH   1  27
ATOM     27  C   UNL     1       2.422 -13.518  -0.163  1.00  0.00     0.116 C 
BRANCH  27  28
ATOM     28  N   UNL     1       2.662 -13.922   1.215  1.00  0.00    -0.352 N 
ATOM     29  C   UNL     1       3.253 -15.055   1.733  1.00  0.00     0.251 C 
ATOM     30  H   UNL     1       2.350 -13.277   1.891  1.00  0.00     0.163 HD
ATOM     31  O   UNL     1       3.270 -15.222   2.947  1.00  0.00    -0.269 OA
BRANCH  29  32
ATOM     32  C   UNL     1       3.816 -16.092   0.836  1.00  0.00     0.039 A 
ATOM     33  C   UNL     1       3.509 -17.434   1.080  1.00  0.00     0.014 A 
ATOM     34  C   UNL     1       4.625 -15.753  -0.249  1.00  0.00     0.014 A 
ATOM     35  C   UNL     1       3.915 -18.418   0.173  1.00  0.00     0.010 A 
ATOM     36  C   UNL     1       4.950 -16.720  -1.199  1.00  0.00     0.010 A 
ATOM     37  C   UNL     1       4.587 -18.062  -1.007  1.00  0.00    -0.014 A 
BRANCH  37  38
ATOM     38  C   UNL     1       4.890 -19.065  -2.065  1.00  0.00     0.031 A 
ATOM     39  C   UNL     1       6.312 -19.328  -2.481  1.00  0.00     0.074 A 
ATOM     40  C   UNL     1       3.878 -19.662  -2.727  1.00  0.00     0.049 A 
ATOM     41  N   UNL     1       6.769 -20.076  -3.454  1.00  0.00    -0.248 NA
ATOM     42  C   UNL     1       7.354 -18.616  -1.729  1.00  0.00     0.031 C 
ATOM     43  C   UNL     1       2.453 -19.437  -2.473  1.00  0.00     0.029 A 
ATOM     44  N   UNL     1       3.889 -20.560  -3.766  1.00  0.00    -0.354 N 
ATOM     45  C   UNL     1       8.149 -19.904  -3.448  1.00  0.00     0.074 A 
ATOM     46  C   UNL     1       8.441 -18.928  -2.418  1.00  0.00     0.031 C 
ATOM     47  C   UNL     1       1.730 -20.184  -3.321  1.00  0.00     0.029 A 
ATOM     48  C   UNL     1       2.634 -20.908  -4.209  1.00  0.00     0.049 A 
ATOM     49  H   UNL     1       4.718 -20.920  -4.157  1.00  0.00     0.167 HD
ATOM     50  C   UNL     1       9.088 -20.519  -4.213  1.00  0.00     0.034 A 
ATOM     51  C   UNL     1       2.249 -21.705  -5.225  1.00  0.00     0.034 A 
ATOM     52  C   UNL     1       8.778 -21.502  -5.224  1.00  0.00     0.049 A 
ATOM     53  C   UNL     1       3.300 -22.392  -6.054  1.00  0.00     0.074 A 
ATOM     54  C   UNL     1       9.649 -22.256  -5.992  1.00  0.00     0.029 A 
ATOM     55  N   UNL     1       7.494 -21.859  -5.621  1.00  0.00    -0.354 N 
ATOM     56  N   UNL     1       4.607 -22.285  -5.984  1.00  0.00    -0.248 NA
ATOM     57  C   UNL     1       2.826 -23.318  -7.090  1.00  0.00     0.031 C 
ATOM     58  C   UNL     1       8.896 -23.013  -6.897  1.00  0.00     0.029 A 
ATOM     59  C   UNL     1       7.551 -22.793  -6.646  1.00  0.00     0.049 A 
ATOM     60  H   UNL     1       6.664 -21.501  -5.231  1.00  0.00     0.167 HD
ATOM     61  C   UNL     1       5.112 -23.145  -6.955  1.00  0.00     0.074 A 
ATOM     62  C   UNL     1       3.968 -23.774  -7.585  1.00  0.00     0.031 C 
ATOM     63  C   UNL     1       6.404 -23.395  -7.288  1.00  0.00     0.034 A 
BRANCH  50  64
ATOM     64  C   UNL     1      10.529 -20.113  -3.995  1.00  0.00     0.023 A 
ATOM     65  C   UNL     1      11.159 -20.266  -2.746  1.00  0.00     0.031 A 
ATOM     66  C   UNL     1      11.264 -19.504  -5.027  1.00  0.00     0.131 A 
ATOM     67  C   UNL     1      12.431 -19.716  -2.529  1.00  0.00     0.055 A 
ATOM     68  C   UNL     1      12.570 -19.046  -4.831  1.00  0.00     0.041 A 
ATOM     69  F   UNL     1      10.717 -19.314  -6.238  1.00  0.00    -0.206 F 
ATOM     70  C   UNL     1      13.152 -19.129  -3.570  1.00  0.00     0.022 A 
BRANCH  67  71
ATOM     71  S   UNL     1      13.041 -19.605  -0.823  1.00  0.00     0.124 S 
ATOM     72  O   UNL     1      11.961 -18.869  -0.170  1.00  0.00    -0.237 OA
ATOM     73  O   UNL     1      13.179 -21.007  -0.447  1.00  0.00    -0.237 OA
ATOM     74  O   UNL     1      14.296 -18.867  -0.955  1.00  0.00    -0.744 OA
ENDBRANCH  67  71
ENDBRANCH  50  64
BRANCH  51  75
ATOM     75  C   UNL     1       0.799 -21.881  -5.521  1.00  0.00     0.023 A 
ATOM     76  C   UNL     1       0.150 -23.102  -5.283  1.00  0.00     0.031 A 
ATOM     77  C   UNL     1       0.040 -20.817  -6.040  1.00  0.00     0.131 A 
ATOM     78  C   UNL     1      -1.213 -23.238  -5.588  1.00  0.00     0.055 A 
ATOM     79  C   UNL     1      -1.325 -20.945  -6.304  1.00  0.00     0.041 A 
ATOM     80  F   UNL     1       0.613 -19.625  -6.272  1.00  0.00    -0.206 F 
ATOM     81  C   UNL     1      -1.957 -22.165  -6.084  1.00  0.00     0.022 A 
BRANCH  78  82
ATOM     82  S   UNL     1      -2.000 -24.856  -5.357  1.00  0.00     0.124 S 
ATOM     83  O   UNL     1      -1.248 -25.689  -6.289  1.00  0.00    -0.237 OA
ATOM     84  O   UNL     1      -1.768 -25.108  -3.939  1.00  0.00    -0.237 OA
ATOM     85  O   UNL     1      -3.394 -24.612  -5.723  1.00  0.00    -0.744 OA
ENDBRANCH  78  82
ENDBRANCH  51  75
BRANCH  63  86
ATOM     86  C   UNL     1       6.645 -24.419  -8.371  1.00  0.00     0.023 A 
ATOM     87  C   UNL     1       6.274 -24.187  -9.707  1.00  0.00     0.031 A 
ATOM     88  C   UNL     1       7.249 -25.650  -8.057  1.00  0.00     0.131 A 
ATOM     89  C   UNL     1       6.463 -25.190 -10.670  1.00  0.00     0.055 A 
ATOM     90  C   UNL     1       7.487 -26.622  -9.030  1.00  0.00     0.041 A 
ATOM     91  F   UNL     1       7.620 -25.928  -6.797  1.00  0.00    -0.206 F 
ATOM     92  C   UNL     1       7.083 -26.399 -10.343  1.00  0.00     0.022 A 
BRANCH  89  93
ATOM     93  S   UNL     1       5.809 -24.930 -12.342  1.00  0.00     0.124 S 
ATOM     94  O   UNL     1       4.387 -24.729 -12.083  1.00  0.00    -0.237 OA
ATOM     95  O   UNL     1       6.549 -23.755 -12.788  1.00  0.00    -0.237 OA
ATOM     96  O   UNL     1       6.142 -26.172 -13.037  1.00  0.00    -0.744 OA
ENDBRANCH  89  93
ENDBRANCH  63  86
ENDBRANCH  37  38
ENDBRANCH  29  32
ENDBRANCH  27  28
ENDBRANCH   1  27
TORSDOF 18
