REMARK SMILES CCc1cccc(C)c1Nc1ccccc1CC(=O)NCCCCNC(=O)c1ccc(-c2c3nc(c(-c4cc(S(=O)(=O)[O-])ccc4F)c4ccc([nH]4)c(-c4cc(S(=O)(=O)[O-])ccc4F)c4nc(c(-c5cc(S(=O)(=O)[O-])ccc5F)c5ccc2[nH]5)C=C4)C=C3)cc1
REMARK SMILES IDX 22 1 21 2 20 3 18 4 19 5 17 7 16 8 11 9 12 10 13 11 15 12
REMARK SMILES IDX 14 13 10 14 9 16 3 17 4 18 5 19 7 20 6 21 8 22 2 23 1 24
REMARK SMILES IDX 23 25 24 26 25 27 26 28 27 30 28 31 29 32 90 33 30 34 89 35
REMARK SMILES IDX 31 36 32 37 33 38 83 39 34 40 88 41 82 42 84 43 35 44 87 45
REMARK SMILES IDX 81 46 80 47 36 49 68 50 48 51 67 52 49 53 52 54 66 55 85 56
REMARK SMILES IDX 50 57 51 58 65 60 86 61 53 62 37 63 38 64 46 65 39 66 45 67
REMARK SMILES IDX 47 68 44 69 40 70 41 71 42 72 43 73 69 74 70 75 78 76 71 77
REMARK SMILES IDX 77 78 79 79 76 80 72 81 73 82 74 83 75 84 54 85 55 86 63 87
REMARK SMILES IDX 56 88 62 89 64 90 61 91 57 92 58 93 59 94 60 95
REMARK H PARENT 20 6 10 15 25 29 84 48 52 59
REMARK Flexibility Score: inf
ROOT
ATOM      1  C   UNL     1      -2.317   4.263  -4.747  1.00  0.00     0.023 C 
ENDROOT
BRANCH   1   2
ATOM      2  C   UNL     1      -3.561   3.561  -4.194  1.00  0.00     0.116 C 
BRANCH   2   3
ATOM      3  N   UNL     1      -3.342   2.183  -3.771  1.00  0.00    -0.356 N 
ATOM      4  C   UNL     1      -3.190   1.645  -2.527  1.00  0.00     0.224 C 
ATOM      5  O   UNL     1      -3.285   0.417  -2.417  1.00  0.00    -0.275 OA
ATOM      6  H   UNL     1      -3.296   1.532  -4.507  1.00  0.00     0.163 HD
BRANCH   4   7
ATOM      7  C   UNL     1      -3.032   2.509  -1.294  1.00  0.00     0.137 C 
BRANCH   7   8
ATOM      8  C   UNL     1      -1.781   3.355  -1.199  1.00  0.00    -0.015 A 
ATOM      9  C   UNL     1      -0.477   2.834  -1.038  1.00  0.00     0.042 A 
ATOM     10  C   UNL     1       0.600   3.727  -0.902  1.00  0.00     0.026 A 
ATOM     11  C   UNL     1       0.415   5.108  -0.977  1.00  0.00     0.002 A 
ATOM     12  C   UNL     1      -1.950   4.755  -1.241  1.00  0.00     0.006 A 
ATOM     13  C   UNL     1      -0.863   5.622  -1.150  1.00  0.00     0.000 A 
BRANCH   9  14
ATOM     14  N   UNL     1      -0.191   1.456  -0.913  1.00  0.00    -0.355 N 
ATOM     15  H   UNL     1      -0.047   1.144   0.009  1.00  0.00     0.167 HD
BRANCH  14  16
ATOM     16  C   UNL     1      -0.080   0.452  -1.909  1.00  0.00     0.045 A 
ATOM     17  C   UNL     1      -0.036  -0.907  -1.522  1.00  0.00    -0.024 A 
ATOM     18  C   UNL     1      -0.353  -1.897  -2.473  1.00  0.00     0.006 A 
ATOM     19  C   UNL     1      -0.550  -1.568  -3.807  1.00  0.00     0.001 A 
ATOM     20  C   UNL     1       0.027   0.728  -3.285  1.00  0.00    -0.027 A 
ATOM     21  C   UNL     1      -0.291  -0.271  -4.221  1.00  0.00     0.005 A 
ATOM     22  C   UNL     1       0.529   2.042  -3.802  1.00  0.00     0.046 C 
BRANCH  17  23
ATOM     23  C   UNL     1       0.366  -1.392  -0.142  1.00  0.00     0.034 C 
ATOM     24  C   UNL     1       1.454  -0.577   0.560  1.00  0.00     0.009 C 
ENDBRANCH  17  23
ENDBRANCH  14  16
ENDBRANCH   9  14
ENDBRANCH   7   8
ENDBRANCH   4   7
ENDBRANCH   2   3
ENDBRANCH   1   2
BRANCH   1  25
ATOM     25  C   UNL     1      -1.569   3.538  -5.863  1.00  0.00     0.023 C 
BRANCH  25  26
ATOM     26  C   UNL     1      -2.228   3.633  -7.228  1.00  0.00     0.116 C 
BRANCH  26  27
ATOM     27  N   UNL     1      -1.478   4.438  -8.196  1.00  0.00    -0.352 N 
ATOM     28  C   UNL     1      -1.713   4.556  -9.561  1.00  0.00     0.251 C 
ATOM     29  H   UNL     1      -0.720   4.954  -7.838  1.00  0.00     0.163 HD
ATOM     30  O   UNL     1      -1.057   5.269 -10.290  1.00  0.00    -0.269 OA
BRANCH  28  31
ATOM     31  C   UNL     1      -2.902   3.841 -10.081  1.00  0.00     0.039 A 
ATOM     32  C   UNL     1      -4.026   4.627 -10.346  1.00  0.00     0.014 A 
ATOM     33  C   UNL     1      -3.003   2.468  -9.871  1.00  0.00     0.014 A 
ATOM     34  C   UNL     1      -5.285   4.084 -10.126  1.00  0.00     0.010 A 
ATOM     35  C   UNL     1      -4.252   1.955  -9.568  1.00  0.00     0.010 A 
ATOM     36  C   UNL     1      -5.377   2.792  -9.607  1.00  0.00    -0.014 A 
BRANCH  36  37
ATOM     37  C   UNL     1      -6.589   2.302  -8.956  1.00  0.00     0.031 A 
ATOM     38  C   UNL     1      -7.449   1.322  -9.642  1.00  0.00     0.074 A 
ATOM     39  C   UNL     1      -6.976   2.775  -7.750  1.00  0.00     0.049 A 
ATOM     40  N   UNL     1      -8.710   1.169  -9.410  1.00  0.00    -0.248 NA
ATOM     41  C   UNL     1      -6.962   0.505 -10.744  1.00  0.00     0.031 C 
ATOM     42  C   UNL     1      -8.043   2.256  -6.898  1.00  0.00     0.029 A 
ATOM     43  N   UNL     1      -6.655   4.008  -7.190  1.00  0.00    -0.354 N 
ATOM     44  C   UNL     1      -9.128   0.053 -10.093  1.00  0.00     0.074 A 
ATOM     45  C   UNL     1      -8.048  -0.224 -11.007  1.00  0.00     0.031 C 
ATOM     46  C   UNL     1      -8.478   3.242  -6.100  1.00  0.00     0.029 A 
ATOM     47  C   UNL     1      -7.786   4.457  -6.482  1.00  0.00     0.049 A 
ATOM     48  H   UNL     1      -5.795   4.480  -7.274  1.00  0.00     0.167 HD
ATOM     49  C   UNL     1     -10.272  -0.574  -9.692  1.00  0.00     0.034 A 
ATOM     50  C   UNL     1      -8.382   5.642  -6.796  1.00  0.00     0.034 A 
ATOM     51  C   UNL     1     -11.055   0.270  -8.770  1.00  0.00     0.049 A 
ATOM     52  C   UNL     1      -9.808   5.516  -7.299  1.00  0.00     0.074 A 
ATOM     53  C   UNL     1     -11.374   0.227  -7.422  1.00  0.00     0.029 A 
ATOM     54  N   UNL     1     -11.463   1.529  -9.205  1.00  0.00    -0.354 N 
ATOM     55  N   UNL     1     -10.474   4.400  -7.420  1.00  0.00    -0.248 NA
ATOM     56  C   UNL     1     -10.555   6.664  -7.807  1.00  0.00     0.031 C 
ATOM     57  C   UNL     1     -11.962   1.478  -7.056  1.00  0.00     0.029 A 
ATOM     58  C   UNL     1     -12.024   2.276  -8.184  1.00  0.00     0.049 A 
ATOM     59  H   UNL     1     -11.364   1.849 -10.130  1.00  0.00     0.167 HD
ATOM     60  C   UNL     1     -11.653   4.638  -8.094  1.00  0.00     0.074 A 
ATOM     61  C   UNL     1     -11.654   6.076  -8.304  1.00  0.00     0.031 C 
ATOM     62  C   UNL     1     -12.500   3.628  -8.477  1.00  0.00     0.034 A 
BRANCH  49  63
ATOM     63  C   UNL     1     -10.559  -2.056  -9.933  1.00  0.00     0.023 A 
ATOM     64  C   UNL     1     -11.507  -2.716  -9.117  1.00  0.00     0.031 A 
ATOM     65  C   UNL     1      -9.892  -2.904 -10.845  1.00  0.00     0.131 A 
ATOM     66  C   UNL     1     -11.683  -4.118  -9.166  1.00  0.00     0.055 A 
ATOM     67  C   UNL     1     -10.045  -4.296 -10.877  1.00  0.00     0.041 A 
ATOM     68  F   UNL     1      -9.074  -2.449 -11.795  1.00  0.00    -0.206 F 
ATOM     69  C   UNL     1     -10.934  -4.915 -10.025  1.00  0.00     0.022 A 
BRANCH  66  70
ATOM     70  S   UNL     1     -12.892  -4.910  -8.071  1.00  0.00     0.124 S 
ATOM     71  O   UNL     1     -12.402  -4.537  -6.748  1.00  0.00    -0.237 OA
ATOM     72  O   UNL     1     -14.143  -4.294  -8.497  1.00  0.00    -0.237 OA
ATOM     73  O   UNL     1     -12.764  -6.331  -8.395  1.00  0.00    -0.744 OA
ENDBRANCH  66  70
ENDBRANCH  49  63
BRANCH  50  74
ATOM     74  C   UNL     1      -7.403   6.679  -7.232  1.00  0.00     0.023 A 
ATOM     75  C   UNL     1      -6.455   7.121  -6.286  1.00  0.00     0.031 A 
ATOM     76  C   UNL     1      -7.149   6.930  -8.587  1.00  0.00     0.131 A 
ATOM     77  C   UNL     1      -5.237   7.668  -6.711  1.00  0.00     0.055 A 
ATOM     78  C   UNL     1      -5.947   7.511  -9.005  1.00  0.00     0.041 A 
ATOM     79  F   UNL     1      -7.997   6.500  -9.533  1.00  0.00    -0.206 F 
ATOM     80  C   UNL     1      -4.966   7.841  -8.070  1.00  0.00     0.022 A 
BRANCH  77  81
ATOM     81  S   UNL     1      -3.910   7.939  -5.501  1.00  0.00     0.124 S 
ATOM     82  O   UNL     1      -4.045   9.360  -5.209  1.00  0.00    -0.237 OA
ATOM     83  O   UNL     1      -4.266   7.030  -4.412  1.00  0.00    -0.237 OA
ATOM     84  O   UNL     1      -2.711   7.553  -6.243  1.00  0.00    -0.744 OA
ENDBRANCH  77  81
ENDBRANCH  50  74
BRANCH  62  85
ATOM     85  C   UNL     1     -13.820   3.810  -9.226  1.00  0.00     0.023 A 
ATOM     86  C   UNL     1     -14.531   5.020  -9.279  1.00  0.00     0.031 A 
ATOM     87  C   UNL     1     -14.447   2.724  -9.891  1.00  0.00     0.131 A 
ATOM     88  C   UNL     1     -15.707   5.155 -10.047  1.00  0.00     0.055 A 
ATOM     89  C   UNL     1     -15.645   2.843 -10.607  1.00  0.00     0.041 A 
ATOM     90  F   UNL     1     -13.927   1.489  -9.887  1.00  0.00    -0.206 F 
ATOM     91  C   UNL     1     -16.273   4.071 -10.710  1.00  0.00     0.022 A 
BRANCH  88  92
ATOM     92  S   UNL     1     -16.470   6.795 -10.191  1.00  0.00     0.124 S 
ATOM     93  O   UNL     1     -16.654   7.179  -8.795  1.00  0.00    -0.237 OA
ATOM     94  O   UNL     1     -15.449   7.537 -10.923  1.00  0.00    -0.237 OA
ATOM     95  O   UNL     1     -17.703   6.540 -10.933  1.00  0.00    -0.744 OA
ENDBRANCH  88  92
ENDBRANCH  62  85
ENDBRANCH  36  37
ENDBRANCH  28  31
ENDBRANCH  26  27
ENDBRANCH  25  26
ENDBRANCH   1  25
TORSDOF 18
