REMARK SMILES O=C(NCCCCNC(=O)c1ccsc1NC(=O)c1cc2c(F)cccc2s1)c1ccc(-c2c3nc(c(-c4cc(S(=O)(=O)[O-])ccc4F)c4ccc([nH]4)c(-c4cc(S(=O)(=O)[O-])ccc4F)c4nc(c(-c5cc(S(=O)(=O)[O-])ccc5F)c5ccc2[nH]5)C=C4)C=C3)cc1
REMARK SMILES IDX 5 1 4 2 3 3 1 4 2 5 29 7 30 8 91 9 31 10 90 11 32 12 33 13
REMARK SMILES IDX 34 14 84 15 35 16 89 17 83 18 85 19 36 20 88 21 82 22 81 23
REMARK SMILES IDX 37 25 69 26 49 27 68 28 50 29 53 30 67 31 86 32 51 33 52 34
REMARK SMILES IDX 66 36 87 37 54 38 38 39 39 40 47 41 40 42 46 43 48 44 45 45
REMARK SMILES IDX 41 46 42 47 43 48 44 49 70 50 71 51 79 52 72 53 78 54 80 55
REMARK SMILES IDX 77 56 73 57 74 58 75 59 76 60 55 61 56 62 64 63 57 64 63 65
REMARK SMILES IDX 65 66 62 67 58 68 59 69 60 70 61 71 6 72 7 73 8 74 9 75
REMARK SMILES IDX 10 77 11 78 12 79 15 80 13 81 14 82 16 83 17 84 18 86 19 87
REMARK SMILES IDX 20 88 28 89 21 90 27 91 22 92 26 93 23 94 24 95 25 96
REMARK H PARENT 3 6 85 24 53 35 8 76 16 85
REMARK Flexibility Score: inf
ROOT
ATOM      1  C   UNL     1       4.907  -0.626   2.073  1.00  0.00     0.023 C 
ENDROOT
BRANCH   1   2
ATOM      2  C   UNL     1       4.623  -0.981   0.613  1.00  0.00     0.116 C 
BRANCH   2   3
ATOM      3  N   UNL     1       3.219  -1.072   0.269  1.00  0.00    -0.352 N 
ATOM      4  O   UNL     1       1.195  -0.583  -0.486  1.00  0.00    -0.269 OA
ATOM      5  C   UNL     1       2.263  -0.142  -0.053  1.00  0.00     0.251 C 
ATOM      6  H   UNL     1       2.879  -1.996   0.265  1.00  0.00     0.163 HD
BRANCH   5   7
ATOM      7  C   UNL     1       2.408   1.320   0.178  1.00  0.00     0.039 A 
ATOM      8  C   UNL     1       3.620   1.978   0.375  1.00  0.00     0.014 A 
ATOM      9  C   UNL     1       1.216   2.067   0.246  1.00  0.00     0.014 A 
ATOM     10  C   UNL     1       3.640   3.305   0.773  1.00  0.00     0.010 A 
ATOM     11  C   UNL     1       1.230   3.411   0.609  1.00  0.00     0.010 A 
ATOM     12  C   UNL     1       2.444   4.013   0.917  1.00  0.00    -0.014 A 
BRANCH  12  13
ATOM     13  C   UNL     1       2.566   5.429   1.235  1.00  0.00     0.031 A 
ATOM     14  C   UNL     1       3.243   6.229   0.176  1.00  0.00     0.074 A 
ATOM     15  C   UNL     1       2.075   6.011   2.344  1.00  0.00     0.049 A 
ATOM     16  N   UNL     1       4.409   6.788   0.216  1.00  0.00    -0.248 NA
ATOM     17  C   UNL     1       2.596   6.272  -1.143  1.00  0.00     0.031 C 
ATOM     18  C   UNL     1       1.137   5.456   3.320  1.00  0.00     0.029 A 
ATOM     19  N   UNL     1       2.256   7.289   2.777  1.00  0.00    -0.354 N 
ATOM     20  C   UNL     1       4.564   7.423  -1.015  1.00  0.00     0.074 A 
ATOM     21  C   UNL     1       3.503   6.935  -1.859  1.00  0.00     0.031 C 
ATOM     22  C   UNL     1       0.662   6.459   4.095  1.00  0.00     0.029 A 
ATOM     23  C   UNL     1       1.369   7.687   3.766  1.00  0.00     0.049 A 
ATOM     24  H   UNL     1       2.958   7.880   2.420  1.00  0.00     0.167 HD
ATOM     25  C   UNL     1       5.427   8.463  -1.195  1.00  0.00     0.034 A 
ATOM     26  C   UNL     1       1.178   8.953   4.213  1.00  0.00     0.034 A 
ATOM     27  C   UNL     1       6.374   8.565  -0.121  1.00  0.00     0.049 A 
ATOM     28  C   UNL     1       2.361   9.762   3.836  1.00  0.00     0.074 A 
ATOM     29  C   UNL     1       7.384   7.765   0.371  1.00  0.00     0.029 A 
ATOM     30  N   UNL     1       6.122   9.500   0.852  1.00  0.00    -0.354 N 
ATOM     31  N   UNL     1       3.544   9.623   4.363  1.00  0.00    -0.248 NA
ATOM     32  C   UNL     1       2.320  10.470   2.566  1.00  0.00     0.031 C 
ATOM     33  C   UNL     1       7.365   7.970   1.780  1.00  0.00     0.029 A 
ATOM     34  C   UNL     1       6.375   8.914   2.063  1.00  0.00     0.049 A 
ATOM     35  H   UNL     1       5.814  10.424   0.705  1.00  0.00     0.167 HD
ATOM     36  C   UNL     1       4.418   9.816   3.305  1.00  0.00     0.074 A 
ATOM     37  C   UNL     1       3.619  10.446   2.258  1.00  0.00     0.031 C 
ATOM     38  C   UNL     1       5.633   9.195   3.273  1.00  0.00     0.034 A 
BRANCH  25  39
ATOM     39  C   UNL     1       5.180   9.593  -2.165  1.00  0.00     0.023 A 
ATOM     40  C   UNL     1       3.911   9.838  -2.722  1.00  0.00     0.031 A 
ATOM     41  C   UNL     1       6.146  10.599  -2.366  1.00  0.00     0.131 A 
ATOM     42  C   UNL     1       3.639  10.998  -3.455  1.00  0.00     0.055 A 
ATOM     43  C   UNL     1       5.855  11.793  -3.041  1.00  0.00     0.041 A 
ATOM     44  F   UNL     1       7.383  10.479  -1.860  1.00  0.00    -0.206 F 
ATOM     45  C   UNL     1       4.596  11.997  -3.592  1.00  0.00     0.022 A 
BRANCH  42  46
ATOM     46  S   UNL     1       2.010  11.229  -4.218  1.00  0.00     0.124 S 
ATOM     47  O   UNL     1       1.570  12.480  -3.611  1.00  0.00    -0.237 OA
ATOM     48  O   UNL     1       2.357  11.297  -5.635  1.00  0.00    -0.237 OA
ATOM     49  O   UNL     1       1.275  10.034  -3.818  1.00  0.00    -0.744 OA
ENDBRANCH  42  46
ENDBRANCH  25  39
BRANCH  26  50
ATOM     50  C   UNL     1      -0.118   9.597   4.530  1.00  0.00     0.023 A 
ATOM     51  C   UNL     1      -1.295   9.142   3.909  1.00  0.00     0.031 A 
ATOM     52  C   UNL     1      -0.167  10.848   5.170  1.00  0.00     0.131 A 
ATOM     53  C   UNL     1      -2.442   9.947   3.882  1.00  0.00     0.055 A 
ATOM     54  C   UNL     1      -1.317  11.646   5.152  1.00  0.00     0.041 A 
ATOM     55  F   UNL     1       0.928  11.355   5.759  1.00  0.00    -0.206 F 
ATOM     56  C   UNL     1      -2.458  11.202   4.491  1.00  0.00     0.022 A 
BRANCH  53  57
ATOM     57  S   UNL     1      -3.917   9.389   2.987  1.00  0.00     0.124 S 
ATOM     58  O   UNL     1      -5.000   9.802   3.878  1.00  0.00    -0.237 OA
ATOM     59  O   UNL     1      -3.809  10.136   1.740  1.00  0.00    -0.237 OA
ATOM     60  O   UNL     1      -3.724   7.945   2.885  1.00  0.00    -0.744 OA
ENDBRANCH  53  57
ENDBRANCH  26  50
BRANCH  38  61
ATOM     61  C   UNL     1       6.138   8.529   4.529  1.00  0.00     0.023 A 
ATOM     62  C   UNL     1       7.435   8.867   4.949  1.00  0.00     0.031 A 
ATOM     63  C   UNL     1       5.498   7.454   5.174  1.00  0.00     0.131 A 
ATOM     64  C   UNL     1       8.069   8.122   5.948  1.00  0.00     0.055 A 
ATOM     65  C   UNL     1       6.111   6.754   6.219  1.00  0.00     0.041 A 
ATOM     66  F   UNL     1       4.308   6.997   4.761  1.00  0.00    -0.206 F 
ATOM     67  C   UNL     1       7.410   7.077   6.600  1.00  0.00     0.022 A 
BRANCH  64  68
ATOM     68  S   UNL     1       9.816   8.409   6.324  1.00  0.00     0.124 S 
ATOM     69  O   UNL     1       9.774   8.763   7.740  1.00  0.00    -0.237 OA
ATOM     70  O   UNL     1      10.413   7.110   6.020  1.00  0.00    -0.237 OA
ATOM     71  O   UNL     1      10.200   9.492   5.423  1.00  0.00    -0.744 OA
ENDBRANCH  64  68
ENDBRANCH  38  61
ENDBRANCH  12  13
ENDBRANCH   5   7
ENDBRANCH   2   3
ENDBRANCH   1   2
BRANCH   1  72
ATOM     72  C   UNL     1       4.440  -1.669   3.087  1.00  0.00     0.023 C 
BRANCH  72  73
ATOM     73  C   UNL     1       4.885  -3.096   2.790  1.00  0.00     0.116 C 
BRANCH  73  74
ATOM     74  N   UNL     1       6.336  -3.250   2.792  1.00  0.00    -0.352 N 
ATOM     75  C   UNL     1       7.114  -4.041   3.611  1.00  0.00     0.254 C 
ATOM     76  H   UNL     1       6.824  -2.719   2.122  1.00  0.00     0.163 HD
ATOM     77  O   UNL     1       8.326  -3.926   3.629  1.00  0.00    -0.269 OA
BRANCH  75  78
ATOM     78  C   UNL     1       6.403  -4.976   4.464  1.00  0.00     0.074 A 
ATOM     79  C   UNL     1       5.432  -5.936   3.992  1.00  0.00     0.028 A 
ATOM     80  C   UNL     1       6.589  -5.067   5.837  1.00  0.00     0.108 A 
ATOM     81  C   UNL     1       4.731  -6.508   5.020  1.00  0.00     0.068 A 
ATOM     82  S   UNL     1       5.301  -5.943   6.504  1.00  0.00    -0.126 S 
BRANCH  80  83
ATOM     83  N   UNL     1       7.551  -4.425   6.614  1.00  0.00    -0.312 N 
ATOM     84  C   UNL     1       7.933  -4.548   7.949  1.00  0.00     0.266 C 
ATOM     85  H   UNL     1       8.065  -3.746   6.120  1.00  0.00     0.171 HD
ATOM     86  O   UNL     1       8.782  -3.765   8.380  1.00  0.00    -0.268 OA
BRANCH  84  87
ATOM     87  C   UNL     1       7.424  -5.632   8.755  1.00  0.00     0.094 A 
ATOM     88  C   UNL     1       7.857  -6.942   8.843  1.00  0.00     0.037 A 
ATOM     89  S   UNL     1       6.080  -5.396   9.791  1.00  0.00    -0.130 S 
ATOM     90  C   UNL     1       6.749  -7.800   9.181  1.00  0.00     0.029 A 
ATOM     91  C   UNL     1       5.617  -7.039   9.495  1.00  0.00     0.038 A 
ATOM     92  C   UNL     1       6.580  -9.187   9.005  1.00  0.00     0.131 A 
ATOM     93  C   UNL     1       4.320  -7.575   9.428  1.00  0.00     0.020 A 
ATOM     94  F   UNL     1       7.640  -9.985   8.815  1.00  0.00    -0.206 F 
ATOM     95  C   UNL     1       5.299  -9.708   8.829  1.00  0.00     0.040 A 
ATOM     96  C   UNL     1       4.183  -8.890   8.976  1.00  0.00     0.005 A 
ENDBRANCH  84  87
ENDBRANCH  80  83
ENDBRANCH  75  78
ENDBRANCH  73  74
ENDBRANCH  72  73
ENDBRANCH   1  72
TORSDOF 16
