REMARK SMILES CC1(C)S[C@@H]2[C@H]([NH2+]Cn3nnc4ccccc43)C(=O)N2[C@@H]1C(=O)NCCCCNC(=O)c1ccc(-c2c3nc(c(-c4cc(S(=O)(=O)[O-])ccc4F)c4ccc([nH]4)c(-c4cc(S(=O)(=O)[O-])ccc4F)c4nc(c(-c5cc(S(=O)(=O)[O-])ccc5F)c5ccc2[nH]5)C=C4)C=C3)cc1
REMARK SMILES IDX 26 1 25 2 24 3 22 4 23 5 21 7 1 8 2 9 3 10 4 11 5 12 20 13
REMARK SMILES IDX 6 14 18 15 19 16 7 17 8 20 9 21 10 22 17 23 11 24 12 25
REMARK SMILES IDX 16 26 13 27 15 28 14 29 27 30 28 31 29 32 30 33 31 35 32 36
REMARK SMILES IDX 33 37 94 38 34 39 93 40 35 41 36 42 37 43 87 44 38 45 92 46
REMARK SMILES IDX 86 47 88 48 39 49 91 50 85 51 84 52 40 54 72 55 52 56 71 57
REMARK SMILES IDX 53 58 56 59 70 60 89 61 54 62 55 63 69 65 90 66 57 67 41 68
REMARK SMILES IDX 42 69 50 70 43 71 49 72 51 73 48 74 44 75 45 76 46 77 47 78
REMARK SMILES IDX 73 79 74 80 82 81 75 82 81 83 83 84 80 85 76 86 77 87 78 88
REMARK SMILES IDX 79 89 58 90 59 91 67 92 60 93 66 94 68 95 65 96 61 97 62 98
REMARK SMILES IDX 63 99 64 100
REMARK H PARENT 24 6 7 18 7 19 29 34 88 53 56 64
REMARK Flexibility Score: inf
ROOT
ATOM      1  C   UNL     1      -1.766  -0.400  -3.230  1.00  0.00     0.023 C 
ENDROOT
BRANCH   1   2
ATOM      2  C   UNL     1      -0.420   0.132  -2.747  1.00  0.00     0.116 C 
BRANCH   2   3
ATOM      3  N   UNL     1      -0.452   1.509  -2.300  1.00  0.00    -0.354 N 
ATOM      4  C   UNL     1      -0.115   2.053  -1.093  1.00  0.00     0.244 C 
ATOM      5  O   UNL     1       0.118   3.268  -1.076  1.00  0.00    -0.273 OA
ATOM      6  H   UNL     1      -0.767   2.156  -2.972  1.00  0.00     0.163 HD
BRANCH   4   7
ATOM      7  C   UNL     1       0.152   1.221   0.188  1.00  0.00     0.191 C 
ATOM      8  C   UNL     1       2.544   0.927  -0.856  1.00  0.00     0.026 C 
ATOM      9  C   UNL     1       1.620   0.700   0.347  1.00  0.00     0.042 C 
ATOM     10  C   UNL     1       2.299   1.264   1.604  1.00  0.00     0.026 C 
ATOM     11  S   UNL     1       1.511  -1.158   0.697  1.00  0.00    -0.121 SA
ATOM     12  C   UNL     1      -0.235  -1.060   1.173  1.00  0.00     0.213 C 
ATOM     13  N   UNL     1      -0.662   0.041   0.331  1.00  0.00    -0.306 N 
ATOM     14  C   UNL     1      -1.496  -1.828   0.644  1.00  0.00     0.307 C 
ATOM     15  C   UNL     1      -1.943  -0.335   0.248  1.00  0.00     0.285 C 
ATOM     16  O   UNL     1      -2.925   0.277  -0.092  1.00  0.00    -0.268 OA
BRANCH  14  17
ATOM     17  N   UNL     1      -1.437  -2.778  -0.499  1.00  0.00    -0.315 N 
ATOM     18  H   UNL     1      -1.872  -2.326  -1.304  1.00  0.00     0.348 HD
ATOM     19  H   UNL     1      -1.920  -3.620  -0.184  1.00  0.00     0.348 HD
BRANCH  17  20
ATOM     20  C   UNL     1      -0.115  -3.209  -0.894  1.00  0.00     0.415 C 
BRANCH  20  21
ATOM     21  N   UNL     1      -0.069  -4.018  -2.109  1.00  0.00    -0.194 N 
ATOM     22  N   UNL     1      -0.916  -5.026  -2.365  1.00  0.00    -0.061 NA
ATOM     23  C   UNL     1       0.958  -3.962  -3.026  1.00  0.00     0.095 A 
ATOM     24  N   UNL     1      -0.466  -5.653  -3.449  1.00  0.00    -0.130 NA
ATOM     25  C   UNL     1       0.685  -5.033  -3.863  1.00  0.00     0.113 A 
ATOM     26  C   UNL     1       2.060  -3.110  -3.193  1.00  0.00     0.030 A 
ATOM     27  C   UNL     1       1.552  -5.292  -4.934  1.00  0.00     0.032 A 
ATOM     28  C   UNL     1       2.894  -3.363  -4.284  1.00  0.00     0.002 A 
ATOM     29  C   UNL     1       2.647  -4.437  -5.140  1.00  0.00     0.002 A 
ENDBRANCH  20  21
ENDBRANCH  17  20
ENDBRANCH  14  17
ENDBRANCH   4   7
ENDBRANCH   2   3
ENDBRANCH   1   2
BRANCH   1  30
ATOM     30  C   UNL     1      -2.047  -0.172  -4.715  1.00  0.00     0.023 C 
BRANCH  30  31
ATOM     31  C   UNL     1      -1.069  -0.858  -5.673  1.00  0.00     0.116 C 
BRANCH  31  32
ATOM     32  N   UNL     1      -0.994  -2.292  -5.492  1.00  0.00    -0.352 N 
ATOM     33  C   UNL     1      -0.940  -3.144  -6.573  1.00  0.00     0.251 C 
ATOM     34  H   UNL     1      -0.982  -2.664  -4.581  1.00  0.00     0.163 HD
ATOM     35  O   UNL     1       0.112  -3.623  -6.973  1.00  0.00    -0.269 OA
BRANCH  33  36
ATOM     36  C   UNL     1      -2.241  -3.614  -7.077  1.00  0.00     0.039 A 
ATOM     37  C   UNL     1      -3.354  -2.777  -7.048  1.00  0.00     0.014 A 
ATOM     38  C   UNL     1      -2.351  -4.957  -7.467  1.00  0.00     0.014 A 
ATOM     39  C   UNL     1      -4.595  -3.307  -7.307  1.00  0.00     0.010 A 
ATOM     40  C   UNL     1      -3.600  -5.489  -7.749  1.00  0.00     0.010 A 
ATOM     41  C   UNL     1      -4.714  -4.665  -7.627  1.00  0.00    -0.014 A 
BRANCH  41  42
ATOM     42  C   UNL     1      -6.045  -5.096  -8.008  1.00  0.00     0.031 A 
ATOM     43  C   UNL     1      -6.530  -4.410  -9.232  1.00  0.00     0.074 A 
ATOM     44  C   UNL     1      -6.770  -6.008  -7.345  1.00  0.00     0.049 A 
ATOM     45  N   UNL     1      -7.408  -3.465  -9.307  1.00  0.00    -0.248 NA
ATOM     46  C   UNL     1      -5.777  -4.640 -10.473  1.00  0.00     0.031 C 
ATOM     47  C   UNL     1      -6.341  -6.965  -6.328  1.00  0.00     0.029 A 
ATOM     48  N   UNL     1      -8.078  -6.314  -7.529  1.00  0.00    -0.354 N 
ATOM     49  C   UNL     1      -7.449  -3.096 -10.648  1.00  0.00     0.074 A 
ATOM     50  C   UNL     1      -6.296  -3.704 -11.265  1.00  0.00     0.031 C 
ATOM     51  C   UNL     1      -7.311  -7.898  -6.171  1.00  0.00     0.029 A 
ATOM     52  C   UNL     1      -8.471  -7.512  -6.963  1.00  0.00     0.049 A 
ATOM     53  H   UNL     1      -8.697  -5.730  -8.025  1.00  0.00     0.167 HD
ATOM     54  C   UNL     1      -8.539  -2.488 -11.194  1.00  0.00     0.034 A 
ATOM     55  C   UNL     1      -9.624  -8.173  -7.239  1.00  0.00     0.034 A 
ATOM     56  C   UNL     1      -9.415  -1.972 -10.176  1.00  0.00     0.049 A 
ATOM     57  C   UNL     1     -10.575  -7.204  -7.850  1.00  0.00     0.074 A 
ATOM     58  C   UNL     1      -9.292  -0.997  -9.206  1.00  0.00     0.029 A 
ATOM     59  N   UNL     1     -10.481  -2.753  -9.795  1.00  0.00    -0.354 N 
ATOM     60  N   UNL     1     -11.138  -6.226  -7.197  1.00  0.00    -0.248 NA
ATOM     61  C   UNL     1     -10.535  -7.040  -9.298  1.00  0.00     0.031 C 
ATOM     62  C   UNL     1      -9.973  -1.518  -8.069  1.00  0.00     0.029 A 
ATOM     63  C   UNL     1     -10.533  -2.748  -8.422  1.00  0.00     0.049 A 
ATOM     64  H   UNL     1     -11.096  -3.231 -10.398  1.00  0.00     0.167 HD
ATOM     65  C   UNL     1     -11.093  -5.149  -8.072  1.00  0.00     0.074 A 
ATOM     66  C   UNL     1     -10.805  -5.734  -9.381  1.00  0.00     0.031 C 
ATOM     67  C   UNL     1     -11.000  -3.862  -7.618  1.00  0.00     0.034 A 
BRANCH  54  68
ATOM     68  C   UNL     1      -8.951  -2.667 -12.634  1.00  0.00     0.023 A 
ATOM     69  C   UNL     1      -8.385  -3.649 -13.468  1.00  0.00     0.031 A 
ATOM     70  C   UNL     1     -10.078  -2.002 -13.152  1.00  0.00     0.131 A 
ATOM     71  C   UNL     1      -8.893  -3.928 -14.741  1.00  0.00     0.055 A 
ATOM     72  C   UNL     1     -10.634  -2.328 -14.397  1.00  0.00     0.041 A 
ATOM     73  F   UNL     1     -10.709  -1.054 -12.442  1.00  0.00    -0.206 F 
ATOM     74  C   UNL     1     -10.040  -3.296 -15.201  1.00  0.00     0.022 A 
BRANCH  71  75
ATOM     75  S   UNL     1      -8.059  -5.136 -15.806  1.00  0.00     0.124 S 
ATOM     76  O   UNL     1      -9.100  -6.139 -15.996  1.00  0.00    -0.237 OA
ATOM     77  O   UNL     1      -7.738  -4.324 -16.978  1.00  0.00    -0.237 OA
ATOM     78  O   UNL     1      -6.906  -5.555 -15.014  1.00  0.00    -0.744 OA
ENDBRANCH  71  75
ENDBRANCH  54  68
BRANCH  55  79
ATOM     79  C   UNL     1      -9.717  -9.626  -7.519  1.00  0.00     0.023 A 
ATOM     80  C   UNL     1      -8.589 -10.319  -7.999  1.00  0.00     0.031 A 
ATOM     81  C   UNL     1     -10.964 -10.263  -7.636  1.00  0.00     0.131 A 
ATOM     82  C   UNL     1      -8.728 -11.562  -8.626  1.00  0.00     0.055 A 
ATOM     83  C   UNL     1     -11.099 -11.517  -8.244  1.00  0.00     0.041 A 
ATOM     84  F   UNL     1     -12.085  -9.645  -7.233  1.00  0.00    -0.206 F 
ATOM     85  C   UNL     1      -9.978 -12.166  -8.758  1.00  0.00     0.022 A 
BRANCH  82  86
ATOM     86  S   UNL     1      -7.285 -12.367  -9.373  1.00  0.00     0.124 S 
ATOM     87  O   UNL     1      -7.433 -13.749  -8.924  1.00  0.00    -0.237 OA
ATOM     88  O   UNL     1      -7.523 -12.138 -10.794  1.00  0.00    -0.237 OA
ATOM     89  O   UNL     1      -6.153 -11.649  -8.794  1.00  0.00    -0.744 OA
ENDBRANCH  82  86
ENDBRANCH  55  79
BRANCH  67  90
ATOM     90  C   UNL     1     -11.149  -3.602  -6.131  1.00  0.00     0.023 A 
ATOM     91  C   UNL     1     -11.983  -2.542  -5.737  1.00  0.00     0.031 A 
ATOM     92  C   UNL     1     -10.359  -4.204  -5.130  1.00  0.00     0.131 A 
ATOM     93  C   UNL     1     -11.990  -2.096  -4.409  1.00  0.00     0.055 A 
ATOM     94  C   UNL     1     -10.423  -3.805  -3.791  1.00  0.00     0.041 A 
ATOM     95  F   UNL     1      -9.443  -5.133  -5.424  1.00  0.00    -0.206 F 
ATOM     96  C   UNL     1     -11.230  -2.735  -3.427  1.00  0.00     0.022 A 
BRANCH  93  97
ATOM     97  S   UNL     1     -12.866  -0.576  -3.961  1.00  0.00     0.124 S 
ATOM     98  O   UNL     1     -13.933  -1.077  -3.100  1.00  0.00    -0.237 OA
ATOM     99  O   UNL     1     -11.826   0.197  -3.285  1.00  0.00    -0.237 OA
ATOM    100  O   UNL     1     -13.302  -0.029  -5.243  1.00  0.00    -0.744 OA
ENDBRANCH  93  97
ENDBRANCH  67  90
ENDBRANCH  41  42
ENDBRANCH  33  36
ENDBRANCH  31  32
ENDBRANCH  30  31
ENDBRANCH   1  30
TORSDOF 17
