REMARK SMILES CCC(CC)(NC(=O)c1cc([N+](=O)[O-])c[nH]1)C(=O)NCCCCNC(=O)c1ccc(-c2c3nc(c(-c4cc(S(=O)(=O)[O-])ccc4F)c4ccc([nH]4)c(-c4cc(S(=O)(=O)[O-])ccc4F)c4nc(c(-c5cc(S(=O)(=O)[O-])ccc5F)c5ccc2[nH]5)C=C4)C=C3)cc1
REMARK SMILES IDX 21 1 20 2 19 3 17 4 18 5 3 7 2 8 1 9 4 10 5 11 6 12 7 13
REMARK SMILES IDX 8 15 9 16 10 17 16 18 11 19 15 20 12 22 13 23 14 24 22 25
REMARK SMILES IDX 23 26 24 27 25 28 26 30 27 31 28 32 89 33 29 34 88 35 30 36
REMARK SMILES IDX 31 37 32 38 82 39 33 40 87 41 81 42 83 43 34 44 86 45 80 46
REMARK SMILES IDX 79 47 35 49 67 50 47 51 66 52 48 53 51 54 65 55 84 56 49 57
REMARK SMILES IDX 50 58 64 60 85 61 52 62 36 63 37 64 45 65 38 66 44 67 46 68
REMARK SMILES IDX 43 69 39 70 40 71 41 72 42 73 68 74 69 75 77 76 70 77 76 78
REMARK SMILES IDX 78 79 75 80 71 81 72 82 73 83 74 84 53 85 54 86 62 87 55 88
REMARK SMILES IDX 61 89 63 90 60 91 56 92 57 93 58 94 59 95
REMARK H PARENT 19 6 6 14 16 21 24 29 83 48 51 59
REMARK Flexibility Score: inf
ROOT
ATOM      1  C   UNL     1       2.471   0.843   6.253  1.00  0.00     0.023 C 
ENDROOT
BRANCH   1   2
ATOM      2  C   UNL     1       2.115   1.859   5.156  1.00  0.00     0.116 C 
BRANCH   2   3
ATOM      3  N   UNL     1       2.735   1.735   3.838  1.00  0.00    -0.354 N 
ATOM      4  C   UNL     1       2.385   1.079   2.673  1.00  0.00     0.245 C 
ATOM      5  O   UNL     1       3.080   1.298   1.678  1.00  0.00    -0.272 OA
ATOM      6  H   UNL     1       3.586   2.225   3.764  1.00  0.00     0.163 HD
BRANCH   4   7
ATOM      7  C   UNL     1       1.113   0.202   2.586  1.00  0.00     0.118 C 
BRANCH   7   8
ATOM      8  C   UNL     1       0.986  -0.724   1.337  1.00  0.00     0.035 C 
ATOM      9  C   UNL     1       1.035  -0.103  -0.051  1.00  0.00     0.007 C 
ENDBRANCH   7   8
BRANCH   7  10
ATOM     10  C   UNL     1      -0.016   1.293   2.556  1.00  0.00     0.035 C 
ATOM     11  C   UNL     1      -1.465   0.845   2.558  1.00  0.00     0.007 C 
ENDBRANCH   7  10
BRANCH   7  12
ATOM     12  N   UNL     1       1.054  -0.705   3.764  1.00  0.00    -0.336 N 
ATOM     13  C   UNL     1       1.858  -1.796   4.081  1.00  0.00     0.268 C 
ATOM     14  H   UNL     1       0.343  -0.504   4.413  1.00  0.00     0.165 HD
ATOM     15  O   UNL     1       1.282  -2.726   4.651  1.00  0.00    -0.268 OA
BRANCH  13  16
ATOM     16  C   UNL     1       3.302  -1.877   3.849  1.00  0.00     0.111 A 
ATOM     17  C   UNL     1       4.311  -0.957   3.627  1.00  0.00     0.119 A 
ATOM     18  N   UNL     1       3.986  -3.083   3.999  1.00  0.00    -0.351 N 
ATOM     19  C   UNL     1       5.584  -1.570   3.697  1.00  0.00     0.287 A 
ATOM     20  C   UNL     1       5.349  -2.909   3.905  1.00  0.00     0.169 A 
ATOM     21  H   UNL     1       3.549  -3.952   4.152  1.00  0.00     0.166 HD
BRANCH  19  22
ATOM     22  N   UNL     1       6.854  -0.883   3.651  1.00  0.00     0.064 N 
ATOM     23  O   UNL     1       7.874  -1.581   3.610  1.00  0.00    -0.258 OA
ATOM     24  O   UNL     1       6.814   0.354   3.704  1.00  0.00    -0.258 OA
ENDBRANCH  19  22
ENDBRANCH  13  16
ENDBRANCH   7  12
ENDBRANCH   4   7
ENDBRANCH   2   3
ENDBRANCH   1   2
BRANCH   1  25
ATOM     25  C   UNL     1       3.931   0.640   6.669  1.00  0.00     0.023 C 
BRANCH  25  26
ATOM     26  C   UNL     1       4.719   1.913   6.901  1.00  0.00     0.116 C 
BRANCH  26  27
ATOM     27  N   UNL     1       4.193   2.623   8.051  1.00  0.00    -0.352 N 
ATOM     28  C   UNL     1       4.711   3.730   8.672  1.00  0.00     0.251 C 
ATOM     29  H   UNL     1       3.359   2.265   8.433  1.00  0.00     0.163 HD
ATOM     30  O   UNL     1       4.490   3.899   9.864  1.00  0.00    -0.269 OA
BRANCH  28  31
ATOM     31  C   UNL     1       5.507   4.715   7.915  1.00  0.00     0.039 A 
ATOM     32  C   UNL     1       6.497   5.430   8.601  1.00  0.00     0.014 A 
ATOM     33  C   UNL     1       5.208   5.016   6.581  1.00  0.00     0.014 A 
ATOM     34  C   UNL     1       7.203   6.427   7.942  1.00  0.00     0.010 A 
ATOM     35  C   UNL     1       5.935   5.981   5.908  1.00  0.00     0.010 A 
ATOM     36  C   UNL     1       6.924   6.688   6.596  1.00  0.00    -0.014 A 
BRANCH  36  37
ATOM     37  C   UNL     1       7.790   7.614   5.845  1.00  0.00     0.031 A 
ATOM     38  C   UNL     1       9.155   6.910   5.517  1.00  0.00     0.074 A 
ATOM     39  C   UNL     1       7.233   8.849   5.613  1.00  0.00     0.049 A 
ATOM     40  N   UNL     1      10.368   7.373   5.431  1.00  0.00    -0.248 NA
ATOM     41  C   UNL     1       9.164   5.417   5.380  1.00  0.00     0.031 C 
ATOM     42  C   UNL     1       5.877   9.303   6.039  1.00  0.00     0.029 A 
ATOM     43  N   UNL     1       7.668   9.985   4.981  1.00  0.00    -0.354 N 
ATOM     44  C   UNL     1      11.214   6.304   5.017  1.00  0.00     0.074 A 
ATOM     45  C   UNL     1      10.442   5.108   5.145  1.00  0.00     0.031 C 
ATOM     46  C   UNL     1       5.678  10.618   5.770  1.00  0.00     0.029 A 
ATOM     47  C   UNL     1       6.863  11.159   5.143  1.00  0.00     0.049 A 
ATOM     48  H   UNL     1       8.492   9.994   4.442  1.00  0.00     0.167 HD
ATOM     49  C   UNL     1      12.437   6.487   4.428  1.00  0.00     0.034 A 
ATOM     50  C   UNL     1       7.210  12.467   4.886  1.00  0.00     0.034 A 
ATOM     51  C   UNL     1      12.682   7.878   4.270  1.00  0.00     0.049 A 
ATOM     52  C   UNL     1       8.598  12.323   4.415  1.00  0.00     0.074 A 
ATOM     53  C   UNL     1      13.315   8.880   4.955  1.00  0.00     0.029 A 
ATOM     54  N   UNL     1      12.151   8.410   3.123  1.00  0.00    -0.354 N 
ATOM     55  N   UNL     1       8.969  11.837   3.274  1.00  0.00    -0.248 NA
ATOM     56  C   UNL     1       9.610  12.422   5.465  1.00  0.00     0.031 C 
ATOM     57  C   UNL     1      12.963  10.071   4.269  1.00  0.00     0.029 A 
ATOM     58  C   UNL     1      11.956   9.736   3.363  1.00  0.00     0.049 A 
ATOM     59  H   UNL     1      11.950   7.927   2.289  1.00  0.00     0.167 HD
ATOM     60  C   UNL     1      10.230  11.346   3.517  1.00  0.00     0.074 A 
ATOM     61  C   UNL     1      10.591  11.764   4.868  1.00  0.00     0.031 C 
ATOM     62  C   UNL     1      10.790  10.348   2.791  1.00  0.00     0.034 A 
BRANCH  49  63
ATOM     63  C   UNL     1      13.391   5.606   3.621  1.00  0.00     0.023 A 
ATOM     64  C   UNL     1      14.645   6.199   3.293  1.00  0.00     0.031 A 
ATOM     65  C   UNL     1      13.036   4.487   2.857  1.00  0.00     0.131 A 
ATOM     66  C   UNL     1      15.374   5.829   2.154  1.00  0.00     0.055 A 
ATOM     67  C   UNL     1      13.821   4.053   1.768  1.00  0.00     0.041 A 
ATOM     68  F   UNL     1      11.889   3.829   3.071  1.00  0.00    -0.206 F 
ATOM     69  C   UNL     1      14.966   4.753   1.381  1.00  0.00     0.022 A 
BRANCH  66  70
ATOM     70  S   UNL     1      16.729   6.918   1.612  1.00  0.00     0.124 S 
ATOM     71  O   UNL     1      16.051   8.197   1.438  1.00  0.00    -0.237 OA
ATOM     72  O   UNL     1      17.655   6.838   2.738  1.00  0.00    -0.237 OA
ATOM     73  O   UNL     1      17.199   6.290   0.380  1.00  0.00    -0.744 OA
ENDBRANCH  66  70
ENDBRANCH  49  63
BRANCH  50  74
ATOM     74  C   UNL     1       6.758  13.890   5.207  1.00  0.00     0.023 A 
ATOM     75  C   UNL     1       5.480  14.317   5.609  1.00  0.00     0.031 A 
ATOM     76  C   UNL     1       7.740  14.937   5.165  1.00  0.00     0.131 A 
ATOM     77  C   UNL     1       5.271  15.670   6.025  1.00  0.00     0.055 A 
ATOM     78  C   UNL     1       7.555  16.226   5.667  1.00  0.00     0.041 A 
ATOM     79  F   UNL     1       8.955  14.752   4.629  1.00  0.00    -0.206 F 
ATOM     80  C   UNL     1       6.314  16.595   6.124  1.00  0.00     0.022 A 
BRANCH  77  81
ATOM     81  S   UNL     1       3.610  16.293   6.442  1.00  0.00     0.124 S 
ATOM     82  O   UNL     1       3.068  16.605   5.125  1.00  0.00    -0.237 OA
ATOM     83  O   UNL     1       3.005  15.162   7.137  1.00  0.00    -0.237 OA
ATOM     84  O   UNL     1       3.884  17.456   7.288  1.00  0.00    -0.744 OA
ENDBRANCH  77  81
ENDBRANCH  50  74
BRANCH  62  85
ATOM     85  C   UNL     1       9.892   9.722   1.724  1.00  0.00     0.023 A 
ATOM     86  C   UNL     1       9.646  10.351   0.499  1.00  0.00     0.031 A 
ATOM     87  C   UNL     1       9.189   8.514   1.948  1.00  0.00     0.131 A 
ATOM     88  C   UNL     1       8.758   9.771  -0.437  1.00  0.00     0.055 A 
ATOM     89  C   UNL     1       8.317   7.932   1.023  1.00  0.00     0.041 A 
ATOM     90  F   UNL     1       9.338   7.845   3.090  1.00  0.00    -0.206 F 
ATOM     91  C   UNL     1       8.099   8.564  -0.186  1.00  0.00     0.022 A 
BRANCH  88  92
ATOM     92  S   UNL     1       8.483  10.597  -2.027  1.00  0.00     0.124 S 
ATOM     93  O   UNL     1       7.719  11.777  -1.641  1.00  0.00    -0.237 OA
ATOM     94  O   UNL     1       9.843  10.838  -2.498  1.00  0.00    -0.237 OA
ATOM     95  O   UNL     1       7.735   9.607  -2.804  1.00  0.00    -0.744 OA
ENDBRANCH  88  92
ENDBRANCH  62  85
ENDBRANCH  36  37
ENDBRANCH  28  31
ENDBRANCH  26  27
ENDBRANCH  25  26
ENDBRANCH   1  25
TORSDOF 19
