REMARK SMILES Cc1c(Cc2ccccc2)c(=O)oc2c(C)c(O[C@H](C)C(=O)NCCCCNC(=O)c3ccc(-c4c5nc(c(-c6cc(S(=O)(=O)[O-])ccc6F)c6ccc([nH]6)c(-c6cc(S(=O)(=O)[O-])ccc6F)c6nc(c(-c7cc(S(=O)(=O)[O-])ccc7F)c7ccc4[nH]7)C=C6)C=C5)cc3)ccc12
REMARK SMILES IDX 25 1 24 2 23 3 21 4 22 5 19 7 20 8 18 9 17 10 1 11 2 12 3 13
REMARK SMILES IDX 96 14 11 15 14 16 95 17 12 18 13 19 15 20 94 21 16 22 4 23
REMARK SMILES IDX 5 24 6 25 10 26 7 27 9 28 8 29 26 30 27 31 28 32 29 33 30 35
REMARK SMILES IDX 31 36 32 37 93 38 33 39 92 40 34 41 35 42 36 43 86 44 37 45
REMARK SMILES IDX 91 46 85 47 87 48 38 49 90 50 84 51 83 52 39 54 71 55 51 56
REMARK SMILES IDX 70 57 52 58 55 59 69 60 88 61 53 62 54 63 68 65 89 66 56 67
REMARK SMILES IDX 40 68 41 69 49 70 42 71 48 72 50 73 47 74 43 75 44 76 45 77
REMARK SMILES IDX 46 78 72 79 73 80 81 81 74 82 80 83 82 84 79 85 75 86 76 87
REMARK SMILES IDX 77 88 78 89 57 90 58 91 66 92 59 93 65 94 67 95 64 96 60 97
REMARK SMILES IDX 61 98 62 99 63 100
REMARK H PARENT 23 6 28 34 87 53 55 64
REMARK Flexibility Score: inf
ROOT
ATOM      1  C   UNL     1       1.951   2.688  -2.096  1.00  0.00     0.023 C 
ENDROOT
BRANCH   1   2
ATOM      2  C   UNL     1       1.807   4.098  -1.518  1.00  0.00     0.116 C 
BRANCH   2   3
ATOM      3  N   UNL     1       2.534   5.060  -2.321  1.00  0.00    -0.353 N 
ATOM      4  C   UNL     1       2.078   5.970  -3.228  1.00  0.00     0.260 C 
ATOM      5  O   UNL     1       2.916   6.575  -3.902  1.00  0.00    -0.271 OA
ATOM      6  H   UNL     1       3.510   5.056  -2.191  1.00  0.00     0.163 HD
BRANCH   4   7
ATOM      7  C   UNL     1       0.575   6.241  -3.414  1.00  0.00     0.258 C 
ATOM      8  C   UNL     1      -0.143   5.055  -4.059  1.00  0.00     0.064 C 
BRANCH   7   9
ATOM      9  O   UNL     1      -0.090   6.556  -2.202  1.00  0.00    -0.480 OA
BRANCH   9  10
ATOM     10  C   UNL     1       0.010   7.770  -1.581  1.00  0.00     0.127 A 
ATOM     11  C   UNL     1      -0.358  11.098   2.425  1.00  0.00     0.046 C 
ATOM     12  C   UNL     1      -0.345  11.271   0.930  1.00  0.00    -0.029 A 
ATOM     13  C   UNL     1      -0.470  12.462   0.303  1.00  0.00     0.046 A 
ATOM     14  C   UNL     1      -0.215  10.048   0.116  1.00  0.00     0.021 A 
ATOM     15  C   UNL     1      -0.292  12.563  -1.170  1.00  0.00     0.340 A 
ATOM     16  C   UNL     1       0.124  10.154  -1.232  1.00  0.00     0.145 A 
ATOM     17  C   UNL     1      -0.451   8.769   0.613  1.00  0.00     0.016 A 
ATOM     18  O   UNL     1      -0.492  13.605  -1.786  1.00  0.00    -0.246 OA
ATOM     19  O   UNL     1       0.201  11.441  -1.813  1.00  0.00    -0.422 OA
ATOM     20  C   UNL     1       0.316   9.040  -2.093  1.00  0.00     0.035 A 
ATOM     21  C   UNL     1      -0.366   7.659  -0.231  1.00  0.00     0.047 A 
ATOM     22  C   UNL     1       0.781   9.320  -3.494  1.00  0.00     0.052 C 
BRANCH  13  23
ATOM     23  C   UNL     1      -0.773  13.782   0.984  1.00  0.00     0.079 C 
BRANCH  23  24
ATOM     24  C   UNL     1      -2.253  13.955   1.273  1.00  0.00    -0.043 A 
ATOM     25  C   UNL     1      -3.118  14.462   0.292  1.00  0.00     0.004 A 
ATOM     26  C   UNL     1      -2.793  13.561   2.506  1.00  0.00     0.004 A 
ATOM     27  C   UNL     1      -4.490  14.559   0.538  1.00  0.00     0.000 A 
ATOM     28  C   UNL     1      -4.165  13.645   2.745  1.00  0.00     0.000 A 
ATOM     29  C   UNL     1      -5.014  14.143   1.760  1.00  0.00     0.000 A 
ENDBRANCH  23  24
ENDBRANCH  13  23
ENDBRANCH   9  10
ENDBRANCH   7   9
ENDBRANCH   4   7
ENDBRANCH   2   3
ENDBRANCH   1   2
BRANCH   1  30
ATOM     30  C   UNL     1       3.372   2.120  -2.027  1.00  0.00     0.023 C 
BRANCH  30  31
ATOM     31  C   UNL     1       3.945   1.999  -0.620  1.00  0.00     0.116 C 
BRANCH  31  32
ATOM     32  N   UNL     1       3.156   1.112   0.223  1.00  0.00    -0.352 N 
ATOM     33  C   UNL     1       3.590   0.061   0.992  1.00  0.00     0.251 C 
ATOM     34  H   UNL     1       2.188   1.289   0.245  1.00  0.00     0.163 HD
ATOM     35  O   UNL     1       2.786  -0.696   1.526  1.00  0.00    -0.269 OA
BRANCH  33  36
ATOM     36  C   UNL     1       5.041  -0.153   1.150  1.00  0.00     0.039 A 
ATOM     37  C   UNL     1       5.585  -1.399   0.829  1.00  0.00     0.014 A 
ATOM     38  C   UNL     1       5.860   0.897   1.577  1.00  0.00     0.014 A 
ATOM     39  C   UNL     1       6.967  -1.579   0.890  1.00  0.00     0.010 A 
ATOM     40  C   UNL     1       7.240   0.730   1.589  1.00  0.00     0.010 A 
ATOM     41  C   UNL     1       7.803  -0.510   1.252  1.00  0.00    -0.014 A 
BRANCH  41  42
ATOM     42  C   UNL     1       9.274  -0.675   1.306  1.00  0.00     0.031 A 
ATOM     43  C   UNL     1       9.975  -0.663   2.633  1.00  0.00     0.074 A 
ATOM     44  C   UNL     1       9.978  -0.774   0.162  1.00  0.00     0.049 A 
ATOM     45  N   UNL     1      11.252  -0.760   2.888  1.00  0.00    -0.248 NA
ATOM     46  C   UNL     1       9.131  -0.503   3.828  1.00  0.00     0.031 C 
ATOM     47  C   UNL     1       9.405  -0.749  -1.183  1.00  0.00     0.029 A 
ATOM     48  N   UNL     1      11.328  -0.900  -0.052  1.00  0.00    -0.354 N 
ATOM     49  C   UNL     1      11.367  -0.670   4.270  1.00  0.00     0.074 A 
ATOM     50  C   UNL     1      10.037  -0.457   4.794  1.00  0.00     0.031 C 
ATOM     51  C   UNL     1      10.394  -0.869  -2.083  1.00  0.00     0.029 A 
ATOM     52  C   UNL     1      11.674  -0.952  -1.381  1.00  0.00     0.049 A 
ATOM     53  H   UNL     1      11.986  -0.949   0.678  1.00  0.00     0.167 HD
ATOM     54  C   UNL     1      12.479  -0.783   5.032  1.00  0.00     0.034 A 
ATOM     55  C   UNL     1      12.884  -1.057  -1.968  1.00  0.00     0.034 A 
ATOM     56  C   UNL     1      13.795  -1.014   4.499  1.00  0.00     0.049 A 
ATOM     57  C   UNL     1      14.109  -1.184  -1.099  1.00  0.00     0.074 A 
ATOM     58  C   UNL     1      14.976  -1.199   5.193  1.00  0.00     0.029 A 
ATOM     59  N   UNL     1      14.104  -1.093   3.149  1.00  0.00    -0.354 N 
ATOM     60  N   UNL     1      14.191  -1.194   0.210  1.00  0.00    -0.248 NA
ATOM     61  C   UNL     1      15.404  -1.328  -1.780  1.00  0.00     0.031 C 
ATOM     62  C   UNL     1      16.007  -1.351   4.263  1.00  0.00     0.029 A 
ATOM     63  C   UNL     1      15.461  -1.309   2.989  1.00  0.00     0.049 A 
ATOM     64  H   UNL     1      13.454  -1.009   2.415  1.00  0.00     0.167 HD
ATOM     65  C   UNL     1      15.538  -1.373   0.510  1.00  0.00     0.074 A 
ATOM     66  C   UNL     1      16.235  -1.479  -0.755  1.00  0.00     0.031 C 
ATOM     67  C   UNL     1      16.141  -1.440   1.723  1.00  0.00     0.034 A 
BRANCH  54  68
ATOM     68  C   UNL     1      12.328  -0.697   6.526  1.00  0.00     0.023 A 
ATOM     69  C   UNL     1      12.903   0.371   7.236  1.00  0.00     0.031 A 
ATOM     70  C   UNL     1      11.702  -1.726   7.253  1.00  0.00     0.131 A 
ATOM     71  C   UNL     1      12.858   0.376   8.635  1.00  0.00     0.055 A 
ATOM     72  C   UNL     1      11.632  -1.700   8.645  1.00  0.00     0.041 A 
ATOM     73  F   UNL     1      11.135  -2.763   6.615  1.00  0.00    -0.206 F 
ATOM     74  C   UNL     1      12.220  -0.649   9.343  1.00  0.00     0.022 A 
BRANCH  71  75
ATOM     75  S   UNL     1      13.647   1.698   9.593  1.00  0.00     0.124 S 
ATOM     76  O   UNL     1      12.548   2.153  10.442  1.00  0.00    -0.237 OA
ATOM     77  O   UNL     1      14.713   0.977  10.284  1.00  0.00    -0.237 OA
ATOM     78  O   UNL     1      14.081   2.653   8.580  1.00  0.00    -0.744 OA
ENDBRANCH  71  75
ENDBRANCH  54  68
BRANCH  55  79
ATOM     79  C   UNL     1      12.967  -1.122  -3.454  1.00  0.00     0.023 A 
ATOM     80  C   UNL     1      12.604  -0.022  -4.252  1.00  0.00     0.031 A 
ATOM     81  C   UNL     1      13.316  -2.322  -4.096  1.00  0.00     0.131 A 
ATOM     82  C   UNL     1      12.551  -0.162  -5.645  1.00  0.00     0.055 A 
ATOM     83  C   UNL     1      13.317  -2.439  -5.487  1.00  0.00     0.041 A 
ATOM     84  F   UNL     1      13.656  -3.400  -3.373  1.00  0.00    -0.206 F 
ATOM     85  C   UNL     1      12.921  -1.359  -6.269  1.00  0.00     0.022 A 
BRANCH  82  86
ATOM     86  S   UNL     1      11.914   1.175  -6.692  1.00  0.00     0.124 S 
ATOM     87  O   UNL     1      12.992   1.348  -7.661  1.00  0.00    -0.237 OA
ATOM     88  O   UNL     1      10.686   0.581  -7.214  1.00  0.00    -0.237 OA
ATOM     89  O   UNL     1      11.723   2.281  -5.759  1.00  0.00    -0.744 OA
ENDBRANCH  82  86
ENDBRANCH  55  79
BRANCH  67  90
ATOM     90  C   UNL     1      17.631  -1.654   1.780  1.00  0.00     0.023 A 
ATOM     91  C   UNL     1      18.147  -2.839   2.338  1.00  0.00     0.031 A 
ATOM     92  C   UNL     1      18.528  -0.626   1.445  1.00  0.00     0.131 A 
ATOM     93  C   UNL     1      19.520  -2.950   2.587  1.00  0.00     0.055 A 
ATOM     94  C   UNL     1      19.901  -0.757   1.657  1.00  0.00     0.041 A 
ATOM     95  F   UNL     1      18.078   0.525   0.921  1.00  0.00    -0.206 F 
ATOM     96  C   UNL     1      20.401  -1.918   2.243  1.00  0.00     0.022 A 
BRANCH  93  97
ATOM     97  S   UNL     1      20.204  -4.403   3.429  1.00  0.00     0.124 S 
ATOM     98  O   UNL     1      21.221  -4.854   2.481  1.00  0.00    -0.237 OA
ATOM     99  O   UNL     1      20.718  -3.824   4.667  1.00  0.00    -0.237 OA
ATOM    100  O   UNL     1      19.059  -5.295   3.579  1.00  0.00    -0.744 OA
ENDBRANCH  93  97
ENDBRANCH  67  90
ENDBRANCH  41  42
ENDBRANCH  33  36
ENDBRANCH  31  32
ENDBRANCH  30  31
ENDBRANCH   1  30
TORSDOF 18
