REMARK SMILES CCC(CC)[C@H](C(=O)NCCCCNC(=O)c1ccc(-c2c3nc(c(-c4cc(S(=O)(=O)[O-])ccc4F)c4ccc([nH]4)c(-c4cc(S(=O)(=O)[O-])ccc4F)c4nc(c(-c5cc(S(=O)(=O)[O-])ccc5F)c5ccc2[nH]5)C=C4)C=C3)cc1)c1ccccc1
REMARK SMILES IDX 12 1 11 2 10 3 9 4 7 5 8 6 6 8 3 9 2 10 1 11 4 12 5 13 80 14
REMARK SMILES IDX 81 15 85 16 82 17 84 18 83 19 13 20 14 21 15 22 16 24 17 25
REMARK SMILES IDX 18 26 79 27 19 28 78 29 20 30 21 31 22 32 72 33 23 34 77 35
REMARK SMILES IDX 71 36 73 37 24 38 76 39 70 40 69 41 25 43 57 44 37 45 56 46
REMARK SMILES IDX 38 47 41 48 55 49 74 50 39 51 40 52 54 54 75 55 42 56 26 57
REMARK SMILES IDX 27 58 35 59 28 60 34 61 36 62 33 63 29 64 30 65 31 66 32 67
REMARK SMILES IDX 58 68 59 69 67 70 60 71 66 72 68 73 65 74 61 75 62 76 63 77
REMARK SMILES IDX 64 78 43 79 44 80 52 81 45 82 51 83 53 84 50 85 46 86 47 87
REMARK SMILES IDX 48 88 49 89
REMARK H PARENT 9 7 14 23 73 42 41 53
REMARK Flexibility Score: inf
ROOT
ATOM      1  C   UNL     1       1.839   2.235  -1.739  1.00  0.00     0.023 C 
ENDROOT
BRANCH   1   2
ATOM      2  C   UNL     1       1.375   0.967  -2.450  1.00  0.00     0.023 C 
BRANCH   2   3
ATOM      3  C   UNL     1       2.160  -0.298  -2.103  1.00  0.00     0.116 C 
BRANCH   3   4
ATOM      4  N   UNL     1       1.521  -1.076  -1.067  1.00  0.00    -0.356 N 
ATOM      5  C   UNL     1       0.868  -2.260  -1.028  1.00  0.00     0.227 C 
ATOM      6  O   UNL     1       0.397  -2.523   0.092  1.00  0.00    -0.274 OA
ATOM      7  H   UNL     1       1.571  -0.643  -0.185  1.00  0.00     0.163 HD
BRANCH   5   8
ATOM      8  C   UNL     1       0.644  -3.281  -2.185  1.00  0.00     0.111 C 
BRANCH   8   9
ATOM      9  C   UNL     1       1.013  -3.066  -3.689  1.00  0.00     0.005 C 
BRANCH   9  10
ATOM     10  C   UNL     1       0.299  -1.837  -4.305  1.00  0.00     0.001 C 
ATOM     11  C   UNL     1       0.936  -1.224  -5.540  1.00  0.00     0.004 C 
ENDBRANCH   9  10
BRANCH   9  12
ATOM     12  C   UNL     1       2.458  -3.432  -4.136  1.00  0.00     0.001 C 
ATOM     13  C   UNL     1       3.657  -2.897  -3.373  1.00  0.00     0.004 C 
ENDBRANCH   9  12
ENDBRANCH   8   9
BRANCH   8  14
ATOM     14  C   UNL     1       1.004  -4.721  -1.760  1.00  0.00    -0.035 A 
ATOM     15  C   UNL     1       0.274  -5.801  -2.289  1.00  0.00     0.004 A 
ATOM     16  C   UNL     1       2.074  -5.004  -0.898  1.00  0.00     0.004 A 
ATOM     17  C   UNL     1       0.617  -7.119  -1.984  1.00  0.00     0.000 A 
ATOM     18  C   UNL     1       2.410  -6.323  -0.585  1.00  0.00     0.000 A 
ATOM     19  C   UNL     1       1.687  -7.380  -1.133  1.00  0.00     0.000 A 
ENDBRANCH   8  14
ENDBRANCH   5   8
ENDBRANCH   3   4
ENDBRANCH   2   3
ENDBRANCH   1   2
BRANCH   1  20
ATOM     20  C   UNL     1       3.298   2.619  -1.966  1.00  0.00     0.116 C 
BRANCH  20  21
ATOM     21  N   UNL     1       3.687   2.718  -3.367  1.00  0.00    -0.352 N 
ATOM     22  C   UNL     1       4.699   3.492  -3.897  1.00  0.00     0.251 C 
ATOM     23  H   UNL     1       3.172   2.173  -4.005  1.00  0.00     0.163 HD
ATOM     24  O   UNL     1       4.905   3.527  -5.101  1.00  0.00    -0.269 OA
BRANCH  22  25
ATOM     25  C   UNL     1       5.486   4.322  -2.962  1.00  0.00     0.039 A 
ATOM     26  C   UNL     1       5.431   5.712  -3.085  1.00  0.00     0.014 A 
ATOM     27  C   UNL     1       6.133   3.721  -1.879  1.00  0.00     0.014 A 
ATOM     28  C   UNL     1       5.939   6.508  -2.057  1.00  0.00     0.010 A 
ATOM     29  C   UNL     1       6.579   4.515  -0.830  1.00  0.00     0.010 A 
ATOM     30  C   UNL     1       6.462   5.914  -0.898  1.00  0.00    -0.014 A 
BRANCH  30  31
ATOM     31  C   UNL     1       6.868   6.722   0.280  1.00  0.00     0.031 A 
ATOM     32  C   UNL     1       8.300   6.711   0.728  1.00  0.00     0.074 A 
ATOM     33  C   UNL     1       5.930   7.360   1.007  1.00  0.00     0.049 A 
ATOM     34  N   UNL     1       8.831   7.190   1.823  1.00  0.00    -0.248 NA
ATOM     35  C   UNL     1       9.253   6.027  -0.158  1.00  0.00     0.031 C 
ATOM     36  C   UNL     1       4.497   7.399   0.701  1.00  0.00     0.029 A 
ATOM     37  N   UNL     1       6.038   8.079   2.171  1.00  0.00    -0.354 N 
ATOM     38  C   UNL     1      10.174   6.835   1.776  1.00  0.00     0.074 A 
ATOM     39  C   UNL     1      10.361   6.062   0.565  1.00  0.00     0.031 C 
ATOM     40  C   UNL     1       3.864   8.112   1.647  1.00  0.00     0.029 A 
ATOM     41  C   UNL     1       4.834   8.545   2.647  1.00  0.00     0.049 A 
ATOM     42  H   UNL     1       6.896   8.247   2.623  1.00  0.00     0.167 HD
ATOM     43  C   UNL     1      11.161   7.136   2.656  1.00  0.00     0.034 A 
ATOM     44  C   UNL     1       4.543   9.227   3.772  1.00  0.00     0.034 A 
ATOM     45  C   UNL     1      10.962   7.933   3.841  1.00  0.00     0.049 A 
ATOM     46  C   UNL     1       5.660   9.582   4.718  1.00  0.00     0.074 A 
ATOM     47  C   UNL     1      11.899   8.352   4.770  1.00  0.00     0.029 A 
ATOM     48  N   UNL     1       9.737   8.437   4.259  1.00  0.00    -0.354 N 
ATOM     49  N   UNL     1       6.932   9.265   4.646  1.00  0.00    -0.248 NA
ATOM     50  C   UNL     1       5.304  10.390   5.891  1.00  0.00     0.031 C 
ATOM     51  C   UNL     1      11.235   9.075   5.769  1.00  0.00     0.029 A 
ATOM     52  C   UNL     1       9.892   9.151   5.436  1.00  0.00     0.049 A 
ATOM     53  H   UNL     1       8.883   8.307   3.787  1.00  0.00     0.167 HD
ATOM     54  C   UNL     1       7.532   9.858   5.752  1.00  0.00     0.074 A 
ATOM     55  C   UNL     1       6.484  10.554   6.472  1.00  0.00     0.031 C 
ATOM     56  C   UNL     1       8.832   9.834   6.137  1.00  0.00     0.034 A 
BRANCH  43  57
ATOM     57  C   UNL     1      12.529   6.569   2.370  1.00  0.00     0.023 A 
ATOM     58  C   UNL     1      13.250   6.937   1.221  1.00  0.00     0.031 A 
ATOM     59  C   UNL     1      13.091   5.603   3.221  1.00  0.00     0.131 A 
ATOM     60  C   UNL     1      14.444   6.274   0.904  1.00  0.00     0.055 A 
ATOM     61  C   UNL     1      14.324   5.007   2.943  1.00  0.00     0.041 A 
ATOM     62  F   UNL     1      12.439   5.199   4.323  1.00  0.00    -0.206 F 
ATOM     63  C   UNL     1      14.999   5.328   1.769  1.00  0.00     0.022 A 
BRANCH  60  64
ATOM     64  S   UNL     1      15.177   6.552  -0.732  1.00  0.00     0.124 S 
ATOM     65  O   UNL     1      14.107   6.090  -1.614  1.00  0.00    -0.237 OA
ATOM     66  O   UNL     1      15.424   7.989  -0.727  1.00  0.00    -0.237 OA
ATOM     67  O   UNL     1      16.372   5.713  -0.720  1.00  0.00    -0.744 OA
ENDBRANCH  60  64
ENDBRANCH  43  57
BRANCH  44  68
ATOM     68  C   UNL     1       3.139   9.612   4.079  1.00  0.00     0.023 A 
ATOM     69  C   UNL     1       2.736  10.955   4.035  1.00  0.00     0.031 A 
ATOM     70  C   UNL     1       2.189   8.645   4.450  1.00  0.00     0.131 A 
ATOM     71  C   UNL     1       1.425  11.302   4.395  1.00  0.00     0.055 A 
ATOM     72  C   UNL     1       0.875   8.991   4.771  1.00  0.00     0.041 A 
ATOM     73  F   UNL     1       2.525   7.346   4.494  1.00  0.00    -0.206 F 
ATOM     74  C   UNL     1       0.490  10.329   4.755  1.00  0.00     0.022 A 
BRANCH  71  75
ATOM     75  S   UNL     1       0.975  13.059   4.442  1.00  0.00     0.124 S 
ATOM     76  O   UNL     1       1.933  13.586   5.407  1.00  0.00    -0.237 OA
ATOM     77  O   UNL     1       1.175  13.459   3.053  1.00  0.00    -0.237 OA
ATOM     78  O   UNL     1      -0.417  13.041   4.888  1.00  0.00    -0.744 OA
ENDBRANCH  71  75
ENDBRANCH  44  68
BRANCH  56  79
ATOM     79  C   UNL     1       9.191  10.628   7.364  1.00  0.00     0.023 A 
ATOM     80  C   UNL     1       8.826  10.201   8.651  1.00  0.00     0.031 A 
ATOM     81  C   UNL     1       9.903  11.833   7.235  1.00  0.00     0.131 A 
ATOM     82  C   UNL     1       9.144  10.996   9.762  1.00  0.00     0.055 A 
ATOM     83  C   UNL     1      10.252  12.599   8.347  1.00  0.00     0.041 A 
ATOM     84  F   UNL     1      10.272  12.281   6.024  1.00  0.00    -0.206 F 
ATOM     85  C   UNL     1       9.864  12.186   9.619  1.00  0.00     0.022 A 
BRANCH  82  86
ATOM     86  S   UNL     1       8.557  10.482  11.399  1.00  0.00     0.124 S 
ATOM     87  O   UNL     1       7.108  10.520  11.229  1.00  0.00    -0.237 OA
ATOM     88  O   UNL     1       9.147   9.155  11.542  1.00  0.00    -0.237 OA
ATOM     89  O   UNL     1       9.103  11.500  12.295  1.00  0.00    -0.744 OA
ENDBRANCH  82  86
ENDBRANCH  56  79
ENDBRANCH  30  31
ENDBRANCH  22  25
ENDBRANCH  20  21
ENDBRANCH   1  20
TORSDOF 18
