REMARK SMILES C[C@@H](C(=O)NCCCCNC(=O)c1ccc(-c2c3nc(c(-c4cc(S(=O)(=O)[O-])ccc4F)c4ccc([nH]4)c(-c4cc(S(=O)(=O)[O-])ccc4F)c4nc(c(-c5cc(S(=O)(=O)[O-])ccc5F)c5ccc2[nH]5)C=C4)C=C3)cc1)c1ccc(-c2ccccc2)cc1
REMARK SMILES IDX 8 1 7 2 6 3 5 4 3 5 4 6 2 8 1 9 76 10 77 11 87 12 78 13
REMARK SMILES IDX 86 14 79 15 80 16 81 17 85 18 82 19 84 20 83 21 9 22 10 23
REMARK SMILES IDX 11 24 12 26 13 27 14 28 75 29 15 30 74 31 16 32 17 33 18 34
REMARK SMILES IDX 68 35 19 36 73 37 67 38 69 39 20 40 72 41 66 42 65 43 21 45
REMARK SMILES IDX 53 46 33 47 52 48 34 49 37 50 51 51 70 52 35 53 36 54 50 56
REMARK SMILES IDX 71 57 38 58 22 59 23 60 31 61 24 62 30 63 32 64 29 65 25 66
REMARK SMILES IDX 26 67 27 68 28 69 54 70 55 71 63 72 56 73 62 74 64 75 61 76
REMARK SMILES IDX 57 77 58 78 59 79 60 80 39 81 40 82 48 83 41 84 47 85 49 86
REMARK SMILES IDX 46 87 42 88 43 89 44 90 45 91
REMARK H PARENT 5 7 10 25 69 44 37 55
REMARK Flexibility Score: inf
ROOT
ATOM      1  C   UNL     1       5.067  -1.273   2.312  1.00  0.00     0.023 C 
ENDROOT
BRANCH   1   2
ATOM      2  C   UNL     1       4.270  -0.794   1.095  1.00  0.00     0.023 C 
BRANCH   2   3
ATOM      3  C   UNL     1       3.472  -1.892   0.385  1.00  0.00     0.116 C 
BRANCH   3   4
ATOM      4  N   UNL     1       2.393  -2.362   1.230  1.00  0.00    -0.356 N 
ATOM      5  C   UNL     1       1.073  -2.012   1.247  1.00  0.00     0.227 C 
ATOM      6  O   UNL     1       0.410  -2.421   2.202  1.00  0.00    -0.274 OA
ATOM      7  H   UNL     1       2.652  -3.039   1.895  1.00  0.00     0.163 HD
BRANCH   5   8
ATOM      8  C   UNL     1       0.468  -1.197   0.084  1.00  0.00     0.105 C 
ATOM      9  C   UNL     1       0.996   0.244   0.090  1.00  0.00     0.023 C 
BRANCH   8  10
ATOM     10  C   UNL     1      -1.067  -1.261   0.073  1.00  0.00    -0.036 A 
ATOM     11  C   UNL     1      -1.868  -0.113   0.145  1.00  0.00     0.005 A 
ATOM     12  C   UNL     1      -1.717  -2.506  -0.003  1.00  0.00     0.005 A 
ATOM     13  C   UNL     1      -3.260  -0.204   0.159  1.00  0.00     0.009 A 
ATOM     14  C   UNL     1      -3.116  -2.596   0.030  1.00  0.00     0.009 A 
ATOM     15  C   UNL     1      -3.907  -1.444   0.112  1.00  0.00    -0.018 A 
BRANCH  15  16
ATOM     16  C   UNL     1      -5.372  -1.496   0.181  1.00  0.00    -0.018 A 
ATOM     17  C   UNL     1      -6.155  -0.812  -0.765  1.00  0.00     0.009 A 
ATOM     18  C   UNL     1      -6.026  -2.158   1.231  1.00  0.00     0.009 A 
ATOM     19  C   UNL     1      -7.546  -0.772  -0.653  1.00  0.00     0.001 A 
ATOM     20  C   UNL     1      -7.418  -2.117   1.345  1.00  0.00     0.001 A 
ATOM     21  C   UNL     1      -8.176  -1.420   0.406  1.00  0.00     0.000 A 
ENDBRANCH  15  16
ENDBRANCH   8  10
ENDBRANCH   5   8
ENDBRANCH   3   4
ENDBRANCH   2   3
ENDBRANCH   1   2
BRANCH   1  22
ATOM     22  C   UNL     1       6.069  -2.385   2.029  1.00  0.00     0.116 C 
BRANCH  22  23
ATOM     23  N   UNL     1       7.022  -2.024   0.994  1.00  0.00    -0.352 N 
ATOM     24  C   UNL     1       8.375  -2.243   0.943  1.00  0.00     0.251 C 
ATOM     25  H   UNL     1       6.642  -1.555   0.216  1.00  0.00     0.163 HD
ATOM     26  O   UNL     1       9.034  -1.711   0.051  1.00  0.00    -0.269 OA
BRANCH  24  27
ATOM     27  C   UNL     1       9.038  -3.077   1.969  1.00  0.00     0.039 A 
ATOM     28  C   UNL     1      10.272  -2.660   2.470  1.00  0.00     0.014 A 
ATOM     29  C   UNL     1       8.460  -4.264   2.433  1.00  0.00     0.014 A 
ATOM     30  C   UNL     1      10.899  -3.404   3.470  1.00  0.00     0.010 A 
ATOM     31  C   UNL     1       9.047  -4.959   3.489  1.00  0.00     0.010 A 
ATOM     32  C   UNL     1      10.277  -4.541   4.014  1.00  0.00    -0.014 A 
BRANCH  32  33
ATOM     33  C   UNL     1      10.917  -5.281   5.134  1.00  0.00     0.031 A 
ATOM     34  C   UNL     1      11.363  -6.707   4.956  1.00  0.00     0.074 A 
ATOM     35  C   UNL     1      11.089  -4.660   6.319  1.00  0.00     0.049 A 
ATOM     36  N   UNL     1      11.970  -7.495   5.808  1.00  0.00    -0.248 NA
ATOM     37  C   UNL     1      11.067  -7.340   3.662  1.00  0.00     0.031 C 
ATOM     38  C   UNL     1      10.640  -3.300   6.629  1.00  0.00     0.029 A 
ATOM     39  N   UNL     1      11.691  -5.081   7.477  1.00  0.00    -0.354 N 
ATOM     40  C   UNL     1      12.140  -8.709   5.150  1.00  0.00     0.074 A 
ATOM     41  C   UNL     1      11.497  -8.578   3.860  1.00  0.00     0.031 C 
ATOM     42  C   UNL     1      11.020  -2.986   7.877  1.00  0.00     0.029 A 
ATOM     43  C   UNL     1      11.698  -4.131   8.473  1.00  0.00     0.049 A 
ATOM     44  H   UNL     1      12.081  -5.979   7.586  1.00  0.00     0.167 HD
ATOM     45  C   UNL     1      12.800  -9.817   5.569  1.00  0.00     0.034 A 
ATOM     46  C   UNL     1      12.194  -4.177   9.726  1.00  0.00     0.034 A 
ATOM     47  C   UNL     1      13.429  -9.935   6.863  1.00  0.00     0.049 A 
ATOM     48  C   UNL     1      12.907  -5.428  10.174  1.00  0.00     0.074 A 
ATOM     49  C   UNL     1      14.145 -11.001   7.381  1.00  0.00     0.029 A 
ATOM     50  N   UNL     1      13.414  -8.956   7.849  1.00  0.00    -0.354 N 
ATOM     51  N   UNL     1      13.110  -6.546   9.515  1.00  0.00    -0.248 NA
ATOM     52  C   UNL     1      13.477  -5.413  11.526  1.00  0.00     0.031 C 
ATOM     53  C   UNL     1      14.500 -10.694   8.699  1.00  0.00     0.029 A 
ATOM     54  C   UNL     1      14.084  -9.403   8.979  1.00  0.00     0.049 A 
ATOM     55  H   UNL     1      12.989  -8.072   7.758  1.00  0.00     0.167 HD
ATOM     56  C   UNL     1      13.853  -7.358  10.368  1.00  0.00     0.074 A 
ATOM     57  C   UNL     1      14.092  -6.584  11.569  1.00  0.00     0.031 C 
ATOM     58  C   UNL     1      14.296  -8.629  10.180  1.00  0.00     0.034 A 
BRANCH  45  59
ATOM     59  C   UNL     1      12.863 -10.990   4.616  1.00  0.00     0.023 A 
ATOM     60  C   UNL     1      13.501 -10.887   3.366  1.00  0.00     0.031 A 
ATOM     61  C   UNL     1      12.268 -12.219   4.949  1.00  0.00     0.131 A 
ATOM     62  C   UNL     1      13.467 -11.965   2.469  1.00  0.00     0.055 A 
ATOM     63  C   UNL     1      12.312 -13.317   4.085  1.00  0.00     0.041 A 
ATOM     64  F   UNL     1      11.624 -12.375   6.117  1.00  0.00    -0.206 F 
ATOM     65  C   UNL     1      12.902 -13.189   2.831  1.00  0.00     0.022 A 
BRANCH  62  66
ATOM     66  S   UNL     1      14.049 -11.697   0.772  1.00  0.00     0.124 S 
ATOM     67  O   UNL     1      13.165 -10.624   0.324  1.00  0.00    -0.237 OA
ATOM     68  O   UNL     1      15.447 -11.333   0.971  1.00  0.00    -0.237 OA
ATOM     69  O   UNL     1      13.826 -12.989   0.126  1.00  0.00    -0.744 OA
ENDBRANCH  62  66
ENDBRANCH  45  59
BRANCH  46  70
ATOM     70  C   UNL     1      12.027  -3.017  10.650  1.00  0.00     0.023 A 
ATOM     71  C   UNL     1      13.136  -2.326  11.165  1.00  0.00     0.031 A 
ATOM     72  C   UNL     1      10.748  -2.617  11.078  1.00  0.00     0.131 A 
ATOM     73  C   UNL     1      12.949  -1.314  12.120  1.00  0.00     0.055 A 
ATOM     74  C   UNL     1      10.564  -1.567  11.979  1.00  0.00     0.041 A 
ATOM     75  F   UNL     1       9.652  -3.240  10.616  1.00  0.00    -0.206 F 
ATOM     76  C   UNL     1      11.670  -0.920  12.519  1.00  0.00     0.022 A 
BRANCH  73  77
ATOM     77  S   UNL     1      14.410  -0.593  12.919  1.00  0.00     0.124 S 
ATOM     78  O   UNL     1      15.064  -1.775  13.466  1.00  0.00    -0.237 OA
ATOM     79  O   UNL     1      15.082   0.050  11.795  1.00  0.00    -0.237 OA
ATOM     80  O   UNL     1      13.840   0.321  13.907  1.00  0.00    -0.744 OA
ENDBRANCH  73  77
ENDBRANCH  46  70
BRANCH  58  81
ATOM     81  C   UNL     1      15.110  -9.238  11.299  1.00  0.00     0.023 A 
ATOM     82  C   UNL     1      14.561  -9.457  12.575  1.00  0.00     0.031 A 
ATOM     83  C   UNL     1      16.465  -9.557  11.101  1.00  0.00     0.131 A 
ATOM     84  C   UNL     1      15.383  -9.894  13.625  1.00  0.00     0.055 A 
ATOM     85  C   UNL     1      17.258 -10.068  12.130  1.00  0.00     0.041 A 
ATOM     86  F   UNL     1      17.045  -9.368   9.905  1.00  0.00    -0.206 F 
ATOM     87  C   UNL     1      16.723 -10.219  13.406  1.00  0.00     0.022 A 
BRANCH  84  88
ATOM     88  S   UNL     1      14.710  -9.895  15.309  1.00  0.00     0.124 S 
ATOM     89  O   UNL     1      14.273  -8.511  15.461  1.00  0.00    -0.237 OA
ATOM     90  O   UNL     1      13.648 -10.892  15.220  1.00  0.00    -0.237 OA
ATOM     91  O   UNL     1      15.854 -10.279  16.135  1.00  0.00    -0.744 OA
ENDBRANCH  84  88
ENDBRANCH  58  81
ENDBRANCH  32  33
ENDBRANCH  24  27
ENDBRANCH  22  23
ENDBRANCH   1  22
TORSDOF 16
