REMARK SMILES C[C@@H](NC(=O)[C@H]1CC=CC[C@@H]1C(=O)NCCCCNC(=O)c1ccc(-c2c3nc(c(-c4cc(S(=O)(=O)[O-])ccc4F)c4ccc([nH]4)c(-c4cc(S(=O)(=O)[O-])ccc4F)c4nc(c(-c5cc(S(=O)(=O)[O-])ccc5F)c5ccc2[nH]5)C=C4)C=C3)cc1)c1ccc(-n2ccnc2)cc1
REMARK SMILES IDX 16 1 15 2 14 3 12 4 13 5 11 7 6 8 7 9 8 10 10 11 9 12 4 13
REMARK SMILES IDX 3 14 5 16 2 17 1 18 85 19 86 20 95 21 87 22 94 23 88 24
REMARK SMILES IDX 89 25 90 26 93 27 91 28 92 29 17 30 18 31 19 32 20 33 21 35
REMARK SMILES IDX 22 36 23 37 84 38 24 39 83 40 25 41 26 42 27 43 77 44 28 45
REMARK SMILES IDX 82 46 76 47 78 48 29 49 81 50 75 51 74 52 30 54 62 55 42 56
REMARK SMILES IDX 61 57 43 58 46 59 60 60 79 61 44 62 45 63 59 65 80 66 47 67
REMARK SMILES IDX 31 68 32 69 40 70 33 71 39 72 41 73 38 74 34 75 35 76 36 77
REMARK SMILES IDX 37 78 63 79 64 80 72 81 65 82 71 83 73 84 70 85 66 86 67 87
REMARK SMILES IDX 68 88 69 89 48 90 49 91 57 92 50 93 56 94 58 95 55 96 51 97
REMARK SMILES IDX 52 98 53 99 54 100
REMARK H PARENT 14 6 3 15 19 34 78 53 46 64
REMARK Flexibility Score: inf
ROOT
ATOM      1  C   UNL     1      -4.717  -4.831   1.235  1.00  0.00     0.023 C 
ENDROOT
BRANCH   1   2
ATOM      2  C   UNL     1      -4.219  -4.601  -0.206  1.00  0.00     0.116 C 
BRANCH   2   3
ATOM      3  N   UNL     1      -4.012  -3.179  -0.588  1.00  0.00    -0.356 N 
ATOM      4  C   UNL     1      -2.687  -2.497  -0.738  1.00  0.00     0.224 C 
ATOM      5  O   UNL     1      -2.466  -2.912  -1.936  1.00  0.00    -0.275 OA
ATOM      6  H   UNL     1      -4.816  -2.637  -0.756  1.00  0.00     0.163 HD
BRANCH   4   7
ATOM      7  C   UNL     1      -1.563  -1.181   0.599  1.00  0.00     0.095 C 
ATOM      8  C   UNL     1      -0.470  -1.659   1.977  1.00  0.00     0.095 C 
ATOM      9  C   UNL     1      -0.837  -1.210   3.411  1.00  0.00     0.041 C 
ATOM     10  C   UNL     1      -1.670  -0.007   3.607  1.00  0.00    -0.030 C 
ATOM     11  C   UNL     1      -1.872   0.462   1.173  1.00  0.00     0.041 C 
ATOM     12  C   UNL     1      -2.140   0.733   2.611  1.00  0.00    -0.030 C 
BRANCH   8  13
ATOM     13  C   UNL     1       1.030  -1.562   1.608  1.00  0.00     0.224 C 
ATOM     14  N   UNL     1       1.500  -2.199   0.479  1.00  0.00    -0.349 N 
ATOM     15  H   UNL     1       2.351  -2.677   0.607  1.00  0.00     0.164 HD
ATOM     16  O   UNL     1       1.872  -1.138   2.401  1.00  0.00    -0.275 OA
BRANCH  14  17
ATOM     17  C   UNL     1       0.949  -2.289  -0.894  1.00  0.00     0.109 C 
ATOM     18  C   UNL     1       1.513  -1.089  -1.665  1.00  0.00     0.036 C 
BRANCH  17  19
ATOM     19  C   UNL     1      -0.572  -2.349  -0.875  1.00  0.00    -0.026 A 
ATOM     20  C   UNL     1      -1.492  -0.944  -1.565  1.00  0.00     0.008 A 
ATOM     21  C   UNL     1      -1.284  -3.301   0.470  1.00  0.00     0.008 A 
ATOM     22  C   UNL     1      -3.048  -0.466  -0.854  1.00  0.00     0.027 A 
ATOM     23  C   UNL     1      -2.750  -2.663   1.333  1.00  0.00     0.027 A 
ATOM     24  C   UNL     1      -3.661  -1.262   0.637  1.00  0.00     0.046 A 
BRANCH  24  25
ATOM     25  N   UNL     1      -4.999  -1.016   1.028  1.00  0.00    -0.306 N 
ATOM     26  C   UNL     1      -5.632  -1.430   2.169  1.00  0.00     0.113 A 
ATOM     27  C   UNL     1      -5.973  -0.473   0.223  1.00  0.00     0.204 A 
ATOM     28  C   UNL     1      -6.970  -1.175   1.965  1.00  0.00     0.131 A 
ATOM     29  N   UNL     1      -7.169  -0.563   0.758  1.00  0.00    -0.245 NA
ENDBRANCH  24  25
ENDBRANCH  17  19
ENDBRANCH  14  17
ENDBRANCH   8  13
ENDBRANCH   4   7
ENDBRANCH   2   3
ENDBRANCH   1   2
BRANCH   1  30
ATOM     30  C   UNL     1      -6.180  -5.156   1.463  1.00  0.00     0.023 C 
BRANCH  30  31
ATOM     31  C   UNL     1      -6.633  -6.513   0.986  1.00  0.00     0.116 C 
BRANCH  31  32
ATOM     32  N   UNL     1      -5.981  -7.638   1.648  1.00  0.00    -0.352 N 
ATOM     33  C   UNL     1      -6.557  -8.770   2.194  1.00  0.00     0.251 C 
ATOM     34  H   UNL     1      -5.000  -7.584   1.716  1.00  0.00     0.163 HD
ATOM     35  O   UNL     1      -5.861  -9.619   2.740  1.00  0.00    -0.269 OA
BRANCH  33  36
ATOM     36  C   UNL     1      -8.033  -8.898   2.175  1.00  0.00     0.039 A 
ATOM     37  C   UNL     1      -8.707  -9.144   3.374  1.00  0.00     0.014 A 
ATOM     38  C   UNL     1      -8.747  -8.609   1.012  1.00  0.00     0.014 A 
ATOM     39  C   UNL     1     -10.090  -8.947   3.436  1.00  0.00     0.010 A 
ATOM     40  C   UNL     1     -10.096  -8.296   1.107  1.00  0.00     0.010 A 
ATOM     41  C   UNL     1     -10.781  -8.439   2.325  1.00  0.00    -0.014 A 
BRANCH  41  42
ATOM     42  C   UNL     1     -12.209  -8.020   2.400  1.00  0.00     0.031 A 
ATOM     43  C   UNL     1     -13.212  -8.633   1.459  1.00  0.00     0.074 A 
ATOM     44  C   UNL     1     -12.575  -7.004   3.211  1.00  0.00     0.049 A 
ATOM     45  N   UNL     1     -14.451  -8.287   1.229  1.00  0.00    -0.248 NA
ATOM     46  C   UNL     1     -12.737  -9.752   0.630  1.00  0.00     0.031 C 
ATOM     47  C   UNL     1     -11.685  -6.272   4.118  1.00  0.00     0.029 A 
ATOM     48  N   UNL     1     -13.792  -6.388   3.384  1.00  0.00    -0.354 N 
ATOM     49  C   UNL     1     -14.888  -9.112   0.199  1.00  0.00     0.074 A 
ATOM     50  C   UNL     1     -13.765  -9.940  -0.183  1.00  0.00     0.031 C 
ATOM     51  C   UNL     1     -12.387  -5.322   4.757  1.00  0.00     0.029 A 
ATOM     52  C   UNL     1     -13.763  -5.338   4.275  1.00  0.00     0.049 A 
ATOM     53  H   UNL     1     -14.609  -6.671   2.914  1.00  0.00     0.167 HD
ATOM     54  C   UNL     1     -16.119  -9.190  -0.361  1.00  0.00     0.034 A 
ATOM     55  C   UNL     1     -14.728  -4.471   4.644  1.00  0.00     0.034 A 
ATOM     56  C   UNL     1     -17.248  -8.410   0.076  1.00  0.00     0.049 A 
ATOM     57  C   UNL     1     -16.099  -4.601   4.029  1.00  0.00     0.074 A 
ATOM     58  C   UNL     1     -18.569  -8.509  -0.324  1.00  0.00     0.029 A 
ATOM     59  N   UNL     1     -17.189  -7.385   1.009  1.00  0.00    -0.354 N 
ATOM     60  N   UNL     1     -16.516  -5.448   3.117  1.00  0.00    -0.248 NA
ATOM     61  C   UNL     1     -17.128  -3.660   4.493  1.00  0.00     0.031 C 
ATOM     62  C   UNL     1     -19.299  -7.511   0.329  1.00  0.00     0.029 A 
ATOM     63  C   UNL     1     -18.444  -6.822   1.174  1.00  0.00     0.049 A 
ATOM     64  H   UNL     1     -16.376  -7.100   1.485  1.00  0.00     0.167 HD
ATOM     65  C   UNL     1     -17.860  -5.151   2.912  1.00  0.00     0.074 A 
ATOM     66  C   UNL     1     -18.189  -4.061   3.807  1.00  0.00     0.031 C 
ATOM     67  C   UNL     1     -18.747  -5.727   2.062  1.00  0.00     0.034 A 
BRANCH  54  68
ATOM     68  C   UNL     1     -16.302 -10.147  -1.510  1.00  0.00     0.023 A 
ATOM     69  C   UNL     1     -16.185 -11.537  -1.338  1.00  0.00     0.031 A 
ATOM     70  C   UNL     1     -16.577  -9.660  -2.799  1.00  0.00     0.131 A 
ATOM     71  C   UNL     1     -16.271 -12.387  -2.450  1.00  0.00     0.055 A 
ATOM     72  C   UNL     1     -16.735 -10.518  -3.889  1.00  0.00     0.041 A 
ATOM     73  F   UNL     1     -16.681  -8.341  -3.023  1.00  0.00    -0.206 F 
ATOM     74  C   UNL     1     -16.568 -11.889  -3.721  1.00  0.00     0.022 A 
BRANCH  71  75
ATOM     75  S   UNL     1     -15.875 -14.143  -2.229  1.00  0.00     0.124 S 
ATOM     76  O   UNL     1     -14.471 -14.078  -1.831  1.00  0.00    -0.237 OA
ATOM     77  O   UNL     1     -16.814 -14.551  -1.191  1.00  0.00    -0.237 OA
ATOM     78  O   UNL     1     -16.117 -14.718  -3.550  1.00  0.00    -0.744 OA
ENDBRANCH  71  75
ENDBRANCH  54  68
BRANCH  55  79
ATOM     79  C   UNL     1     -14.442  -3.377   5.617  1.00  0.00     0.023 A 
ATOM     80  C   UNL     1     -15.060  -3.350   6.878  1.00  0.00     0.031 A 
ATOM     81  C   UNL     1     -13.595  -2.308   5.275  1.00  0.00     0.131 A 
ATOM     82  C   UNL     1     -14.863  -2.252   7.731  1.00  0.00     0.055 A 
ATOM     83  C   UNL     1     -13.366  -1.241   6.146  1.00  0.00     0.041 A 
ATOM     84  F   UNL     1     -12.974  -2.288   4.085  1.00  0.00    -0.206 F 
ATOM     85  C   UNL     1     -14.014  -1.202   7.377  1.00  0.00     0.022 A 
BRANCH  82  86
ATOM     86  S   UNL     1     -15.809  -2.173   9.278  1.00  0.00     0.124 S 
ATOM     87  O   UNL     1     -17.181  -2.292   8.798  1.00  0.00    -0.237 OA
ATOM     88  O   UNL     1     -15.284  -3.320  10.011  1.00  0.00    -0.237 OA
ATOM     89  O   UNL     1     -15.451  -0.867   9.829  1.00  0.00    -0.744 OA
ENDBRANCH  82  86
ENDBRANCH  55  79
BRANCH  67  90
ATOM     90  C   UNL     1     -20.157  -5.202   2.088  1.00  0.00     0.023 A 
ATOM     91  C   UNL     1     -20.476  -3.934   1.575  1.00  0.00     0.031 A 
ATOM     92  C   UNL     1     -21.192  -5.982   2.633  1.00  0.00     0.131 A 
ATOM     93  C   UNL     1     -21.794  -3.463   1.654  1.00  0.00     0.055 A 
ATOM     94  C   UNL     1     -22.511  -5.528   2.664  1.00  0.00     0.041 A 
ATOM     95  F   UNL     1     -20.937  -7.201   3.135  1.00  0.00    -0.206 F 
ATOM     96  C   UNL     1     -22.816  -4.258   2.181  1.00  0.00     0.022 A 
BRANCH  93  97
ATOM     97  S   UNL     1     -22.150  -1.772   1.104  1.00  0.00     0.124 S 
ATOM     98  O   UNL     1     -21.354  -0.978   2.033  1.00  0.00    -0.237 OA
ATOM     99  O   UNL     1     -21.689  -1.787  -0.280  1.00  0.00    -0.237 OA
ATOM    100  O   UNL     1     -23.598  -1.655   1.271  1.00  0.00    -0.744 OA
ENDBRANCH  93  97
ENDBRANCH  67  90
ENDBRANCH  41  42
ENDBRANCH  33  36
ENDBRANCH  31  32
ENDBRANCH  30  31
ENDBRANCH   1  30
TORSDOF 18
