REMARK SMILES Cc1cc(/C=C2/C(=O)NC(=S)[NH+]=C2NCCCCNC(=O)c2ccc(-c3c4nc(c(-c5cc(S(=O)(=O)[O-])ccc5F)c5ccc([nH]5)c(-c5cc(S(=O)(=O)[O-])ccc5F)c5nc(c(-c6cc(S(=O)(=O)[O-])ccc6F)c6ccc3[nH]6)C=C5)C=C4)cc2)c(C)n1-c1cccc(C(=O)[O-])c1
REMARK SMILES IDX 17 1 16 2 15 3 14 4 5 5 6 6 7 7 13 8 8 9 9 10 12 11 10 12
REMARK SMILES IDX 11 16 4 17 1 18 2 19 3 20 87 21 85 22 86 23 88 24 89 25
REMARK SMILES IDX 96 26 90 27 92 28 91 29 93 30 94 31 95 32 18 33 19 34 20 35
REMARK SMILES IDX 21 37 22 38 23 39 84 40 24 41 83 42 25 43 26 44 27 45 77 46
REMARK SMILES IDX 28 47 82 48 76 49 78 50 29 51 81 52 75 53 74 54 30 56 62 57
REMARK SMILES IDX 42 58 61 59 43 60 46 61 60 62 79 63 44 64 45 65 59 67 80 68
REMARK SMILES IDX 47 69 31 70 32 71 40 72 33 73 39 74 41 75 38 76 34 77 35 78
REMARK SMILES IDX 36 79 37 80 63 81 64 82 72 83 65 84 71 85 73 86 70 87 66 88
REMARK SMILES IDX 67 89 68 90 69 91 48 92 49 93 57 94 50 95 56 96 58 97 55 98
REMARK SMILES IDX 51 99 52 100 53 101 54 102
REMARK H PARENT 9 13 12 14 14 15 19 36 78 55 46 66
REMARK Flexibility Score: inf
ROOT
ATOM      1  C   UNL     1       0.836   3.869  -2.542  1.00  0.00     0.024 C 
ENDROOT
BRANCH   1   2
ATOM      2  C   UNL     1      -0.462   3.605  -1.754  1.00  0.00     0.039 C 
BRANCH   2   3
ATOM      3  C   UNL     1      -1.055   4.365  -0.556  1.00  0.00     0.194 C 
BRANCH   3   4
ATOM      4  N   UNL     1      -0.369   5.470   0.086  1.00  0.00    -0.305 N 
ATOM      5  C   UNL     1      -0.950   3.843   2.824  1.00  0.00     0.032 C 
ATOM      6  C   UNL     1      -1.283   5.108   2.482  1.00  0.00     0.128 C 
ATOM      7  C   UNL     1      -2.197   5.787   3.433  1.00  0.00     0.319 C 
ATOM      8  C   UNL     1      -0.794   5.956   1.327  1.00  0.00     0.234 C 
ATOM      9  O   UNL     1      -2.971   5.203   4.184  1.00  0.00    -0.250 OA
ATOM     10  N   UNL     1      -2.089   7.144   3.423  1.00  0.00    -0.229 N 
ATOM     11  N   UNL     1      -0.815   7.262   1.432  1.00  0.00    -0.236 N 
ATOM     12  C   UNL     1      -1.353   7.880   2.534  1.00  0.00     0.295 C 
ATOM     13  H   UNL     1      -2.583   7.639   4.116  1.00  0.00     0.268 HD
ATOM     14  H   UNL     1      -0.439   7.811   0.706  1.00  0.00     0.268 HD
ATOM     15  H   UNL     1       0.407   5.883  -0.358  1.00  0.00     0.256 HD
ATOM     16  S   UNL     1      -1.268   9.533   2.818  1.00  0.00    -0.005 S 
BRANCH   5  17
ATOM     17  C   UNL     1      -0.028   2.960   2.183  1.00  0.00    -0.003 A 
ATOM     18  C   UNL     1       0.901  -0.174   0.458  1.00  0.00     0.065 C 
ATOM     19  C   UNL     1       0.779   1.191   1.045  1.00  0.00     0.020 A 
ATOM     20  C   UNL     1      -0.258   1.614   1.863  1.00  0.00     0.031 A 
ATOM     21  N   UNL     1       1.668   2.266   0.873  1.00  0.00    -0.318 N 
ATOM     22  C   UNL     1       1.252   3.273   1.768  1.00  0.00     0.027 A 
ATOM     23  C   UNL     1       1.978   4.541   2.068  1.00  0.00     0.065 C 
BRANCH  21  24
ATOM     24  C   UNL     1       2.614   2.488  -0.207  1.00  0.00     0.046 A 
ATOM     25  C   UNL     1       3.666   3.973  -0.110  1.00  0.00     0.026 A 
ATOM     26  C   UNL     1       2.227   1.780  -1.822  1.00  0.00     0.036 A 
ATOM     27  C   UNL     1       4.230   4.795  -1.636  1.00  0.00     0.003 A 
ATOM     28  C   UNL     1       2.919   2.507  -3.331  1.00  0.00    -0.001 A 
ATOM     29  C   UNL     1       3.901   4.013  -3.256  1.00  0.00     0.010 A 
BRANCH  28  30
ATOM     30  C   UNL     1       2.608   1.951  -4.668  1.00  0.00     0.072 C 
ATOM     31  O   UNL     1       3.083   2.316  -5.726  1.00  0.00    -0.545 OA
ATOM     32  O   UNL     1       1.613   1.045  -4.624  1.00  0.00    -0.545 OA
ENDBRANCH  28  30
ENDBRANCH  21  24
ENDBRANCH   5  17
ENDBRANCH   3   4
ENDBRANCH   2   3
ENDBRANCH   1   2
BRANCH   1  33
ATOM     33  C   UNL     1       2.334   3.942  -1.781  1.00  0.00     0.116 C 
BRANCH  33  34
ATOM     34  N   UNL     1       4.077   2.772  -1.661  1.00  0.00    -0.352 N 
ATOM     35  C   UNL     1       5.616   2.774  -1.339  1.00  0.00     0.251 C 
ATOM     36  H   UNL     1       3.830   1.851  -1.906  1.00  0.00     0.163 HD
ATOM     37  O   UNL     1       6.101   1.633  -1.333  1.00  0.00    -0.269 OA
BRANCH  35  38
ATOM     38  C   UNL     1       6.597   4.043  -1.058  1.00  0.00     0.039 A 
ATOM     39  C   UNL     1       6.946   4.862  -2.118  1.00  0.00     0.014 A 
ATOM     40  C   UNL     1       7.021   4.583   0.188  1.00  0.00     0.014 A 
ATOM     41  C   UNL     1       7.373   6.243  -1.903  1.00  0.00     0.010 A 
ATOM     42  C   UNL     1       7.660   5.963   0.370  1.00  0.00     0.010 A 
ATOM     43  C   UNL     1       7.812   6.910  -0.673  1.00  0.00    -0.014 A 
BRANCH  43  44
ATOM     44  C   UNL     1       8.804   8.370  -0.874  1.00  0.00     0.031 A 
ATOM     45  C   UNL     1       9.500   7.928  -2.112  1.00  0.00     0.074 A 
ATOM     46  C   UNL     1       9.408   9.586  -0.362  1.00  0.00     0.049 A 
ATOM     47  N   UNL     1      10.106   6.791  -1.948  1.00  0.00    -0.248 NA
ATOM     48  C   UNL     1       9.195   8.234  -3.509  1.00  0.00     0.031 C 
ATOM     49  C   UNL     1       9.363  10.159   1.009  1.00  0.00     0.029 A 
ATOM     50  N   UNL     1      10.304  10.633  -0.946  1.00  0.00    -0.354 N 
ATOM     51  C   UNL     1      10.489   6.305  -3.159  1.00  0.00     0.074 A 
ATOM     52  C   UNL     1       9.763   7.164  -4.101  1.00  0.00     0.031 C 
ATOM     53  C   UNL     1       9.971  11.394   1.127  1.00  0.00     0.029 A 
ATOM     54  C   UNL     1      10.597  11.866  -0.125  1.00  0.00     0.049 A 
ATOM     55  H   UNL     1      10.694  10.521  -1.843  1.00  0.00     0.167 HD
ATOM     56  C   UNL     1      11.795   5.913  -3.109  1.00  0.00     0.034 A 
ATOM     57  C   UNL     1      11.374  13.063  -0.379  1.00  0.00     0.034 A 
ATOM     58  C   UNL     1      12.627   7.063  -3.371  1.00  0.00     0.049 A 
ATOM     59  C   UNL     1      12.517  12.564  -1.127  1.00  0.00     0.074 A 
ATOM     60  C   UNL     1      12.500   8.065  -4.319  1.00  0.00     0.029 A 
ATOM     61  N   UNL     1      13.325   7.603  -2.312  1.00  0.00    -0.354 N 
ATOM     62  N   UNL     1      13.487  11.926  -0.559  1.00  0.00    -0.248 NA
ATOM     63  C   UNL     1      12.618  12.763  -2.559  1.00  0.00     0.031 C 
ATOM     64  C   UNL     1      12.598   9.249  -3.563  1.00  0.00     0.029 A 
ATOM     65  C   UNL     1      13.330   8.976  -2.415  1.00  0.00     0.049 A 
ATOM     66  H   UNL     1      13.755   7.086  -1.593  1.00  0.00     0.167 HD
ATOM     67  C   UNL     1      13.891  11.123  -1.576  1.00  0.00     0.074 A 
ATOM     68  C   UNL     1      13.558  11.849  -2.796  1.00  0.00     0.031 C 
ATOM     69  C   UNL     1      13.855   9.785  -1.342  1.00  0.00     0.034 A 
BRANCH  56  70
ATOM     70  C   UNL     1      11.989   4.912  -1.964  1.00  0.00     0.023 A 
ATOM     71  C   UNL     1      12.062   3.554  -2.285  1.00  0.00     0.031 A 
ATOM     72  C   UNL     1      11.836   5.239  -0.587  1.00  0.00     0.131 A 
ATOM     73  C   UNL     1      11.908   2.582  -1.278  1.00  0.00     0.055 A 
ATOM     74  C   UNL     1      11.608   4.272   0.395  1.00  0.00     0.041 A 
ATOM     75  F   UNL     1      11.852   6.516  -0.169  1.00  0.00    -0.206 F 
ATOM     76  C   UNL     1      11.636   2.930   0.049  1.00  0.00     0.022 A 
BRANCH  73  77
ATOM     77  S   UNL     1      12.070   0.839  -1.737  1.00  0.00     0.124 S 
ATOM     78  O   UNL     1      10.932   0.646  -2.630  1.00  0.00    -0.237 OA
ATOM     79  O   UNL     1      13.383   0.811  -2.377  1.00  0.00    -0.237 OA
ATOM     80  O   UNL     1      11.992   0.131  -0.461  1.00  0.00    -0.744 OA
ENDBRANCH  73  77
ENDBRANCH  56  70
BRANCH  57  81
ATOM     81  C   UNL     1      11.793  14.643  -0.063  1.00  0.00     0.023 A 
ATOM     82  C   UNL     1      13.132  15.253  -0.315  1.00  0.00     0.031 A 
ATOM     83  C   UNL     1      10.782  15.615  -0.007  1.00  0.00     0.131 A 
ATOM     84  C   UNL     1      13.353  16.678  -0.511  1.00  0.00     0.055 A 
ATOM     85  C   UNL     1      11.011  17.012  -0.213  1.00  0.00     0.041 A 
ATOM     86  F   UNL     1       9.504  15.240   0.135  1.00  0.00    -0.206 F 
ATOM     87  C   UNL     1      12.272  17.545  -0.481  1.00  0.00     0.022 A 
BRANCH  84  88
ATOM     88  S   UNL     1      14.992  17.480  -0.981  1.00  0.00     0.124 S 
ATOM     89  O   UNL     1      15.739  17.476   0.271  1.00  0.00    -0.237 OA
ATOM     90  O   UNL     1      15.495  16.621  -2.047  1.00  0.00    -0.237 OA
ATOM     91  O   UNL     1      14.607  18.821  -1.438  1.00  0.00    -0.744 OA
ENDBRANCH  84  88
ENDBRANCH  57  81
BRANCH  69  92
ATOM     92  C   UNL     1      14.278   9.292   0.042  1.00  0.00     0.023 A 
ATOM     93  C   UNL     1      13.887   9.846   1.292  1.00  0.00     0.031 A 
ATOM     94  C   UNL     1      15.225   8.258   0.096  1.00  0.00     0.131 A 
ATOM     95  C   UNL     1      14.473   9.406   2.499  1.00  0.00     0.055 A 
ATOM     96  C   UNL     1      15.769   7.788   1.293  1.00  0.00     0.041 A 
ATOM     97  F   UNL     1      15.669   7.686  -1.035  1.00  0.00    -0.206 F 
ATOM     98  C   UNL     1      15.412   8.376   2.499  1.00  0.00     0.022 A 
BRANCH  95  99
ATOM     99  S   UNL     1      14.092  10.241   4.079  1.00  0.00     0.124 S 
ATOM    100  O   UNL     1      14.233  11.656   3.757  1.00  0.00    -0.237 OA
ATOM    101  O   UNL     1      12.733   9.786   4.359  1.00  0.00    -0.237 OA
ATOM    102  O   UNL     1      15.111   9.723   4.993  1.00  0.00    -0.744 OA
ENDBRANCH  95  99
ENDBRANCH  69  92
ENDBRANCH  43  44
ENDBRANCH  35  38
ENDBRANCH  33  34
ENDBRANCH   1  33
TORSDOF 16
