REMARK SMILES C[C@@H]1CCCCN1S(=O)(=O)c1ccc(CCC(=O)NCCCCNC(=O)c2ccc(-c3c4nc(c(-c5cc(S(=O)(=O)[O-])ccc5F)c5ccc([nH]5)c(-c5cc(S(=O)(=O)[O-])ccc5F)c5nc(c(-c6cc(S(=O)(=O)[O-])ccc6F)c6ccc3[nH]6)C=C5)C=C4)cc2)cc1
REMARK SMILES IDX 21 1 20 2 19 3 17 4 18 5 16 7 15 8 14 9 11 10 12 11 91 12
REMARK SMILES IDX 13 13 90 14 8 15 9 16 10 17 7 18 1 19 2 20 3 21 4 22 6 23
REMARK SMILES IDX 5 24 22 25 23 26 24 27 25 28 26 30 27 31 28 32 89 33 29 34
REMARK SMILES IDX 88 35 30 36 31 37 32 38 82 39 33 40 87 41 81 42 83 43 34 44
REMARK SMILES IDX 86 45 80 46 79 47 35 49 67 50 47 51 66 52 48 53 51 54 65 55
REMARK SMILES IDX 84 56 49 57 50 58 64 60 85 61 52 62 36 63 37 64 45 65 38 66
REMARK SMILES IDX 44 67 46 68 43 69 39 70 40 71 41 72 42 73 68 74 69 75 77 76
REMARK SMILES IDX 70 77 76 78 78 79 75 80 71 81 72 82 73 83 74 84 53 85 54 86
REMARK SMILES IDX 62 87 55 88 61 89 63 90 60 91 56 92 57 93 58 94 59 95
REMARK H PARENT 19 6 24 29 83 48 51 59
REMARK Flexibility Score: inf
ROOT
ATOM      1  C   UNL     1       4.050  -4.070  -2.746  1.00  0.00     0.023 C 
ENDROOT
BRANCH   1   2
ATOM      2  C   UNL     1       5.524  -4.448  -2.707  1.00  0.00     0.116 C 
BRANCH   2   3
ATOM      3  N   UNL     1       6.052  -4.571  -4.055  1.00  0.00    -0.356 N 
ATOM      4  C   UNL     1       6.573  -3.613  -4.873  1.00  0.00     0.220 C 
ATOM      5  O   UNL     1       6.788  -3.899  -6.053  1.00  0.00    -0.275 OA
ATOM      6  H   UNL     1       6.030  -5.480  -4.433  1.00  0.00     0.163 HD
BRANCH   4   7
ATOM      7  C   UNL     1       6.934  -2.238  -4.338  1.00  0.00     0.105 C 
BRANCH   7   8
ATOM      8  C   UNL     1       6.043  -1.112  -4.891  1.00  0.00     0.045 C 
BRANCH   8   9
ATOM      9  C   UNL     1       4.819  -0.846  -4.040  1.00  0.00    -0.047 A 
ATOM     10  C   UNL     1       2.634  -0.907  -2.292  1.00  0.00     0.082 A 
ATOM     11  C   UNL     1       2.433  -1.135  -3.659  1.00  0.00     0.022 A 
ATOM     12  C   UNL     1       3.891  -0.504  -1.828  1.00  0.00     0.022 A 
ATOM     13  C   UNL     1       3.529  -1.096  -4.532  1.00  0.00     0.005 A 
ATOM     14  C   UNL     1       4.974  -0.456  -2.703  1.00  0.00     0.005 A 
BRANCH  10  15
ATOM     15  S   UNL     1       1.517  -1.673  -1.117  1.00  0.00     0.243 S 
ATOM     16  O   UNL     1       2.358  -2.146  -0.031  1.00  0.00    -0.207 OA
ATOM     17  O   UNL     1       0.709  -2.606  -1.869  1.00  0.00    -0.207 OA
BRANCH  15  18
ATOM     18  N   UNL     1       0.493  -0.461  -0.532  1.00  0.00    -0.195 NA
ATOM     19  C   UNL     1       1.959   0.626   1.231  1.00  0.00     0.026 C 
ATOM     20  C   UNL     1       1.043   0.809   0.022  1.00  0.00     0.070 C 
ATOM     21  C   UNL     1      -0.116   1.761   0.402  1.00  0.00     0.020 C 
ATOM     22  C   UNL     1      -1.446   1.361  -0.227  1.00  0.00     0.003 C 
ATOM     23  C   UNL     1      -0.633  -1.000   0.285  1.00  0.00     0.103 C 
ATOM     24  C   UNL     1      -1.833  -0.061   0.174  1.00  0.00     0.017 C 
ENDBRANCH  15  18
ENDBRANCH  10  15
ENDBRANCH   8   9
ENDBRANCH   7   8
ENDBRANCH   4   7
ENDBRANCH   2   3
ENDBRANCH   1   2
BRANCH   1  25
ATOM     25  C   UNL     1       3.067  -5.228  -2.738  1.00  0.00     0.023 C 
BRANCH  25  26
ATOM     26  C   UNL     1       2.952  -5.932  -1.395  1.00  0.00     0.116 C 
BRANCH  26  27
ATOM     27  N   UNL     1       2.388  -5.109  -0.327  1.00  0.00    -0.352 N 
ATOM     28  C   UNL     1       1.302  -5.347   0.489  1.00  0.00     0.251 C 
ATOM     29  H   UNL     1       2.852  -4.256  -0.166  1.00  0.00     0.163 HD
ATOM     30  O   UNL     1       0.907  -4.497   1.283  1.00  0.00    -0.269 OA
BRANCH  28  31
ATOM     31  C   UNL     1       0.574  -6.625   0.377  1.00  0.00     0.039 A 
ATOM     32  C   UNL     1      -0.823  -6.610   0.361  1.00  0.00     0.014 A 
ATOM     33  C   UNL     1       1.267  -7.825   0.235  1.00  0.00     0.014 A 
ATOM     34  C   UNL     1      -1.521  -7.792   0.109  1.00  0.00     0.010 A 
ATOM     35  C   UNL     1       0.581  -8.964  -0.151  1.00  0.00     0.010 A 
ATOM     36  C   UNL     1      -0.822  -8.967  -0.201  1.00  0.00    -0.014 A 
BRANCH  36  37
ATOM     37  C   UNL     1      -1.509 -10.243  -0.524  1.00  0.00     0.031 A 
ATOM     38  C   UNL     1      -1.199 -11.460   0.306  1.00  0.00     0.074 A 
ATOM     39  C   UNL     1      -2.303 -10.337  -1.608  1.00  0.00     0.049 A 
ATOM     40  N   UNL     1      -1.466 -12.718   0.076  1.00  0.00    -0.248 NA
ATOM     41  C   UNL     1      -0.410 -11.226   1.526  1.00  0.00     0.031 C 
ATOM     42  C   UNL     1      -2.645  -9.238  -2.512  1.00  0.00     0.029 A 
ATOM     43  N   UNL     1      -2.955 -11.419  -2.142  1.00  0.00    -0.354 N 
ATOM     44  C   UNL     1      -0.821 -13.427   1.086  1.00  0.00     0.074 A 
ATOM     45  C   UNL     1      -0.090 -12.460   1.875  1.00  0.00     0.031 C 
ATOM     46  C   UNL     1      -3.473  -9.694  -3.466  1.00  0.00     0.029 A 
ATOM     47  C   UNL     1      -3.673 -11.126  -3.277  1.00  0.00     0.049 A 
ATOM     48  H   UNL     1      -2.913 -12.321  -1.749  1.00  0.00     0.167 HD
ATOM     49  C   UNL     1      -0.862 -14.757   1.348  1.00  0.00     0.034 A 
ATOM     50  C   UNL     1      -4.397 -11.930  -4.080  1.00  0.00     0.034 A 
ATOM     51  C   UNL     1      -1.654 -15.685   0.579  1.00  0.00     0.049 A 
ATOM     52  C   UNL     1      -4.468 -13.399  -3.752  1.00  0.00     0.074 A 
ATOM     53  C   UNL     1      -1.835 -17.042   0.776  1.00  0.00     0.029 A 
ATOM     54  N   UNL     1      -2.413 -15.340  -0.534  1.00  0.00    -0.354 N 
ATOM     55  N   UNL     1      -3.866 -14.061  -2.789  1.00  0.00    -0.248 NA
ATOM     56  C   UNL     1      -5.319 -14.227  -4.613  1.00  0.00     0.031 C 
ATOM     57  C   UNL     1      -2.668 -17.524  -0.241  1.00  0.00     0.029 A 
ATOM     58  C   UNL     1      -3.058 -16.458  -1.038  1.00  0.00     0.049 A 
ATOM     59  H   UNL     1      -2.483 -14.433  -0.910  1.00  0.00     0.167 HD
ATOM     60  C   UNL     1      -4.292 -15.379  -2.912  1.00  0.00     0.074 A 
ATOM     61  C   UNL     1      -5.207 -15.415  -4.036  1.00  0.00     0.031 C 
ATOM     62  C   UNL     1      -3.964 -16.463  -2.162  1.00  0.00     0.034 A 
BRANCH  49  63
ATOM     63  C   UNL     1      -0.012 -15.261   2.494  1.00  0.00     0.023 A 
ATOM     64  C   UNL     1      -0.177 -14.777   3.805  1.00  0.00     0.031 A 
ATOM     65  C   UNL     1       1.039 -16.165   2.261  1.00  0.00     0.131 A 
ATOM     66  C   UNL     1       0.765 -15.092   4.795  1.00  0.00     0.055 A 
ATOM     67  C   UNL     1       1.909 -16.562   3.280  1.00  0.00     0.041 A 
ATOM     68  F   UNL     1       1.263 -16.654   1.031  1.00  0.00    -0.206 F 
ATOM     69  C   UNL     1       1.792 -16.004   4.550  1.00  0.00     0.022 A 
BRANCH  66  70
ATOM     70  S   UNL     1       0.746 -14.134   6.336  1.00  0.00     0.124 S 
ATOM     71  O   UNL     1       0.932 -12.773   5.837  1.00  0.00    -0.237 OA
ATOM     72  O   UNL     1      -0.571 -14.439   6.882  1.00  0.00    -0.237 OA
ATOM     73  O   UNL     1       1.876 -14.673   7.089  1.00  0.00    -0.744 OA
ENDBRANCH  66  70
ENDBRANCH  49  63
BRANCH  50  74
ATOM     74  C   UNL     1      -5.122 -11.368  -5.253  1.00  0.00     0.023 A 
ATOM     75  C   UNL     1      -6.526 -11.329  -5.273  1.00  0.00     0.031 A 
ATOM     76  C   UNL     1      -4.431 -10.872  -6.371  1.00  0.00     0.131 A 
ATOM     77  C   UNL     1      -7.196 -10.837  -6.404  1.00  0.00     0.055 A 
ATOM     78  C   UNL     1      -5.102 -10.344  -7.477  1.00  0.00     0.041 A 
ATOM     79  F   UNL     1      -3.089 -10.876  -6.397  1.00  0.00    -0.206 F 
ATOM     80  C   UNL     1      -6.494 -10.334  -7.501  1.00  0.00     0.022 A 
BRANCH  77  81
ATOM     81  S   UNL     1      -9.008 -10.915  -6.441  1.00  0.00     0.124 S 
ATOM     82  O   UNL     1      -9.247 -12.348  -6.316  1.00  0.00    -0.237 OA
ATOM     83  O   UNL     1      -9.371 -10.101  -5.286  1.00  0.00    -0.237 OA
ATOM     84  O   UNL     1      -9.347 -10.336  -7.739  1.00  0.00    -0.744 OA
ENDBRANCH  77  81
ENDBRANCH  50  74
BRANCH  62  85
ATOM     85  C   UNL     1      -4.650 -17.759  -2.507  1.00  0.00     0.023 A 
ATOM     86  C   UNL     1      -4.367 -18.454  -3.695  1.00  0.00     0.031 A 
ATOM     87  C   UNL     1      -5.603 -18.303  -1.628  1.00  0.00     0.131 A 
ATOM     88  C   UNL     1      -5.068 -19.631  -3.996  1.00  0.00     0.055 A 
ATOM     89  C   UNL     1      -6.258 -19.502  -1.908  1.00  0.00     0.041 A 
ATOM     90  F   UNL     1      -5.909 -17.677  -0.480  1.00  0.00    -0.206 F 
ATOM     91  C   UNL     1      -6.000 -20.167  -3.103  1.00  0.00     0.022 A 
BRANCH  88  92
ATOM     92  S   UNL     1      -4.801 -20.414  -5.609  1.00  0.00     0.124 S 
ATOM     93  O   UNL     1      -5.190 -19.351  -6.531  1.00  0.00    -0.237 OA
ATOM     94  O   UNL     1      -3.378 -20.735  -5.570  1.00  0.00    -0.237 OA
ATOM     95  O   UNL     1      -5.696 -21.569  -5.582  1.00  0.00    -0.744 OA
ENDBRANCH  88  92
ENDBRANCH  62  85
ENDBRANCH  36  37
ENDBRANCH  28  31
ENDBRANCH  26  27
ENDBRANCH  25  26
ENDBRANCH   1  25
TORSDOF 18
