REMARK SMILES O=C(Cn1c(=O)c2c3c(sc2n(Cc2ccc(Cl)cc2Cl)c1=O)CCCC3)NCCCCNC(=O)c1ccc(-c2c3nc(c(-c4cc(S(=O)(=O)[O-])ccc4F)c4ccc([nH]4)c(-c4cc(S(=O)(=O)[O-])ccc4F)c4nc(c(-c5cc(S(=O)(=O)[O-])ccc5F)c5ccc2[nH]5)C=C4)C=C3)cc1
REMARK SMILES IDX 30 1 29 2 28 3 1 4 2 5 3 7 4 8 5 9 22 10 6 11 7 12 12 13
REMARK SMILES IDX 23 14 8 15 11 16 9 17 27 18 10 19 24 20 26 21 25 22 13 23
REMARK SMILES IDX 14 24 15 25 20 26 16 27 19 28 21 29 17 30 18 31 31 32 32 33
REMARK SMILES IDX 33 34 34 35 35 37 36 38 37 39 98 40 38 41 97 42 39 43 40 44
REMARK SMILES IDX 41 45 91 46 42 47 96 48 90 49 92 50 43 51 95 52 89 53 88 54
REMARK SMILES IDX 44 56 76 57 56 58 75 59 57 60 60 61 74 62 93 63 58 64 59 65
REMARK SMILES IDX 73 67 94 68 61 69 45 70 46 71 54 72 47 73 53 74 55 75 52 76
REMARK SMILES IDX 48 77 49 78 50 79 51 80 77 81 78 82 86 83 79 84 85 85 87 86
REMARK SMILES IDX 84 87 80 88 81 89 82 90 83 91 62 92 63 93 71 94 64 95 70 96
REMARK SMILES IDX 72 97 69 98 65 99 66 100 67 101 68 102
REMARK H PARENT 28 6 33 36 92 55 60 66
REMARK Flexibility Score: inf
ROOT
ATOM      1  C   UNL     1       2.770   3.580   1.164  1.00  0.00     0.023 C 
ENDROOT
BRANCH   1   2
ATOM      2  C   UNL     1       2.234   2.597   0.123  1.00  0.00     0.116 C 
BRANCH   2   3
ATOM      3  N   UNL     1       2.946   1.344   0.201  1.00  0.00    -0.355 N 
ATOM      4  O   UNL     1       1.221  -0.115  -0.238  1.00  0.00    -0.273 OA
ATOM      5  C   UNL     1       2.397   0.092   0.039  1.00  0.00     0.240 C 
ATOM      6  H   UNL     1       3.912   1.389   0.387  1.00  0.00     0.163 HD
BRANCH   5   7
ATOM      7  C   UNL     1       3.449  -1.021   0.153  1.00  0.00     0.230 C 
BRANCH   7   8
ATOM      8  N   UNL     1       4.048  -1.342  -1.139  1.00  0.00    -0.250 N 
ATOM      9  C   UNL     1       4.098  -2.688  -1.492  1.00  0.00     0.265 A 
ATOM     10  C   UNL     1       4.767  -0.325  -1.786  1.00  0.00     0.332 A 
ATOM     11  O   UNL     1       3.706  -3.607  -0.766  1.00  0.00    -0.268 OA
ATOM     12  C   UNL     1       4.714  -2.946  -2.769  1.00  0.00     0.079 A 
ATOM     13  N   UNL     1       5.207  -0.564  -3.091  1.00  0.00    -0.280 N 
ATOM     14  O   UNL     1       5.003   0.742  -1.209  1.00  0.00    -0.247 OA
ATOM     15  C   UNL     1       5.076  -4.195  -3.388  1.00  0.00    -0.019 A 
ATOM     16  C   UNL     1       5.144  -1.881  -3.521  1.00  0.00     0.113 A 
ATOM     17  C   UNL     1       5.710  -3.973  -4.597  1.00  0.00     0.011 A 
ATOM     18  C   UNL     1       4.948  -5.577  -2.817  1.00  0.00     0.037 C 
ATOM     19  S   UNL     1       5.645  -2.348  -5.060  1.00  0.00    -0.122 S 
ATOM     20  C   UNL     1       6.374  -5.004  -5.450  1.00  0.00     0.047 C 
ATOM     21  C   UNL     1       5.288  -6.657  -3.863  1.00  0.00     0.005 C 
ATOM     22  C   UNL     1       6.554  -6.305  -4.657  1.00  0.00     0.006 C 
BRANCH  13  23
ATOM     23  C   UNL     1       5.843   0.551  -3.844  1.00  0.00     0.165 C 
BRANCH  23  24
ATOM     24  C   UNL     1       7.350   0.594  -3.652  1.00  0.00    -0.009 A 
ATOM     25  C   UNL     1       7.859   1.099  -2.440  1.00  0.00     0.008 A 
ATOM     26  C   UNL     1       8.273   0.081  -4.580  1.00  0.00     0.047 A 
ATOM     27  C   UNL     1       9.200   0.934  -2.098  1.00  0.00     0.021 A 
ATOM     28  C   UNL     1       9.601  -0.149  -4.212  1.00  0.00     0.041 A 
ATOM     29  Cl  UNL     1       7.872  -0.214  -6.234  1.00  0.00    -0.084 Cl
ATOM     30  C   UNL     1      10.044   0.239  -2.954  1.00  0.00     0.042 A 
ATOM     31  Cl  UNL     1      11.626  -0.179  -2.433  1.00  0.00    -0.084 Cl
ENDBRANCH  23  24
ENDBRANCH  13  23
ENDBRANCH   7   8
ENDBRANCH   5   7
ENDBRANCH   2   3
ENDBRANCH   1   2
BRANCH   1  32
ATOM     32  C   UNL     1       4.274   3.910   1.058  1.00  0.00     0.023 C 
BRANCH  32  33
ATOM     33  C   UNL     1       4.704   4.642  -0.220  1.00  0.00     0.116 C 
BRANCH  33  34
ATOM     34  N   UNL     1       4.024   5.918  -0.321  1.00  0.00    -0.352 N 
ATOM     35  C   UNL     1       4.523   7.191  -0.360  1.00  0.00     0.251 C 
ATOM     36  H   UNL     1       3.043   5.859  -0.369  1.00  0.00     0.163 HD
ATOM     37  O   UNL     1       3.782   8.107  -0.004  1.00  0.00    -0.269 OA
BRANCH  35  38
ATOM     38  C   UNL     1       5.889   7.498  -0.843  1.00  0.00     0.039 A 
ATOM     39  C   UNL     1       6.523   8.622  -0.302  1.00  0.00     0.014 A 
ATOM     40  C   UNL     1       6.476   6.823  -1.921  1.00  0.00     0.014 A 
ATOM     41  C   UNL     1       7.731   9.066  -0.831  1.00  0.00     0.010 A 
ATOM     42  C   UNL     1       7.697   7.265  -2.445  1.00  0.00     0.010 A 
ATOM     43  C   UNL     1       8.328   8.392  -1.907  1.00  0.00    -0.014 A 
BRANCH  43  44
ATOM     44  C   UNL     1       9.607   8.940  -2.404  1.00  0.00     0.031 A 
ATOM     45  C   UNL     1      10.671   7.946  -2.772  1.00  0.00     0.074 A 
ATOM     46  C   UNL     1       9.552  10.060  -3.153  1.00  0.00     0.049 A 
ATOM     47  N   UNL     1      10.750   7.282  -3.887  1.00  0.00    -0.248 NA
ATOM     48  C   UNL     1      11.630   7.505  -1.756  1.00  0.00     0.031 C 
ATOM     49  C   UNL     1       8.690  10.230  -4.325  1.00  0.00     0.029 A 
ATOM     50  N   UNL     1      10.414  11.130  -3.192  1.00  0.00    -0.354 N 
ATOM     51  C   UNL     1      11.756   6.337  -3.733  1.00  0.00     0.074 A 
ATOM     52  C   UNL     1      12.256   6.500  -2.386  1.00  0.00     0.031 C 
ATOM     53  C   UNL     1       9.159  11.260  -5.056  1.00  0.00     0.029 A 
ATOM     54  C   UNL     1      10.298  11.864  -4.368  1.00  0.00     0.049 A 
ATOM     55  H   UNL     1      11.043  11.353  -2.469  1.00  0.00     0.167 HD
ATOM     56  C   UNL     1      12.154   5.481  -4.714  1.00  0.00     0.034 A 
ATOM     57  C   UNL     1      11.340  12.513  -4.957  1.00  0.00     0.034 A 
ATOM     58  C   UNL     1      11.537   5.691  -5.987  1.00  0.00     0.049 A 
ATOM     59  C   UNL     1      11.917  11.403  -5.801  1.00  0.00     0.074 A 
ATOM     60  C   UNL     1      10.438   5.218  -6.669  1.00  0.00     0.029 A 
ATOM     61  N   UNL     1      12.080   6.649  -6.812  1.00  0.00    -0.354 N 
ATOM     62  N   UNL     1      11.425  10.962  -6.928  1.00  0.00    -0.248 NA
ATOM     63  C   UNL     1      12.850  10.479  -5.150  1.00  0.00     0.031 C 
ATOM     64  C   UNL     1      10.130   6.227  -7.634  1.00  0.00     0.029 A 
ATOM     65  C   UNL     1      11.033   7.271  -7.439  1.00  0.00     0.049 A 
ATOM     66  H   UNL     1      13.037   6.848  -6.929  1.00  0.00     0.167 HD
ATOM     67  C   UNL     1      11.724   9.598  -6.956  1.00  0.00     0.074 A 
ATOM     68  C   UNL     1      12.661   9.380  -5.870  1.00  0.00     0.031 C 
ATOM     69  C   UNL     1      11.024   8.693  -7.705  1.00  0.00     0.034 A 
BRANCH  56  70
ATOM     70  C   UNL     1      13.230   4.468  -4.588  1.00  0.00     0.023 A 
ATOM     71  C   UNL     1      14.377   4.595  -5.387  1.00  0.00     0.031 A 
ATOM     72  C   UNL     1      13.062   3.286  -3.857  1.00  0.00     0.131 A 
ATOM     73  C   UNL     1      15.296   3.543  -5.481  1.00  0.00     0.055 A 
ATOM     74  C   UNL     1      13.992   2.243  -3.943  1.00  0.00     0.041 A 
ATOM     75  F   UNL     1      11.974   3.107  -3.091  1.00  0.00    -0.206 F 
ATOM     76  C   UNL     1      15.106   2.360  -4.772  1.00  0.00     0.022 A 
BRANCH  73  77
ATOM     77  S   UNL     1      16.701   3.730  -6.609  1.00  0.00     0.124 S 
ATOM     78  O   UNL     1      16.045   4.101  -7.857  1.00  0.00    -0.237 OA
ATOM     79  O   UNL     1      17.466   4.784  -5.949  1.00  0.00    -0.237 OA
ATOM     80  O   UNL     1      17.322   2.408  -6.599  1.00  0.00    -0.744 OA
ENDBRANCH  73  77
ENDBRANCH  56  70
BRANCH  57  81
ATOM     81  C   UNL     1      12.124  13.419  -4.061  1.00  0.00     0.023 A 
ATOM     82  C   UNL     1      11.389  14.330  -3.269  1.00  0.00     0.031 A 
ATOM     83  C   UNL     1      13.518  13.443  -3.911  1.00  0.00     0.131 A 
ATOM     84  C   UNL     1      12.014  15.120  -2.295  1.00  0.00     0.055 A 
ATOM     85  C   UNL     1      14.144  14.225  -2.930  1.00  0.00     0.041 A 
ATOM     86  F   UNL     1      14.317  12.695  -4.684  1.00  0.00    -0.206 F 
ATOM     87  C   UNL     1      13.391  15.052  -2.101  1.00  0.00     0.022 A 
BRANCH  84  88
ATOM     88  S   UNL     1      10.986  16.157  -1.219  1.00  0.00     0.124 S 
ATOM     89  O   UNL     1      10.621  17.254  -2.109  1.00  0.00    -0.237 OA
ATOM     90  O   UNL     1       9.907  15.248  -0.845  1.00  0.00    -0.237 OA
ATOM     91  O   UNL     1      11.892  16.512  -0.128  1.00  0.00    -0.744 OA
ENDBRANCH  84  88
ENDBRANCH  57  81
BRANCH  69  92
ATOM     92  C   UNL     1      10.005   9.264  -8.638  1.00  0.00     0.023 A 
ATOM     93  C   UNL     1      10.409   9.984  -9.771  1.00  0.00     0.031 A 
ATOM     94  C   UNL     1       8.628   9.069  -8.427  1.00  0.00     0.131 A 
ATOM     95  C   UNL     1       9.448  10.467 -10.668  1.00  0.00     0.055 A 
ATOM     96  C   UNL     1       7.676   9.522  -9.339  1.00  0.00     0.041 A 
ATOM     97  F   UNL     1       8.177   8.423  -7.338  1.00  0.00    -0.206 F 
ATOM     98  C   UNL     1       8.085  10.220 -10.471  1.00  0.00     0.022 A 
BRANCH  95  99
ATOM     99  S   UNL     1       9.995  11.389 -12.128  1.00  0.00     0.124 S 
ATOM    100  O   UNL     1      10.412  12.665 -11.558  1.00  0.00    -0.237 OA
ATOM    101  O   UNL     1      11.063  10.547 -12.660  1.00  0.00    -0.237 OA
ATOM    102  O   UNL     1       8.794  11.447 -12.962  1.00  0.00    -0.744 OA
ENDBRANCH  95  99
ENDBRANCH  69  92
ENDBRANCH  43  44
ENDBRANCH  35  38
ENDBRANCH  33  34
ENDBRANCH  32  33
ENDBRANCH   1  32
TORSDOF 17
