REMARK SMILES COc1ccc2c(c1C)OC(=O)[C@@H](CC(=O)N[C@@H](CC1=c3ccccc3=NC1)C(=O)NCCCCNC(=O)c1ccc(-c3c4nc(c(-c5cc(S(=O)(=O)[O-])ccc5F)c5ccc([nH]5)c(-c5cc(S(=O)(=O)[O-])ccc5F)c5nc(c(-c6cc(S(=O)(=O)[O-])ccc6F)c6ccc3[nH]6)C=C5)C=C4)cc1)[C@H]2C
REMARK SMILES IDX 33 1 32 2 31 3 29 4 30 5 18 7 17 8 15 9 16 10 14 12 13 13
REMARK SMILES IDX 3 14 4 15 8 16 5 17 7 18 9 19 6 20 10 21 102 22 11 23 103 24
REMARK SMILES IDX 12 25 2 26 1 27 19 28 20 29 21 30 28 31 22 32 26 33 27 34
REMARK SMILES IDX 23 35 25 36 24 37 34 38 35 39 36 40 37 41 38 43 39 44 40 45
REMARK SMILES IDX 101 46 41 47 100 48 42 49 43 50 44 51 94 52 45 53 99 54
REMARK SMILES IDX 93 55 95 56 46 57 98 58 92 59 91 60 47 62 79 63 59 64 78 65
REMARK SMILES IDX 60 66 63 67 77 68 96 69 61 70 62 71 76 73 97 74 64 75 48 76
REMARK SMILES IDX 49 77 57 78 50 79 56 80 58 81 55 82 51 83 52 84 53 85 54 86
REMARK SMILES IDX 80 87 81 88 89 89 82 90 88 91 90 92 87 93 83 94 84 95 85 96
REMARK SMILES IDX 86 97 65 98 66 99 74 100 67 101 73 102 75 103 72 104 68 105
REMARK SMILES IDX 69 106 70 107 71 108
REMARK H PARENT 31 6 17 11 36 42 95 61 63 72
REMARK Flexibility Score: inf
ROOT
ATOM      1  C   UNL     1       3.970  11.210   7.213  1.00  0.00     0.023 C 
ENDROOT
BRANCH   1   2
ATOM      2  C   UNL     1       3.842  10.221   6.068  1.00  0.00     0.116 C 
BRANCH   2   3
ATOM      3  N   UNL     1       4.741   9.093   6.123  1.00  0.00    -0.354 N 
ATOM      4  C   UNL     1       4.542   7.815   5.688  1.00  0.00     0.242 C 
ATOM      5  O   UNL     1       5.544   7.127   5.465  1.00  0.00    -0.273 OA
ATOM      6  H   UNL     1       5.619   9.269   6.532  1.00  0.00     0.163 HD
BRANCH   4   7
ATOM      7  C   UNL     1       3.141   7.232   5.376  1.00  0.00     0.175 C 
BRANCH   7   8
ATOM      8  N   UNL     1       2.155   7.452   6.439  1.00  0.00    -0.344 N 
ATOM      9  C   UNL     1       1.454   6.594   7.224  1.00  0.00     0.221 C 
ATOM     10  O   UNL     1       0.649   7.075   8.021  1.00  0.00    -0.275 OA
ATOM     11  H   UNL     1       1.964   8.401   6.618  1.00  0.00     0.164 HD
BRANCH   9  12
ATOM     12  C   UNL     1       1.687   5.106   7.144  1.00  0.00     0.116 C 
BRANCH  12  13
ATOM     13  C   UNL     1       1.267   4.496   5.804  1.00  0.00     0.116 C 
ATOM     14  C   UNL     1       0.927   1.853   1.585  1.00  0.00     0.125 A 
ATOM     15  C   UNL     1       2.279   1.797   1.949  1.00  0.00     0.047 A 
ATOM     16  C   UNL     1      -0.021   2.422   2.448  1.00  0.00     0.034 A 
ATOM     17  C   UNL     1       2.695   2.269   3.192  1.00  0.00     0.012 A 
ATOM     18  C   UNL     1       0.422   2.880   3.698  1.00  0.00     0.140 A 
ATOM     19  C   UNL     1      -1.465   2.570   2.059  1.00  0.00     0.052 C 
ATOM     20  C   UNL     1       1.764   2.810   4.080  1.00  0.00    -0.001 A 
ATOM     21  O   UNL     1      -0.542   3.381   4.604  1.00  0.00    -0.426 OA
ATOM     22  C   UNL     1       2.183   3.321   5.429  1.00  0.00     0.035 C 
ATOM     23  C   UNL     1      -0.180   4.046   5.776  1.00  0.00     0.315 C 
ATOM     24  C   UNL     1       2.196   2.184   6.455  1.00  0.00     0.014 C 
ATOM     25  O   UNL     1      -1.008   4.316   6.636  1.00  0.00    -0.251 OA
BRANCH  14  26
ATOM     26  O   UNL     1       0.500   1.408   0.359  1.00  0.00    -0.496 OA
ATOM     27  C   UNL     1       0.969   0.097   0.046  1.00  0.00     0.278 C 
ENDBRANCH  14  26
ENDBRANCH  12  13
ENDBRANCH   9  12
ENDBRANCH   7   8
BRANCH   7  28
ATOM     28  C   UNL     1       2.614   7.557   3.946  1.00  0.00     0.068 C 
BRANCH  28  29
ATOM     29  C   UNL     1       2.122   8.944   3.649  1.00  0.00    -0.037 C 
ATOM     30  C   UNL     1       1.102   9.622   4.179  1.00  0.00     0.001 A 
ATOM     31  C   UNL     1       2.865   9.810   2.670  1.00  0.00     0.174 C 
ATOM     32  C   UNL     1       0.074   9.341   5.128  1.00  0.00     0.010 A 
ATOM     33  C   UNL     1       1.366  10.999   3.720  1.00  0.00     0.065 A 
ATOM     34  N   UNL     1       2.326  11.174   2.866  1.00  0.00    -0.280 NA
ATOM     35  C   UNL     1      -0.585  10.366   5.693  1.00  0.00     0.001 A 
ATOM     36  C   UNL     1       0.587  12.074   4.374  1.00  0.00     0.028 A 
ATOM     37  C   UNL     1      -0.299  11.742   5.329  1.00  0.00     0.002 A 
ENDBRANCH  28  29
ENDBRANCH   7  28
ENDBRANCH   4   7
ENDBRANCH   2   3
ENDBRANCH   1   2
BRANCH   1  38
ATOM     38  C   UNL     1       5.215  12.085   7.170  1.00  0.00     0.023 C 
BRANCH  38  39
ATOM     39  C   UNL     1       5.520  12.729   5.821  1.00  0.00     0.116 C 
BRANCH  39  40
ATOM     40  N   UNL     1       4.408  13.511   5.281  1.00  0.00    -0.352 N 
ATOM     41  C   UNL     1       4.360  14.855   4.989  1.00  0.00     0.251 C 
ATOM     42  H   UNL     1       3.581  13.007   5.102  1.00  0.00     0.163 HD
ATOM     43  O   UNL     1       3.324  15.397   4.663  1.00  0.00    -0.269 OA
BRANCH  41  44
ATOM     44  C   UNL     1       5.615  15.627   5.115  1.00  0.00     0.039 A 
ATOM     45  C   UNL     1       5.673  16.691   6.017  1.00  0.00     0.014 A 
ATOM     46  C   UNL     1       6.755  15.203   4.426  1.00  0.00     0.014 A 
ATOM     47  C   UNL     1       6.908  17.273   6.302  1.00  0.00     0.010 A 
ATOM     48  C   UNL     1       7.991  15.735   4.767  1.00  0.00     0.010 A 
ATOM     49  C   UNL     1       8.080  16.766   5.716  1.00  0.00    -0.014 A 
BRANCH  49  50
ATOM     50  C   UNL     1       9.418  17.282   6.093  1.00  0.00     0.031 A 
ATOM     51  C   UNL     1      10.255  17.998   5.075  1.00  0.00     0.074 A 
ATOM     52  C   UNL     1       9.911  17.023   7.320  1.00  0.00     0.049 A 
ATOM     53  N   UNL     1      11.469  18.467   5.192  1.00  0.00    -0.248 NA
ATOM     54  C   UNL     1       9.662  18.184   3.740  1.00  0.00     0.031 C 
ATOM     55  C   UNL     1       9.216  16.273   8.368  1.00  0.00     0.029 A 
ATOM     56  N   UNL     1      11.120  17.344   7.888  1.00  0.00    -0.354 N 
ATOM     57  C   UNL     1      11.791  18.990   3.946  1.00  0.00     0.074 A 
ATOM     58  C   UNL     1      10.668  18.731   3.073  1.00  0.00     0.031 C 
ATOM     59  C   UNL     1      10.002  16.206   9.454  1.00  0.00     0.029 A 
ATOM     60  C   UNL     1      11.267  16.882   9.175  1.00  0.00     0.049 A 
ATOM     61  H   UNL     1      11.816  17.857   7.417  1.00  0.00     0.167 HD
ATOM     62  C   UNL     1      12.910  19.651   3.573  1.00  0.00     0.034 A 
ATOM     63  C   UNL     1      12.302  16.991  10.033  1.00  0.00     0.034 A 
ATOM     64  C   UNL     1      14.007  19.931   4.459  1.00  0.00     0.049 A 
ATOM     65  C   UNL     1      13.525  17.762   9.608  1.00  0.00     0.074 A 
ATOM     66  C   UNL     1      15.149  20.665   4.197  1.00  0.00     0.029 A 
ATOM     67  N   UNL     1      14.098  19.497   5.772  1.00  0.00    -0.354 N 
ATOM     68  N   UNL     1      13.768  18.351   8.461  1.00  0.00    -0.248 NA
ATOM     69  C   UNL     1      14.610  17.898  10.592  1.00  0.00     0.031 C 
ATOM     70  C   UNL     1      15.948  20.646   5.342  1.00  0.00     0.029 A 
ATOM     71  C   UNL     1      15.286  19.935   6.331  1.00  0.00     0.049 A 
ATOM     72  H   UNL     1      13.419  18.957   6.238  1.00  0.00     0.167 HD
ATOM     73  C   UNL     1      15.019  18.947   8.592  1.00  0.00     0.074 A 
ATOM     74  C   UNL     1      15.477  18.660   9.936  1.00  0.00     0.031 C 
ATOM     75  C   UNL     1      15.721  19.664   7.680  1.00  0.00     0.034 A 
BRANCH  62  76
ATOM     76  C   UNL     1      12.994  20.153   2.158  1.00  0.00     0.023 A 
ATOM     77  C   UNL     1      13.947  19.619   1.273  1.00  0.00     0.031 A 
ATOM     78  C   UNL     1      12.185  21.215   1.714  1.00  0.00     0.131 A 
ATOM     79  C   UNL     1      14.074  20.160  -0.013  1.00  0.00     0.055 A 
ATOM     80  C   UNL     1      12.296  21.728   0.423  1.00  0.00     0.041 A 
ATOM     81  F   UNL     1      11.259  21.751   2.526  1.00  0.00    -0.206 F 
ATOM     82  C   UNL     1      13.249  21.204  -0.445  1.00  0.00     0.022 A 
BRANCH  79  83
ATOM     83  S   UNL     1      15.327  19.542  -1.168  1.00  0.00     0.124 S 
ATOM     84  O   UNL     1      14.518  19.205  -2.338  1.00  0.00    -0.237 OA
ATOM     85  O   UNL     1      16.196  20.704  -1.324  1.00  0.00    -0.237 OA
ATOM     86  O   UNL     1      15.913  18.401  -0.474  1.00  0.00    -0.744 OA
ENDBRANCH  79  83
ENDBRANCH  62  76
BRANCH  63  87
ATOM     87  C   UNL     1      12.172  16.420  11.403  1.00  0.00     0.023 A 
ATOM     88  C   UNL     1      12.087  15.031  11.609  1.00  0.00     0.031 A 
ATOM     89  C   UNL     1      12.028  17.266  12.515  1.00  0.00     0.131 A 
ATOM     90  C   UNL     1      11.813  14.535  12.891  1.00  0.00     0.055 A 
ATOM     91  C   UNL     1      11.812  16.765  13.799  1.00  0.00     0.041 A 
ATOM     92  F   UNL     1      12.090  18.598  12.362  1.00  0.00    -0.206 F 
ATOM     93  C   UNL     1      11.692  15.392  13.990  1.00  0.00     0.022 A 
BRANCH  90  94
ATOM     94  S   UNL     1      11.522  12.765  13.161  1.00  0.00     0.124 S 
ATOM     95  O   UNL     1      12.442  12.463  14.254  1.00  0.00    -0.237 OA
ATOM     96  O   UNL     1      10.103  12.751  13.508  1.00  0.00    -0.237 OA
ATOM     97  O   UNL     1      11.855  12.161  11.876  1.00  0.00    -0.744 OA
ENDBRANCH  90  94
ENDBRANCH  63  87
BRANCH  75  98
ATOM     98  C   UNL     1      17.065  20.217   8.076  1.00  0.00     0.023 A 
ATOM     99  C   UNL     1      17.252  21.610   8.162  1.00  0.00     0.031 A 
ATOM    100  C   UNL     1      18.187  19.381   8.199  1.00  0.00     0.131 A 
ATOM    101  C   UNL     1      18.542  22.128   8.321  1.00  0.00     0.055 A 
ATOM    102  C   UNL     1      19.466  19.902   8.397  1.00  0.00     0.041 A 
ATOM    103  F   UNL     1      18.055  18.048   8.114  1.00  0.00    -0.206 F 
ATOM    104  C   UNL     1      19.649  21.282   8.445  1.00  0.00     0.022 A 
BRANCH 101 105
ATOM    105  S   UNL     1      18.840  23.917   8.303  1.00  0.00     0.124 S 
ATOM    106  O   UNL     1      19.538  24.122   9.570  1.00  0.00    -0.237 OA
ATOM    107  O   UNL     1      19.659  24.079   7.106  1.00  0.00    -0.237 OA
ATOM    108  O   UNL     1      17.502  24.496   8.234  1.00  0.00    -0.744 OA
ENDBRANCH 101 105
ENDBRANCH  75  98
ENDBRANCH  49  50
ENDBRANCH  41  44
ENDBRANCH  39  40
ENDBRANCH  38  39
ENDBRANCH   1  38
TORSDOF 20
