REMARK SMILES Cc1cc(C(=O)N[C@@H]2C(=O)N3C(C(=O)NCCCCNC(=O)c4ccc(-c5c6nc(c(-c7cc(S(=O)(=O)[O-])ccc7F)c7ccc([nH]7)c(-c7cc(S(=O)(=O)[O-])ccc7F)c7nc(c(-c8cc(S(=O)(=O)[O-])ccc8F)c8ccc5[nH]8)C=C7)C=C6)cc4)=C(CSc4nnc(C)s4)CS[C@H]23)n(C)n1
REMARK SMILES IDX 17 1 16 2 15 3 13 4 14 5 12 7 8 8 9 9 97 10 10 11 11 12
REMARK SMILES IDX 96 13 95 14 86 15 7 16 5 17 6 18 4 20 1 21 2 22 3 23 100 24
REMARK SMILES IDX 98 25 99 26 87 27 88 28 89 29 90 30 94 31 91 32 92 33 93 34
REMARK SMILES IDX 18 35 19 36 20 37 21 38 22 40 23 41 24 42 85 43 25 44 84 45
REMARK SMILES IDX 26 46 27 47 28 48 78 49 29 50 83 51 77 52 79 53 30 54 82 55
REMARK SMILES IDX 76 56 75 57 31 59 63 60 43 61 62 62 44 63 47 64 61 65 80 66
REMARK SMILES IDX 45 67 46 68 60 70 81 71 48 72 32 73 33 74 41 75 34 76 40 77
REMARK SMILES IDX 42 78 39 79 35 80 36 81 37 82 38 83 64 84 65 85 73 86 66 87
REMARK SMILES IDX 72 88 74 89 71 90 67 91 68 92 69 93 70 94 49 95 50 96 58 97
REMARK SMILES IDX 51 98 57 99 59 100 56 101 52 102 53 103 54 104 55 105
REMARK H PARENT 15 6 7 19 20 39 79 58 47 69
REMARK Flexibility Score: inf
ROOT
ATOM      1  C   UNL     1      -5.800  -0.555  -3.861  1.00  0.00     0.023 C 
ENDROOT
BRANCH   1   2
ATOM      2  C   UNL     1      -4.341  -0.622  -4.327  1.00  0.00     0.116 C 
BRANCH   2   3
ATOM      3  N   UNL     1      -3.439  -0.427  -3.213  1.00  0.00    -0.351 N 
ATOM      4  C   UNL     1      -2.659  -1.194  -2.416  1.00  0.00     0.268 C 
ATOM      5  O   UNL     1      -1.889  -0.521  -1.717  1.00  0.00    -0.268 OA
ATOM      6  H   UNL     1      -3.374   0.524  -2.968  1.00  0.00     0.163 HD
BRANCH   4   7
ATOM      7  C   UNL     1      -2.504  -2.726  -2.442  1.00  0.00     0.111 C 
ATOM      8  C   UNL     1      -0.098  -4.080  -0.375  1.00  0.00     0.206 C 
ATOM      9  C   UNL     1      -1.084  -2.880  -0.384  1.00  0.00     0.253 C 
ATOM     10  C   UNL     1      -0.882  -4.490  -1.653  1.00  0.00     0.181 C 
ATOM     11  O   UNL     1      -1.497  -2.122   0.476  1.00  0.00    -0.272 OA
ATOM     12  N   UNL     1      -1.409  -3.140  -1.690  1.00  0.00    -0.290 N 
ATOM     13  S   UNL     1      -2.256  -5.666  -1.434  1.00  0.00    -0.129 SA
ATOM     14  C   UNL     1      -2.924  -5.159  -3.019  1.00  0.00     0.106 C 
ATOM     15  C   UNL     1      -3.337  -3.702  -2.928  1.00  0.00    -0.020 C 
BRANCH   8  16
ATOM     16  N   UNL     1      -0.091  -4.969   0.820  1.00  0.00    -0.336 N 
ATOM     17  C   UNL     1       0.245  -6.306   0.926  1.00  0.00     0.270 C 
ATOM     18  O   UNL     1       0.204  -6.819   2.043  1.00  0.00    -0.268 OA
ATOM     19  H   UNL     1      -0.367  -4.540   1.661  1.00  0.00     0.164 HD
BRANCH  17  20
ATOM     20  C   UNL     1       0.549  -7.052  -0.276  1.00  0.00     0.126 A 
ATOM     21  C   UNL     1       0.653  -7.416  -3.894  1.00  0.00     0.069 C 
ATOM     22  C   UNL     1       0.705  -7.587  -2.421  1.00  0.00     0.060 A 
ATOM     23  C   UNL     1       1.175  -6.671  -1.454  1.00  0.00     0.059 A 
ATOM     24  N   UNL     1       0.162  -8.658  -1.842  1.00  0.00    -0.178 NA
ATOM     25  N   UNL     1       0.161  -8.351  -0.524  1.00  0.00    -0.263 N 
ATOM     26  C   UNL     1      -0.310  -9.361   0.394  1.00  0.00     0.174 C 
ENDBRANCH  17  20
ENDBRANCH   8  16
BRANCH  15  27
ATOM     27  C   UNL     1      -4.838  -3.596  -3.063  1.00  0.00     0.111 C 
BRANCH  27  28
ATOM     28  S   UNL     1      -5.439  -2.831  -1.554  1.00  0.00    -0.089 SA
BRANCH  28  29
ATOM     29  C   UNL     1      -6.915  -3.633  -1.186  1.00  0.00     0.174 A 
ATOM     30  N   UNL     1      -6.966  -4.899  -0.836  1.00  0.00    -0.132 NA
ATOM     31  S   UNL     1      -8.257  -2.708  -0.660  1.00  0.00    -0.091 S 
ATOM     32  N   UNL     1      -7.856  -5.068   0.214  1.00  0.00    -0.143 NA
ATOM     33  C   UNL     1      -8.429  -3.925   0.538  1.00  0.00     0.115 A 
ATOM     34  C   UNL     1      -9.023  -3.589   1.851  1.00  0.00     0.081 C 
ENDBRANCH  28  29
ENDBRANCH  27  28
ENDBRANCH  15  27
ENDBRANCH   4   7
ENDBRANCH   2   3
ENDBRANCH   1   2
BRANCH   1  35
ATOM     35  C   UNL     1      -6.581   0.692  -4.217  1.00  0.00     0.023 C 
BRANCH  35  36
ATOM     36  C   UNL     1      -6.734   0.932  -5.700  1.00  0.00     0.116 C 
BRANCH  36  37
ATOM     37  N   UNL     1      -7.420  -0.136  -6.418  1.00  0.00    -0.352 N 
ATOM     38  C   UNL     1      -8.316   0.006  -7.458  1.00  0.00     0.251 C 
ATOM     39  H   UNL     1      -7.223  -1.056  -6.130  1.00  0.00     0.163 HD
ATOM     40  O   UNL     1      -8.877  -0.969  -7.944  1.00  0.00    -0.269 OA
BRANCH  38  41
ATOM     41  C   UNL     1      -8.618   1.379  -7.915  1.00  0.00     0.039 A 
ATOM     42  C   UNL     1      -9.937   1.832  -7.872  1.00  0.00     0.014 A 
ATOM     43  C   UNL     1      -7.566   2.259  -8.177  1.00  0.00     0.014 A 
ATOM     44  C   UNL     1     -10.188   3.199  -7.995  1.00  0.00     0.010 A 
ATOM     45  C   UNL     1      -7.810   3.624  -8.165  1.00  0.00     0.010 A 
ATOM     46  C   UNL     1      -9.123   4.113  -8.080  1.00  0.00    -0.014 A 
BRANCH  46  47
ATOM     47  C   UNL     1      -9.354   5.582  -8.103  1.00  0.00     0.031 A 
ATOM     48  C   UNL     1      -8.858   6.388  -9.274  1.00  0.00     0.074 A 
ATOM     49  C   UNL     1      -9.938   6.195  -7.053  1.00  0.00     0.049 A 
ATOM     50  N   UNL     1      -8.875   7.683  -9.456  1.00  0.00    -0.248 NA
ATOM     51  C   UNL     1      -8.216   5.639 -10.367  1.00  0.00     0.031 C 
ATOM     52  C   UNL     1     -10.409   5.531  -5.834  1.00  0.00     0.029 A 
ATOM     53  N   UNL     1     -10.236   7.519  -6.839  1.00  0.00    -0.354 N 
ATOM     54  C   UNL     1      -8.230   7.900 -10.670  1.00  0.00     0.074 A 
ATOM     55  C   UNL     1      -7.758   6.615 -11.132  1.00  0.00     0.031 C 
ATOM     56  C   UNL     1     -10.972   6.442  -5.024  1.00  0.00     0.029 A 
ATOM     57  C   UNL     1     -10.859   7.762  -5.635  1.00  0.00     0.049 A 
ATOM     58  H   UNL     1     -10.024   8.229  -7.487  1.00  0.00     0.167 HD
ATOM     59  C   UNL     1      -8.080   9.059 -11.356  1.00  0.00     0.034 A 
ATOM     60  C   UNL     1     -11.284   8.918  -5.085  1.00  0.00     0.034 A 
ATOM     61  C   UNL     1      -8.582  10.327 -10.892  1.00  0.00     0.049 A 
ATOM     62  C   UNL     1     -11.093  10.200  -5.859  1.00  0.00     0.074 A 
ATOM     63  C   UNL     1      -8.539  11.555 -11.527  1.00  0.00     0.029 A 
ATOM     64  N   UNL     1      -9.215  10.532  -9.672  1.00  0.00    -0.354 N 
ATOM     65  N   UNL     1     -10.532  10.380  -7.034  1.00  0.00    -0.248 NA
ATOM     66  C   UNL     1     -11.601  11.431  -5.241  1.00  0.00     0.031 C 
ATOM     67  C   UNL     1      -9.079  12.513 -10.664  1.00  0.00     0.029 A 
ATOM     68  C   UNL     1      -9.540  11.871  -9.524  1.00  0.00     0.049 A 
ATOM     69  H   UNL     1      -9.405   9.829  -9.009  1.00  0.00     0.167 HD
ATOM     70  C   UNL     1     -10.655  11.740  -7.309  1.00  0.00     0.074 A 
ATOM     71  C   UNL     1     -11.354  12.327  -6.184  1.00  0.00     0.031 C 
ATOM     72  C   UNL     1     -10.235  12.440  -8.393  1.00  0.00     0.034 A 
BRANCH  59  73
ATOM     73  C   UNL     1      -7.330   8.998 -12.666  1.00  0.00     0.023 A 
ATOM     74  C   UNL     1      -7.787   8.216 -13.743  1.00  0.00     0.031 A 
ATOM     75  C   UNL     1      -6.122   9.697 -12.830  1.00  0.00     0.131 A 
ATOM     76  C   UNL     1      -7.001   8.083 -14.897  1.00  0.00     0.055 A 
ATOM     77  C   UNL     1      -5.391   9.634 -14.018  1.00  0.00     0.041 A 
ATOM     78  F   UNL     1      -5.620  10.439 -11.830  1.00  0.00    -0.206 F 
ATOM     79  C   UNL     1      -5.820   8.810 -15.054  1.00  0.00     0.022 A 
BRANCH  76  80
ATOM     80  S   UNL     1      -7.464   6.823 -16.117  1.00  0.00     0.124 S 
ATOM     81  O   UNL     1      -7.425   5.605 -15.310  1.00  0.00    -0.237 OA
ATOM     82  O   UNL     1      -8.787   7.265 -16.542  1.00  0.00    -0.237 OA
ATOM     83  O   UNL     1      -6.415   6.925 -17.129  1.00  0.00    -0.744 OA
ENDBRANCH  76  80
ENDBRANCH  59  73
BRANCH  60  84
ATOM     84  C   UNL     1     -11.929   8.931  -3.738  1.00  0.00     0.023 A 
ATOM     85  C   UNL     1     -13.262   9.342  -3.577  1.00  0.00     0.031 A 
ATOM     86  C   UNL     1     -11.207   8.579  -2.584  1.00  0.00     0.131 A 
ATOM     87  C   UNL     1     -13.816   9.441  -2.290  1.00  0.00     0.055 A 
ATOM     88  C   UNL     1     -11.780   8.623  -1.311  1.00  0.00     0.041 A 
ATOM     89  F   UNL     1      -9.930   8.175  -2.678  1.00  0.00    -0.206 F 
ATOM     90  C   UNL     1     -13.088   9.071  -1.157  1.00  0.00     0.022 A 
BRANCH  87  91
ATOM     91  S   UNL     1     -15.474  10.155  -2.109  1.00  0.00     0.124 S 
ATOM     92  O   UNL     1     -15.301  11.466  -2.724  1.00  0.00    -0.237 OA
ATOM     93  O   UNL     1     -16.295   9.202  -2.848  1.00  0.00    -0.237 OA
ATOM     94  O   UNL     1     -15.684  10.165  -0.663  1.00  0.00    -0.744 OA
ENDBRANCH  87  91
ENDBRANCH  60  84
BRANCH  72  95
ATOM     95  C   UNL     1     -10.572  13.911  -8.438  1.00  0.00     0.023 A 
ATOM     96  C   UNL     1     -10.018  14.828  -7.529  1.00  0.00     0.031 A 
ATOM     97  C   UNL     1     -11.462  14.399  -9.412  1.00  0.00     0.131 A 
ATOM     98  C   UNL     1     -10.404  16.176  -7.577  1.00  0.00     0.055 A 
ATOM     99  C   UNL     1     -11.790  15.752  -9.496  1.00  0.00     0.041 A 
ATOM    100  F   UNL     1     -12.023  13.566 -10.304  1.00  0.00    -0.206 F 
ATOM    101  C   UNL     1     -11.271  16.647  -8.566  1.00  0.00     0.022 A 
BRANCH  98 102
ATOM    102  S   UNL     1      -9.832  17.291  -6.266  1.00  0.00     0.124 S 
ATOM    103  O   UNL     1     -10.346  16.638  -5.067  1.00  0.00    -0.237 OA
ATOM    104  O   UNL     1      -8.383  17.258  -6.438  1.00  0.00    -0.237 OA
ATOM    105  O   UNL     1     -10.466  18.566  -6.599  1.00  0.00    -0.744 OA
ENDBRANCH  98 102
ENDBRANCH  72  95
ENDBRANCH  46  47
ENDBRANCH  38  41
ENDBRANCH  36  37
ENDBRANCH  35  36
ENDBRANCH   1  35
TORSDOF 19
