REMARK SMILES Cc1ccc(N2C(=O)[NH+]=C(NCCCCNC(=O)c3ccc(-c4c5nc(c(-c6cc(S(=O)(=O)[O-])ccc6F)c6ccc([nH]6)c(-c6cc(S(=O)(=O)[O-])ccc6F)c6nc(c(-c7cc(S(=O)(=O)[O-])ccc7F)c7ccc4[nH]7)C=C6)C=C5)cc3)/C(=C\c3ccccc3OCc3cccc(C(=O)[O-])c3)C2=O)cc1
REMARK SMILES IDX 13 1 12 2 11 3 6 4 7 5 101 6 8 7 9 8 82 9 102 10 10 11 83 13
REMARK SMILES IDX 5 15 1 16 2 17 3 18 104 19 4 20 103 21 84 22 85 23 89 24
REMARK SMILES IDX 86 25 88 26 87 27 90 28 91 29 92 30 93 31 100 32 94 33 96 34
REMARK SMILES IDX 95 35 97 36 98 37 99 38 14 39 15 40 16 41 17 42 18 44 19 45
REMARK SMILES IDX 20 46 81 47 21 48 80 49 22 50 23 51 24 52 74 53 25 54 79 55
REMARK SMILES IDX 73 56 75 57 26 58 78 59 72 60 71 61 27 63 59 64 39 65 58 66
REMARK SMILES IDX 40 67 43 68 57 69 76 70 41 71 42 72 56 74 77 75 44 76 28 77
REMARK SMILES IDX 29 78 37 79 30 80 36 81 38 82 35 83 31 84 32 85 33 86 34 87
REMARK SMILES IDX 60 88 61 89 69 90 62 91 68 92 70 93 67 94 63 95 64 96 65 97
REMARK SMILES IDX 66 98 45 99 46 100 54 101 47 102 53 103 55 104 52 105 48 106
REMARK SMILES IDX 49 107 50 108 51 109
REMARK H PARENT 9 12 11 14 16 43 75 62 43 73
REMARK Flexibility Score: inf
ROOT
ATOM      1  C   UNL     1      -8.950   1.342   2.464  1.00  0.00     0.039 C 
ENDROOT
BRANCH   1   2
ATOM      2  C   UNL     1      -7.976   0.503   1.633  1.00  0.00     0.194 C 
BRANCH   2   3
ATOM      3  N   UNL     1      -7.154   1.363   0.777  1.00  0.00    -0.305 N 
ATOM      4  N   UNL     1      -3.031   0.938   0.325  1.00  0.00    -0.155 N 
ATOM      5  C   UNL     1      -3.764   0.314   1.351  1.00  0.00     0.448 C 
ATOM      6  C   UNL     1      -3.631   1.793  -0.590  1.00  0.00     0.328 C 
ATOM      7  O   UNL     1      -3.218  -0.391   2.200  1.00  0.00    -0.212 OA
ATOM      8  N   UNL     1      -5.103   0.566   1.480  1.00  0.00    -0.209 N 
ATOM      9  C   UNL     1      -5.108   1.664  -0.648  1.00  0.00     0.129 C 
ATOM     10  O   UNL     1      -3.053   2.531  -1.390  1.00  0.00    -0.249 OA
ATOM     11  C   UNL     1      -5.802   1.168   0.570  1.00  0.00     0.236 C 
ATOM     12  H   UNL     1      -5.557   0.275   2.304  1.00  0.00     0.270 HD
ATOM     13  C   UNL     1      -5.646   1.845  -1.871  1.00  0.00     0.034 C 
ATOM     14  H   UNL     1      -7.590   2.122   0.325  1.00  0.00     0.256 HD
BRANCH   4  15
ATOM     15  C   UNL     1      -1.612   0.694   0.232  1.00  0.00     0.111 A 
ATOM     16  C   UNL     1       2.643  -0.085  -0.048  1.00  0.00     0.044 C 
ATOM     17  C   UNL     1       1.173   0.191   0.047  1.00  0.00    -0.051 A 
ATOM     18  C   UNL     1       0.281  -0.849   0.317  1.00  0.00     0.007 A 
ATOM     19  C   UNL     1       0.667   1.476  -0.156  1.00  0.00     0.007 A 
ATOM     20  C   UNL     1      -1.092  -0.597   0.417  1.00  0.00     0.044 A 
ATOM     21  C   UNL     1      -0.708   1.722  -0.069  1.00  0.00     0.044 A 
ENDBRANCH   4  15
BRANCH  13  22
ATOM     22  C   UNL     1      -6.998   1.500  -2.319  1.00  0.00     0.018 A 
ATOM     23  C   UNL     1      -7.724   2.506  -2.975  1.00  0.00     0.012 A 
ATOM     24  C   UNL     1      -7.583   0.233  -2.140  1.00  0.00     0.127 A 
ATOM     25  C   UNL     1      -9.034   2.280  -3.386  1.00  0.00     0.001 A 
ATOM     26  C   UNL     1      -8.909   0.025  -2.520  1.00  0.00     0.047 A 
ATOM     27  C   UNL     1      -9.625   1.044  -3.152  1.00  0.00     0.004 A 
BRANCH  24  28
ATOM     28  O   UNL     1      -6.983  -0.798  -1.462  1.00  0.00    -0.488 OA
BRANCH  28  29
ATOM     29  C   UNL     1      -5.834  -1.349  -2.112  1.00  0.00     0.265 C 
BRANCH  29  30
ATOM     30  C   UNL     1      -5.325  -2.556  -1.352  1.00  0.00    -0.010 A 
ATOM     31  C   UNL     1      -3.946  -2.809  -1.260  1.00  0.00     0.007 A 
ATOM     32  C   UNL     1      -6.218  -3.494  -0.810  1.00  0.00     0.017 A 
ATOM     33  C   UNL     1      -3.469  -3.969  -0.644  1.00  0.00     0.001 A 
ATOM     34  C   UNL     1      -5.741  -4.670  -0.213  1.00  0.00    -0.002 A 
ATOM     35  C   UNL     1      -4.365  -4.905  -0.132  1.00  0.00     0.010 A 
BRANCH  34  36
ATOM     36  C   UNL     1      -6.657  -5.720   0.292  1.00  0.00     0.071 C 
ATOM     37  O   UNL     1      -6.343  -6.856   0.586  1.00  0.00    -0.545 OA
ATOM     38  O   UNL     1      -7.917  -5.277   0.387  1.00  0.00    -0.545 OA
ENDBRANCH  34  36
ENDBRANCH  29  30
ENDBRANCH  28  29
ENDBRANCH  24  28
ENDBRANCH  13  22
ENDBRANCH   2   3
ENDBRANCH   1   2
BRANCH   1  39
ATOM     39  C   UNL     1     -10.078   2.014   1.678  1.00  0.00     0.024 C 
BRANCH  39  40
ATOM     40  C   UNL     1     -11.124   1.041   1.124  1.00  0.00     0.116 C 
BRANCH  40  41
ATOM     41  N   UNL     1     -12.475   1.358   1.611  1.00  0.00    -0.352 N 
ATOM     42  C   UNL     1     -13.718   0.973   1.152  1.00  0.00     0.251 C 
ATOM     43  H   UNL     1     -12.496   1.947   2.400  1.00  0.00     0.163 HD
ATOM     44  O   UNL     1     -14.740   1.268   1.766  1.00  0.00    -0.269 OA
BRANCH  42  45
ATOM     45  C   UNL     1     -13.814   0.100  -0.035  1.00  0.00     0.039 A 
ATOM     46  C   UNL     1     -14.551  -1.087   0.071  1.00  0.00     0.014 A 
ATOM     47  C   UNL     1     -13.028   0.344  -1.151  1.00  0.00     0.014 A 
ATOM     48  C   UNL     1     -14.276  -2.141  -0.796  1.00  0.00     0.010 A 
ATOM     49  C   UNL     1     -12.699  -0.723  -1.959  1.00  0.00     0.010 A 
ATOM     50  C   UNL     1     -13.260  -1.980  -1.733  1.00  0.00    -0.014 A 
BRANCH  50  51
ATOM     51  C   UNL     1     -12.640  -3.079  -2.458  1.00  0.00     0.031 A 
ATOM     52  C   UNL     1     -13.029  -3.361  -3.848  1.00  0.00     0.074 A 
ATOM     53  C   UNL     1     -11.653  -3.791  -1.872  1.00  0.00     0.049 A 
ATOM     54  N   UNL     1     -12.994  -4.528  -4.392  1.00  0.00    -0.248 NA
ATOM     55  C   UNL     1     -13.513  -2.316  -4.742  1.00  0.00     0.031 C 
ATOM     56  C   UNL     1     -10.812  -4.813  -2.486  1.00  0.00     0.029 A 
ATOM     57  N   UNL     1     -11.402  -3.905  -0.506  1.00  0.00    -0.354 N 
ATOM     58  C   UNL     1     -13.167  -4.357  -5.745  1.00  0.00     0.074 A 
ATOM     59  C   UNL     1     -13.546  -2.971  -5.906  1.00  0.00     0.031 C 
ATOM     60  C   UNL     1     -10.382  -5.645  -1.524  1.00  0.00     0.029 A 
ATOM     61  C   UNL     1     -11.012  -5.235  -0.279  1.00  0.00     0.049 A 
ATOM     62  H   UNL     1     -11.484  -3.192   0.169  1.00  0.00     0.167 HD
ATOM     63  C   UNL     1     -12.832  -5.364  -6.601  1.00  0.00     0.034 A 
ATOM     64  C   UNL     1     -11.729  -6.042   0.555  1.00  0.00     0.034 A 
ATOM     65  C   UNL     1     -12.354  -6.544  -5.882  1.00  0.00     0.049 A 
ATOM     66  C   UNL     1     -12.317  -7.222  -0.178  1.00  0.00     0.074 A 
ATOM     67  C   UNL     1     -11.082  -7.015  -5.601  1.00  0.00     0.029 A 
ATOM     68  N   UNL     1     -13.223  -7.241  -5.043  1.00  0.00    -0.354 N 
ATOM     69  N   UNL     1     -12.445  -7.273  -1.478  1.00  0.00    -0.248 NA
ATOM     70  C   UNL     1     -12.777  -8.440   0.480  1.00  0.00     0.031 C 
ATOM     71  C   UNL     1     -11.181  -7.911  -4.505  1.00  0.00     0.029 A 
ATOM     72  C   UNL     1     -12.516  -8.027  -4.152  1.00  0.00     0.049 A 
ATOM     73  H   UNL     1     -14.205  -7.182  -5.080  1.00  0.00     0.167 HD
ATOM     74  C   UNL     1     -12.965  -8.484  -1.838  1.00  0.00     0.074 A 
ATOM     75  C   UNL     1     -13.150  -9.184  -0.576  1.00  0.00     0.031 C 
ATOM     76  C   UNL     1     -13.195  -8.827  -3.142  1.00  0.00     0.034 A 
BRANCH  63  77
ATOM     77  C   UNL     1     -12.633  -5.125  -8.079  1.00  0.00     0.023 A 
ATOM     78  C   UNL     1     -11.595  -5.785  -8.767  1.00  0.00     0.031 A 
ATOM     79  C   UNL     1     -13.399  -4.227  -8.849  1.00  0.00     0.131 A 
ATOM     80  C   UNL     1     -11.287  -5.468 -10.104  1.00  0.00     0.055 A 
ATOM     81  C   UNL     1     -13.055  -3.863 -10.157  1.00  0.00     0.041 A 
ATOM     82  F   UNL     1     -14.533  -3.692  -8.370  1.00  0.00    -0.206 F 
ATOM     83  C   UNL     1     -11.983  -4.475 -10.789  1.00  0.00     0.022 A 
BRANCH  80  84
ATOM     84  S   UNL     1      -9.972  -6.389 -10.951  1.00  0.00     0.124 S 
ATOM     85  O   UNL     1      -8.806  -6.096 -10.123  1.00  0.00    -0.237 OA
ATOM     86  O   UNL     1     -10.473  -7.758 -10.901  1.00  0.00    -0.237 OA
ATOM     87  O   UNL     1      -9.945  -5.792 -12.286  1.00  0.00    -0.744 OA
ENDBRANCH  80  84
ENDBRANCH  63  77
BRANCH  64  88
ATOM     88  C   UNL     1     -12.343  -5.288   1.688  1.00  0.00     0.023 A 
ATOM     89  C   UNL     1     -11.453  -4.584   2.532  1.00  0.00     0.031 A 
ATOM     90  C   UNL     1     -13.682  -4.878   1.663  1.00  0.00     0.131 A 
ATOM     91  C   UNL     1     -11.859  -3.388   3.143  1.00  0.00     0.055 A 
ATOM     92  C   UNL     1     -14.099  -3.728   2.348  1.00  0.00     0.041 A 
ATOM     93  F   UNL     1     -14.571  -5.491   0.869  1.00  0.00    -0.206 F 
ATOM     94  C   UNL     1     -13.176  -2.945   3.042  1.00  0.00     0.022 A 
BRANCH  91  95
ATOM     95  S   UNL     1     -10.574  -2.301   3.825  1.00  0.00     0.124 S 
ATOM     96  O   UNL     1     -10.143  -3.041   5.005  1.00  0.00    -0.237 OA
ATOM     97  O   UNL     1      -9.617  -2.230   2.722  1.00  0.00    -0.237 OA
ATOM     98  O   UNL     1     -11.277  -1.047   4.088  1.00  0.00    -0.744 OA
ENDBRANCH  91  95
ENDBRANCH  64  88
BRANCH  76  99
ATOM     99  C   UNL     1     -13.978 -10.045  -3.551  1.00  0.00     0.023 A 
ATOM    100  C   UNL     1     -14.930 -10.635  -2.710  1.00  0.00     0.031 A 
ATOM    101  C   UNL     1     -13.838 -10.620  -4.833  1.00  0.00     0.131 A 
ATOM    102  C   UNL     1     -15.583 -11.820  -3.076  1.00  0.00     0.055 A 
ATOM    103  C   UNL     1     -14.568 -11.742  -5.238  1.00  0.00     0.041 A 
ATOM    104  F   UNL     1     -12.989 -10.119  -5.742  1.00  0.00    -0.206 F 
ATOM    105  C   UNL     1     -15.427 -12.368  -4.346  1.00  0.00     0.022 A 
BRANCH 102 106
ATOM    106  S   UNL     1     -16.544 -12.679  -1.806  1.00  0.00     0.124 S 
ATOM    107  O   UNL     1     -15.512 -13.000  -0.823  1.00  0.00    -0.237 OA
ATOM    108  O   UNL     1     -17.510 -11.665  -1.401  1.00  0.00    -0.237 OA
ATOM    109  O   UNL     1     -17.104 -13.827  -2.516  1.00  0.00    -0.744 OA
ENDBRANCH 102 106
ENDBRANCH  76  99
ENDBRANCH  50  51
ENDBRANCH  42  45
ENDBRANCH  40  41
ENDBRANCH  39  40
ENDBRANCH   1  39
TORSDOF 19
