REMARK SMILES CC(C)C[C@H](NC(=O)[C@H](C)NC(=O)[C@@H](NC(=O)CNC(=O)OCc1ccccc1)C(C)C)C(=O)NCCCCNC(=O)c1ccc(-c2c3nc(c(-c4cc(S(=O)(=O)[O-])ccc4F)c4ccc([nH]4)c(-c4cc(S(=O)(=O)[O-])ccc4F)c4nc(c(-c5cc(S(=O)(=O)[O-])ccc5F)c5ccc2[nH]5)C=C4)C=C3)cc1
REMARK SMILES IDX 5 1 4 2 2 3 1 4 3 5 33 6 34 7 35 8 36 10 37 11 38 12 39 13
REMARK SMILES IDX 40 14 41 15 42 17 43 18 44 19 105 20 45 21 104 22 46 23
REMARK SMILES IDX 47 24 48 25 98 26 49 27 103 28 97 29 99 30 50 31 102 32
REMARK SMILES IDX 96 33 95 34 51 36 83 37 63 38 82 39 64 40 67 41 81 42 100 43
REMARK SMILES IDX 65 44 66 45 80 47 101 48 68 49 52 50 53 51 61 52 54 53 60 54
REMARK SMILES IDX 62 55 59 56 55 57 56 58 57 59 58 60 84 61 85 62 93 63 86 64
REMARK SMILES IDX 92 65 94 66 91 67 87 68 88 69 89 70 90 71 69 72 70 73 78 74
REMARK SMILES IDX 71 75 77 76 79 77 76 78 72 79 73 80 74 81 75 82 6 83 7 84
REMARK SMILES IDX 8 86 9 87 10 88 11 89 12 90 13 92 14 93 15 94 16 95 17 97
REMARK SMILES IDX 18 98 19 99 20 100 21 102 22 103 23 104 24 105 25 106 29 107
REMARK SMILES IDX 26 108 28 109 27 110 30 111 31 112 32 113
REMARK H PARENT 35 9 40 16 99 35 67 46 6 85 11 91 15 96 19 101
REMARK Flexibility Score: inf
ROOT
ATOM      1  C   UNL     1      -4.240  -0.238   0.607  1.00  0.00     0.171 C 
ENDROOT
BRANCH   1   2
ATOM      2  C   UNL     1      -3.648   1.108   1.149  1.00  0.00     0.038 C 
BRANCH   2   3
ATOM      3  C   UNL     1      -4.201   2.551   0.881  1.00  0.00    -0.015 C 
ATOM      4  C   UNL     1      -5.489   2.784   0.095  1.00  0.00     0.007 C 
ATOM      5  C   UNL     1      -4.256   3.350   2.199  1.00  0.00     0.007 C 
ENDBRANCH   2   3
ENDBRANCH   1   2
BRANCH   1   6
ATOM      6  C   UNL     1      -3.486  -1.483   1.266  1.00  0.00     0.242 C 
ATOM      7  O   UNL     1      -2.314  -1.327   1.645  1.00  0.00    -0.273 OA
ATOM      8  N   UNL     1      -3.932  -2.785   1.304  1.00  0.00    -0.354 N 
ATOM      9  H   UNL     1      -3.289  -3.423   1.690  1.00  0.00     0.163 HD
BRANCH   8  10
ATOM     10  C   UNL     1      -5.177  -3.379   0.877  1.00  0.00     0.116 C 
BRANCH  10  11
ATOM     11  C   UNL     1      -5.534  -4.880   1.156  1.00  0.00     0.023 C 
BRANCH  11  12
ATOM     12  C   UNL     1      -5.541  -5.987   2.301  1.00  0.00     0.023 C 
BRANCH  12  13
ATOM     13  C   UNL     1      -5.723  -6.155   3.871  1.00  0.00     0.116 C 
BRANCH  13  14
ATOM     14  N   UNL     1      -6.692  -5.398   4.690  1.00  0.00    -0.352 N 
ATOM     15  C   UNL     1      -7.761  -5.683   5.497  1.00  0.00     0.251 C 
ATOM     16  H   UNL     1      -6.525  -4.429   4.642  1.00  0.00     0.163 HD
ATOM     17  O   UNL     1      -8.503  -4.812   5.944  1.00  0.00    -0.269 OA
BRANCH  15  18
ATOM     18  C   UNL     1      -7.872  -7.037   5.955  1.00  0.00     0.039 A 
ATOM     19  C   UNL     1      -9.024  -7.795   5.765  1.00  0.00     0.014 A 
ATOM     20  C   UNL     1      -6.679  -7.535   6.465  1.00  0.00     0.014 A 
ATOM     21  C   UNL     1      -8.927  -9.155   5.987  1.00  0.00     0.010 A 
ATOM     22  C   UNL     1      -6.544  -8.884   6.519  1.00  0.00     0.010 A 
ATOM     23  C   UNL     1      -7.670  -9.693   6.301  1.00  0.00    -0.014 A 
BRANCH  23  24
ATOM     24  C   UNL     1      -7.422 -11.122   6.473  1.00  0.00     0.031 A 
ATOM     25  C   UNL     1      -6.835 -11.535   7.787  1.00  0.00     0.074 A 
ATOM     26  C   UNL     1      -7.464 -11.902   5.382  1.00  0.00     0.049 A 
ATOM     27  N   UNL     1      -6.117 -12.579   8.073  1.00  0.00    -0.248 NA
ATOM     28  C   UNL     1      -6.936 -10.545   8.879  1.00  0.00     0.031 C 
ATOM     29  C   UNL     1      -7.918 -11.490   4.047  1.00  0.00     0.029 A 
ATOM     30  N   UNL     1      -7.076 -13.196   5.216  1.00  0.00    -0.354 N 
ATOM     31  C   UNL     1      -5.618 -12.334   9.347  1.00  0.00     0.074 A 
ATOM     32  C   UNL     1      -6.015 -10.995   9.714  1.00  0.00     0.031 C 
ATOM     33  C   UNL     1      -7.819 -12.534   3.209  1.00  0.00     0.029 A 
ATOM     34  C   UNL     1      -7.246 -13.658   3.935  1.00  0.00     0.049 A 
ATOM     35  H   UNL     1      -6.710 -13.747   5.945  1.00  0.00     0.167 HD
ATOM     36  C   UNL     1      -4.930 -13.185  10.141  1.00  0.00     0.034 A 
ATOM     37  C   UNL     1      -6.959 -14.871   3.434  1.00  0.00     0.034 A 
ATOM     38  C   UNL     1      -4.664 -14.538   9.726  1.00  0.00     0.049 A 
ATOM     39  C   UNL     1      -6.355 -15.865   4.389  1.00  0.00     0.074 A 
ATOM     40  C   UNL     1      -4.091 -15.575  10.433  1.00  0.00     0.029 A 
ATOM     41  N   UNL     1      -5.006 -15.046   8.472  1.00  0.00    -0.354 N 
ATOM     42  N   UNL     1      -5.930 -15.669   5.620  1.00  0.00    -0.248 NA
ATOM     43  C   UNL     1      -6.217 -17.240   3.910  1.00  0.00     0.031 C 
ATOM     44  C   UNL     1      -4.069 -16.701   9.600  1.00  0.00     0.029 A 
ATOM     45  C   UNL     1      -4.674 -16.383   8.391  1.00  0.00     0.049 A 
ATOM     46  H   UNL     1      -5.423 -14.524   7.748  1.00  0.00     0.167 HD
ATOM     47  C   UNL     1      -5.496 -16.906   6.075  1.00  0.00     0.074 A 
ATOM     48  C   UNL     1      -5.734 -17.842   4.988  1.00  0.00     0.031 C 
ATOM     49  C   UNL     1      -4.945 -17.253   7.269  1.00  0.00     0.034 A 
BRANCH  36  50
ATOM     50  C   UNL     1      -4.476 -12.672  11.488  1.00  0.00     0.023 A 
ATOM     51  C   UNL     1      -5.386 -12.123  12.412  1.00  0.00     0.031 A 
ATOM     52  C   UNL     1      -3.112 -12.637  11.825  1.00  0.00     0.131 A 
ATOM     53  C   UNL     1      -4.920 -11.452  13.552  1.00  0.00     0.055 A 
ATOM     54  C   UNL     1      -2.661 -12.063  13.019  1.00  0.00     0.041 A 
ATOM     55  F   UNL     1      -2.186 -13.124  10.985  1.00  0.00    -0.206 F 
ATOM     56  C   UNL     1      -3.564 -11.443  13.879  1.00  0.00     0.022 A 
BRANCH  53  57
ATOM     57  S   UNL     1      -6.093 -10.435  14.492  1.00  0.00     0.124 S 
ATOM     58  O   UNL     1      -6.476  -9.436  13.497  1.00  0.00    -0.237 OA
ATOM     59  O   UNL     1      -7.126 -11.398  14.857  1.00  0.00    -0.237 OA
ATOM     60  O   UNL     1      -5.293  -9.927  15.603  1.00  0.00    -0.744 OA
ENDBRANCH  53  57
ENDBRANCH  36  50
BRANCH  37  61
ATOM     61  C   UNL     1      -7.309 -15.210   2.030  1.00  0.00     0.023 A 
ATOM     62  C   UNL     1      -8.330 -16.134   1.759  1.00  0.00     0.031 A 
ATOM     63  C   UNL     1      -6.664 -14.604   0.939  1.00  0.00     0.131 A 
ATOM     64  C   UNL     1      -8.649 -16.461   0.432  1.00  0.00     0.055 A 
ATOM     65  C   UNL     1      -7.012 -14.900  -0.382  1.00  0.00     0.041 A 
ATOM     66  F   UNL     1      -5.703 -13.687   1.141  1.00  0.00    -0.206 F 
ATOM     67  C   UNL     1      -8.002 -15.844  -0.641  1.00  0.00     0.022 A 
BRANCH  64  68
ATOM     68  S   UNL     1      -9.883 -17.755   0.134  1.00  0.00     0.124 S 
ATOM     69  O   UNL     1      -9.335 -18.872   0.895  1.00  0.00    -0.237 OA
ATOM     70  O   UNL     1     -11.094 -17.144   0.670  1.00  0.00    -0.237 OA
ATOM     71  O   UNL     1      -9.859 -17.918  -1.318  1.00  0.00    -0.744 OA
ENDBRANCH  64  68
ENDBRANCH  37  61
BRANCH  49  72
ATOM     72  C   UNL     1      -4.610 -18.706   7.440  1.00  0.00     0.023 A 
ATOM     73  C   UNL     1      -3.563 -19.296   6.716  1.00  0.00     0.031 A 
ATOM     74  C   UNL     1      -5.346 -19.500   8.333  1.00  0.00     0.131 A 
ATOM     75  C   UNL     1      -3.318 -20.666   6.854  1.00  0.00     0.055 A 
ATOM     76  C   UNL     1      -5.055 -20.850   8.513  1.00  0.00     0.041 A 
ATOM     77  F   UNL     1      -6.354 -18.973   9.046  1.00  0.00    -0.206 F 
ATOM     78  C   UNL     1      -4.044 -21.444   7.761  1.00  0.00     0.022 A 
BRANCH  75  79
ATOM     79  S   UNL     1      -2.095 -21.432   5.760  1.00  0.00     0.124 S 
ATOM     80  O   UNL     1      -2.649 -21.146   4.440  1.00  0.00    -0.237 OA
ATOM     81  O   UNL     1      -0.873 -20.715   6.107  1.00  0.00    -0.237 OA
ATOM     82  O   UNL     1      -2.121 -22.840   6.152  1.00  0.00    -0.744 OA
ENDBRANCH  75  79
ENDBRANCH  49  72
ENDBRANCH  23  24
ENDBRANCH  15  18
ENDBRANCH  13  14
ENDBRANCH  12  13
ENDBRANCH  11  12
ENDBRANCH  10  11
ENDBRANCH   8  10
ENDBRANCH   1   6
BRANCH   1  83
ATOM     83  N   UNL     1      -5.678  -0.247   0.421  1.00  0.00    -0.343 N 
ATOM     84  C   UNL     1      -6.717   0.281   1.094  1.00  0.00     0.242 C 
ATOM     85  H   UNL     1      -5.957  -0.752  -0.377  1.00  0.00     0.164 HD
ATOM     86  O   UNL     1      -7.744   0.477   0.423  1.00  0.00    -0.273 OA
BRANCH  84  87
ATOM     87  C   UNL     1      -6.800   0.529   2.607  1.00  0.00     0.168 C 
ATOM     88  C   UNL     1      -7.572   1.784   3.004  1.00  0.00     0.041 C 
BRANCH  87  89
ATOM     89  N   UNL     1      -5.784   0.287   3.609  1.00  0.00    -0.343 N 
ATOM     90  C   UNL     1      -6.051  -0.400   4.780  1.00  0.00     0.243 C 
ATOM     91  H   UNL     1      -4.872   0.622   3.452  1.00  0.00     0.164 HD
ATOM     92  O   UNL     1      -5.299  -0.254   5.742  1.00  0.00    -0.273 OA
BRANCH  90  93
ATOM     93  C   UNL     1      -7.143  -1.523   4.730  1.00  0.00     0.174 C 
BRANCH  93  94
ATOM     94  N   UNL     1      -8.539  -0.989   4.576  1.00  0.00    -0.343 N 
ATOM     95  C   UNL     1      -9.639  -0.940   3.773  1.00  0.00     0.240 C 
ATOM     96  H   UNL     1      -8.741  -0.461   5.382  1.00  0.00     0.164 HD
ATOM     97  O   UNL     1     -10.461  -0.085   4.150  1.00  0.00    -0.273 OA
BRANCH  95  98
ATOM     98  C   UNL     1     -10.036  -1.796   2.515  1.00  0.00     0.219 C 
BRANCH  98  99
ATOM     99  N   UNL     1      -9.331  -1.647   1.238  1.00  0.00    -0.312 N 
ATOM    100  C   UNL     1      -9.019  -2.624   0.318  1.00  0.00     0.407 C 
ATOM    101  H   UNL     1      -9.045  -0.733   1.009  1.00  0.00     0.167 HD
ATOM    102  O   UNL     1      -8.159  -2.417  -0.528  1.00  0.00    -0.225 OA
BRANCH 100 103
ATOM    103  O   UNL     1      -9.653  -3.806   0.525  1.00  0.00    -0.445 OA
BRANCH 103 104
ATOM    104  C   UNL     1      -9.219  -5.008  -0.165  1.00  0.00     0.270 C 
BRANCH 104 105
ATOM    105  C   UNL     1      -8.980  -4.949  -1.657  1.00  0.00    -0.011 A 
ATOM    106  C   UNL     1      -7.684  -4.844  -2.192  1.00  0.00     0.007 A 
ATOM    107  C   UNL     1     -10.063  -5.013  -2.540  1.00  0.00     0.007 A 
ATOM    108  C   UNL     1      -7.482  -4.761  -3.572  1.00  0.00     0.000 A 
ATOM    109  C   UNL     1      -9.860  -4.945  -3.920  1.00  0.00     0.000 A 
ATOM    110  C   UNL     1      -8.572  -4.807  -4.436  1.00  0.00     0.000 A 
ENDBRANCH 104 105
ENDBRANCH 103 104
ENDBRANCH 100 103
ENDBRANCH  98  99
ENDBRANCH  95  98
ENDBRANCH  93  94
BRANCH  93 111
ATOM    111  C   UNL     1      -6.565  -2.486   3.693  1.00  0.00     0.015 C 
ATOM    112  C   UNL     1      -5.159  -2.981   4.138  1.00  0.00     0.010 C 
ATOM    113  C   UNL     1      -7.614  -3.460   3.220  1.00  0.00     0.010 C 
ENDBRANCH  93 111
ENDBRANCH  90  93
ENDBRANCH  87  89
ENDBRANCH  84  87
ENDBRANCH   1  83
TORSDOF 27
