REMARK SMILES Cc1nn([C@H]2CCS(=O)(=O)C2)c(C)c1/C=C(\CC(=O)NCCCCNC(=O)c1ccc(-c2c3nc(c(-c4cc(S(=O)(=O)[O-])ccc4F)c4ccc([nH]4)c(-c4cc(S(=O)(=O)[O-])ccc4F)c4nc(c(-c5cc(S(=O)(=O)[O-])ccc5F)c5ccc2[nH]5)C=C4)C=C3)cc1)c1nc2ccccc2s1
REMARK SMILES IDX 22 1 21 2 20 3 18 4 19 5 17 7 16 8 15 9 14 10 1 11 2 12 3 13
REMARK SMILES IDX 4 14 12 15 13 16 5 17 6 18 11 19 7 20 8 21 9 22 10 23 91 24
REMARK SMILES IDX 92 25 99 26 93 27 98 28 94 29 97 30 95 31 96 32 23 33 24 34
REMARK SMILES IDX 25 35 26 36 27 38 28 39 29 40 90 41 30 42 89 43 31 44 32 45
REMARK SMILES IDX 33 46 83 47 34 48 88 49 82 50 84 51 35 52 87 53 81 54 80 55
REMARK SMILES IDX 36 57 68 58 48 59 67 60 49 61 52 62 66 63 85 64 50 65 51 66
REMARK SMILES IDX 65 68 86 69 53 70 37 71 38 72 46 73 39 74 45 75 47 76 44 77
REMARK SMILES IDX 40 78 41 79 42 80 43 81 69 82 70 83 78 84 71 85 77 86 79 87
REMARK SMILES IDX 76 88 72 89 73 90 74 91 75 92 54 93 55 94 63 95 56 96 62 97
REMARK SMILES IDX 64 98 61 99 57 100 58 101 59 102 60 103
REMARK H PARENT 20 6 25 37 84 56 52 67
REMARK Flexibility Score: inf
ROOT
ATOM      1  C   UNL     1       1.582  -9.903   5.077  1.00  0.00     0.023 C 
ENDROOT
BRANCH   1   2
ATOM      2  C   UNL     1       1.355  -8.525   5.706  1.00  0.00     0.116 C 
BRANCH   2   3
ATOM      3  N   UNL     1       2.311  -8.267   6.765  1.00  0.00    -0.356 N 
ATOM      4  C   UNL     1       3.556  -7.714   6.661  1.00  0.00     0.224 C 
ATOM      5  O   UNL     1       4.336  -7.804   7.611  1.00  0.00    -0.275 OA
ATOM      6  H   UNL     1       2.028  -8.522   7.672  1.00  0.00     0.163 HD
BRANCH   4   7
ATOM      7  C   UNL     1       3.892  -6.876   5.434  1.00  0.00     0.138 C 
BRANCH   7   8
ATOM      8  C   UNL     1       4.217  -7.619   4.146  1.00  0.00    -0.002 C 
ATOM      9  C   UNL     1       3.599  -7.389   2.958  1.00  0.00     0.019 C 
BRANCH   9  10
ATOM     10  C   UNL     1       2.507  -6.486   2.715  1.00  0.00     0.019 A 
ATOM     11  C   UNL     1       1.073  -7.785   0.930  1.00  0.00     0.069 C 
ATOM     12  C   UNL     1       1.362  -6.701   1.902  1.00  0.00     0.067 A 
ATOM     13  N   UNL     1       0.452  -5.736   2.082  1.00  0.00    -0.177 NA
ATOM     14  N   UNL     1       1.011  -4.908   2.983  1.00  0.00    -0.265 N 
ATOM     15  C   UNL     1       2.357  -5.179   3.155  1.00  0.00     0.043 A 
ATOM     16  C   UNL     1       3.350  -4.219   3.711  1.00  0.00     0.067 C 
BRANCH  14  17
ATOM     17  C   UNL     1       0.170  -3.889   3.610  1.00  0.00     0.123 C 
ATOM     18  C   UNL     1      -1.252  -4.390   3.978  1.00  0.00     0.044 C 
ATOM     19  C   UNL     1       0.738  -3.389   4.924  1.00  0.00     0.164 C 
ATOM     20  C   UNL     1      -1.907  -3.319   4.850  1.00  0.00     0.139 C 
ATOM     21  S   UNL     1      -0.566  -2.554   5.740  1.00  0.00     0.152 S 
ATOM     22  O   UNL     1      -0.466  -1.164   5.381  1.00  0.00    -0.229 OA
ATOM     23  O   UNL     1      -0.513  -3.033   7.109  1.00  0.00    -0.229 OA
ENDBRANCH  14  17
ENDBRANCH   9  10
BRANCH   8  24
ATOM     24  C   UNL     1       5.195  -8.670   4.211  1.00  0.00     0.121 A 
ATOM     25  N   UNL     1       5.022  -9.787   4.886  1.00  0.00    -0.236 NA
ATOM     26  S   UNL     1       6.803  -8.442   3.628  1.00  0.00    -0.114 S 
ATOM     27  C   UNL     1       6.240 -10.310   5.260  1.00  0.00     0.082 A 
ATOM     28  C   UNL     1       7.350  -9.697   4.681  1.00  0.00     0.055 A 
ATOM     29  C   UNL     1       6.433 -11.336   6.205  1.00  0.00     0.030 A 
ATOM     30  C   UNL     1       8.659 -10.083   5.010  1.00  0.00     0.021 A 
ATOM     31  C   UNL     1       7.731 -11.675   6.595  1.00  0.00     0.002 A 
ATOM     32  C   UNL     1       8.828 -11.055   6.003  1.00  0.00     0.002 A 
ENDBRANCH   8  24
ENDBRANCH   7   8
ENDBRANCH   4   7
ENDBRANCH   2   3
ENDBRANCH   1   2
BRANCH   1  33
ATOM     33  C   UNL     1       1.404 -11.085   6.040  1.00  0.00     0.023 C 
BRANCH  33  34
ATOM     34  C   UNL     1      -0.049 -11.356   6.390  1.00  0.00     0.116 C 
BRANCH  34  35
ATOM     35  N   UNL     1      -0.819 -11.794   5.222  1.00  0.00    -0.352 N 
ATOM     36  C   UNL     1      -2.191 -11.918   5.101  1.00  0.00     0.251 C 
ATOM     37  H   UNL     1      -0.294 -12.030   4.424  1.00  0.00     0.163 HD
ATOM     38  O   UNL     1      -2.687 -12.635   4.240  1.00  0.00    -0.269 OA
BRANCH  36  39
ATOM     39  C   UNL     1      -3.031 -11.136   6.020  1.00  0.00     0.039 A 
ATOM     40  C   UNL     1      -4.157 -11.666   6.658  1.00  0.00     0.014 A 
ATOM     41  C   UNL     1      -2.608  -9.835   6.268  1.00  0.00     0.014 A 
ATOM     42  C   UNL     1      -4.818 -10.885   7.607  1.00  0.00     0.010 A 
ATOM     43  C   UNL     1      -3.130  -9.155   7.329  1.00  0.00     0.010 A 
ATOM     44  C   UNL     1      -4.290  -9.631   7.935  1.00  0.00    -0.014 A 
BRANCH  44  45
ATOM     45  C   UNL     1      -4.874  -8.747   8.937  1.00  0.00     0.031 A 
ATOM     46  C   UNL     1      -4.717  -9.195  10.348  1.00  0.00     0.074 A 
ATOM     47  C   UNL     1      -5.160  -7.467   8.602  1.00  0.00     0.049 A 
ATOM     48  N   UNL     1      -5.633  -9.515  11.201  1.00  0.00    -0.248 NA
ATOM     49  C   UNL     1      -3.352  -9.466  10.833  1.00  0.00     0.031 C 
ATOM     50  C   UNL     1      -4.973  -6.814   7.295  1.00  0.00     0.029 A 
ATOM     51  N   UNL     1      -5.522  -6.426   9.394  1.00  0.00    -0.354 N 
ATOM     52  C   UNL     1      -4.970  -9.790  12.399  1.00  0.00     0.074 A 
ATOM     53  C   UNL     1      -3.595  -9.988  12.036  1.00  0.00     0.031 C 
ATOM     54  C   UNL     1      -4.983  -5.471   7.448  1.00  0.00     0.029 A 
ATOM     55  C   UNL     1      -5.360  -5.166   8.816  1.00  0.00     0.049 A 
ATOM     56  H   UNL     1      -5.872  -6.550  10.305  1.00  0.00     0.167 HD
ATOM     57  C   UNL     1      -5.561  -9.572  13.610  1.00  0.00     0.034 A 
ATOM     58  C   UNL     1      -5.494  -3.958   9.428  1.00  0.00     0.034 A 
ATOM     59  C   UNL     1      -6.980  -9.334  13.438  1.00  0.00     0.049 A 
ATOM     60  C   UNL     1      -6.245  -4.202  10.682  1.00  0.00     0.074 A 
ATOM     61  C   UNL     1      -8.036 -10.067  12.932  1.00  0.00     0.029 A 
ATOM     62  N   UNL     1      -7.413  -8.024  13.449  1.00  0.00    -0.354 N 
ATOM     63  N   UNL     1      -7.483  -4.613  10.700  1.00  0.00    -0.248 NA
ATOM     64  C   UNL     1      -5.486  -4.479  11.894  1.00  0.00     0.031 C 
ATOM     65  C   UNL     1      -8.823  -9.122  12.207  1.00  0.00     0.029 A 
ATOM     66  C   UNL     1      -8.261  -7.855  12.382  1.00  0.00     0.049 A 
ATOM     67  H   UNL     1      -7.160  -7.334  14.104  1.00  0.00     0.167 HD
ATOM     68  C   UNL     1      -7.532  -5.564  11.708  1.00  0.00     0.074 A 
ATOM     69  C   UNL     1      -6.308  -5.355  12.482  1.00  0.00     0.031 C 
ATOM     70  C   UNL     1      -8.400  -6.617  11.639  1.00  0.00     0.034 A 
BRANCH  57  71
ATOM     71  C   UNL     1      -4.850  -9.179  14.899  1.00  0.00     0.023 A 
ATOM     72  C   UNL     1      -5.673  -8.841  15.994  1.00  0.00     0.031 A 
ATOM     73  C   UNL     1      -3.484  -8.855  15.057  1.00  0.00     0.131 A 
ATOM     74  C   UNL     1      -5.183  -8.089  17.076  1.00  0.00     0.055 A 
ATOM     75  C   UNL     1      -2.987  -8.159  16.166  1.00  0.00     0.041 A 
ATOM     76  F   UNL     1      -2.556  -9.122  14.136  1.00  0.00    -0.206 F 
ATOM     77  C   UNL     1      -3.844  -7.734  17.165  1.00  0.00     0.022 A 
BRANCH  74  78
ATOM     78  S   UNL     1      -6.378  -7.417  18.259  1.00  0.00     0.124 S 
ATOM     79  O   UNL     1      -7.341  -6.777  17.370  1.00  0.00    -0.237 OA
ATOM     80  O   UNL     1      -6.832  -8.624  18.942  1.00  0.00    -0.237 OA
ATOM     81  O   UNL     1      -5.573  -6.505  19.069  1.00  0.00    -0.744 OA
ENDBRANCH  74  78
ENDBRANCH  57  71
BRANCH  58  82
ATOM     82  C   UNL     1      -4.683  -2.732   9.197  1.00  0.00     0.023 A 
ATOM     83  C   UNL     1      -5.166  -1.418   9.382  1.00  0.00     0.031 A 
ATOM     84  C   UNL     1      -3.290  -2.879   9.037  1.00  0.00     0.131 A 
ATOM     85  C   UNL     1      -4.267  -0.321   9.389  1.00  0.00     0.055 A 
ATOM     86  C   UNL     1      -2.411  -1.796   9.077  1.00  0.00     0.041 A 
ATOM     87  F   UNL     1      -2.741  -4.099   8.919  1.00  0.00    -0.206 F 
ATOM     88  C   UNL     1      -2.894  -0.509   9.235  1.00  0.00     0.022 A 
BRANCH  85  89
ATOM     89  S   UNL     1      -4.859   1.378   9.680  1.00  0.00     0.124 S 
ATOM     90  O   UNL     1      -5.842   1.558   8.618  1.00  0.00    -0.237 OA
ATOM     91  O   UNL     1      -5.380   1.293  11.039  1.00  0.00    -0.237 OA
ATOM     92  O   UNL     1      -3.652   2.195   9.538  1.00  0.00    -0.744 OA
ENDBRANCH  85  89
ENDBRANCH  58  82
BRANCH  70  93
ATOM     93  C   UNL     1      -9.469  -6.585  10.562  1.00  0.00     0.023 A 
ATOM     94  C   UNL     1      -9.215  -6.567   9.169  1.00  0.00     0.031 A 
ATOM     95  C   UNL     1     -10.804  -6.713  10.977  1.00  0.00     0.131 A 
ATOM     96  C   UNL     1     -10.281  -6.670   8.254  1.00  0.00     0.055 A 
ATOM     97  C   UNL     1     -11.854  -6.836  10.069  1.00  0.00     0.041 A 
ATOM     98  F   UNL     1     -11.106  -6.767  12.285  1.00  0.00    -0.206 F 
ATOM     99  C   UNL     1     -11.598  -6.810   8.703  1.00  0.00     0.022 A 
BRANCH  96 100
ATOM    100  S   UNL     1      -9.977  -6.617   6.456  1.00  0.00     0.124 S 
ATOM    101  O   UNL     1      -9.108  -5.458   6.287  1.00  0.00    -0.237 OA
ATOM    102  O   UNL     1      -9.363  -7.917   6.199  1.00  0.00    -0.237 OA
ATOM    103  O   UNL     1     -11.318  -6.459   5.889  1.00  0.00    -0.744 OA
ENDBRANCH  96 100
ENDBRANCH  70  93
ENDBRANCH  44  45
ENDBRANCH  36  39
ENDBRANCH  34  35
ENDBRANCH  33  34
ENDBRANCH   1  33
TORSDOF 18
