REMARK SMILES O=C(NCCCCNC(=O)c1ccc([C@@H]2CC(O)=Nc3c2c(=O)[nH]n3C2CCCCCCC2)cc1)c1ccc(-c2c3nc(c(-c4cc(S(=O)(=O)[O-])ccc4F)c4ccc([nH]4)c(-c4cc(S(=O)(=O)[O-])ccc4F)c4nc(c(-c5cc(S(=O)(=O)[O-])ccc5F)c5ccc2[nH]5)C=C4)C=C3)cc1
REMARK SMILES IDX 7 1 6 2 5 3 4 4 3 5 1 6 2 7 36 9 37 10 98 11 38 12 97 13
REMARK SMILES IDX 39 14 40 15 41 16 91 17 42 18 96 19 90 20 92 21 43 22 95 23
REMARK SMILES IDX 89 24 88 25 44 27 76 28 56 29 75 30 57 31 60 32 74 33 93 34
REMARK SMILES IDX 58 35 59 36 73 38 94 39 61 40 45 41 46 42 54 43 47 44 53 45
REMARK SMILES IDX 55 46 52 47 48 48 49 49 50 50 51 51 77 52 78 53 86 54 79 55
REMARK SMILES IDX 85 56 87 57 84 58 80 59 81 60 82 61 83 62 62 63 63 64 71 65
REMARK SMILES IDX 64 66 70 67 72 68 69 69 65 70 66 71 67 72 68 73 8 74 9 75
REMARK SMILES IDX 10 77 11 78 12 79 35 80 13 81 34 82 14 83 15 84 16 85 21 86
REMARK SMILES IDX 17 87 20 88 22 89 19 90 25 91 23 92 24 93 18 95 26 97 27 98
REMARK SMILES IDX 28 99 29 100 33 102 32 103 31 104 30 105
REMARK H PARENT 3 8 92 26 60 37 8 76 24 94 18 96
REMARK Flexibility Score: 80.00
ROOT
ATOM      1  C   UNL     1       4.861   0.781   3.874  1.00  0.00     0.116 C 
ENDROOT
BRANCH   1   2
ATOM      2  C   UNL     1       4.414   1.845   2.875  1.00  0.00     0.023 C 
BRANCH   2   3
ATOM      3  C   UNL     1       4.887   1.666   1.429  1.00  0.00     0.023 C 
BRANCH   3   4
ATOM      4  C   UNL     1       4.559   0.323   0.778  1.00  0.00     0.116 C 
BRANCH   4   5
ATOM      5  N   UNL     1       3.152  -0.023   0.767  1.00  0.00    -0.352 N 
ATOM      6  O   UNL     1       1.073  -0.419   0.164  1.00  0.00    -0.269 OA
ATOM      7  C   UNL     1       2.095   0.237  -0.065  1.00  0.00     0.251 C 
ATOM      8  H   UNL     1       2.895  -0.576   1.540  1.00  0.00     0.163 HD
BRANCH   7   9
ATOM      9  C   UNL     1       2.066   1.246  -1.165  1.00  0.00     0.039 A 
ATOM     10  C   UNL     1       3.160   1.956  -1.657  1.00  0.00     0.014 A 
ATOM     11  C   UNL     1       0.802   1.500  -1.740  1.00  0.00     0.014 A 
ATOM     12  C   UNL     1       2.988   2.917  -2.659  1.00  0.00     0.010 A 
ATOM     13  C   UNL     1       0.626   2.456  -2.744  1.00  0.00     0.010 A 
ATOM     14  C   UNL     1       1.721   3.180  -3.199  1.00  0.00    -0.014 A 
BRANCH  14  15
ATOM     15  C   UNL     1       1.637   4.065  -4.367  1.00  0.00     0.031 A 
ATOM     16  C   UNL     1       2.330   3.549  -5.581  1.00  0.00     0.074 A 
ATOM     17  C   UNL     1       0.909   5.196  -4.482  1.00  0.00     0.049 A 
ATOM     18  N   UNL     1       3.387   4.024  -6.151  1.00  0.00    -0.248 NA
ATOM     19  C   UNL     1       1.849   2.292  -6.168  1.00  0.00     0.031 C 
ATOM     20  C   UNL     1      -0.075   5.733  -3.544  1.00  0.00     0.029 A 
ATOM     21  N   UNL     1       0.849   6.074  -5.533  1.00  0.00    -0.354 N 
ATOM     22  C   UNL     1       3.588   3.260  -7.298  1.00  0.00     0.074 A 
ATOM     23  C   UNL     1       2.716   2.122  -7.167  1.00  0.00     0.031 C 
ATOM     24  C   UNL     1      -0.770   6.726  -4.148  1.00  0.00     0.029 A 
ATOM     25  C   UNL     1      -0.201   6.985  -5.463  1.00  0.00     0.049 A 
ATOM     26  H   UNL     1       1.495   6.061  -6.276  1.00  0.00     0.167 HD
ATOM     27  C   UNL     1       4.314   3.733  -8.351  1.00  0.00     0.034 A 
ATOM     28  C   UNL     1      -0.605   7.863  -6.422  1.00  0.00     0.034 A 
ATOM     29  C   UNL     1       5.133   4.860  -7.956  1.00  0.00     0.049 A 
ATOM     30  C   UNL     1       0.545   8.105  -7.324  1.00  0.00     0.074 A 
ATOM     31  C   UNL     1       6.090   5.067  -6.979  1.00  0.00     0.029 A 
ATOM     32  N   UNL     1       4.778   6.120  -8.383  1.00  0.00    -0.354 N 
ATOM     33  N   UNL     1       1.623   8.743  -6.964  1.00  0.00    -0.248 NA
ATOM     34  C   UNL     1       0.683   7.281  -8.514  1.00  0.00     0.031 C 
ATOM     35  C   UNL     1       5.861   6.397  -6.516  1.00  0.00     0.029 A 
ATOM     36  C   UNL     1       4.833   6.943  -7.286  1.00  0.00     0.049 A 
ATOM     37  H   UNL     1       4.531   6.381  -9.300  1.00  0.00     0.167 HD
ATOM     38  C   UNL     1       2.660   8.078  -7.594  1.00  0.00     0.074 A 
ATOM     39  C   UNL     1       2.014   7.262  -8.619  1.00  0.00     0.031 C 
ATOM     40  C   UNL     1       3.912   8.037  -7.049  1.00  0.00     0.034 A 
BRANCH  27  41
ATOM     41  C   UNL     1       4.045   3.417  -9.810  1.00  0.00     0.023 A 
ATOM     42  C   UNL     1       4.869   4.046 -10.765  1.00  0.00     0.031 A 
ATOM     43  C   UNL     1       2.880   2.804 -10.322  1.00  0.00     0.131 A 
ATOM     44  C   UNL     1       4.462   4.176 -12.104  1.00  0.00     0.055 A 
ATOM     45  C   UNL     1       2.519   2.866 -11.673  1.00  0.00     0.041 A 
ATOM     46  F   UNL     1       1.980   2.192  -9.546  1.00  0.00    -0.206 F 
ATOM     47  C   UNL     1       3.289   3.590 -12.566  1.00  0.00     0.022 A 
BRANCH  44  48
ATOM     48  S   UNL     1       5.390   5.308 -13.171  1.00  0.00     0.124 S 
ATOM     49  O   UNL     1       5.364   6.534 -12.379  1.00  0.00    -0.237 OA
ATOM     50  O   UNL     1       6.680   4.634 -13.273  1.00  0.00    -0.237 OA
ATOM     51  O   UNL     1       4.601   5.339 -14.400  1.00  0.00    -0.744 OA
ENDBRANCH  44  48
ENDBRANCH  27  41
BRANCH  28  52
ATOM     52  C   UNL     1      -1.989   8.314  -6.742  1.00  0.00     0.023 A 
ATOM     53  C   UNL     1      -2.264   9.466  -7.514  1.00  0.00     0.031 A 
ATOM     54  C   UNL     1      -3.075   7.446  -6.495  1.00  0.00     0.131 A 
ATOM     55  C   UNL     1      -3.573   9.706  -7.999  1.00  0.00     0.055 A 
ATOM     56  C   UNL     1      -4.366   7.691  -6.970  1.00  0.00     0.041 A 
ATOM     57  F   UNL     1      -2.901   6.278  -5.858  1.00  0.00    -0.206 F 
ATOM     58  C   UNL     1      -4.618   8.819  -7.733  1.00  0.00     0.022 A 
BRANCH  55  59
ATOM     59  S   UNL     1      -3.919  11.128  -9.088  1.00  0.00     0.124 S 
ATOM     60  O   UNL     1      -3.835  12.254  -8.166  1.00  0.00    -0.237 OA
ATOM     61  O   UNL     1      -2.863  11.025 -10.088  1.00  0.00    -0.237 OA
ATOM     62  O   UNL     1      -5.264  10.850  -9.594  1.00  0.00    -0.744 OA
ENDBRANCH  55  59
ENDBRANCH  28  52
BRANCH  40  63
ATOM     63  C   UNL     1       4.279   9.031  -5.966  1.00  0.00     0.023 A 
ATOM     64  C   UNL     1       3.536   9.262  -4.788  1.00  0.00     0.031 A 
ATOM     65  C   UNL     1       5.505   9.709  -6.104  1.00  0.00     0.131 A 
ATOM     66  C   UNL     1       4.018  10.159  -3.814  1.00  0.00     0.055 A 
ATOM     67  C   UNL     1       5.991  10.577  -5.127  1.00  0.00     0.041 A 
ATOM     68  F   UNL     1       6.274   9.518  -7.189  1.00  0.00    -0.206 F 
ATOM     69  C   UNL     1       5.243  10.813  -3.981  1.00  0.00     0.022 A 
BRANCH  66  70
ATOM     70  S   UNL     1       3.044  10.518  -2.318  1.00  0.00     0.124 S 
ATOM     71  O   UNL     1       1.684  10.674  -2.819  1.00  0.00    -0.237 OA
ATOM     72  O   UNL     1       3.291   9.336  -1.495  1.00  0.00    -0.237 OA
ATOM     73  O   UNL     1       3.650  11.749  -1.808  1.00  0.00    -0.744 OA
ENDBRANCH  66  70
ENDBRANCH  40  63
ENDBRANCH  14  15
ENDBRANCH   7   9
ENDBRANCH   4   5
ENDBRANCH   3   4
ENDBRANCH   2   3
ENDBRANCH   1   2
BRANCH   1  74
ATOM     74  N   UNL     1       6.308   0.684   4.008  1.00  0.00    -0.352 N 
ATOM     75  C   UNL     1       7.091   0.756   5.135  1.00  0.00     0.251 C 
ATOM     76  H   UNL     1       6.798   0.546   3.166  1.00  0.00     0.163 HD
ATOM     77  O   UNL     1       8.316   0.732   5.045  1.00  0.00    -0.269 OA
BRANCH  75  78
ATOM     78  C   UNL     1       6.469   0.879   6.469  1.00  0.00     0.039 A 
ATOM     79  C   UNL     1       6.885   1.912   7.312  1.00  0.00     0.014 A 
ATOM     80  C   UNL     1       5.497  -0.026   6.897  1.00  0.00     0.014 A 
ATOM     81  C   UNL     1       6.269   2.088   8.552  1.00  0.00     0.005 A 
ATOM     82  C   UNL     1       4.874   0.157   8.131  1.00  0.00     0.005 A 
ATOM     83  C   UNL     1       5.242   1.225   8.970  1.00  0.00    -0.040 A 
BRANCH  83  84
ATOM     84  C   UNL     1       4.533   1.487  10.291  1.00  0.00     0.068 C 
ATOM     85  C   UNL     1       4.648   0.295  11.255  1.00  0.00     0.110 C 
ATOM     86  C   UNL     1       3.104   1.810  10.102  1.00  0.00     0.071 A 
ATOM     87  C   UNL     1       3.481  -0.648  11.102  1.00  0.00     0.188 C 
ATOM     88  C   UNL     1       2.086   0.958  10.315  1.00  0.00     0.160 A 
ATOM     89  C   UNL     1       2.511   3.104   9.735  1.00  0.00     0.270 A 
ATOM     90  N   UNL     1       2.302  -0.345  10.672  1.00  0.00    -0.198 NA
ATOM     91  N   UNL     1       0.881   1.611  10.112  1.00  0.00    -0.264 N 
ATOM     92  O   UNL     1       3.134   4.128   9.491  1.00  0.00    -0.268 OA
ATOM     93  N   UNL     1       1.146   2.922   9.748  1.00  0.00    -0.262 N 
ATOM     94  H   UNL     1       0.472   3.608   9.536  1.00  0.00     0.191 HD
BRANCH  87  95
ATOM     95  O   UNL     1       3.709  -1.907  11.518  1.00  0.00    -0.496 OA
ATOM     96  H   UNL     1       4.558  -2.149  11.834  1.00  0.00     0.294 HD
ENDBRANCH  87  95
BRANCH  91  97
ATOM     97  C   UNL     1      -0.495   1.148  10.306  1.00  0.00     0.107 C 
BRANCH  97  98
ATOM     98  C   UNL     1      -0.741  -0.097   9.448  1.00  0.00     0.027 C 
BRANCH  98  99
ATOM     99  C   UNL     1      -2.122  -0.736   9.541  1.00  0.00     0.002 C 
BRANCH  99 100
ATOM    100  C   UNL     1      -2.495  -1.433  10.850  1.00  0.00     0.000 CG0
ATOM    101  G   UNL     1      -1.344  -2.071  11.627  1.00  0.00     0.000 G0
ENDBRANCH  99 100
ENDBRANCH  98  99
ENDBRANCH  97  98
BRANCH  97 102
ATOM    102  C   UNL     1      -0.866   1.108  11.804  1.00  0.00     0.027 C 
BRANCH 102 103
ATOM    103  C   UNL     1      -0.236   0.045  12.708  1.00  0.00     0.002 C 
BRANCH 103 104
ATOM    104  C   UNL     1      -0.960  -1.290  12.880  1.00  0.00     0.000 C 
BRANCH 104 105
ATOM    105  C   UNL     1      -1.344  -2.071  11.627  1.00  0.00     0.000 CG0
ATOM    106  G   UNL     1      -2.495  -1.433  10.850  1.00  0.00     0.000 G0
ENDBRANCH 104 105
ENDBRANCH 103 104
ENDBRANCH 102 103
ENDBRANCH  97 102
ENDBRANCH  91  97
ENDBRANCH  83  84
ENDBRANCH  75  78
ENDBRANCH   1  74
TORSDOF 17
