REMARK SMILES CC[C@H](CCC1CC1)C(=O)NCCCCNC(=O)c1ccc(-c2c3nc(c(-c4cc(S(=O)(=O)[O-])ccc4F)c4ccc([nH]4)c(-c4cc(S(=O)(=O)[O-])ccc4F)c4nc(c(-c5cc(S(=O)(=O)[O-])ccc5F)c5ccc2[nH]5)C=C4)C=C3)cc1
REMARK SMILES IDX 13 1 12 2 11 3 9 4 10 5 3 7 2 8 1 9 4 10 5 11 6 12 7 13 8 14
REMARK SMILES IDX 14 15 15 16 16 17 17 18 18 20 19 21 20 22 81 23 21 24 80 25
REMARK SMILES IDX 22 26 23 27 24 28 74 29 25 30 79 31 73 32 75 33 26 34 78 35
REMARK SMILES IDX 72 36 71 37 27 39 59 40 39 41 58 42 40 43 43 44 57 45 76 46
REMARK SMILES IDX 41 47 42 48 56 50 77 51 44 52 28 53 29 54 37 55 30 56 36 57
REMARK SMILES IDX 38 58 35 59 31 60 32 61 33 62 34 63 60 64 61 65 69 66 62 67
REMARK SMILES IDX 68 68 70 69 67 70 63 71 64 72 65 73 66 74 45 75 46 76 54 77
REMARK SMILES IDX 47 78 53 79 55 80 52 81 48 82 49 83 50 84 51 85
REMARK H PARENT 11 6 16 19 75 38 43 49
REMARK Flexibility Score: inf
ROOT
ATOM      1  C   UNL     1      -2.799  -2.889   0.368  1.00  0.00     0.023 C 
ENDROOT
BRANCH   1   2
ATOM      2  C   UNL     1      -2.148  -2.453   1.678  1.00  0.00     0.116 C 
BRANCH   2   3
ATOM      3  N   UNL     1      -1.054  -3.309   2.090  1.00  0.00    -0.356 N 
ATOM      4  C   UNL     1       0.273  -3.029   2.211  1.00  0.00     0.223 C 
ATOM      5  O   UNL     1       0.985  -3.850   2.797  1.00  0.00    -0.275 OA
ATOM      6  H   UNL     1      -1.309  -4.232   2.316  1.00  0.00     0.163 HD
BRANCH   4   7
ATOM      7  C   UNL     1       0.874  -1.720   1.698  1.00  0.00     0.078 C 
BRANCH   7   8
ATOM      8  C   UNL     1       0.467  -0.585   2.676  1.00  0.00     0.010 C 
ATOM      9  C   UNL     1      -0.048   0.719   2.088  1.00  0.00     0.005 C 
ENDBRANCH   7   8
BRANCH   7  10
ATOM     10  C   UNL     1       0.667  -1.488   0.183  1.00  0.00     0.014 C 
BRANCH  10  11
ATOM     11  C   UNL     1       1.750  -2.121  -0.704  1.00  0.00     0.004 C 
BRANCH  11  12
ATOM     12  C   UNL     1       1.463  -3.486  -1.264  1.00  0.00    -0.011 C 
ATOM     13  C   UNL     1       2.534  -4.538  -1.076  1.00  0.00     0.004 C 
ATOM     14  C   UNL     1       1.173  -4.749  -0.491  1.00  0.00     0.004 C 
ENDBRANCH  11  12
ENDBRANCH  10  11
ENDBRANCH   7  10
ENDBRANCH   4   7
ENDBRANCH   2   3
ENDBRANCH   1   2
BRANCH   1  15
ATOM     15  C   UNL     1      -3.579  -4.199   0.427  1.00  0.00     0.023 C 
BRANCH  15  16
ATOM     16  C   UNL     1      -4.613  -4.295   1.540  1.00  0.00     0.116 C 
BRANCH  16  17
ATOM     17  N   UNL     1      -5.559  -3.190   1.554  1.00  0.00    -0.352 N 
ATOM     18  C   UNL     1      -6.911  -3.220   1.803  1.00  0.00     0.251 C 
ATOM     19  H   UNL     1      -5.181  -2.302   1.359  1.00  0.00     0.163 HD
ATOM     20  O   UNL     1      -7.579  -2.197   1.682  1.00  0.00    -0.269 OA
BRANCH  18  21
ATOM     21  C   UNL     1      -7.552  -4.501   2.167  1.00  0.00     0.039 A 
ATOM     22  C   UNL     1      -8.709  -4.893   1.491  1.00  0.00     0.014 A 
ATOM     23  C   UNL     1      -6.979  -5.335   3.131  1.00  0.00     0.014 A 
ATOM     24  C   UNL     1      -9.251  -6.158   1.730  1.00  0.00     0.010 A 
ATOM     25  C   UNL     1      -7.471  -6.623   3.305  1.00  0.00     0.010 A 
ATOM     26  C   UNL     1      -8.613  -7.048   2.609  1.00  0.00    -0.014 A 
BRANCH  26  27
ATOM     27  C   UNL     1      -9.132  -8.422   2.831  1.00  0.00     0.031 A 
ATOM     28  C   UNL     1      -9.610  -8.827   4.198  1.00  0.00     0.074 A 
ATOM     29  C   UNL     1      -9.100  -9.322   1.829  1.00  0.00     0.049 A 
ATOM     30  N   UNL     1     -10.012  -9.996   4.625  1.00  0.00    -0.248 NA
ATOM     31  C   UNL     1      -9.595  -7.781   5.232  1.00  0.00     0.031 C 
ATOM     32  C   UNL     1      -8.613  -9.062   0.473  1.00  0.00     0.029 A 
ATOM     33  N   UNL     1      -9.477 -10.641   1.798  1.00  0.00    -0.354 N 
ATOM     34  C   UNL     1     -10.278  -9.832   5.981  1.00  0.00     0.074 A 
ATOM     35  C   UNL     1      -9.920  -8.469   6.314  1.00  0.00     0.031 C 
ATOM     36  C   UNL     1      -8.747 -10.177  -0.264  1.00  0.00     0.029 A 
ATOM     37  C   UNL     1      -9.288 -11.242   0.576  1.00  0.00     0.049 A 
ATOM     38  H   UNL     1      -9.848 -11.113   2.579  1.00  0.00     0.167 HD
ATOM     39  C   UNL     1     -10.798 -10.726   6.860  1.00  0.00     0.034 A 
ATOM     40  C   UNL     1      -9.519 -12.509   0.179  1.00  0.00     0.034 A 
ATOM     41  C   UNL     1     -11.162 -12.075   6.503  1.00  0.00     0.049 A 
ATOM     42  C   UNL     1     -10.088 -13.490   1.171  1.00  0.00     0.074 A 
ATOM     43  C   UNL     1     -11.749 -13.049   7.293  1.00  0.00     0.029 A 
ATOM     44  N   UNL     1     -10.968 -12.646   5.251  1.00  0.00    -0.354 N 
ATOM     45  N   UNL     1     -10.382 -13.308   2.438  1.00  0.00    -0.248 NA
ATOM     46  C   UNL     1     -10.365 -14.844   0.675  1.00  0.00     0.031 C 
ATOM     47  C   UNL     1     -11.851 -14.224   6.538  1.00  0.00     0.029 A 
ATOM     48  C   UNL     1     -11.397 -13.965   5.254  1.00  0.00     0.049 A 
ATOM     49  H   UNL     1     -10.581 -12.182   4.474  1.00  0.00     0.167 HD
ATOM     50  C   UNL     1     -10.911 -14.517   2.881  1.00  0.00     0.074 A 
ATOM     51  C   UNL     1     -10.902 -15.415   1.744  1.00  0.00     0.031 C 
ATOM     52  C   UNL     1     -11.370 -14.852   4.114  1.00  0.00     0.034 A 
BRANCH  39  53
ATOM     53  C   UNL     1     -10.970 -10.264   8.289  1.00  0.00     0.023 A 
ATOM     54  C   UNL     1     -11.799  -9.175   8.617  1.00  0.00     0.031 A 
ATOM     55  C   UNL     1     -10.248 -10.875   9.329  1.00  0.00     0.131 A 
ATOM     56  C   UNL     1     -11.804  -8.667   9.925  1.00  0.00     0.055 A 
ATOM     57  C   UNL     1     -10.333 -10.423  10.649  1.00  0.00     0.041 A 
ATOM     58  F   UNL     1      -9.426 -11.905   9.079  1.00  0.00    -0.206 F 
ATOM     59  C   UNL     1     -11.097  -9.299  10.949  1.00  0.00     0.022 A 
BRANCH  56  60
ATOM     60  S   UNL     1     -12.600  -7.064  10.223  1.00  0.00     0.124 S 
ATOM     61  O   UNL     1     -11.877  -6.199   9.293  1.00  0.00    -0.237 OA
ATOM     62  O   UNL     1     -13.993  -7.337   9.889  1.00  0.00    -0.237 OA
ATOM     63  O   UNL     1     -12.334  -6.806  11.636  1.00  0.00    -0.744 OA
ENDBRANCH  56  60
ENDBRANCH  39  53
BRANCH  40  64
ATOM     64  C   UNL     1      -9.223 -12.923  -1.221  1.00  0.00     0.023 A 
ATOM     65  C   UNL     1     -10.258 -13.271  -2.103  1.00  0.00     0.031 A 
ATOM     66  C   UNL     1      -7.901 -12.998  -1.691  1.00  0.00     0.131 A 
ATOM     67  C   UNL     1      -9.953 -13.715  -3.399  1.00  0.00     0.055 A 
ATOM     68  C   UNL     1      -7.604 -13.397  -2.996  1.00  0.00     0.041 A 
ATOM     69  F   UNL     1      -6.875 -12.666  -0.890  1.00  0.00    -0.206 F 
ATOM     70  C   UNL     1      -8.634 -13.769  -3.855  1.00  0.00     0.022 A 
BRANCH  67  71
ATOM     71  S   UNL     1     -11.308 -14.277  -4.466  1.00  0.00     0.124 S 
ATOM     72  O   UNL     1     -11.857 -15.384  -3.691  1.00  0.00    -0.237 OA
ATOM     73  O   UNL     1     -12.139 -13.082  -4.556  1.00  0.00    -0.237 OA
ATOM     74  O   UNL     1     -10.630 -14.656  -5.704  1.00  0.00    -0.744 OA
ENDBRANCH  67  71
ENDBRANCH  40  64
BRANCH  52  75
ATOM     75  C   UNL     1     -11.947 -16.238   4.276  1.00  0.00     0.023 A 
ATOM     76  C   UNL     1     -11.146 -17.390   4.188  1.00  0.00     0.031 A 
ATOM     77  C   UNL     1     -13.324 -16.404   4.508  1.00  0.00     0.131 A 
ATOM     78  C   UNL     1     -11.738 -18.659   4.277  1.00  0.00     0.055 A 
ATOM     79  C   UNL     1     -13.897 -17.668   4.654  1.00  0.00     0.041 A 
ATOM     80  F   UNL     1     -14.135 -15.338   4.598  1.00  0.00    -0.206 F 
ATOM     81  C   UNL     1     -13.105 -18.805   4.526  1.00  0.00     0.022 A 
BRANCH  78  82
ATOM     82  S   UNL     1     -10.710 -20.123   3.973  1.00  0.00     0.124 S 
ATOM     83  O   UNL     1     -10.213 -19.870   2.624  1.00  0.00    -0.237 OA
ATOM     84  O   UNL     1      -9.722 -20.039   5.043  1.00  0.00    -0.237 OA
ATOM     85  O   UNL     1     -11.654 -21.234   4.088  1.00  0.00    -0.744 OA
ENDBRANCH  78  82
ENDBRANCH  52  75
ENDBRANCH  26  27
ENDBRANCH  18  21
ENDBRANCH  16  17
ENDBRANCH  15  16
ENDBRANCH   1  15
TORSDOF 18
