REMARK SMILES O=C(CCC1CC[NH+]([C@H]2CCO[C@@]3(CCSC3)C2)CC1)NCCCCNC(=O)c1ccc(-c2c3nc(c(-c4cc(S(=O)(=O)[O-])ccc4F)c4ccc([nH]4)c(-c4cc(S(=O)(=O)[O-])ccc4F)c4nc(c(-c5cc(S(=O)(=O)[O-])ccc5F)c5ccc2[nH]5)C=C4)C=C3)cc1
REMARK SMILES IDX 23 1 22 2 21 3 1 4 2 5 3 7 4 8 5 9 6 10 20 11 7 12 19 13
REMARK SMILES IDX 8 14 9 16 10 17 18 18 11 19 13 20 12 21 14 22 17 23 15 24
REMARK SMILES IDX 16 25 24 26 25 27 26 28 27 29 28 31 29 32 30 33 91 34 31 35
REMARK SMILES IDX 90 36 32 37 33 38 34 39 84 40 35 41 89 42 83 43 85 44 36 45
REMARK SMILES IDX 88 46 82 47 81 48 37 50 69 51 49 52 68 53 50 54 53 55 67 56
REMARK SMILES IDX 86 57 51 58 52 59 66 61 87 62 54 63 38 64 39 65 47 66 40 67
REMARK SMILES IDX 46 68 48 69 45 70 41 71 42 72 43 73 44 74 70 75 71 76 79 77
REMARK SMILES IDX 72 78 78 79 80 80 77 81 73 82 74 83 75 84 76 85 55 86 56 87
REMARK SMILES IDX 64 88 57 89 63 90 65 91 62 92 58 93 59 94 60 95 61 96
REMARK H PARENT 21 6 8 15 26 30 85 49 53 60
REMARK Flexibility Score: inf
ROOT
ATOM      1  C   UNL     1       6.551   3.664   0.486  1.00  0.00     0.023 C 
ENDROOT
BRANCH   1   2
ATOM      2  C   UNL     1       5.672   4.339   1.549  1.00  0.00     0.116 C 
BRANCH   2   3
ATOM      3  N   UNL     1       4.845   3.427   2.329  1.00  0.00    -0.356 N 
ATOM      4  O   UNL     1       4.162   5.044   3.808  1.00  0.00    -0.275 OA
ATOM      5  C   UNL     1       4.092   3.889   3.395  1.00  0.00     0.220 C 
ATOM      6  H   UNL     1       4.821   2.471   2.095  1.00  0.00     0.163 HD
BRANCH   5   7
ATOM      7  C   UNL     1       3.172   2.870   4.053  1.00  0.00     0.100 C 
BRANCH   7   8
ATOM      8  C   UNL     1       1.709   3.325   4.169  1.00  0.00     0.014 C 
BRANCH   8   9
ATOM      9  C   UNL     1       0.739   3.188   2.969  1.00  0.00     0.000 C 
ATOM     10  C   UNL     1       0.777   1.826   2.270  1.00  0.00     0.065 C 
ATOM     11  C   UNL     1       0.793   4.342   1.957  1.00  0.00     0.065 C 
ATOM     12  C   UNL     1       1.869   1.727   1.219  1.00  0.00     0.262 C 
ATOM     13  C   UNL     1       1.802   4.156   0.831  1.00  0.00     0.262 C 
ATOM     14  N   UNL     1       1.843   2.819   0.257  1.00  0.00    -0.332 N 
ATOM     15  H   UNL     1       2.770   2.855  -0.167  1.00  0.00     0.348 HD
BRANCH  14  16
ATOM     16  C   UNL     1       0.966   2.538  -0.876  1.00  0.00     0.189 C 
ATOM     17  C   UNL     1      -0.442   3.129  -0.939  1.00  0.00     0.093 C 
ATOM     18  C   UNL     1       1.710   2.946  -2.136  1.00  0.00     0.101 C 
ATOM     19  C   UNL     1      -1.124   2.631  -2.215  1.00  0.00     0.167 C 
ATOM     20  C   UNL     1       0.972   2.377  -3.361  1.00  0.00     0.084 C 
ATOM     21  O   UNL     1      -0.354   2.919  -3.381  1.00  0.00    -0.374 OA
ATOM     22  C   UNL     1       1.693   2.827  -4.620  1.00  0.00     0.047 C 
ATOM     23  C   UNL     1       1.002   0.841  -3.501  1.00  0.00     0.105 C 
ATOM     24  C   UNL     1       3.024   2.089  -4.644  1.00  0.00     0.072 C 
ATOM     25  S   UNL     1       2.700   0.437  -3.987  1.00  0.00    -0.159 SA
ENDBRANCH  14  16
ENDBRANCH   8   9
ENDBRANCH   7   8
ENDBRANCH   5   7
ENDBRANCH   2   3
ENDBRANCH   1   2
BRANCH   1  26
ATOM     26  C   UNL     1       5.847   3.135  -0.781  1.00  0.00     0.023 C 
BRANCH  26  27
ATOM     27  C   UNL     1       5.370   4.164  -1.835  1.00  0.00     0.116 C 
BRANCH  27  28
ATOM     28  N   UNL     1       6.449   4.825  -2.560  1.00  0.00    -0.352 N 
ATOM     29  C   UNL     1       6.640   5.120  -3.899  1.00  0.00     0.251 C 
ATOM     30  H   UNL     1       7.189   5.121  -1.982  1.00  0.00     0.163 HD
ATOM     31  O   UNL     1       7.704   5.654  -4.219  1.00  0.00    -0.269 OA
BRANCH  29  32
ATOM     32  C   UNL     1       5.662   4.808  -4.984  1.00  0.00     0.039 A 
ATOM     33  C   UNL     1       6.101   4.109  -6.118  1.00  0.00     0.014 A 
ATOM     34  C   UNL     1       4.370   5.321  -5.015  1.00  0.00     0.014 A 
ATOM     35  C   UNL     1       5.226   3.814  -7.197  1.00  0.00     0.010 A 
ATOM     36  C   UNL     1       3.497   4.997  -6.090  1.00  0.00     0.010 A 
ATOM     37  C   UNL     1       3.864   4.158  -7.170  1.00  0.00    -0.014 A 
BRANCH  37  38
ATOM     38  C   UNL     1       2.830   3.537  -8.133  1.00  0.00     0.031 A 
ATOM     39  C   UNL     1       1.646   4.326  -8.697  1.00  0.00     0.074 A 
ATOM     40  C   UNL     1       2.796   2.197  -8.393  1.00  0.00     0.049 A 
ATOM     41  N   UNL     1       0.599   3.896  -9.374  1.00  0.00    -0.248 NA
ATOM     42  C   UNL     1       1.617   5.769  -8.438  1.00  0.00     0.031 C 
ATOM     43  C   UNL     1       3.747   1.189  -7.918  1.00  0.00     0.029 A 
ATOM     44  N   UNL     1       1.859   1.429  -9.074  1.00  0.00    -0.354 N 
ATOM     45  C   UNL     1      -0.214   5.006  -9.597  1.00  0.00     0.074 A 
ATOM     46  C   UNL     1       0.411   6.101  -8.879  1.00  0.00     0.031 C 
ATOM     47  C   UNL     1       3.312  -0.040  -8.235  1.00  0.00     0.029 A 
ATOM     48  C   UNL     1       2.066   0.065  -8.980  1.00  0.00     0.049 A 
ATOM     49  H   UNL     1       1.112   1.822  -9.580  1.00  0.00     0.167 HD
ATOM     50  C   UNL     1      -1.327   5.147 -10.373  1.00  0.00     0.034 A 
ATOM     51  C   UNL     1       1.373  -1.007  -9.424  1.00  0.00     0.034 A 
ATOM     52  C   UNL     1      -1.946   4.106 -11.164  1.00  0.00     0.049 A 
ATOM     53  C   UNL     1       0.146  -0.852 -10.284  1.00  0.00     0.074 A 
ATOM     54  C   UNL     1      -2.961   4.229 -12.104  1.00  0.00     0.029 A 
ATOM     55  N   UNL     1      -1.636   2.759 -11.108  1.00  0.00    -0.354 N 
ATOM     56  N   UNL     1      -0.496   0.239 -10.612  1.00  0.00    -0.248 NA
ATOM     57  C   UNL     1      -0.415  -2.078 -10.879  1.00  0.00     0.031 C 
ATOM     58  C   UNL     1      -3.302   2.955 -12.573  1.00  0.00     0.029 A 
ATOM     59  C   UNL     1      -2.455   2.041 -11.976  1.00  0.00     0.049 A 
ATOM     60  H   UNL     1      -0.938   2.364 -10.538  1.00  0.00     0.167 HD
ATOM     61  C   UNL     1      -1.485  -0.163 -11.509  1.00  0.00     0.074 A 
ATOM     62  C   UNL     1      -1.374  -1.594 -11.655  1.00  0.00     0.031 C 
ATOM     63  C   UNL     1      -2.379   0.613 -12.169  1.00  0.00     0.034 A 
BRANCH  50  64
ATOM     64  C   UNL     1      -1.935   6.533 -10.463  1.00  0.00     0.023 A 
ATOM     65  C   UNL     1      -1.188   7.614 -10.961  1.00  0.00     0.031 A 
ATOM     66  C   UNL     1      -3.259   6.783 -10.062  1.00  0.00     0.131 A 
ATOM     67  C   UNL     1      -1.719   8.909 -10.931  1.00  0.00     0.055 A 
ATOM     68  C   UNL     1      -3.821   8.061 -10.137  1.00  0.00     0.041 A 
ATOM     69  F   UNL     1      -4.031   5.793  -9.587  1.00  0.00    -0.206 F 
ATOM     70  C   UNL     1      -3.042   9.138 -10.550  1.00  0.00     0.022 A 
BRANCH  67  71
ATOM     71  S   UNL     1      -0.591  10.296 -11.225  1.00  0.00     0.124 S 
ATOM     72  O   UNL     1       0.397  10.097 -10.166  1.00  0.00    -0.237 OA
ATOM     73  O   UNL     1      -0.126  10.042 -12.585  1.00  0.00    -0.237 OA
ATOM     74  O   UNL     1      -1.442  11.470 -11.063  1.00  0.00    -0.744 OA
ENDBRANCH  67  71
ENDBRANCH  50  64
BRANCH  51  75
ATOM     75  C   UNL     1       1.844  -2.388  -9.105  1.00  0.00     0.023 A 
ATOM     76  C   UNL     1       2.415  -3.196 -10.101  1.00  0.00     0.031 A 
ATOM     77  C   UNL     1       1.642  -2.942  -7.831  1.00  0.00     0.131 A 
ATOM     78  C   UNL     1       2.704  -4.541  -9.825  1.00  0.00     0.055 A 
ATOM     79  C   UNL     1       1.978  -4.267  -7.548  1.00  0.00     0.041 A 
ATOM     80  F   UNL     1       1.098  -2.206  -6.849  1.00  0.00    -0.206 F 
ATOM     81  C   UNL     1       2.498  -5.080  -8.553  1.00  0.00     0.022 A 
BRANCH  78  82
ATOM     82  S   UNL     1       3.260  -5.600 -11.188  1.00  0.00     0.124 S 
ATOM     83  O   UNL     1       2.135  -5.508 -12.112  1.00  0.00    -0.237 OA
ATOM     84  O   UNL     1       4.490  -4.935 -11.606  1.00  0.00    -0.237 OA
ATOM     85  O   UNL     1       3.444  -6.903 -10.552  1.00  0.00    -0.744 OA
ENDBRANCH  78  82
ENDBRANCH  51  75
BRANCH  63  86
ATOM     86  C   UNL     1      -3.261  -0.045 -13.206  1.00  0.00     0.023 A 
ATOM     87  C   UNL     1      -4.251  -0.988 -12.872  1.00  0.00     0.031 A 
ATOM     88  C   UNL     1      -3.091   0.270 -14.567  1.00  0.00     0.131 A 
ATOM     89  C   UNL     1      -5.000  -1.611 -13.887  1.00  0.00     0.055 A 
ATOM     90  C   UNL     1      -3.872  -0.314 -15.567  1.00  0.00     0.041 A 
ATOM     91  F   UNL     1      -2.157   1.156 -14.951  1.00  0.00    -0.206 F 
ATOM     92  C   UNL     1      -4.826  -1.268 -15.230  1.00  0.00     0.022 A 
BRANCH  89  93
ATOM     93  S   UNL     1      -6.165  -2.930 -13.439  1.00  0.00     0.124 S 
ATOM     94  O   UNL     1      -5.288  -3.909 -12.804  1.00  0.00    -0.237 OA
ATOM     95  O   UNL     1      -7.096  -2.238 -12.553  1.00  0.00    -0.237 OA
ATOM     96  O   UNL     1      -6.728  -3.344 -14.724  1.00  0.00    -0.744 OA
ENDBRANCH  89  93
ENDBRANCH  63  86
ENDBRANCH  37  38
ENDBRANCH  29  32
ENDBRANCH  27  28
ENDBRANCH  26  27
ENDBRANCH   1  26
TORSDOF 17
