REMARK SMILES Cn1cc(S(=O)(=O)N2CCCc3cc(C(=O)NCCCCNC(=O)c4ccc(-c5c6nc(c(-c7cc(S(=O)(=O)[O-])ccc7F)c7ccc([nH]7)c(-c7cc(S(=O)(=O)[O-])ccc7F)c7nc(c(-c8cc(S(=O)(=O)[O-])ccc8F)c8ccc5[nH]8)C=C7)C=C6)cc4)ccc32)cc1C(N)=O
REMARK SMILES IDX 19 1 18 2 17 3 15 4 16 5 14 7 8 8 9 9 90 10 10 11 12 12
REMARK SMILES IDX 89 13 11 14 13 15 88 16 5 17 6 18 7 19 4 20 1 21 2 22 3 23
REMARK SMILES IDX 92 24 91 25 93 26 94 27 95 28 20 31 21 32 22 33 23 34 24 36
REMARK SMILES IDX 25 37 26 38 87 39 27 40 86 41 28 42 29 43 30 44 80 45 31 46
REMARK SMILES IDX 85 47 79 48 81 49 32 50 84 51 78 52 77 53 33 55 65 56 45 57
REMARK SMILES IDX 64 58 46 59 49 60 63 61 82 62 47 63 48 64 62 66 83 67 50 68
REMARK SMILES IDX 34 69 35 70 43 71 36 72 42 73 44 74 41 75 37 76 38 77 39 78
REMARK SMILES IDX 40 79 66 80 67 81 75 82 68 83 74 84 76 85 73 86 69 87 70 88
REMARK SMILES IDX 71 89 72 90 51 91 52 92 60 93 53 94 59 95 61 96 58 97 54 98
REMARK SMILES IDX 55 99 56 100 57 101
REMARK H PARENT 17 6 94 29 94 30 22 35 81 54 49 65
REMARK Flexibility Score: inf
ROOT
ATOM      1  C   UNL     1      -6.027   1.137  -6.747  1.00  0.00     0.023 C 
ENDROOT
BRANCH   1   2
ATOM      2  C   UNL     1      -6.851   2.034  -5.821  1.00  0.00     0.116 C 
BRANCH   2   3
ATOM      3  N   UNL     1      -7.949   1.291  -5.235  1.00  0.00    -0.352 N 
ATOM      4  C   UNL     1      -8.079   0.633  -4.040  1.00  0.00     0.251 C 
ATOM      5  O   UNL     1      -9.162   0.097  -3.799  1.00  0.00    -0.269 OA
ATOM      6  H   UNL     1      -8.752   1.250  -5.803  1.00  0.00     0.163 HD
BRANCH   4   7
ATOM      7  C   UNL     1      -7.005   0.570  -3.005  1.00  0.00     0.040 A 
ATOM      8  N   UNL     1      -4.192   0.420   0.196  1.00  0.00    -0.266 N 
ATOM      9  C   UNL     1      -4.590  -0.298   1.420  1.00  0.00     0.136 C 
ATOM     10  C   UNL     1      -5.125   0.463  -0.891  1.00  0.00     0.055 A 
ATOM     11  C   UNL     1      -5.965   0.185   1.849  1.00  0.00     0.028 C 
ATOM     12  C   UNL     1      -6.490   0.280  -0.625  1.00  0.00    -0.023 A 
ATOM     13  C   UNL     1      -4.706   0.604  -2.213  1.00  0.00     0.028 A 
ATOM     14  C   UNL     1      -6.986  -0.089   0.750  1.00  0.00     0.039 C 
ATOM     15  C   UNL     1      -7.417   0.352  -1.681  1.00  0.00     0.019 A 
ATOM     16  C   UNL     1      -5.636   0.641  -3.259  1.00  0.00     0.016 A 
BRANCH   8  17
ATOM     17  S   UNL     1      -2.894   1.509   0.293  1.00  0.00     0.265 S 
ATOM     18  O   UNL     1      -2.806   2.018   1.649  1.00  0.00    -0.201 OA
ATOM     19  O   UNL     1      -2.830   2.382  -0.854  1.00  0.00    -0.201 OA
BRANCH  17  20
ATOM     20  C   UNL     1      -1.449   0.559   0.145  1.00  0.00     0.106 A 
ATOM     21  C   UNL     1       2.126   0.116  -0.031  1.00  0.00     0.150 C 
ATOM     22  N   UNL     1       0.689  -0.050   0.026  1.00  0.00    -0.345 N 
ATOM     23  C   UNL     1      -0.158   1.032   0.123  1.00  0.00     0.108 A 
ATOM     24  C   UNL     1      -0.041  -1.231  -0.013  1.00  0.00     0.107 A 
ATOM     25  C   UNL     1      -1.380  -0.848   0.032  1.00  0.00     0.056 A 
BRANCH  24  26
ATOM     26  C   UNL     1       0.512  -2.573  -0.078  1.00  0.00     0.265 C 
ATOM     27  N   UNL     1      -0.395  -3.593  -0.123  1.00  0.00    -0.364 N 
ATOM     28  O   UNL     1       1.706  -2.854  -0.085  1.00  0.00    -0.268 OA
ATOM     29  H   UNL     1      -1.359  -3.394  -0.119  1.00  0.00     0.160 HD
ATOM     30  H   UNL     1      -0.085  -4.527  -0.160  1.00  0.00     0.160 HD
ENDBRANCH  24  26
ENDBRANCH  17  20
ENDBRANCH   8  17
ENDBRANCH   4   7
ENDBRANCH   2   3
ENDBRANCH   1   2
BRANCH   1  31
ATOM     31  C   UNL     1      -6.651   0.909  -8.126  1.00  0.00     0.023 C 
BRANCH  31  32
ATOM     32  C   UNL     1      -6.789   2.163  -8.983  1.00  0.00     0.116 C 
BRANCH  32  33
ATOM     33  N   UNL     1      -5.524   2.845  -9.208  1.00  0.00    -0.352 N 
ATOM     34  C   UNL     1      -5.135   3.579 -10.303  1.00  0.00     0.251 C 
ATOM     35  H   UNL     1      -4.862   2.772  -8.483  1.00  0.00     0.163 HD
ATOM     36  O   UNL     1      -3.985   3.997 -10.386  1.00  0.00    -0.269 OA
BRANCH  34  37
ATOM     37  C   UNL     1      -6.103   3.811 -11.395  1.00  0.00     0.039 A 
ATOM     38  C   UNL     1      -5.720   3.524 -12.707  1.00  0.00     0.014 A 
ATOM     39  C   UNL     1      -7.396   4.262 -11.117  1.00  0.00     0.014 A 
ATOM     40  C   UNL     1      -6.658   3.623 -13.735  1.00  0.00     0.010 A 
ATOM     41  C   UNL     1      -8.347   4.295 -12.133  1.00  0.00     0.010 A 
ATOM     42  C   UNL     1      -7.988   3.972 -13.450  1.00  0.00    -0.014 A 
BRANCH  42  43
ATOM     43  C   UNL     1      -9.021   4.003 -14.517  1.00  0.00     0.031 A 
ATOM     44  C   UNL     1      -9.681   5.302 -14.885  1.00  0.00     0.074 A 
ATOM     45  C   UNL     1      -9.410   2.852 -15.100  1.00  0.00     0.049 A 
ATOM     46  N   UNL     1     -10.658   5.526 -15.725  1.00  0.00    -0.248 NA
ATOM     47  C   UNL     1      -9.198   6.504 -14.188  1.00  0.00     0.031 C 
ATOM     48  C   UNL     1      -8.873   1.524 -14.792  1.00  0.00     0.029 A 
ATOM     49  N   UNL     1     -10.356   2.610 -16.064  1.00  0.00    -0.354 N 
ATOM     50  C   UNL     1     -10.917   6.891 -15.649  1.00  0.00     0.074 A 
ATOM     51  C   UNL     1     -10.035   7.428 -14.634  1.00  0.00     0.031 C 
ATOM     52  C   UNL     1      -9.482   0.613 -15.568  1.00  0.00     0.029 A 
ATOM     53  C   UNL     1     -10.480   1.280 -16.396  1.00  0.00     0.049 A 
ATOM     54  H   UNL     1     -10.895   3.321 -16.480  1.00  0.00     0.167 HD
ATOM     55  C   UNL     1     -11.793   7.629 -16.375  1.00  0.00     0.034 A 
ATOM     56  C   UNL     1     -11.312   0.669 -17.262  1.00  0.00     0.034 A 
ATOM     57  C   UNL     1     -12.654   7.077 -17.393  1.00  0.00     0.049 A 
ATOM     58  C   UNL     1     -12.287   1.508 -18.049  1.00  0.00     0.074 A 
ATOM     59  C   UNL     1     -13.537   7.739 -18.229  1.00  0.00     0.029 A 
ATOM     60  N   UNL     1     -12.746   5.727 -17.710  1.00  0.00    -0.354 N 
ATOM     61  N   UNL     1     -12.484   2.806 -18.004  1.00  0.00    -0.248 NA
ATOM     62  C   UNL     1     -13.143   0.802 -19.010  1.00  0.00     0.031 C 
ATOM     63  C   UNL     1     -14.206   6.785 -19.005  1.00  0.00     0.029 A 
ATOM     64  C   UNL     1     -13.690   5.534 -18.707  1.00  0.00     0.049 A 
ATOM     65  H   UNL     1     -12.218   5.012 -17.287  1.00  0.00     0.167 HD
ATOM     66  C   UNL     1     -13.465   3.073 -18.954  1.00  0.00     0.074 A 
ATOM     67  C   UNL     1     -13.809   1.805 -19.563  1.00  0.00     0.031 C 
ATOM     68  C   UNL     1     -14.028   4.260 -19.296  1.00  0.00     0.034 A 
BRANCH  55  69
ATOM     69  C   UNL     1     -11.872   9.106 -16.070  1.00  0.00     0.023 A 
ATOM     70  C   UNL     1     -10.768   9.958 -16.254  1.00  0.00     0.031 A 
ATOM     71  C   UNL     1     -13.054   9.666 -15.554  1.00  0.00     0.131 A 
ATOM     72  C   UNL     1     -10.841  11.299 -15.848  1.00  0.00     0.055 A 
ATOM     73  C   UNL     1     -13.148  11.021 -15.231  1.00  0.00     0.041 A 
ATOM     74  F   UNL     1     -14.136   8.900 -15.337  1.00  0.00    -0.206 F 
ATOM     75  C   UNL     1     -12.032  11.843 -15.361  1.00  0.00     0.022 A 
BRANCH  72  76
ATOM     76  S   UNL     1      -9.316  12.279 -15.824  1.00  0.00     0.124 S 
ATOM     77  O   UNL     1      -8.481  11.503 -14.910  1.00  0.00    -0.237 OA
ATOM     78  O   UNL     1      -8.912  12.267 -17.225  1.00  0.00    -0.237 OA
ATOM     79  O   UNL     1      -9.750  13.577 -15.310  1.00  0.00    -0.744 OA
ENDBRANCH  72  76
ENDBRANCH  55  69
BRANCH  56  80
ATOM     80  C   UNL     1     -11.270  -0.811 -17.434  1.00  0.00     0.023 A 
ATOM     81  C   UNL     1     -10.876  -1.385 -18.653  1.00  0.00     0.031 A 
ATOM     82  C   UNL     1     -11.663  -1.673 -16.395  1.00  0.00     0.131 A 
ATOM     83  C   UNL     1     -10.927  -2.778 -18.819  1.00  0.00     0.055 A 
ATOM     84  C   UNL     1     -11.664  -3.061 -16.549  1.00  0.00     0.041 A 
ATOM     85  F   UNL     1     -12.041  -1.176 -15.207  1.00  0.00    -0.206 F 
ATOM     86  C   UNL     1     -11.307  -3.620 -17.772  1.00  0.00     0.022 A 
BRANCH  83  87
ATOM     87  S   UNL     1     -10.565  -3.470 -20.456  1.00  0.00     0.124 S 
ATOM     88  O   UNL     1     -11.558  -2.801 -21.289  1.00  0.00    -0.237 OA
ATOM     89  O   UNL     1      -9.179  -3.062 -20.657  1.00  0.00    -0.237 OA
ATOM     90  O   UNL     1     -10.770  -4.905 -20.271  1.00  0.00    -0.744 OA
ENDBRANCH  83  87
ENDBRANCH  56  80
BRANCH  68  91
ATOM     91  C   UNL     1     -15.041   4.238 -20.414  1.00  0.00     0.023 A 
ATOM     92  C   UNL     1     -16.292   3.613 -20.268  1.00  0.00     0.031 A 
ATOM     93  C   UNL     1     -14.742   4.841 -21.648  1.00  0.00     0.131 A 
ATOM     94  C   UNL     1     -17.176   3.559 -21.356  1.00  0.00     0.055 A 
ATOM     95  C   UNL     1     -15.649   4.835 -22.708  1.00  0.00     0.041 A 
ATOM     96  F   UNL     1     -13.561   5.450 -21.843  1.00  0.00    -0.206 F 
ATOM     97  C   UNL     1     -16.869   4.180 -22.570  1.00  0.00     0.022 A 
BRANCH  94  98
ATOM     98  S   UNL     1     -18.701   2.590 -21.192  1.00  0.00     0.124 S 
ATOM     99  O   UNL     1     -18.183   1.260 -20.889  1.00  0.00    -0.237 OA
ATOM    100  O   UNL     1     -19.388   3.271 -20.100  1.00  0.00    -0.237 OA
ATOM    101  O   UNL     1     -19.335   2.725 -22.502  1.00  0.00    -0.744 OA
ENDBRANCH  94  98
ENDBRANCH  68  91
ENDBRANCH  42  43
ENDBRANCH  34  37
ENDBRANCH  32  33
ENDBRANCH  31  32
ENDBRANCH   1  31
TORSDOF 17
