REMARK SMILES NC(=O)C1CC[NH+](Cc2ccc(C(=O)NCCCCNC(=O)c3ccc(-c4c5nc(c(-c6cc(S(=O)(=O)[O-])ccc6F)c6ccc([nH]6)c(-c6cc(S(=O)(=O)[O-])ccc6F)c6nc(c(-c7cc(S(=O)(=O)[O-])ccc7F)c7ccc4[nH]7)C=C6)C=C5)cc3)cc2)CC1
REMARK SMILES IDX 17 1 16 2 15 3 13 4 14 5 12 7 9 8 10 9 87 10 11 11 86 12
REMARK SMILES IDX 8 13 7 14 4 15 5 16 89 17 6 18 88 19 2 21 1 22 3 25 18 26
REMARK SMILES IDX 19 27 20 28 21 29 22 31 23 32 24 33 85 34 25 35 84 36 26 37
REMARK SMILES IDX 27 38 28 39 78 40 29 41 83 42 77 43 79 44 30 45 82 46 76 47
REMARK SMILES IDX 75 48 31 50 63 51 43 52 62 53 44 54 47 55 61 56 80 57 45 58
REMARK SMILES IDX 46 59 60 61 81 62 48 63 32 64 33 65 41 66 34 67 40 68 42 69
REMARK SMILES IDX 39 70 35 71 36 72 37 73 38 74 64 75 65 76 73 77 66 78 72 79
REMARK SMILES IDX 74 80 71 81 67 82 68 83 69 84 70 85 49 86 50 87 58 88 51 89
REMARK SMILES IDX 57 90 59 91 56 92 52 93 53 94 54 95 55 96
REMARK H PARENT 15 6 7 20 1 23 1 24 20 30 79 49 47 60
REMARK Flexibility Score: inf
ROOT
ATOM      1  C   UNL     1       0.005   3.104  -4.543  1.00  0.00     0.023 C 
ENDROOT
BRANCH   1   2
ATOM      2  C   UNL     1      -0.920   1.970  -4.098  1.00  0.00     0.116 C 
BRANCH   2   3
ATOM      3  N   UNL     1      -1.347   1.169  -5.231  1.00  0.00    -0.352 N 
ATOM      4  C   UNL     1      -0.966  -0.083  -5.645  1.00  0.00     0.251 C 
ATOM      5  O   UNL     1      -1.549  -0.597  -6.598  1.00  0.00    -0.269 OA
ATOM      6  H   UNL     1      -2.026   1.598  -5.801  1.00  0.00     0.163 HD
BRANCH   4   7
ATOM      7  C   UNL     1       0.083  -0.861  -4.940  1.00  0.00     0.039 A 
ATOM      8  C   UNL     1       1.921  -2.432  -3.495  1.00  0.00     0.006 A 
ATOM      9  C   UNL     1       0.772  -3.011  -4.052  1.00  0.00     0.010 A 
ATOM     10  C   UNL     1       2.187  -1.081  -3.759  1.00  0.00     0.010 A 
ATOM     11  C   UNL     1      -0.141  -2.231  -4.766  1.00  0.00     0.014 A 
ATOM     12  C   UNL     1       1.279  -0.304  -4.484  1.00  0.00     0.014 A 
BRANCH   8  13
ATOM     13  C   UNL     1       2.811  -3.239  -2.567  1.00  0.00     0.299 C 
BRANCH  13  14
ATOM     14  N   UNL     1       2.500  -3.136  -1.124  1.00  0.00    -0.331 N 
ATOM     15  C   UNL     1       1.090  -2.086   1.236  1.00  0.00     0.089 C 
ATOM     16  C   UNL     1       2.547  -1.735   0.926  1.00  0.00     0.075 C 
ATOM     17  C   UNL     1       0.822  -3.495   0.688  1.00  0.00     0.075 C 
ATOM     18  C   UNL     1       2.831  -1.819  -0.574  1.00  0.00     0.263 C 
ATOM     19  C   UNL     1       1.126  -3.561  -0.813  1.00  0.00     0.263 C 
ATOM     20  H   UNL     1       3.110  -3.799  -0.646  1.00  0.00     0.348 HD
BRANCH  15  21
ATOM     21  C   UNL     1       0.048  -1.105   0.688  1.00  0.00     0.220 C 
ATOM     22  N   UNL     1       0.386   0.211   0.622  1.00  0.00    -0.369 N 
ATOM     23  H   UNL     1      -0.260   0.868   0.275  1.00  0.00     0.159 HD
ATOM     24  H   UNL     1       1.276   0.506   0.920  1.00  0.00     0.159 HD
ATOM     25  O   UNL     1      -1.091  -1.442   0.377  1.00  0.00    -0.275 OA
ENDBRANCH  15  21
ENDBRANCH  13  14
ENDBRANCH   8  13
ENDBRANCH   4   7
ENDBRANCH   2   3
ENDBRANCH   1   2
BRANCH   1  26
ATOM     26  C   UNL     1      -0.699   4.248  -5.280  1.00  0.00     0.023 C 
BRANCH  26  27
ATOM     27  C   UNL     1      -1.703   5.040  -4.448  1.00  0.00     0.116 C 
BRANCH  27  28
ATOM     28  N   UNL     1      -1.107   5.657  -3.273  1.00  0.00    -0.352 N 
ATOM     29  C   UNL     1      -1.364   6.892  -2.719  1.00  0.00     0.251 C 
ATOM     30  H   UNL     1      -0.426   5.118  -2.810  1.00  0.00     0.163 HD
ATOM     31  O   UNL     1      -0.682   7.295  -1.788  1.00  0.00    -0.269 OA
BRANCH  29  32
ATOM     32  C   UNL     1      -2.438   7.735  -3.291  1.00  0.00     0.039 A 
ATOM     33  C   UNL     1      -2.153   9.068  -3.598  1.00  0.00     0.014 A 
ATOM     34  C   UNL     1      -3.703   7.205  -3.557  1.00  0.00     0.014 A 
ATOM     35  C   UNL     1      -3.112   9.846  -4.251  1.00  0.00     0.010 A 
ATOM     36  C   UNL     1      -4.635   7.963  -4.261  1.00  0.00     0.010 A 
ATOM     37  C   UNL     1      -4.343   9.286  -4.629  1.00  0.00    -0.014 A 
BRANCH  37  38
ATOM     38  C   UNL     1      -5.324  10.053  -5.439  1.00  0.00     0.031 A 
ATOM     39  C   UNL     1      -6.667  10.408  -4.866  1.00  0.00     0.074 A 
ATOM     40  C   UNL     1      -5.032  10.355  -6.720  1.00  0.00     0.049 A 
ATOM     41  N   UNL     1      -7.688  10.985  -5.445  1.00  0.00    -0.248 NA
ATOM     42  C   UNL     1      -6.900  10.037  -3.462  1.00  0.00     0.031 C 
ATOM     43  C   UNL     1      -3.777  10.025  -7.400  1.00  0.00     0.029 A 
ATOM     44  N   UNL     1      -5.772  10.993  -7.684  1.00  0.00    -0.354 N 
ATOM     45  C   UNL     1      -8.690  11.039  -4.483  1.00  0.00     0.074 A 
ATOM     46  C   UNL     1      -8.169  10.384  -3.301  1.00  0.00     0.031 C 
ATOM     47  C   UNL     1      -3.830  10.475  -8.664  1.00  0.00     0.029 A 
ATOM     48  C   UNL     1      -5.135  11.083  -8.900  1.00  0.00     0.049 A 
ATOM     49  H   UNL     1      -6.674  11.351  -7.520  1.00  0.00     0.167 HD
ATOM     50  C   UNL     1      -9.922  11.599  -4.572  1.00  0.00     0.034 A 
ATOM     51  C   UNL     1      -5.560  11.583 -10.078  1.00  0.00     0.034 A 
ATOM     52  C   UNL     1     -10.422  12.255  -5.756  1.00  0.00     0.049 A 
ATOM     53  C   UNL     1      -6.945  12.171 -10.162  1.00  0.00     0.074 A 
ATOM     54  C   UNL     1     -11.626  12.916  -5.934  1.00  0.00     0.029 A 
ATOM     55  N   UNL     1      -9.752  12.324  -6.971  1.00  0.00    -0.354 N 
ATOM     56  N   UNL     1      -7.860  12.265  -9.225  1.00  0.00    -0.248 NA
ATOM     57  C   UNL     1      -7.351  12.725 -11.460  1.00  0.00     0.031 C 
ATOM     58  C   UNL     1     -11.711  13.325  -7.269  1.00  0.00     0.029 A 
ATOM     59  C   UNL     1     -10.531  12.982  -7.911  1.00  0.00     0.049 A 
ATOM     60  H   UNL     1      -8.853  11.958  -7.141  1.00  0.00     0.167 HD
ATOM     61  C   UNL     1      -8.942  12.910  -9.817  1.00  0.00     0.074 A 
ATOM     62  C   UNL     1      -8.559  13.195 -11.184  1.00  0.00     0.031 C 
ATOM     63  C   UNL     1     -10.143  13.240  -9.277  1.00  0.00     0.034 A 
BRANCH  50  64
ATOM     64  C   UNL     1     -10.818  11.501  -3.361  1.00  0.00     0.023 A 
ATOM     65  C   UNL     1     -10.478  12.111  -2.141  1.00  0.00     0.031 A 
ATOM     66  C   UNL     1     -12.014  10.764  -3.416  1.00  0.00     0.131 A 
ATOM     67  C   UNL     1     -11.281  11.912  -1.008  1.00  0.00     0.055 A 
ATOM     68  C   UNL     1     -12.851  10.635  -2.306  1.00  0.00     0.041 A 
ATOM     69  F   UNL     1     -12.382  10.143  -4.548  1.00  0.00    -0.206 F 
ATOM     70  C   UNL     1     -12.479  11.198  -1.089  1.00  0.00     0.022 A 
BRANCH  67  71
ATOM     71  S   UNL     1     -10.666  12.479   0.600  1.00  0.00     0.124 S 
ATOM     72  O   UNL     1      -9.411  11.740   0.713  1.00  0.00    -0.237 OA
ATOM     73  O   UNL     1     -10.544  13.918   0.402  1.00  0.00    -0.237 OA
ATOM     74  O   UNL     1     -11.711  12.064   1.533  1.00  0.00    -0.744 OA
ENDBRANCH  67  71
ENDBRANCH  50  64
BRANCH  51  75
ATOM     75  C   UNL     1      -4.681  11.533 -11.280  1.00  0.00     0.023 A 
ATOM     76  C   UNL     1      -4.195  12.711 -11.868  1.00  0.00     0.031 A 
ATOM     77  C   UNL     1      -4.344  10.307 -11.880  1.00  0.00     0.131 A 
ATOM     78  C   UNL     1      -3.433  12.642 -13.045  1.00  0.00     0.055 A 
ATOM     79  C   UNL     1      -3.546  10.241 -13.024  1.00  0.00     0.041 A 
ATOM     80  F   UNL     1      -4.778   9.151 -11.353  1.00  0.00    -0.206 F 
ATOM     81  C   UNL     1      -3.096  11.415 -13.620  1.00  0.00     0.022 A 
BRANCH  78  82
ATOM     82  S   UNL     1      -2.951  14.190 -13.858  1.00  0.00     0.124 S 
ATOM     83  O   UNL     1      -4.247  14.812 -14.108  1.00  0.00    -0.237 OA
ATOM     84  O   UNL     1      -2.121  14.822 -12.838  1.00  0.00    -0.237 OA
ATOM     85  O   UNL     1      -2.235  13.739 -15.050  1.00  0.00    -0.744 OA
ENDBRANCH  78  82
ENDBRANCH  51  75
BRANCH  63  86
ATOM     86  C   UNL     1     -11.111  13.976 -10.169  1.00  0.00     0.023 A 
ATOM     87  C   UNL     1     -11.718  13.351 -11.273  1.00  0.00     0.031 A 
ATOM     88  C   UNL     1     -11.422  15.324  -9.917  1.00  0.00     0.131 A 
ATOM     89  C   UNL     1     -12.566  14.088 -12.113  1.00  0.00     0.055 A 
ATOM     90  C   UNL     1     -12.309  16.037 -10.724  1.00  0.00     0.041 A 
ATOM     91  F   UNL     1     -10.868  15.969  -8.878  1.00  0.00    -0.206 F 
ATOM     92  C   UNL     1     -12.878  15.422 -11.836  1.00  0.00     0.022 A 
BRANCH  89  93
ATOM     93  S   UNL     1     -13.198  13.302 -13.621  1.00  0.00     0.124 S 
ATOM     94  O   UNL     1     -11.966  12.987 -14.338  1.00  0.00    -0.237 OA
ATOM     95  O   UNL     1     -13.938  12.161 -13.092  1.00  0.00    -0.237 OA
ATOM     96  O   UNL     1     -14.021  14.344 -14.232  1.00  0.00    -0.744 OA
ENDBRANCH  89  93
ENDBRANCH  63  86
ENDBRANCH  37  38
ENDBRANCH  29  32
ENDBRANCH  27  28
ENDBRANCH  26  27
ENDBRANCH   1  26
TORSDOF 17
