REMARK SMILES Cc1c(Cc2nc(C(C)(C)C)cs2)cccc1C(=O)NCCCCNC(=O)c1ccc(-c2c3nc(c(-c4cc(S(=O)(=O)[O-])ccc4F)c4ccc([nH]4)c(-c4cc(S(=O)(=O)[O-])ccc4F)c4nc(c(-c5cc(S(=O)(=O)[O-])ccc5F)c5ccc2[nH]5)C=C4)C=C3)cc1
REMARK SMILES IDX 22 1 21 2 20 3 18 4 19 5 17 7 1 8 2 9 3 10 14 11 16 12 15 13
REMARK SMILES IDX 4 14 5 15 6 16 13 17 7 18 12 19 8 20 9 21 10 22 11 23 23 24
REMARK SMILES IDX 24 25 25 26 26 27 27 29 28 30 29 31 90 32 30 33 89 34 31 35
REMARK SMILES IDX 32 36 33 37 83 38 34 39 88 40 82 41 84 42 35 43 87 44 81 45
REMARK SMILES IDX 80 46 36 48 68 49 48 50 67 51 49 52 52 53 66 54 85 55 50 56
REMARK SMILES IDX 51 57 65 59 86 60 53 61 37 62 38 63 46 64 39 65 45 66 47 67
REMARK SMILES IDX 44 68 40 69 41 70 42 71 43 72 69 73 70 74 78 75 71 76 77 77
REMARK SMILES IDX 79 78 76 79 72 80 73 81 74 82 75 83 54 84 55 85 63 86 56 87
REMARK SMILES IDX 62 88 64 89 61 90 57 91 58 92 59 93 60 94
REMARK H PARENT 20 6 25 28 84 47 52 58
REMARK Flexibility Score: inf
ROOT
ATOM      1  C   UNL     1       4.271   1.250  -1.294  1.00  0.00     0.023 C 
ENDROOT
BRANCH   1   2
ATOM      2  C   UNL     1       3.406   1.630  -0.076  1.00  0.00     0.116 C 
BRANCH   2   3
ATOM      3  N   UNL     1       2.257   2.423  -0.494  1.00  0.00    -0.352 N 
ATOM      4  C   UNL     1       0.929   2.149  -0.695  1.00  0.00     0.251 C 
ATOM      5  O   UNL     1       0.237   3.083  -1.117  1.00  0.00    -0.269 OA
ATOM      6  H   UNL     1       2.485   3.365  -0.671  1.00  0.00     0.163 HD
BRANCH   4   7
ATOM      7  C   UNL     1       0.239   0.863  -0.351  1.00  0.00     0.043 A 
ATOM      8  C   UNL     1       1.852  -0.771  -1.470  1.00  0.00     0.045 C 
ATOM      9  C   UNL     1       0.677  -0.458  -0.595  1.00  0.00    -0.035 A 
ATOM     10  C   UNL     1      -0.077  -1.550  -0.091  1.00  0.00    -0.037 A 
ATOM     11  C   UNL     1      -1.381  -1.317   0.380  1.00  0.00     0.004 A 
ATOM     12  C   UNL     1      -1.055   1.049   0.180  1.00  0.00     0.014 A 
ATOM     13  C   UNL     1      -1.877  -0.028   0.496  1.00  0.00     0.001 A 
BRANCH  10  14
ATOM     14  C   UNL     1       0.478  -2.974  -0.070  1.00  0.00     0.103 C 
BRANCH  14  15
ATOM     15  C   UNL     1       0.259  -3.648   1.256  1.00  0.00     0.097 A 
ATOM     16  N   UNL     1      -0.880  -4.208   1.607  1.00  0.00    -0.245 NA
ATOM     17  S   UNL     1       1.479  -3.646   2.463  1.00  0.00    -0.127 S 
ATOM     18  C   UNL     1      -0.860  -4.542   2.950  1.00  0.00     0.057 A 
ATOM     19  C   UNL     1       0.368  -4.350   3.561  1.00  0.00     0.091 A 
BRANCH  18  20
ATOM     20  C   UNL     1      -2.140  -5.052   3.587  1.00  0.00     0.005 C 
ATOM     21  C   UNL     1      -1.996  -6.545   3.926  1.00  0.00     0.017 C 
ATOM     22  C   UNL     1      -2.456  -4.258   4.870  1.00  0.00     0.017 C 
ATOM     23  C   UNL     1      -3.340  -4.883   2.627  1.00  0.00     0.017 C 
ENDBRANCH  18  20
ENDBRANCH  14  15
ENDBRANCH  10  14
ENDBRANCH   4   7
ENDBRANCH   2   3
ENDBRANCH   1   2
BRANCH   1  24
ATOM     24  C   UNL     1       5.103   2.386  -1.879  1.00  0.00     0.023 C 
BRANCH  24  25
ATOM     25  C   UNL     1       6.434   2.549  -1.170  1.00  0.00     0.116 C 
BRANCH  25  26
ATOM     26  N   UNL     1       7.549   1.832  -1.787  1.00  0.00    -0.352 N 
ATOM     27  C   UNL     1       8.870   1.794  -1.374  1.00  0.00     0.251 C 
ATOM     28  H   UNL     1       7.334   1.312  -2.595  1.00  0.00     0.163 HD
ATOM     29  O   UNL     1       9.742   1.235  -2.037  1.00  0.00    -0.269 OA
BRANCH  27  30
ATOM     30  C   UNL     1       9.198   2.346  -0.040  1.00  0.00     0.039 A 
ATOM     31  C   UNL     1       9.719   1.461   0.910  1.00  0.00     0.014 A 
ATOM     32  C   UNL     1       8.674   3.575   0.345  1.00  0.00     0.014 A 
ATOM     33  C   UNL     1       9.461   1.692   2.258  1.00  0.00     0.010 A 
ATOM     34  C   UNL     1       8.292   3.728   1.661  1.00  0.00     0.010 A 
ATOM     35  C   UNL     1       8.627   2.753   2.610  1.00  0.00    -0.014 A 
BRANCH  35  36
ATOM     36  C   UNL     1       7.926   2.818   3.891  1.00  0.00     0.031 A 
ATOM     37  C   UNL     1       8.186   3.917   4.844  1.00  0.00     0.074 A 
ATOM     38  C   UNL     1       6.977   1.900   4.186  1.00  0.00     0.049 A 
ATOM     39  N   UNL     1       7.970   3.851   6.115  1.00  0.00    -0.248 NA
ATOM     40  C   UNL     1       8.774   5.185   4.434  1.00  0.00     0.031 C 
ATOM     41  C   UNL     1       6.003   1.949   5.273  1.00  0.00     0.029 A 
ATOM     42  N   UNL     1       6.872   0.603   3.687  1.00  0.00    -0.354 N 
ATOM     43  C   UNL     1       8.079   5.125   6.627  1.00  0.00     0.074 A 
ATOM     44  C   UNL     1       8.669   5.895   5.559  1.00  0.00     0.031 C 
ATOM     45  C   UNL     1       5.590   0.701   5.542  1.00  0.00     0.029 A 
ATOM     46  C   UNL     1       6.378  -0.205   4.726  1.00  0.00     0.049 A 
ATOM     47  H   UNL     1       7.101   0.308   2.776  1.00  0.00     0.167 HD
ATOM     48  C   UNL     1       7.517   5.407   7.839  1.00  0.00     0.034 A 
ATOM     49  C   UNL     1       7.101  -1.262   5.195  1.00  0.00     0.034 A 
ATOM     50  C   UNL     1       7.012   4.192   8.490  1.00  0.00     0.049 A 
ATOM     51  C   UNL     1       7.496  -1.129   6.650  1.00  0.00     0.074 A 
ATOM     52  C   UNL     1       5.740   3.671   8.669  1.00  0.00     0.029 A 
ATOM     53  N   UNL     1       7.899   3.175   8.834  1.00  0.00    -0.354 N 
ATOM     54  N   UNL     1       7.385  -0.028   7.342  1.00  0.00    -0.248 NA
ATOM     55  C   UNL     1       8.066  -2.219   7.437  1.00  0.00     0.031 C 
ATOM     56  C   UNL     1       5.870   2.310   9.053  1.00  0.00     0.029 A 
ATOM     57  C   UNL     1       7.219   2.011   9.141  1.00  0.00     0.049 A 
ATOM     58  H   UNL     1       8.878   3.271   8.856  1.00  0.00     0.167 HD
ATOM     59  C   UNL     1       7.880  -0.219   8.607  1.00  0.00     0.074 A 
ATOM     60  C   UNL     1       8.262  -1.621   8.626  1.00  0.00     0.031 C 
ATOM     61  C   UNL     1       7.944   0.801   9.518  1.00  0.00     0.034 A 
BRANCH  48  62
ATOM     62  C   UNL     1       7.132   6.809   8.288  1.00  0.00     0.023 A 
ATOM     63  C   UNL     1       6.068   6.971   9.203  1.00  0.00     0.031 A 
ATOM     64  C   UNL     1       7.691   8.014   7.818  1.00  0.00     0.131 A 
ATOM     65  C   UNL     1       5.536   8.240   9.506  1.00  0.00     0.055 A 
ATOM     66  C   UNL     1       7.127   9.273   8.069  1.00  0.00     0.041 A 
ATOM     67  F   UNL     1       8.849   8.047   7.151  1.00  0.00    -0.206 F 
ATOM     68  C   UNL     1       6.031   9.391   8.905  1.00  0.00     0.022 A 
BRANCH  65  69
ATOM     69  S   UNL     1       4.181   8.370  10.705  1.00  0.00     0.124 S 
ATOM     70  O   UNL     1       3.141   7.555  10.087  1.00  0.00    -0.237 OA
ATOM     71  O   UNL     1       4.790   7.835  11.917  1.00  0.00    -0.237 OA
ATOM     72  O   UNL     1       3.898   9.805  10.742  1.00  0.00    -0.744 OA
ENDBRANCH  65  69
ENDBRANCH  48  62
BRANCH  49  73
ATOM     73  C   UNL     1       7.879  -1.950   4.125  1.00  0.00     0.023 A 
ATOM     74  C   UNL     1       7.141  -2.467   3.037  1.00  0.00     0.031 A 
ATOM     75  C   UNL     1       9.253  -1.747   3.948  1.00  0.00     0.131 A 
ATOM     76  C   UNL     1       7.734  -2.599   1.775  1.00  0.00     0.055 A 
ATOM     77  C   UNL     1       9.860  -1.950   2.700  1.00  0.00     0.041 A 
ATOM     78  F   UNL     1      10.000  -1.222   4.930  1.00  0.00    -0.206 F 
ATOM     79  C   UNL     1       9.093  -2.331   1.597  1.00  0.00     0.022 A 
BRANCH  76  80
ATOM     80  S   UNL     1       6.653  -2.845   0.332  1.00  0.00     0.124 S 
ATOM     81  O   UNL     1       6.526  -4.297   0.291  1.00  0.00    -0.237 OA
ATOM     82  O   UNL     1       5.443  -2.110   0.698  1.00  0.00    -0.237 OA
ATOM     83  O   UNL     1       7.407  -2.245  -0.766  1.00  0.00    -0.744 OA
ENDBRANCH  76  80
ENDBRANCH  49  73
BRANCH  61  84
ATOM     84  C   UNL     1       8.622   0.747  10.875  1.00  0.00     0.023 A 
ATOM     85  C   UNL     1       9.568  -0.224  11.238  1.00  0.00     0.031 A 
ATOM     86  C   UNL     1       8.378   1.750  11.848  1.00  0.00     0.131 A 
ATOM     87  C   UNL     1      10.155  -0.230  12.519  1.00  0.00     0.055 A 
ATOM     88  C   UNL     1       9.023   1.789  13.088  1.00  0.00     0.041 A 
ATOM     89  F   UNL     1       7.504   2.745  11.634  1.00  0.00    -0.206 F 
ATOM     90  C   UNL     1       9.908   0.784  13.439  1.00  0.00     0.022 A 
BRANCH  87  91
ATOM     91  S   UNL     1      11.205  -1.635  12.979  1.00  0.00     0.124 S 
ATOM     92  O   UNL     1      10.267  -2.751  12.895  1.00  0.00    -0.237 OA
ATOM     93  O   UNL     1      12.242  -1.600  11.953  1.00  0.00    -0.237 OA
ATOM     94  O   UNL     1      11.655  -1.304  14.329  1.00  0.00    -0.744 OA
ENDBRANCH  87  91
ENDBRANCH  61  84
ENDBRANCH  35  36
ENDBRANCH  27  30
ENDBRANCH  25  26
ENDBRANCH  24  25
ENDBRANCH   1  24
TORSDOF 17
