REMARK SMILES C[C@@H](C(=O)NCCCCNC(=O)c1ccc(-c2c3nc(c(-c4cc(S(=O)(=O)[O-])ccc4F)c4ccc([nH]4)c(-c4cc(S(=O)(=O)[O-])ccc4F)c4nc(c(-c5cc(S(=O)(=O)[O-])ccc5F)c5ccc2[nH]5)C=C4)C=C3)cc1)c1ccc(-c2cccc(OC(=O)Nc3ccccc3)c2)c(F)c1
REMARK SMILES IDX 6 1 5 2 3 3 4 4 2 6 1 7 76 8 77 9 98 10 78 11 96 12 79 13
REMARK SMILES IDX 97 14 80 15 81 16 95 17 82 18 84 19 83 20 85 21 86 22 87 23
REMARK SMILES IDX 88 24 89 26 90 27 94 28 91 29 93 30 92 31 7 32 8 33 9 34
REMARK SMILES IDX 10 35 11 36 12 38 13 39 14 40 75 41 15 42 74 43 16 44 17 45
REMARK SMILES IDX 18 46 68 47 19 48 73 49 67 50 69 51 20 52 72 53 66 54 65 55
REMARK SMILES IDX 21 57 53 58 33 59 52 60 34 61 37 62 51 63 70 64 35 65 36 66
REMARK SMILES IDX 50 68 71 69 38 70 22 71 23 72 31 73 24 74 30 75 32 76 29 77
REMARK SMILES IDX 25 78 26 79 27 80 28 81 54 82 55 83 63 84 56 85 62 86 64 87
REMARK SMILES IDX 61 88 57 89 58 90 59 91 60 92 39 93 40 94 48 95 41 96 47 97
REMARK SMILES IDX 49 98 46 99 42 100 43 101 44 102 45 103
REMARK H PARENT 5 5 88 25 10 37 69 56 37 67
REMARK Flexibility Score: inf
ROOT
ATOM      1  C   UNL     1       3.550   1.136  -1.469  1.00  0.00     0.116 C 
ENDROOT
BRANCH   1   2
ATOM      2  N   UNL     1       2.500   0.848  -2.424  1.00  0.00    -0.356 N 
ATOM      3  C   UNL     1       1.166   0.649  -2.226  1.00  0.00     0.227 C 
ATOM      4  O   UNL     1       0.503   0.304  -3.207  1.00  0.00    -0.274 OA
ATOM      5  H   UNL     1       2.796   0.786  -3.361  1.00  0.00     0.163 HD
BRANCH   3   6
ATOM      6  C   UNL     1       0.546   0.898  -0.842  1.00  0.00     0.105 C 
ATOM      7  C   UNL     1       0.981  -0.142   0.198  1.00  0.00     0.023 C 
BRANCH   6   8
ATOM      8  C   UNL     1      -0.977   0.954  -0.914  1.00  0.00    -0.033 A 
ATOM      9  C   UNL     1      -1.651   2.182  -0.848  1.00  0.00     0.005 A 
ATOM     10  C   UNL     1      -1.732  -0.219  -1.050  1.00  0.00     0.044 A 
ATOM     11  C   UNL     1      -3.050   2.228  -0.852  1.00  0.00     0.012 A 
ATOM     12  C   UNL     1      -3.119  -0.165  -1.046  1.00  0.00     0.131 A 
ATOM     13  C   UNL     1      -3.807   1.048  -0.920  1.00  0.00     0.018 A 
ATOM     14  F   UNL     1      -3.796  -1.322  -1.130  1.00  0.00    -0.206 F 
BRANCH  13  15
ATOM     15  C   UNL     1      -5.265   1.066  -0.760  1.00  0.00    -0.012 A 
ATOM     16  C   UNL     1      -6.109   1.762  -1.635  1.00  0.00     0.009 A 
ATOM     17  C   UNL     1      -5.838   0.370   0.319  1.00  0.00     0.056 A 
ATOM     18  C   UNL     1      -7.494   1.754  -1.442  1.00  0.00     0.004 A 
ATOM     19  C   UNL     1      -7.212   0.379   0.522  1.00  0.00     0.133 A 
ATOM     20  C   UNL     1      -8.046   1.062  -0.362  1.00  0.00     0.047 A 
BRANCH  19  21
ATOM     21  O   UNL     1      -7.857  -0.267   1.604  1.00  0.00    -0.410 OA
BRANCH  21  22
ATOM     22  C   UNL     1      -7.233  -0.796   2.733  1.00  0.00     0.417 C 
ATOM     23  O   UNL     1      -6.021  -0.859   2.926  1.00  0.00    -0.224 OA
ATOM     24  N   UNL     1      -8.082  -1.169   3.742  1.00  0.00    -0.291 N 
ATOM     25  H   UNL     1      -7.636  -1.421   4.582  1.00  0.00     0.173 HD
BRANCH  24  26
ATOM     26  C   UNL     1      -9.480  -1.252   3.777  1.00  0.00     0.044 A 
ATOM     27  C   UNL     1     -10.083  -1.233   5.040  1.00  0.00     0.026 A 
ATOM     28  C   UNL     1     -10.284  -1.379   2.643  1.00  0.00     0.026 A 
ATOM     29  C   UNL     1     -11.472  -1.288   5.166  1.00  0.00     0.002 A 
ATOM     30  C   UNL     1     -11.674  -1.453   2.770  1.00  0.00     0.002 A 
ATOM     31  C   UNL     1     -12.268  -1.397   4.029  1.00  0.00     0.000 A 
ENDBRANCH  24  26
ENDBRANCH  21  22
ENDBRANCH  19  21
ENDBRANCH  13  15
ENDBRANCH   6   8
ENDBRANCH   3   6
ENDBRANCH   1   2
BRANCH   1  32
ATOM     32  C   UNL     1       4.331  -0.130  -1.114  1.00  0.00     0.023 C 
BRANCH  32  33
ATOM     33  C   UNL     1       5.116  -0.742  -2.277  1.00  0.00     0.023 C 
BRANCH  33  34
ATOM     34  C   UNL     1       6.120   0.190  -2.945  1.00  0.00     0.116 C 
BRANCH  34  35
ATOM     35  N   UNL     1       7.108   0.715  -2.016  1.00  0.00    -0.352 N 
ATOM     36  C   UNL     1       8.460   0.882  -2.203  1.00  0.00     0.251 C 
ATOM     37  H   UNL     1       6.763   0.986  -1.135  1.00  0.00     0.163 HD
ATOM     38  O   UNL     1       9.171   1.218  -1.262  1.00  0.00    -0.269 OA
BRANCH  36  39
ATOM     39  C   UNL     1       9.046   0.615  -3.533  1.00  0.00     0.039 A 
ATOM     40  C   UNL     1      10.165  -0.216  -3.623  1.00  0.00     0.014 A 
ATOM     41  C   UNL     1       8.468   1.150  -4.688  1.00  0.00     0.014 A 
ATOM     42  C   UNL     1      10.659  -0.576  -4.879  1.00  0.00     0.010 A 
ATOM     43  C   UNL     1       8.923   0.742  -5.938  1.00  0.00     0.010 A 
ATOM     44  C   UNL     1      10.015  -0.134  -6.046  1.00  0.00    -0.014 A 
BRANCH  44  45
ATOM     45  C   UNL     1      10.451  -0.588  -7.392  1.00  0.00     0.031 A 
ATOM     46  C   UNL     1      10.992   0.406  -8.382  1.00  0.00     0.074 A 
ATOM     47  C   UNL     1      10.270  -1.875  -7.751  1.00  0.00     0.049 A 
ATOM     48  N   UNL     1      11.306   0.234  -9.640  1.00  0.00    -0.248 NA
ATOM     49  C   UNL     1      11.175   1.782  -7.897  1.00  0.00     0.031 C 
ATOM     50  C   UNL     1       9.716  -2.923  -6.889  1.00  0.00     0.029 A 
ATOM     51  N   UNL     1      10.510  -2.519  -8.939  1.00  0.00    -0.354 N 
ATOM     52  C   UNL     1      11.703   1.483 -10.105  1.00  0.00     0.074 A 
ATOM     53  C   UNL     1      11.544   2.410  -9.004  1.00  0.00     0.031 C 
ATOM     54  C   UNL     1       9.665  -4.076  -7.575  1.00  0.00     0.029 A 
ATOM     55  C   UNL     1      10.135  -3.843  -8.937  1.00  0.00     0.049 A 
ATOM     56  H   UNL     1      10.913  -2.075  -9.720  1.00  0.00     0.167 HD
ATOM     57  C   UNL     1      12.170   1.820 -11.333  1.00  0.00     0.034 A 
ATOM     58  C   UNL     1      10.144  -4.759  -9.926  1.00  0.00     0.034 A 
ATOM     59  C   UNL     1      12.341   0.878 -12.411  1.00  0.00     0.049 A 
ATOM     60  C   UNL     1      10.646  -4.355 -11.289  1.00  0.00     0.074 A 
ATOM     61  C   UNL     1      12.886   1.093 -13.665  1.00  0.00     0.029 A 
ATOM     62  N   UNL     1      11.958  -0.457 -12.370  1.00  0.00    -0.354 N 
ATOM     63  N   UNL     1      11.080  -3.183 -11.694  1.00  0.00    -0.248 NA
ATOM     64  C   UNL     1      10.665  -5.395 -12.325  1.00  0.00     0.031 C 
ATOM     65  C   UNL     1      12.771  -0.089 -14.403  1.00  0.00     0.029 A 
ATOM     66  C   UNL     1      12.219  -1.065 -13.589  1.00  0.00     0.049 A 
ATOM     67  H   UNL     1      11.559  -0.906 -11.590  1.00  0.00     0.167 HD
ATOM     68  C   UNL     1      11.447  -3.356 -13.026  1.00  0.00     0.074 A 
ATOM     69  C   UNL     1      11.196  -4.745 -13.350  1.00  0.00     0.031 C 
ATOM     70  C   UNL     1      11.951  -2.449 -13.900  1.00  0.00     0.034 A 
BRANCH  57  71
ATOM     71  C   UNL     1      12.499   3.272 -11.579  1.00  0.00     0.023 A 
ATOM     72  C   UNL     1      13.524   3.929 -10.876  1.00  0.00     0.031 A 
ATOM     73  C   UNL     1      11.766   4.015 -12.521  1.00  0.00     0.131 A 
ATOM     74  C   UNL     1      13.740   5.301 -11.072  1.00  0.00     0.055 A 
ATOM     75  C   UNL     1      12.038   5.362 -12.768  1.00  0.00     0.041 A 
ATOM     76  F   UNL     1      10.763   3.447 -13.209  1.00  0.00    -0.206 F 
ATOM     77  C   UNL     1      13.020   6.017 -12.031  1.00  0.00     0.022 A 
BRANCH  74  78
ATOM     78  S   UNL     1      14.883   6.165  -9.960  1.00  0.00     0.124 S 
ATOM     79  O   UNL     1      14.270   5.919  -8.657  1.00  0.00    -0.237 OA
ATOM     80  O   UNL     1      16.146   5.480 -10.211  1.00  0.00    -0.237 OA
ATOM     81  O   UNL     1      14.823   7.552 -10.417  1.00  0.00    -0.744 OA
ENDBRANCH  74  78
ENDBRANCH  57  71
BRANCH  58  82
ATOM     82  C   UNL     1       9.635  -6.139  -9.683  1.00  0.00     0.023 A 
ATOM     83  C   UNL     1      10.490  -7.250  -9.758  1.00  0.00     0.031 A 
ATOM     84  C   UNL     1       8.274  -6.372  -9.417  1.00  0.00     0.131 A 
ATOM     85  C   UNL     1       9.969  -8.545  -9.616  1.00  0.00     0.055 A 
ATOM     86  C   UNL     1       7.769  -7.660  -9.225  1.00  0.00     0.041 A 
ATOM     87  F   UNL     1       7.413  -5.345  -9.329  1.00  0.00    -0.206 F 
ATOM     88  C   UNL     1       8.617  -8.757  -9.338  1.00  0.00     0.022 A 
BRANCH  85  89
ATOM     89  S   UNL     1      11.073  -9.959  -9.888  1.00  0.00     0.124 S 
ATOM     90  O   UNL     1      11.550  -9.708 -11.243  1.00  0.00    -0.237 OA
ATOM     91  O   UNL     1      12.052  -9.787  -8.820  1.00  0.00    -0.237 OA
ATOM     92  O   UNL     1      10.190 -11.113  -9.741  1.00  0.00    -0.744 OA
ENDBRANCH  85  89
ENDBRANCH  58  82
BRANCH  70  93
ATOM     93  C   UNL     1      12.300  -2.948 -15.280  1.00  0.00     0.023 A 
ATOM     94  C   UNL     1      11.309  -3.338 -16.197  1.00  0.00     0.031 A 
ATOM     95  C   UNL     1      13.645  -3.032 -15.680  1.00  0.00     0.131 A 
ATOM     96  C   UNL     1      11.680  -3.836 -17.455  1.00  0.00     0.055 A 
ATOM     97  C   UNL     1      14.006  -3.477 -16.952  1.00  0.00     0.041 A 
ATOM     98  F   UNL     1      14.631  -2.674 -14.841  1.00  0.00    -0.206 F 
ATOM     99  C   UNL     1      13.021  -3.892 -17.844  1.00  0.00     0.022 A 
BRANCH  96 100
ATOM    100  S   UNL     1      10.389  -4.473 -18.558  1.00  0.00     0.124 S 
ATOM    101  O   UNL     1       9.834  -5.570 -17.772  1.00  0.00    -0.237 OA
ATOM    102  O   UNL     1       9.523  -3.311 -18.731  1.00  0.00    -0.237 OA
ATOM    103  O   UNL     1      11.127  -4.877 -19.753  1.00  0.00    -0.744 OA
ENDBRANCH  96 100
ENDBRANCH  70  93
ENDBRANCH  44  45
ENDBRANCH  36  39
ENDBRANCH  34  35
ENDBRANCH  33  34
ENDBRANCH  32  33
ENDBRANCH   1  32
TORSDOF 19
