REMARK SMILES Cc1ccoc1C(=O)N1CCO[C@H](CC(=O)NCCCCNC(=O)c2ccc(-c3c4nc(c(-c5cc(S(=O)(=O)[O-])ccc5F)c5ccc([nH]5)c(-c5cc(S(=O)(=O)[O-])ccc5F)c5nc(c(-c6cc(S(=O)(=O)[O-])ccc6F)c6ccc3[nH]6)C=C5)C=C4)cc2)C1
REMARK SMILES IDX 19 1 18 2 17 3 15 4 16 5 14 7 13 8 9 9 10 10 88 11 11 12
REMARK SMILES IDX 12 13 7 14 8 15 6 16 1 17 2 18 3 19 4 20 5 21 20 22 21 23
REMARK SMILES IDX 22 24 23 25 24 27 25 28 26 29 87 30 27 31 86 32 28 33 29 34
REMARK SMILES IDX 30 35 80 36 31 37 85 38 79 39 81 40 32 41 84 42 78 43 77 44
REMARK SMILES IDX 33 46 65 47 45 48 64 49 46 50 49 51 63 52 82 53 47 54 48 55
REMARK SMILES IDX 62 57 83 58 50 59 34 60 35 61 43 62 36 63 42 64 44 65 41 66
REMARK SMILES IDX 37 67 38 68 39 69 40 70 66 71 67 72 75 73 68 74 74 75 76 76
REMARK SMILES IDX 73 77 69 78 70 79 71 80 72 81 51 82 52 83 60 84 53 85 59 86
REMARK SMILES IDX 61 87 58 88 54 89 55 90 56 91 57 92
REMARK H PARENT 17 6 22 26 81 45 49 56
REMARK Flexibility Score: inf
ROOT
ATOM      1  C   UNL     1      -7.008  -1.891   2.391  1.00  0.00     0.023 C 
ENDROOT
BRANCH   1   2
ATOM      2  C   UNL     1      -5.899  -0.846   2.456  1.00  0.00     0.116 C 
BRANCH   2   3
ATOM      3  N   UNL     1      -5.056  -1.075   3.611  1.00  0.00    -0.356 N 
ATOM      4  C   UNL     1      -3.839  -1.683   3.650  1.00  0.00     0.222 C 
ATOM      5  O   UNL     1      -3.355  -2.004   4.734  1.00  0.00    -0.275 OA
ATOM      6  H   UNL     1      -5.405  -0.750   4.472  1.00  0.00     0.163 HD
BRANCH   4   7
ATOM      7  C   UNL     1      -3.079  -1.879   2.366  1.00  0.00     0.133 C 
BRANCH   7   8
ATOM      8  C   UNL     1      -3.362  -3.215   1.662  1.00  0.00     0.147 C 
ATOM      9  N   UNL     1      -1.669  -2.740   0.007  1.00  0.00    -0.331 N 
ATOM     10  C   UNL     1      -2.632  -2.583  -1.070  1.00  0.00     0.148 C 
ATOM     11  C   UNL     1      -2.074  -3.726   1.005  1.00  0.00     0.152 C 
ATOM     12  C   UNL     1      -4.066  -2.395  -0.535  1.00  0.00     0.182 C 
ATOM     13  O   UNL     1      -4.393  -3.148   0.647  1.00  0.00    -0.374 OA
BRANCH   9  14
ATOM     14  C   UNL     1      -0.327  -2.391  -0.066  1.00  0.00     0.289 C 
ATOM     15  O   UNL     1       0.516  -3.263   0.164  1.00  0.00    -0.265 OA
BRANCH  14  16
ATOM     16  C   UNL     1       0.050  -0.986  -0.245  1.00  0.00     0.194 A 
ATOM     17  C   UNL     1      -2.002   0.659  -0.270  1.00  0.00     0.049 C 
ATOM     18  C   UNL     1      -0.577   0.264  -0.291  1.00  0.00     0.000 A 
ATOM     19  C   UNL     1       0.469   1.240  -0.305  1.00  0.00     0.046 A 
ATOM     20  C   UNL     1       1.650   0.554  -0.281  1.00  0.00     0.196 A 
ATOM     21  O   UNL     1       1.414  -0.773  -0.268  1.00  0.00    -0.459 OA
ENDBRANCH  14  16
ENDBRANCH   9  14
ENDBRANCH   7   8
ENDBRANCH   4   7
ENDBRANCH   2   3
ENDBRANCH   1   2
BRANCH   1  22
ATOM     22  C   UNL     1      -8.054  -1.732   3.496  1.00  0.00     0.023 C 
BRANCH  22  23
ATOM     23  C   UNL     1      -8.755  -0.379   3.514  1.00  0.00     0.116 C 
BRANCH  23  24
ATOM     24  N   UNL     1      -9.457  -0.098   2.272  1.00  0.00    -0.352 N 
ATOM     25  C   UNL     1     -10.711   0.438   2.103  1.00  0.00     0.251 C 
ATOM     26  H   UNL     1      -8.972  -0.321   1.445  1.00  0.00     0.163 HD
ATOM     27  O   UNL     1     -11.223   0.458   0.987  1.00  0.00    -0.269 OA
BRANCH  25  28
ATOM     28  C   UNL     1     -11.442   0.951   3.280  1.00  0.00     0.039 A 
ATOM     29  C   UNL     1     -12.768   0.562   3.473  1.00  0.00     0.014 A 
ATOM     30  C   UNL     1     -10.805   1.778   4.210  1.00  0.00     0.014 A 
ATOM     31  C   UNL     1     -13.437   0.953   4.634  1.00  0.00     0.010 A 
ATOM     32  C   UNL     1     -11.448   2.101   5.401  1.00  0.00     0.010 A 
ATOM     33  C   UNL     1     -12.771   1.693   5.626  1.00  0.00    -0.014 A 
BRANCH  33  34
ATOM     34  C   UNL     1     -13.448   2.047   6.902  1.00  0.00     0.031 A 
ATOM     35  C   UNL     1     -13.687   3.489   7.256  1.00  0.00     0.074 A 
ATOM     36  C   UNL     1     -13.805   1.070   7.760  1.00  0.00     0.049 A 
ATOM     37  N   UNL     1     -14.217   3.999   8.338  1.00  0.00    -0.248 NA
ATOM     38  C   UNL     1     -13.245   4.492   6.274  1.00  0.00     0.031 C 
ATOM     39  C   UNL     1     -13.589  -0.363   7.546  1.00  0.00     0.029 A 
ATOM     40  N   UNL     1     -14.421   1.131   8.985  1.00  0.00    -0.354 N 
ATOM     41  C   UNL     1     -14.169   5.379   8.171  1.00  0.00     0.074 A 
ATOM     42  C   UNL     1     -13.491   5.624   6.915  1.00  0.00     0.031 C 
ATOM     43  C   UNL     1     -14.097  -1.044   8.585  1.00  0.00     0.029 A 
ATOM     44  C   UNL     1     -14.629  -0.101   9.562  1.00  0.00     0.049 A 
ATOM     45  H   UNL     1     -14.691   1.977   9.410  1.00  0.00     0.167 HD
ATOM     46  C   UNL     1     -14.667   6.350   8.976  1.00  0.00     0.034 A 
ATOM     47  C   UNL     1     -15.176  -0.432  10.749  1.00  0.00     0.034 A 
ATOM     48  C   UNL     1     -15.343   6.088  10.224  1.00  0.00     0.049 A 
ATOM     49  C   UNL     1     -15.687   0.668  11.646  1.00  0.00     0.074 A 
ATOM     50  C   UNL     1     -15.924   6.992  11.095  1.00  0.00     0.029 A 
ATOM     51  N   UNL     1     -15.521   4.829  10.785  1.00  0.00    -0.354 N 
ATOM     52  N   UNL     1     -15.678   1.967  11.450  1.00  0.00    -0.248 NA
ATOM     53  C   UNL     1     -16.292   0.256  12.918  1.00  0.00     0.031 C 
ATOM     54  C   UNL     1     -16.384   6.291  12.215  1.00  0.00     0.029 A 
ATOM     55  C   UNL     1     -16.172   4.938  12.005  1.00  0.00     0.049 A 
ATOM     56  H   UNL     1     -15.228   3.983  10.376  1.00  0.00     0.167 HD
ATOM     57  C   UNL     1     -16.308   2.522  12.560  1.00  0.00     0.074 A 
ATOM     58  C   UNL     1     -16.699   1.416  13.410  1.00  0.00     0.031 C 
ATOM     59  C   UNL     1     -16.546   3.828  12.850  1.00  0.00     0.034 A 
BRANCH  46  60
ATOM     60  C   UNL     1     -14.474   7.784   8.537  1.00  0.00     0.023 A 
ATOM     61  C   UNL     1     -15.029   8.270   7.339  1.00  0.00     0.031 A 
ATOM     62  C   UNL     1     -13.706   8.671   9.311  1.00  0.00     0.131 A 
ATOM     63  C   UNL     1     -14.743   9.575   6.913  1.00  0.00     0.055 A 
ATOM     64  C   UNL     1     -13.499   9.997   8.925  1.00  0.00     0.041 A 
ATOM     65  F   UNL     1     -13.131   8.261  10.453  1.00  0.00    -0.206 F 
ATOM     66  C   UNL     1     -14.006  10.452   7.711  1.00  0.00     0.022 A 
BRANCH  63  67
ATOM     67  S   UNL     1     -15.221  10.060   5.231  1.00  0.00     0.124 S 
ATOM     68  O   UNL     1     -14.510   9.069   4.426  1.00  0.00    -0.237 OA
ATOM     69  O   UNL     1     -16.673   9.933   5.266  1.00  0.00    -0.237 OA
ATOM     70  O   UNL     1     -14.715  11.426   5.111  1.00  0.00    -0.744 OA
ENDBRANCH  63  67
ENDBRANCH  46  60
BRANCH  47  71
ATOM     71  C   UNL     1     -15.268  -1.860  11.170  1.00  0.00     0.023 A 
ATOM     72  C   UNL     1     -16.514  -2.474  11.379  1.00  0.00     0.031 A 
ATOM     73  C   UNL     1     -14.111  -2.620  11.418  1.00  0.00     0.131 A 
ATOM     74  C   UNL     1     -16.574  -3.786  11.873  1.00  0.00     0.055 A 
ATOM     75  C   UNL     1     -14.177  -3.945  11.852  1.00  0.00     0.041 A 
ATOM     76  F   UNL     1     -12.894  -2.084  11.232  1.00  0.00    -0.206 F 
ATOM     77  C   UNL     1     -15.415  -4.531  12.096  1.00  0.00     0.022 A 
BRANCH  74  78
ATOM     78  S   UNL     1     -18.194  -4.474  12.312  1.00  0.00     0.124 S 
ATOM     79  O   UNL     1     -18.669  -3.509  13.296  1.00  0.00    -0.237 OA
ATOM     80  O   UNL     1     -18.883  -4.472  11.025  1.00  0.00    -0.237 OA
ATOM     81  O   UNL     1     -17.869  -5.798  12.839  1.00  0.00    -0.744 OA
ENDBRANCH  74  78
ENDBRANCH  47  71
BRANCH  59  82
ATOM     82  C   UNL     1     -17.308   4.121  14.122  1.00  0.00     0.023 A 
ATOM     83  C   UNL     1     -16.778   3.825  15.390  1.00  0.00     0.031 A 
ATOM     84  C   UNL     1     -18.594   4.688  14.060  1.00  0.00     0.131 A 
ATOM     85  C   UNL     1     -17.555   4.036  16.539  1.00  0.00     0.055 A 
ATOM     86  C   UNL     1     -19.334   4.960  15.211  1.00  0.00     0.041 A 
ATOM     87  F   UNL     1     -19.153   4.987  12.877  1.00  0.00    -0.206 F 
ATOM     88  C   UNL     1     -18.822   4.620  16.459  1.00  0.00     0.022 A 
BRANCH  85  89
ATOM     89  S   UNL     1     -16.932   3.436  18.134  1.00  0.00     0.124 S 
ATOM     90  O   UNL     1     -16.739   2.014  17.867  1.00  0.00    -0.237 OA
ATOM     91  O   UNL     1     -15.716   4.223  18.310  1.00  0.00    -0.237 OA
ATOM     92  O   UNL     1     -18.014   3.751  19.065  1.00  0.00    -0.744 OA
ENDBRANCH  85  89
ENDBRANCH  59  82
ENDBRANCH  33  34
ENDBRANCH  25  28
ENDBRANCH  23  24
ENDBRANCH  22  23
ENDBRANCH   1  22
TORSDOF 17
