REMARK SMILES CC(C)(C)OC(=O)N[C@H](Cc1ccc(N=[N+]=[N-])cc1)C(=O)NCCCCNC(=O)c1ccc(-c2c3nc(c(-c4cc(S(=O)(=O)[O-])ccc4F)c4ccc([nH]4)c(-c4cc(S(=O)(=O)[O-])ccc4F)c4nc(c(-c5cc(S(=O)(=O)[O-])ccc5F)c5ccc2[nH]5)C=C4)C=C3)cc1
REMARK SMILES IDX 24 1 23 2 22 3 20 4 21 5 9 7 8 8 6 9 7 10 5 12 2 13 1 14
REMARK SMILES IDX 3 15 4 16 10 17 11 18 12 19 19 20 13 21 18 22 14 23 15 24
REMARK SMILES IDX 16 25 17 26 25 27 26 28 27 29 28 30 29 32 30 33 31 34 92 35
REMARK SMILES IDX 32 36 91 37 33 38 34 39 35 40 85 41 36 42 90 43 84 44 86 45
REMARK SMILES IDX 37 46 89 47 83 48 82 49 38 51 70 52 50 53 69 54 51 55 54 56
REMARK SMILES IDX 68 57 87 58 52 59 53 60 67 62 88 63 55 64 39 65 40 66 48 67
REMARK SMILES IDX 41 68 47 69 49 70 46 71 42 72 43 73 44 74 45 75 71 76 72 77
REMARK SMILES IDX 80 78 73 79 79 80 81 81 78 82 74 83 75 84 76 85 77 86 56 87
REMARK SMILES IDX 57 88 65 89 58 90 64 91 66 92 63 93 59 94 60 95 61 96 62 97
REMARK H PARENT 22 6 8 11 27 31 86 50 54 61
REMARK Flexibility Score: inf
ROOT
ATOM      1  C   UNL     1      -0.913   8.203  -0.948  1.00  0.00     0.023 C 
ENDROOT
BRANCH   1   2
ATOM      2  C   UNL     1       0.432   7.866  -0.326  1.00  0.00     0.116 C 
BRANCH   2   3
ATOM      3  N   UNL     1       0.327   7.160   0.938  1.00  0.00    -0.354 N 
ATOM      4  C   UNL     1       1.043   6.086   1.393  1.00  0.00     0.243 C 
ATOM      5  O   UNL     1       0.999   5.841   2.603  1.00  0.00    -0.273 OA
ATOM      6  H   UNL     1      -0.358   7.503   1.556  1.00  0.00     0.163 HD
BRANCH   4   7
ATOM      7  C   UNL     1       1.929   5.238   0.450  1.00  0.00     0.179 C 
BRANCH   7   8
ATOM      8  N   UNL     1       3.333   5.658   0.332  1.00  0.00    -0.309 N 
ATOM      9  C   UNL     1       3.926   6.885   0.289  1.00  0.00     0.408 C 
ATOM     10  O   UNL     1       5.089   6.970  -0.084  1.00  0.00    -0.225 OA
ATOM     11  H   UNL     1       3.968   4.908   0.273  1.00  0.00     0.167 HD
BRANCH   9  12
ATOM     12  O   UNL     1       3.164   7.914   0.726  1.00  0.00    -0.444 OA
BRANCH  12  13
ATOM     13  C   UNL     1       3.714   9.267   0.798  1.00  0.00     0.106 C 
ATOM     14  C   UNL     1       2.606  10.172   1.370  1.00  0.00     0.056 C 
ATOM     15  C   UNL     1       4.068   9.769  -0.607  1.00  0.00     0.056 C 
ATOM     16  C   UNL     1       4.896   9.354   1.770  1.00  0.00     0.056 C 
ENDBRANCH  12  13
ENDBRANCH   9  12
ENDBRANCH   7   8
BRANCH   7  17
ATOM     17  C   UNL     1       1.246   4.869  -0.890  1.00  0.00     0.070 C 
BRANCH  17  18
ATOM     18  C   UNL     1       1.332   3.428  -1.368  1.00  0.00    -0.045 A 
ATOM     19  C   UNL     1       0.177   2.800  -1.859  1.00  0.00     0.004 A 
ATOM     20  C   UNL     1       2.543   2.735  -1.453  1.00  0.00     0.004 A 
ATOM     21  C   UNL     1       0.237   1.518  -2.418  1.00  0.00     0.010 A 
ATOM     22  C   UNL     1       2.596   1.447  -2.007  1.00  0.00     0.010 A 
ATOM     23  C   UNL     1       1.445   0.823  -2.509  1.00  0.00     0.038 A 
BRANCH  23  24
ATOM     24  N   UNL     1       1.400  -0.460  -3.090  1.00  0.00    -0.061 NA
ATOM     25  N   UNL     1       2.494  -0.972  -3.380  1.00  0.00     0.005 N 
ATOM     26  N   UNL     1       3.492  -1.460  -3.648  1.00  0.00    -0.003 NA
ENDBRANCH  23  24
ENDBRANCH  17  18
ENDBRANCH   7  17
ENDBRANCH   4   7
ENDBRANCH   2   3
ENDBRANCH   1   2
BRANCH   1  27
ATOM     27  C   UNL     1      -1.707   9.291  -0.216  1.00  0.00     0.023 C 
BRANCH  27  28
ATOM     28  C   UNL     1      -0.986  10.614   0.060  1.00  0.00     0.116 C 
BRANCH  28  29
ATOM     29  N   UNL     1      -0.221  11.133  -1.062  1.00  0.00    -0.352 N 
ATOM     30  C   UNL     1       0.145  12.434  -1.321  1.00  0.00     0.251 C 
ATOM     31  H   UNL     1       0.073  10.467  -1.724  1.00  0.00     0.163 HD
ATOM     32  O   UNL     1       0.775  12.701  -2.339  1.00  0.00    -0.269 OA
BRANCH  30  33
ATOM     33  C   UNL     1      -0.269  13.507  -0.393  1.00  0.00     0.039 A 
ATOM     34  C   UNL     1      -0.998  14.580  -0.907  1.00  0.00     0.014 A 
ATOM     35  C   UNL     1       0.027  13.443   0.972  1.00  0.00     0.014 A 
ATOM     36  C   UNL     1      -1.492  15.555  -0.039  1.00  0.00     0.010 A 
ATOM     37  C   UNL     1      -0.516  14.389   1.844  1.00  0.00     0.010 A 
ATOM     38  C   UNL     1      -1.295  15.446   1.349  1.00  0.00    -0.014 A 
BRANCH  38  39
ATOM     39  C   UNL     1      -1.968  16.405   2.268  1.00  0.00     0.031 A 
ATOM     40  C   UNL     1      -1.178  17.367   3.110  1.00  0.00     0.074 A 
ATOM     41  C   UNL     1      -3.315  16.398   2.338  1.00  0.00     0.049 A 
ATOM     42  N   UNL     1      -1.610  18.323   3.894  1.00  0.00    -0.248 NA
ATOM     43  C   UNL     1       0.284  17.225   3.087  1.00  0.00     0.031 C 
ATOM     44  C   UNL     1      -4.188  15.467   1.616  1.00  0.00     0.029 A 
ATOM     45  N   UNL     1      -4.189  17.200   3.028  1.00  0.00    -0.354 N 
ATOM     46  C   UNL     1      -0.475  18.903   4.450  1.00  0.00     0.074 A 
ATOM     47  C   UNL     1       0.659  18.144   3.965  1.00  0.00     0.031 C 
ATOM     48  C   UNL     1      -5.468  15.787   1.857  1.00  0.00     0.029 A 
ATOM     49  C   UNL     1      -5.513  16.912   2.784  1.00  0.00     0.049 A 
ATOM     50  H   UNL     1      -3.896  17.914   3.639  1.00  0.00     0.167 HD
ATOM     51  C   UNL     1      -0.388  19.982   5.270  1.00  0.00     0.034 A 
ATOM     52  C   UNL     1      -6.639  17.489   3.251  1.00  0.00     0.034 A 
ATOM     53  C   UNL     1      -1.534  20.718   5.755  1.00  0.00     0.049 A 
ATOM     54  C   UNL     1      -6.514  18.672   4.176  1.00  0.00     0.074 A 
ATOM     55  C   UNL     1      -1.557  21.854   6.547  1.00  0.00     0.029 A 
ATOM     56  N   UNL     1      -2.861  20.381   5.515  1.00  0.00    -0.354 N 
ATOM     57  N   UNL     1      -5.429  19.261   4.626  1.00  0.00    -0.248 NA
ATOM     58  C   UNL     1      -7.767  19.279   4.638  1.00  0.00     0.031 C 
ATOM     59  C   UNL     1      -2.889  22.150   6.856  1.00  0.00     0.029 A 
ATOM     60  C   UNL     1      -3.707  21.261   6.178  1.00  0.00     0.049 A 
ATOM     61  H   UNL     1      -3.159  19.628   4.955  1.00  0.00     0.167 HD
ATOM     62  C   UNL     1      -5.873  20.324   5.408  1.00  0.00     0.074 A 
ATOM     63  C   UNL     1      -7.320  20.314   5.332  1.00  0.00     0.031 C 
ATOM     64  C   UNL     1      -5.152  21.225   6.126  1.00  0.00     0.034 A 
BRANCH  51  65
ATOM     65  C   UNL     1       0.993  20.412   5.715  1.00  0.00     0.023 A 
ATOM     66  C   UNL     1       1.971  20.828   4.794  1.00  0.00     0.031 A 
ATOM     67  C   UNL     1       1.343  20.393   7.077  1.00  0.00     0.131 A 
ATOM     68  C   UNL     1       3.268  21.134   5.237  1.00  0.00     0.055 A 
ATOM     69  C   UNL     1       2.608  20.784   7.520  1.00  0.00     0.041 A 
ATOM     70  F   UNL     1       0.462  19.985   8.004  1.00  0.00    -0.206 F 
ATOM     71  C   UNL     1       3.585  21.143   6.596  1.00  0.00     0.022 A 
BRANCH  68  72
ATOM     72  S   UNL     1       4.572  21.370   3.998  1.00  0.00     0.124 S 
ATOM     73  O   UNL     1       4.521  20.104   3.271  1.00  0.00    -0.237 OA
ATOM     74  O   UNL     1       4.108  22.545   3.270  1.00  0.00    -0.237 OA
ATOM     75  O   UNL     1       5.777  21.568   4.803  1.00  0.00    -0.744 OA
ENDBRANCH  68  72
ENDBRANCH  51  65
BRANCH  52  76
ATOM     76  C   UNL     1      -7.979  16.960   2.861  1.00  0.00     0.023 A 
ATOM     77  C   UNL     1      -8.898  17.750   2.150  1.00  0.00     0.031 A 
ATOM     78  C   UNL     1      -8.380  15.665   3.237  1.00  0.00     0.131 A 
ATOM     79  C   UNL     1     -10.186  17.258   1.884  1.00  0.00     0.055 A 
ATOM     80  C   UNL     1      -9.639  15.157   2.913  1.00  0.00     0.041 A 
ATOM     81  F   UNL     1      -7.542  14.865   3.917  1.00  0.00    -0.206 F 
ATOM     82  C   UNL     1     -10.556  15.961   2.246  1.00  0.00     0.022 A 
BRANCH  79  83
ATOM     83  S   UNL     1     -11.409  18.375   1.143  1.00  0.00     0.124 S 
ATOM     84  O   UNL     1     -11.439  19.466   2.110  1.00  0.00    -0.237 OA
ATOM     85  O   UNL     1     -10.800  18.677  -0.148  1.00  0.00    -0.237 OA
ATOM     86  O   UNL     1     -12.620  17.559   1.082  1.00  0.00    -0.744 OA
ENDBRANCH  79  83
ENDBRANCH  52  76
BRANCH  64  87
ATOM     87  C   UNL     1      -5.935  22.287   6.866  1.00  0.00     0.023 A 
ATOM     88  C   UNL     1      -6.856  21.954   7.875  1.00  0.00     0.031 A 
ATOM     89  C   UNL     1      -5.805  23.643   6.518  1.00  0.00     0.131 A 
ATOM     90  C   UNL     1      -7.680  22.946   8.428  1.00  0.00     0.055 A 
ATOM     91  C   UNL     1      -6.565  24.638   7.136  1.00  0.00     0.041 A 
ATOM     92  F   UNL     1      -4.946  24.026   5.560  1.00  0.00    -0.206 F 
ATOM     93  C   UNL     1      -7.526  24.289   8.080  1.00  0.00     0.022 A 
BRANCH  90  94
ATOM     94  S   UNL     1      -9.064  22.432   9.483  1.00  0.00     0.124 S 
ATOM     95  O   UNL     1      -9.776  21.501   8.613  1.00  0.00    -0.237 OA
ATOM     96  O   UNL     1      -8.380  21.840  10.627  1.00  0.00    -0.237 OA
ATOM     97  O   UNL     1      -9.767  23.684   9.759  1.00  0.00    -0.744 OA
ENDBRANCH  90  94
ENDBRANCH  64  87
ENDBRANCH  38  39
ENDBRANCH  30  33
ENDBRANCH  28  29
ENDBRANCH  27  28
ENDBRANCH   1  27
TORSDOF 20
