REMARK SMILES CC(C)COc1ccc(CC(=O)NCCCCNC(=O)c2ccc(-c3c4nc(c(-c5cc(S(=O)(=O)[O-])ccc5F)c5ccc([nH]5)c(-c5cc(S(=O)(=O)[O-])ccc5F)c5nc(c(-c6cc(S(=O)(=O)[O-])ccc6F)c6ccc3[nH]6)C=C5)C=C4)cc2)cc1
REMARK SMILES IDX 15 1 14 2 13 3 11 4 12 5 10 7 9 8 6 9 7 10 85 11 8 12 84 13
REMARK SMILES IDX 5 14 4 15 2 16 1 17 3 18 16 19 17 20 18 21 19 22 20 24 21 25
REMARK SMILES IDX 22 26 83 27 23 28 82 29 24 30 25 31 26 32 76 33 27 34 81 35
REMARK SMILES IDX 75 36 77 37 28 38 80 39 74 40 73 41 29 43 61 44 41 45 60 46
REMARK SMILES IDX 42 47 45 48 59 49 78 50 43 51 44 52 58 54 79 55 46 56 30 57
REMARK SMILES IDX 31 58 39 59 32 60 38 61 40 62 37 63 33 64 34 65 35 66 36 67
REMARK SMILES IDX 62 68 63 69 71 70 64 71 70 72 72 73 69 74 65 75 66 76 67 77
REMARK SMILES IDX 68 78 47 79 48 80 56 81 49 82 55 83 57 84 54 85 50 86 51 87
REMARK SMILES IDX 52 88 53 89
REMARK H PARENT 13 6 18 23 77 42 45 53
REMARK Flexibility Score: inf
ROOT
ATOM      1  C   UNL     1       0.906  -3.592   4.054  1.00  0.00     0.023 C 
ENDROOT
BRANCH   1   2
ATOM      2  C   UNL     1       1.375  -4.814   3.260  1.00  0.00     0.116 C 
BRANCH   2   3
ATOM      3  N   UNL     1       0.300  -5.764   3.052  1.00  0.00    -0.356 N 
ATOM      4  C   UNL     1      -0.551  -5.893   1.991  1.00  0.00     0.224 C 
ATOM      5  O   UNL     1      -1.442  -6.743   2.058  1.00  0.00    -0.275 OA
ATOM      6  H   UNL     1       0.163  -6.411   3.782  1.00  0.00     0.163 HD
BRANCH   4   7
ATOM      7  C   UNL     1      -0.362  -5.062   0.732  1.00  0.00     0.135 C 
BRANCH   7   8
ATOM      8  C   UNL     1      -0.658  -3.592   0.894  1.00  0.00    -0.038 A 
ATOM      9  C   UNL     1      -1.126  -0.863   1.300  1.00  0.00     0.119 A 
ATOM     10  C   UNL     1      -2.204  -1.740   1.210  1.00  0.00     0.047 A 
ATOM     11  C   UNL     1       0.171  -1.355   1.280  1.00  0.00     0.047 A 
ATOM     12  C   UNL     1      -1.969  -3.110   1.028  1.00  0.00     0.008 A 
ATOM     13  C   UNL     1       0.404  -2.687   0.975  1.00  0.00     0.008 A 
BRANCH   9  14
ATOM     14  O   UNL     1      -1.336   0.478   1.458  1.00  0.00    -0.493 OA
BRANCH  14  15
ATOM     15  C   UNL     1      -1.089   1.222   0.242  1.00  0.00     0.232 C 
BRANCH  15  16
ATOM     16  C   UNL     1       0.410   1.519  -0.001  1.00  0.00     0.020 C 
ATOM     17  C   UNL     1       1.030   0.569  -1.041  1.00  0.00     0.011 C 
ATOM     18  C   UNL     1       0.636   2.953  -0.481  1.00  0.00     0.011 C 
ENDBRANCH  15  16
ENDBRANCH  14  15
ENDBRANCH   9  14
ENDBRANCH   7   8
ENDBRANCH   4   7
ENDBRANCH   2   3
ENDBRANCH   1   2
BRANCH   1  19
ATOM     19  C   UNL     1       0.718  -3.842   5.549  1.00  0.00     0.023 C 
BRANCH  19  20
ATOM     20  C   UNL     1       1.970  -4.301   6.281  1.00  0.00     0.116 C 
BRANCH  20  21
ATOM     21  N   UNL     1       3.067  -3.353   6.184  1.00  0.00    -0.352 N 
ATOM     22  C   UNL     1       3.996  -3.016   7.142  1.00  0.00     0.251 C 
ATOM     23  H   UNL     1       3.157  -2.891   5.320  1.00  0.00     0.163 HD
ATOM     24  O   UNL     1       4.770  -2.091   6.939  1.00  0.00    -0.269 OA
BRANCH  22  25
ATOM     25  C   UNL     1       4.017  -3.753   8.426  1.00  0.00     0.039 A 
ATOM     26  C   UNL     1       4.133  -3.030   9.614  1.00  0.00     0.014 A 
ATOM     27  C   UNL     1       3.901  -5.146   8.460  1.00  0.00     0.014 A 
ATOM     28  C   UNL     1       4.079  -3.700  10.838  1.00  0.00     0.010 A 
ATOM     29  C   UNL     1       3.759  -5.801   9.680  1.00  0.00     0.010 A 
ATOM     30  C   UNL     1       3.858  -5.087  10.883  1.00  0.00    -0.014 A 
BRANCH  30  31
ATOM     31  C   UNL     1       3.750  -5.801  12.182  1.00  0.00     0.031 A 
ATOM     32  C   UNL     1       4.762  -6.854  12.549  1.00  0.00     0.074 A 
ATOM     33  C   UNL     1       2.725  -5.526  13.013  1.00  0.00     0.049 A 
ATOM     34  N   UNL     1       4.825  -7.603  13.620  1.00  0.00    -0.248 NA
ATOM     35  C   UNL     1       5.826  -7.120  11.570  1.00  0.00     0.031 C 
ATOM     36  C   UNL     1       1.660  -4.556  12.747  1.00  0.00     0.029 A 
ATOM     37  N   UNL     1       2.410  -6.032  14.249  1.00  0.00    -0.354 N 
ATOM     38  C   UNL     1       5.930  -8.429  13.442  1.00  0.00     0.074 A 
ATOM     39  C   UNL     1       6.460  -8.140  12.127  1.00  0.00     0.031 C 
ATOM     40  C   UNL     1       0.834  -4.509  13.804  1.00  0.00     0.029 A 
ATOM     41  C   UNL     1       1.277  -5.478  14.802  1.00  0.00     0.049 A 
ATOM     42  H   UNL     1       2.944  -6.725  14.699  1.00  0.00     0.167 HD
ATOM     43  C   UNL     1       6.471  -9.323  14.306  1.00  0.00     0.034 A 
ATOM     44  C   UNL     1       0.661  -5.728  15.975  1.00  0.00     0.034 A 
ATOM     45  C   UNL     1       5.932  -9.594  15.617  1.00  0.00     0.049 A 
ATOM     46  C   UNL     1       1.259  -6.758  16.902  1.00  0.00     0.074 A 
ATOM     47  C   UNL     1       6.426 -10.443  16.592  1.00  0.00     0.029 A 
ATOM     48  N   UNL     1       4.772  -9.030  16.134  1.00  0.00    -0.354 N 
ATOM     49  N   UNL     1       2.339  -7.489  16.741  1.00  0.00    -0.248 NA
ATOM     50  C   UNL     1       0.561  -6.987  18.173  1.00  0.00     0.031 C 
ATOM     51  C   UNL     1       5.526 -10.453  17.662  1.00  0.00     0.029 A 
ATOM     52  C   UNL     1       4.516  -9.542  17.397  1.00  0.00     0.049 A 
ATOM     53  H   UNL     1       4.214  -8.364  15.671  1.00  0.00     0.167 HD
ATOM     54  C   UNL     1       2.464  -8.240  17.907  1.00  0.00     0.074 A 
ATOM     55  C   UNL     1       1.363  -7.857  18.767  1.00  0.00     0.031 C 
ATOM     56  C   UNL     1       3.405  -9.161  18.240  1.00  0.00     0.034 A 
BRANCH  43  57
ATOM     57  C   UNL     1       7.692 -10.085  13.846  1.00  0.00     0.023 A 
ATOM     58  C   UNL     1       8.894  -9.430  13.523  1.00  0.00     0.031 A 
ATOM     59  C   UNL     1       7.650 -11.483  13.706  1.00  0.00     0.131 A 
ATOM     60  C   UNL     1       9.974 -10.159  13.002  1.00  0.00     0.055 A 
ATOM     61  C   UNL     1       8.758 -12.214  13.271  1.00  0.00     0.041 A 
ATOM     62  F   UNL     1       6.526 -12.165  13.976  1.00  0.00    -0.206 F 
ATOM     63  C   UNL     1       9.924 -11.551  12.901  1.00  0.00     0.022 A 
BRANCH  60  64
ATOM     64  S   UNL     1      11.384  -9.247  12.316  1.00  0.00     0.124 S 
ATOM     65  O   UNL     1      10.738  -8.438  11.285  1.00  0.00    -0.237 OA
ATOM     66  O   UNL     1      11.885  -8.522  13.477  1.00  0.00    -0.237 OA
ATOM     67  O   UNL     1      12.261 -10.302  11.811  1.00  0.00    -0.744 OA
ENDBRANCH  60  64
ENDBRANCH  43  57
BRANCH  44  68
ATOM     68  C   UNL     1      -0.592  -5.007  16.344  1.00  0.00     0.023 A 
ATOM     69  C   UNL     1      -0.642  -4.175  17.474  1.00  0.00     0.031 A 
ATOM     70  C   UNL     1      -1.774  -5.180  15.603  1.00  0.00     0.131 A 
ATOM     71  C   UNL     1      -1.859  -3.593  17.862  1.00  0.00     0.055 A 
ATOM     72  C   UNL     1      -2.968  -4.549  15.957  1.00  0.00     0.041 A 
ATOM     73  F   UNL     1      -1.784  -5.964  14.512  1.00  0.00    -0.206 F 
ATOM     74  C   UNL     1      -3.019  -3.761  17.102  1.00  0.00     0.022 A 
BRANCH  71  75
ATOM     75  S   UNL     1      -1.929  -2.693  19.436  1.00  0.00     0.124 S 
ATOM     76  O   UNL     1      -1.490  -3.714  20.380  1.00  0.00    -0.237 OA
ATOM     77  O   UNL     1      -0.998  -1.595  19.198  1.00  0.00    -0.237 OA
ATOM     78  O   UNL     1      -3.334  -2.305  19.544  1.00  0.00    -0.744 OA
ENDBRANCH  71  75
ENDBRANCH  44  68
BRANCH  56  79
ATOM     79  C   UNL     1       3.303  -9.783  19.612  1.00  0.00     0.023 A 
ATOM     80  C   UNL     1       2.219 -10.602  19.976  1.00  0.00     0.031 A 
ATOM     81  C   UNL     1       4.299  -9.541  20.575  1.00  0.00     0.131 A 
ATOM     82  C   UNL     1       2.124 -11.095  21.286  1.00  0.00     0.055 A 
ATOM     83  C   UNL     1       4.235 -10.093  21.855  1.00  0.00     0.041 A 
ATOM     84  F   UNL     1       5.356  -8.764  20.286  1.00  0.00    -0.206 F 
ATOM     85  C   UNL     1       3.135 -10.862  22.222  1.00  0.00     0.022 A 
BRANCH  82  86
ATOM     86  S   UNL     1       0.607 -11.955  21.784  1.00  0.00     0.124 S 
ATOM     87  O   UNL     1      -0.414 -10.947  21.520  1.00  0.00    -0.237 OA
ATOM     88  O   UNL     1       0.602 -13.116  20.899  1.00  0.00    -0.237 OA
ATOM     89  O   UNL     1       0.831 -12.256  23.197  1.00  0.00    -0.744 OA
ENDBRANCH  82  86
ENDBRANCH  56  79
ENDBRANCH  30  31
ENDBRANCH  22  25
ENDBRANCH  20  21
ENDBRANCH  19  20
ENDBRANCH   1  19
TORSDOF 18
