REMARK SMILES Cc1cc(C)c2nc(NS(=O)(=O)c3cc(C(=O)NCCCCNC(=O)c4ccc(-c5c6nc(c(-c7cc(S(=O)(=O)[O-])ccc7F)c7ccc([nH]7)c(-c7cc(S(=O)(=O)[O-])ccc7F)c7nc(c(-c8cc(S(=O)(=O)[O-])ccc8F)c8ccc5[nH]8)C=C7)C=C6)cc4)ccc3Cl)sc2c1
REMARK SMILES IDX 20 1 19 2 18 3 16 4 17 5 15 7 13 8 14 9 91 10 90 11 92 12
REMARK SMILES IDX 89 13 10 14 11 15 12 16 9 17 8 19 1 20 2 21 3 22 95 23 4 24
REMARK SMILES IDX 94 25 5 26 6 27 93 28 7 29 21 30 22 31 23 32 24 33 25 35
REMARK SMILES IDX 26 36 27 37 88 38 28 39 87 40 29 41 30 42 31 43 81 44 32 45
REMARK SMILES IDX 86 46 80 47 82 48 33 49 85 50 79 51 78 52 34 54 66 55 46 56
REMARK SMILES IDX 65 57 47 58 50 59 64 60 83 61 48 62 49 63 63 65 84 66 51 67
REMARK SMILES IDX 35 68 36 69 44 70 37 71 43 72 45 73 42 74 38 75 39 76 40 77
REMARK SMILES IDX 41 78 67 79 68 80 76 81 69 82 75 83 77 84 74 85 70 86 71 87
REMARK SMILES IDX 72 88 73 89 52 90 53 91 61 92 54 93 60 94 62 95 59 96 55 97
REMARK SMILES IDX 56 98 57 99 58 100
REMARK H PARENT 18 6 9 18 23 34 82 53 50 64
REMARK Flexibility Score: inf
ROOT
ATOM      1  C   UNL     1      -2.723   7.338   1.743  1.00  0.00     0.023 C 
ENDROOT
BRANCH   1   2
ATOM      2  C   UNL     1      -1.396   7.222   2.499  1.00  0.00     0.116 C 
BRANCH   2   3
ATOM      3  N   UNL     1      -1.520   7.301   3.946  1.00  0.00    -0.352 N 
ATOM      4  C   UNL     1      -1.493   6.401   4.987  1.00  0.00     0.251 C 
ATOM      5  O   UNL     1      -1.522   6.875   6.125  1.00  0.00    -0.269 OA
ATOM      6  H   UNL     1      -1.658   8.224   4.258  1.00  0.00     0.163 HD
BRANCH   4   7
ATOM      7  C   UNL     1      -1.551   4.910   4.848  1.00  0.00     0.041 A 
ATOM      8  C   UNL     1      -2.091   2.766   5.910  1.00  0.00     0.107 A 
ATOM      9  C   UNL     1      -1.799   4.144   6.003  1.00  0.00     0.037 A 
ATOM     10  C   UNL     1      -2.312   2.200   4.663  1.00  0.00     0.061 A 
ATOM     11  C   UNL     1      -1.869   2.894   3.543  1.00  0.00     0.023 A 
ATOM     12  Cl  UNL     1      -3.084   0.683   4.408  1.00  0.00    -0.083 Cl
ATOM     13  C   UNL     1      -1.417   4.211   3.656  1.00  0.00     0.015 A 
BRANCH   8  14
ATOM     14  S   UNL     1      -1.906   1.779   7.375  1.00  0.00     0.265 S 
ATOM     15  O   UNL     1      -3.247   1.539   7.865  1.00  0.00    -0.201 OA
ATOM     16  O   UNL     1      -0.925   2.442   8.210  1.00  0.00    -0.201 OA
BRANCH  14  17
ATOM     17  N   UNL     1      -1.269   0.281   7.004  1.00  0.00    -0.255 N 
ATOM     18  H   UNL     1      -1.586  -0.494   7.522  1.00  0.00     0.182 HD
BRANCH  17  19
ATOM     19  C   UNL     1      -0.306   0.053   5.999  1.00  0.00     0.197 A 
ATOM     20  C   UNL     1       1.137  -0.141   0.085  1.00  0.00     0.044 C 
ATOM     21  C   UNL     1       0.915  -0.478   1.533  1.00  0.00    -0.049 A 
ATOM     22  C   UNL     1       0.637  -1.794   1.917  1.00  0.00     0.009 A 
ATOM     23  C   UNL     1       1.037   0.519   2.510  1.00  0.00     0.024 A 
ATOM     24  C   UNL     1       0.350  -2.134   3.256  1.00  0.00    -0.024 A 
ATOM     25  C   UNL     1       0.712   0.192   3.835  1.00  0.00     0.057 A 
ATOM     26  C   UNL     1       0.082  -3.567   3.618  1.00  0.00     0.047 C 
ATOM     27  C   UNL     1       0.278  -1.083   4.203  1.00  0.00     0.087 A 
ATOM     28  S   UNL     1       0.748   1.174   5.261  1.00  0.00    -0.096 S 
ATOM     29  N   UNL     1      -0.265  -1.154   5.482  1.00  0.00    -0.219 NA
ENDBRANCH  17  19
ENDBRANCH  14  17
ENDBRANCH   8  14
ENDBRANCH   4   7
ENDBRANCH   2   3
ENDBRANCH   1   2
BRANCH   1  30
ATOM     30  C   UNL     1      -3.211   8.771   1.482  1.00  0.00     0.023 C 
BRANCH  30  31
ATOM     31  C   UNL     1      -2.229   9.667   0.730  1.00  0.00     0.116 C 
BRANCH  31  32
ATOM     32  N   UNL     1      -1.884   9.169  -0.600  1.00  0.00    -0.352 N 
ATOM     33  C   UNL     1      -0.974   9.726  -1.492  1.00  0.00     0.251 C 
ATOM     34  H   UNL     1      -2.345   8.351  -0.896  1.00  0.00     0.163 HD
ATOM     35  O   UNL     1      -1.052   9.505  -2.682  1.00  0.00    -0.269 OA
BRANCH  33  36
ATOM     36  C   UNL     1       0.101  10.576  -0.937  1.00  0.00     0.039 A 
ATOM     37  C   UNL     1       0.430  11.811  -1.501  1.00  0.00     0.014 A 
ATOM     38  C   UNL     1       0.746  10.118   0.210  1.00  0.00     0.014 A 
ATOM     39  C   UNL     1       1.354  12.623  -0.842  1.00  0.00     0.010 A 
ATOM     40  C   UNL     1       1.556  10.967   0.923  1.00  0.00     0.010 A 
ATOM     41  C   UNL     1       1.895  12.206   0.387  1.00  0.00    -0.014 A 
BRANCH  41  42
ATOM     42  C   UNL     1       2.660  13.129   1.230  1.00  0.00     0.031 A 
ATOM     43  C   UNL     1       1.915  14.382   1.546  1.00  0.00     0.074 A 
ATOM     44  C   UNL     1       3.801  12.770   1.868  1.00  0.00     0.049 A 
ATOM     45  N   UNL     1       2.178  15.581   1.143  1.00  0.00    -0.248 NA
ATOM     46  C   UNL     1       0.617  14.278   2.244  1.00  0.00     0.031 C 
ATOM     47  C   UNL     1       4.450  11.451   1.849  1.00  0.00     0.029 A 
ATOM     48  N   UNL     1       4.573  13.456   2.762  1.00  0.00    -0.354 N 
ATOM     49  C   UNL     1       1.255  16.406   1.783  1.00  0.00     0.074 A 
ATOM     50  C   UNL     1       0.198  15.546   2.237  1.00  0.00     0.031 C 
ATOM     51  C   UNL     1       5.344  11.360   2.859  1.00  0.00     0.029 A 
ATOM     52  C   UNL     1       5.471  12.663   3.487  1.00  0.00     0.049 A 
ATOM     53  H   UNL     1       4.503  14.430   2.887  1.00  0.00     0.167 HD
ATOM     54  C   UNL     1       1.606  17.666   2.169  1.00  0.00     0.034 A 
ATOM     55  C   UNL     1       6.275  13.053   4.514  1.00  0.00     0.034 A 
ATOM     56  C   UNL     1       2.851  18.051   1.552  1.00  0.00     0.049 A 
ATOM     57  C   UNL     1       6.473  14.507   4.343  1.00  0.00     0.074 A 
ATOM     58  C   UNL     1       3.271  18.436   0.298  1.00  0.00     0.029 A 
ATOM     59  N   UNL     1       3.955  17.618   2.240  1.00  0.00    -0.354 N 
ATOM     60  N   UNL     1       7.062  15.026   3.301  1.00  0.00    -0.248 NA
ATOM     61  C   UNL     1       5.675  15.431   5.139  1.00  0.00     0.031 C 
ATOM     62  C   UNL     1       4.634  18.021   0.196  1.00  0.00     0.029 A 
ATOM     63  C   UNL     1       5.031  17.459   1.407  1.00  0.00     0.049 A 
ATOM     64  H   UNL     1       3.973  17.445   3.209  1.00  0.00     0.167 HD
ATOM     65  C   UNL     1       6.370  16.195   3.068  1.00  0.00     0.074 A 
ATOM     66  C   UNL     1       5.663  16.480   4.313  1.00  0.00     0.031 C 
ATOM     67  C   UNL     1       6.167  16.646   1.798  1.00  0.00     0.034 A 
BRANCH  54  68
ATOM     68  C   UNL     1       1.131  18.353   3.436  1.00  0.00     0.023 A 
ATOM     69  C   UNL     1       1.492  19.702   3.644  1.00  0.00     0.031 A 
ATOM     70  C   UNL     1       0.605  17.680   4.564  1.00  0.00     0.131 A 
ATOM     71  C   UNL     1       1.352  20.303   4.911  1.00  0.00     0.055 A 
ATOM     72  C   UNL     1       0.423  18.295   5.806  1.00  0.00     0.041 A 
ATOM     73  F   UNL     1       0.336  16.369   4.558  1.00  0.00    -0.206 F 
ATOM     74  C   UNL     1       0.813  19.608   5.991  1.00  0.00     0.022 A 
BRANCH  71  75
ATOM     75  S   UNL     1       1.978  21.987   5.166  1.00  0.00     0.124 S 
ATOM     76  O   UNL     1       3.397  21.832   4.872  1.00  0.00    -0.237 OA
ATOM     77  O   UNL     1       1.197  22.749   4.197  1.00  0.00    -0.237 OA
ATOM     78  O   UNL     1       1.658  22.260   6.566  1.00  0.00    -0.744 OA
ENDBRANCH  71  75
ENDBRANCH  54  68
BRANCH  55  79
ATOM     79  C   UNL     1       6.655  12.343   5.773  1.00  0.00     0.023 A 
ATOM     80  C   UNL     1       7.648  12.853   6.647  1.00  0.00     0.031 A 
ATOM     81  C   UNL     1       5.828  11.325   6.292  1.00  0.00     0.131 A 
ATOM     82  C   UNL     1       7.748  12.385   7.979  1.00  0.00     0.055 A 
ATOM     83  C   UNL     1       5.928  10.870   7.612  1.00  0.00     0.041 A 
ATOM     84  F   UNL     1       4.829  10.805   5.563  1.00  0.00    -0.206 F 
ATOM     85  C   UNL     1       6.874  11.414   8.468  1.00  0.00     0.022 A 
BRANCH  82  86
ATOM     86  S   UNL     1       8.927  13.140   9.151  1.00  0.00     0.124 S 
ATOM     87  O   UNL     1      10.177  12.477   8.795  1.00  0.00    -0.237 OA
ATOM     88  O   UNL     1       8.834  14.559   8.830  1.00  0.00    -0.237 OA
ATOM     89  O   UNL     1       8.385  12.773  10.460  1.00  0.00    -0.744 OA
ENDBRANCH  82  86
ENDBRANCH  55  79
BRANCH  67  90
ATOM     90  C   UNL     1       7.131  16.205   0.726  1.00  0.00     0.023 A 
ATOM     91  C   UNL     1       7.253  14.899   0.200  1.00  0.00     0.031 A 
ATOM     92  C   UNL     1       7.919  17.221   0.159  1.00  0.00     0.131 A 
ATOM     93  C   UNL     1       8.144  14.661  -0.869  1.00  0.00     0.055 A 
ATOM     94  C   UNL     1       8.780  16.985  -0.907  1.00  0.00     0.041 A 
ATOM     95  F   UNL     1       7.832  18.481   0.617  1.00  0.00    -0.206 F 
ATOM     96  C   UNL     1       8.897  15.702  -1.425  1.00  0.00     0.022 A 
BRANCH  93  97
ATOM     97  S   UNL     1       8.334  12.988  -1.573  1.00  0.00     0.124 S 
ATOM     98  O   UNL     1       8.744  12.186  -0.426  1.00  0.00    -0.237 OA
ATOM     99  O   UNL     1       7.004  12.710  -2.106  1.00  0.00    -0.237 OA
ATOM    100  O   UNL     1       9.370  13.161  -2.594  1.00  0.00    -0.744 OA
ENDBRANCH  93  97
ENDBRANCH  67  90
ENDBRANCH  41  42
ENDBRANCH  33  36
ENDBRANCH  31  32
ENDBRANCH  30  31
ENDBRANCH   1  30
TORSDOF 17
