REMARK SMILES O=C(NCCCCNC(=O)c1cccc(S(=O)(=O)NC[C@@H]2COc3ccccc3O2)c1)c1ccc(-c2c3nc(c(-c4cc(S(=O)(=O)[O-])ccc4F)c4ccc([nH]4)c(-c4cc(S(=O)(=O)[O-])ccc4F)c4nc(c(-c5cc(S(=O)(=O)[O-])ccc5F)c5ccc2[nH]5)C=C4)C=C3)cc1
REMARK SMILES IDX 6 1 5 2 4 3 3 4 1 5 2 6 32 8 33 9 94 10 34 11 93 12 35 13
REMARK SMILES IDX 36 14 37 15 87 16 38 17 92 18 86 19 88 20 39 21 91 22 85 23
REMARK SMILES IDX 84 24 40 26 72 27 52 28 71 29 53 30 56 31 70 32 89 33 54 34
REMARK SMILES IDX 55 35 69 37 90 38 57 39 41 40 42 41 50 42 43 43 49 44 51 45
REMARK SMILES IDX 48 46 44 47 45 48 46 49 47 50 73 51 74 52 82 53 75 54 81 55
REMARK SMILES IDX 83 56 80 57 76 58 77 59 78 60 79 61 58 62 59 63 67 64 60 65
REMARK SMILES IDX 66 66 68 67 65 68 61 69 62 70 63 71 64 72 7 73 8 74 9 75
REMARK SMILES IDX 10 77 11 78 12 79 31 80 13 81 15 82 14 83 16 84 17 85 18 86
REMARK SMILES IDX 19 87 20 89 21 90 22 91 30 92 23 93 29 94 24 95 28 96 25 97
REMARK SMILES IDX 27 98 26 99
REMARK H PARENT 3 7 88 25 56 36 8 76 19 88
REMARK Flexibility Score: inf
ROOT
ATOM      1  C   UNL     1       4.371  -1.332   3.423  1.00  0.00     0.023 C 
ENDROOT
BRANCH   1   2
ATOM      2  C   UNL     1       4.938  -0.387   2.360  1.00  0.00     0.023 C 
BRANCH   2   3
ATOM      3  C   UNL     1       4.641  -0.767   0.911  1.00  0.00     0.116 C 
BRANCH   3   4
ATOM      4  N   UNL     1       3.215  -0.851   0.636  1.00  0.00    -0.352 N 
ATOM      5  O   UNL     1       1.199  -0.209  -0.116  1.00  0.00    -0.269 OA
ATOM      6  C   UNL     1       2.419  -0.069  -0.164  1.00  0.00     0.251 C 
ATOM      7  H   UNL     1       2.747  -1.585   1.096  1.00  0.00     0.163 HD
BRANCH   6   8
ATOM      8  C   UNL     1       3.012   0.947  -1.061  1.00  0.00     0.039 A 
ATOM      9  C   UNL     1       4.112   0.648  -1.870  1.00  0.00     0.014 A 
ATOM     10  C   UNL     1       2.424   2.214  -1.124  1.00  0.00     0.014 A 
ATOM     11  C   UNL     1       4.699   1.647  -2.646  1.00  0.00     0.010 A 
ATOM     12  C   UNL     1       2.974   3.196  -1.951  1.00  0.00     0.010 A 
ATOM     13  C   UNL     1       4.135   2.930  -2.697  1.00  0.00    -0.014 A 
BRANCH  13  14
ATOM     14  C   UNL     1       4.741   3.988  -3.544  1.00  0.00     0.031 A 
ATOM     15  C   UNL     1       5.346   5.213  -2.917  1.00  0.00     0.074 A 
ATOM     16  C   UNL     1       4.716   3.859  -4.884  1.00  0.00     0.049 A 
ATOM     17  N   UNL     1       5.829   6.286  -3.488  1.00  0.00    -0.248 NA
ATOM     18  C   UNL     1       5.401   5.235  -1.448  1.00  0.00     0.031 C 
ATOM     19  C   UNL     1       4.158   2.716  -5.608  1.00  0.00     0.029 A 
ATOM     20  N   UNL     1       5.155   4.700  -5.875  1.00  0.00    -0.354 N 
ATOM     21  C   UNL     1       6.227   7.124  -2.452  1.00  0.00     0.074 A 
ATOM     22  C   UNL     1       5.894   6.443  -1.217  1.00  0.00     0.031 C 
ATOM     23  C   UNL     1       4.285   2.928  -6.926  1.00  0.00     0.029 A 
ATOM     24  C   UNL     1       4.877   4.244  -7.142  1.00  0.00     0.049 A 
ATOM     25  H   UNL     1       5.623   5.548  -5.696  1.00  0.00     0.167 HD
ATOM     26  C   UNL     1       6.820   8.343  -2.526  1.00  0.00     0.034 A 
ATOM     27  C   UNL     1       5.040   4.833  -8.342  1.00  0.00     0.034 A 
ATOM     28  C   UNL     1       7.139   9.006  -3.769  1.00  0.00     0.049 A 
ATOM     29  C   UNL     1       5.648   6.207  -8.406  1.00  0.00     0.074 A 
ATOM     30  C   UNL     1       7.774  10.221  -3.964  1.00  0.00     0.029 A 
ATOM     31  N   UNL     1       6.832   8.516  -5.034  1.00  0.00    -0.354 N 
ATOM     32  N   UNL     1       6.036   6.982  -7.420  1.00  0.00    -0.248 NA
ATOM     33  C   UNL     1       5.846   6.783  -9.742  1.00  0.00     0.031 C 
ATOM     34  C   UNL     1       7.790  10.495  -5.337  1.00  0.00     0.029 A 
ATOM     35  C   UNL     1       7.233   9.418  -6.008  1.00  0.00     0.049 A 
ATOM     36  H   UNL     1       6.393   7.653  -5.212  1.00  0.00     0.167 HD
ATOM     37  C   UNL     1       6.546   8.129  -8.018  1.00  0.00     0.074 A 
ATOM     38  C   UNL     1       6.417   7.944  -9.450  1.00  0.00     0.031 C 
ATOM     39  C   UNL     1       7.085   9.228  -7.433  1.00  0.00     0.034 A 
BRANCH  26  40
ATOM     40  C   UNL     1       7.107   9.052  -1.222  1.00  0.00     0.023 A 
ATOM     41  C   UNL     1       7.986   8.516  -0.265  1.00  0.00     0.031 A 
ATOM     42  C   UNL     1       6.451  10.256  -0.908  1.00  0.00     0.131 A 
ATOM     43  C   UNL     1       8.113   9.128   0.992  1.00  0.00     0.055 A 
ATOM     44  C   UNL     1       6.649  10.908   0.311  1.00  0.00     0.041 A 
ATOM     45  F   UNL     1       5.586  10.809  -1.772  1.00  0.00    -0.206 F 
ATOM     46  C   UNL     1       7.469  10.333   1.278  1.00  0.00     0.022 A 
BRANCH  43  47
ATOM     47  S   UNL     1       8.989   8.232   2.304  1.00  0.00     0.124 S 
ATOM     48  O   UNL     1       8.280   6.954   2.317  1.00  0.00    -0.237 OA
ATOM     49  O   UNL     1      10.358   8.199   1.803  1.00  0.00    -0.237 OA
ATOM     50  O   UNL     1       8.776   9.063   3.488  1.00  0.00    -0.744 OA
ENDBRANCH  43  47
ENDBRANCH  26  40
BRANCH  27  51
ATOM     51  C   UNL     1       4.567   4.136  -9.568  1.00  0.00     0.023 A 
ATOM     52  C   UNL     1       5.471   3.626 -10.511  1.00  0.00     0.031 A 
ATOM     53  C   UNL     1       3.192   3.944  -9.793  1.00  0.00     0.131 A 
ATOM     54  C   UNL     1       4.987   2.960 -11.648  1.00  0.00     0.055 A 
ATOM     55  C   UNL     1       2.717   3.247 -10.904  1.00  0.00     0.041 A 
ATOM     56  F   UNL     1       2.290   4.404  -8.911  1.00  0.00    -0.206 F 
ATOM     57  C   UNL     1       3.618   2.755 -11.843  1.00  0.00     0.022 A 
BRANCH  54  58
ATOM     58  S   UNL     1       6.175   2.382 -12.890  1.00  0.00     0.124 S 
ATOM     59  O   UNL     1       6.778   3.635 -13.330  1.00  0.00    -0.237 OA
ATOM     60  O   UNL     1       7.030   1.499 -12.104  1.00  0.00    -0.237 OA
ATOM     61  O   UNL     1       5.334   1.711 -13.879  1.00  0.00    -0.744 OA
ENDBRANCH  54  58
ENDBRANCH  27  51
BRANCH  39  62
ATOM     62  C   UNL     1       7.626  10.297  -8.348  1.00  0.00     0.023 A 
ATOM     63  C   UNL     1       6.781  11.126  -9.105  1.00  0.00     0.031 A 
ATOM     64  C   UNL     1       9.015  10.492  -8.449  1.00  0.00     0.131 A 
ATOM     65  C   UNL     1       7.336  12.093  -9.957  1.00  0.00     0.055 A 
ATOM     66  C   UNL     1       9.559  11.486  -9.263  1.00  0.00     0.041 A 
ATOM     67  F   UNL     1       9.865   9.725  -7.748  1.00  0.00    -0.206 F 
ATOM     68  C   UNL     1       8.718  12.289 -10.029  1.00  0.00     0.022 A 
BRANCH  65  69
ATOM     69  S   UNL     1       6.230  13.067 -11.015  1.00  0.00     0.124 S 
ATOM     70  O   UNL     1       5.633  12.037 -11.859  1.00  0.00    -0.237 OA
ATOM     71  O   UNL     1       5.337  13.693 -10.044  1.00  0.00    -0.237 OA
ATOM     72  O   UNL     1       7.134  13.986 -11.704  1.00  0.00    -0.744 OA
ENDBRANCH  65  69
ENDBRANCH  39  62
ENDBRANCH  13  14
ENDBRANCH   6   8
ENDBRANCH   3   4
ENDBRANCH   2   3
ENDBRANCH   1   2
BRANCH   1  73
ATOM     73  C   UNL     1       4.735  -2.805   3.262  1.00  0.00     0.116 C 
BRANCH  73  74
ATOM     74  N   UNL     1       6.168  -3.034   3.317  1.00  0.00    -0.352 N 
ATOM     75  C   UNL     1       6.897  -3.955   4.024  1.00  0.00     0.251 C 
ATOM     76  H   UNL     1       6.704  -2.428   2.756  1.00  0.00     0.163 HD
ATOM     77  O   UNL     1       8.122  -3.868   4.044  1.00  0.00    -0.269 OA
BRANCH  75  78
ATOM     78  C   UNL     1       6.257  -5.099   4.716  1.00  0.00     0.041 A 
ATOM     79  C   UNL     1       6.824  -5.581   5.900  1.00  0.00     0.014 A 
ATOM     80  C   UNL     1       5.218  -5.810   4.119  1.00  0.00     0.035 A 
ATOM     81  C   UNL     1       6.343  -6.759   6.484  1.00  0.00     0.002 A 
ATOM     82  C   UNL     1       4.785  -7.018   4.663  1.00  0.00     0.083 A 
ATOM     83  C   UNL     1       5.330  -7.490   5.857  1.00  0.00     0.022 A 
BRANCH  82  84
ATOM     84  S   UNL     1       3.586  -8.000   3.797  1.00  0.00     0.240 S 
ATOM     85  O   UNL     1       4.225  -9.225   3.379  1.00  0.00    -0.207 OA
ATOM     86  O   UNL     1       2.386  -7.985   4.602  1.00  0.00    -0.207 OA
BRANCH  84  87
ATOM     87  N   UNL     1       3.225  -7.076   2.425  1.00  0.00    -0.207 NA
ATOM     88  H   UNL     1       3.530  -6.124   2.626  1.00  0.00     0.141 HD
BRANCH  87  89
ATOM     89  C   UNL     1       3.794  -7.433   1.094  1.00  0.00     0.147 C 
BRANCH  89  90
ATOM     90  C   UNL     1       5.334  -7.449   0.992  1.00  0.00     0.226 C 
ATOM     91  C   UNL     1       5.970  -6.094   0.667  1.00  0.00     0.276 C 
ATOM     92  O   UNL     1       5.723  -8.430   0.005  1.00  0.00    -0.482 OA
ATOM     93  O   UNL     1       5.550  -5.606  -0.607  1.00  0.00    -0.486 OA
ATOM     94  C   UNL     1       5.876  -7.920  -1.258  1.00  0.00     0.161 A 
ATOM     95  C   UNL     1       5.785  -6.559  -1.560  1.00  0.00     0.161 A 
ATOM     96  C   UNL     1       6.154  -8.835  -2.270  1.00  0.00     0.050 A 
ATOM     97  C   UNL     1       5.938  -6.113  -2.870  1.00  0.00     0.050 A 
ATOM     98  C   UNL     1       6.334  -8.389  -3.581  1.00  0.00     0.004 A 
ATOM     99  C   UNL     1       6.222  -7.030  -3.881  1.00  0.00     0.004 A 
ENDBRANCH  89  90
ENDBRANCH  87  89
ENDBRANCH  84  87
ENDBRANCH  82  84
ENDBRANCH  75  78
ENDBRANCH  73  74
ENDBRANCH   1  73
TORSDOF 18
