REMARK SMILES CC1(C)CCN(C(=O)Nc2ccc(O)c(C(=O)NCCCCNC(=O)c3ccc(-c4c5nc(c(-c6cc(S(=O)(=O)[O-])ccc6F)c6ccc([nH]6)c(-c6cc(S(=O)(=O)[O-])ccc6F)c6nc(c(-c7cc(S(=O)(=O)[O-])ccc7F)c7ccc4[nH]7)C=C6)C=C5)cc3)c2)C1
REMARK SMILES IDX 21 1 20 2 19 3 18 4 16 5 17 6 15 8 10 9 11 10 89 11 12 12
REMARK SMILES IDX 13 13 9 14 7 15 8 16 6 18 1 19 2 20 3 21 4 22 90 23 5 24
REMARK SMILES IDX 14 25 22 27 23 28 24 29 25 31 26 32 27 33 88 34 28 35 87 36
REMARK SMILES IDX 29 37 30 38 31 39 81 40 32 41 86 42 80 43 82 44 33 45 85 46
REMARK SMILES IDX 79 47 78 48 34 50 66 51 46 52 65 53 47 54 50 55 64 56 83 57
REMARK SMILES IDX 48 58 49 59 63 61 84 62 51 63 35 64 36 65 44 66 37 67 43 68
REMARK SMILES IDX 45 69 42 70 38 71 39 72 40 73 41 74 67 75 68 76 76 77 69 78
REMARK SMILES IDX 75 79 77 80 74 81 70 82 71 83 72 84 73 85 52 86 53 87 61 88
REMARK SMILES IDX 54 89 60 90 62 91 59 92 55 93 56 94 57 95 58 96
REMARK H PARENT 18 7 9 17 14 26 23 30 82 49 50 60
REMARK Flexibility Score: inf
ROOT
ATOM      1  C   UNL     1      -4.303   8.687   0.548  1.00  0.00     0.023 C 
ENDROOT
BRANCH   1   2
ATOM      2  C   UNL     1      -3.570   7.411   0.951  1.00  0.00     0.023 C 
BRANCH   2   3
ATOM      3  C   UNL     1      -3.368   6.388  -0.170  1.00  0.00     0.116 C 
BRANCH   3   4
ATOM      4  N   UNL     1      -2.224   6.741  -0.983  1.00  0.00    -0.352 N 
ATOM      5  C   UNL     1      -0.906   6.373  -0.930  1.00  0.00     0.255 C 
ATOM      6  O   UNL     1      -0.164   6.876  -1.780  1.00  0.00    -0.269 OA
ATOM      7  H   UNL     1      -2.434   7.366  -1.714  1.00  0.00     0.163 HD
BRANCH   5   8
ATOM      8  C   UNL     1      -0.315   5.357  -0.006  1.00  0.00     0.083 A 
ATOM      9  C   UNL     1       1.373   3.594   0.126  1.00  0.00     0.043 A 
ATOM     10  C   UNL     1       1.079   3.393   1.470  1.00  0.00     0.030 A 
ATOM     11  C   UNL     1       0.739   4.615  -0.581  1.00  0.00     0.044 A 
ATOM     12  C   UNL     1       0.065   4.129   2.068  1.00  0.00     0.049 A 
ATOM     13  C   UNL     1      -0.644   5.084   1.329  1.00  0.00     0.128 A 
BRANCH   9  14
ATOM     14  N   UNL     1       2.268   2.767  -0.559  1.00  0.00    -0.308 N 
ATOM     15  C   UNL     1       2.476   1.424  -0.442  1.00  0.00     0.321 C 
ATOM     16  O   UNL     1       3.564   0.966  -0.797  1.00  0.00    -0.248 OA
ATOM     17  H   UNL     1       2.832   3.222  -1.226  1.00  0.00     0.171 HD
BRANCH  15  18
ATOM     18  N   UNL     1       1.438   0.603  -0.066  1.00  0.00    -0.324 N 
ATOM     19  C   UNL     1      -1.024  -0.550  -1.696  1.00  0.00     0.013 C 
ATOM     20  C   UNL     1      -0.733  -0.386  -0.198  1.00  0.00    -0.016 C 
ATOM     21  C   UNL     1      -2.047  -0.430   0.587  1.00  0.00     0.013 C 
ATOM     22  C   UNL     1       0.278  -1.424   0.314  1.00  0.00     0.030 C 
ATOM     23  C   UNL     1       0.018   0.925   0.057  1.00  0.00     0.127 C 
ATOM     24  C   UNL     1       1.634  -0.836  -0.060  1.00  0.00     0.122 C 
ENDBRANCH  15  18
ENDBRANCH   9  14
BRANCH  13  25
ATOM     25  O   UNL     1      -1.631   5.739   1.995  1.00  0.00    -0.507 OA
ATOM     26  H   UNL     1      -1.817   5.524   2.888  1.00  0.00     0.293 HD
ENDBRANCH  13  25
ENDBRANCH   5   8
ENDBRANCH   3   4
ENDBRANCH   2   3
ENDBRANCH   1   2
BRANCH   1  27
ATOM     27  C   UNL     1      -5.758   8.499   0.142  1.00  0.00     0.116 C 
BRANCH  27  28
ATOM     28  N   UNL     1      -6.565   7.837   1.158  1.00  0.00    -0.352 N 
ATOM     29  C   UNL     1      -7.868   8.096   1.523  1.00  0.00     0.251 C 
ATOM     30  H   UNL     1      -6.121   7.108   1.649  1.00  0.00     0.163 HD
ATOM     31  O   UNL     1      -8.380   7.501   2.459  1.00  0.00    -0.269 OA
BRANCH  29  32
ATOM     32  C   UNL     1      -8.611   9.143   0.791  1.00  0.00     0.039 A 
ATOM     33  C   UNL     1      -9.185  10.190   1.515  1.00  0.00     0.014 A 
ATOM     34  C   UNL     1      -8.646   9.138  -0.606  1.00  0.00     0.014 A 
ATOM     35  C   UNL     1      -9.707  11.290   0.831  1.00  0.00     0.010 A 
ATOM     36  C   UNL     1      -9.106  10.263  -1.282  1.00  0.00     0.010 A 
ATOM     37  C   UNL     1      -9.616  11.359  -0.569  1.00  0.00    -0.014 A 
BRANCH  37  38
ATOM     38  C   UNL     1      -9.992  12.590  -1.308  1.00  0.00     0.031 A 
ATOM     39  C   UNL     1     -11.132  12.563  -2.284  1.00  0.00     0.074 A 
ATOM     40  C   UNL     1      -9.235  13.697  -1.172  1.00  0.00     0.049 A 
ATOM     41  N   UNL     1     -11.534  13.494  -3.110  1.00  0.00    -0.248 NA
ATOM     42  C   UNL     1     -11.903  11.313  -2.361  1.00  0.00     0.031 C 
ATOM     43  C   UNL     1      -8.071  13.822  -0.289  1.00  0.00     0.029 A 
ATOM     44  N   UNL     1      -9.311  14.920  -1.790  1.00  0.00    -0.354 N 
ATOM     45  C   UNL     1     -12.595  12.940  -3.816  1.00  0.00     0.074 A 
ATOM     46  C   UNL     1     -12.741  11.575  -3.353  1.00  0.00     0.031 C 
ATOM     47  C   UNL     1      -7.550  15.053  -0.418  1.00  0.00     0.029 A 
ATOM     48  C   UNL     1      -8.307  15.788  -1.425  1.00  0.00     0.049 A 
ATOM     49  H   UNL     1     -10.018  15.154  -2.434  1.00  0.00     0.167 HD
ATOM     50  C   UNL     1     -13.384  13.524  -4.751  1.00  0.00     0.034 A 
ATOM     51  C   UNL     1      -8.012  17.025  -1.872  1.00  0.00     0.034 A 
ATOM     52  C   UNL     1     -13.232  14.890  -5.188  1.00  0.00     0.049 A 
ATOM     53  C   UNL     1      -8.883  17.639  -2.938  1.00  0.00     0.074 A 
ATOM     54  C   UNL     1     -14.032  15.611  -6.057  1.00  0.00     0.029 A 
ATOM     55  N   UNL     1     -12.200  15.737  -4.803  1.00  0.00    -0.354 N 
ATOM     56  N   UNL     1      -9.930  17.127  -3.542  1.00  0.00    -0.248 NA
ATOM     57  C   UNL     1      -8.532  18.994  -3.382  1.00  0.00     0.031 C 
ATOM     58  C   UNL     1     -13.448  16.867  -6.251  1.00  0.00     0.029 A 
ATOM     59  C   UNL     1     -12.318  16.956  -5.453  1.00  0.00     0.049 A 
ATOM     60  H   UNL     1     -11.489  15.505  -4.163  1.00  0.00     0.167 HD
ATOM     61  C   UNL     1     -10.371  18.106  -4.427  1.00  0.00     0.074 A 
ATOM     62  C   UNL     1      -9.490  19.244  -4.263  1.00  0.00     0.031 C 
ATOM     63  C   UNL     1     -11.413  18.070  -5.297  1.00  0.00     0.034 A 
BRANCH  50  64
ATOM     64  C   UNL     1     -14.463  12.677  -5.379  1.00  0.00     0.023 A 
ATOM     65  C   UNL     1     -15.536  12.171  -4.626  1.00  0.00     0.031 A 
ATOM     66  C   UNL     1     -14.410  12.361  -6.748  1.00  0.00     0.131 A 
ATOM     67  C   UNL     1     -16.475  11.321  -5.229  1.00  0.00     0.055 A 
ATOM     68  C   UNL     1     -15.389  11.575  -7.359  1.00  0.00     0.041 A 
ATOM     69  F   UNL     1     -13.398  12.801  -7.512  1.00  0.00    -0.206 F 
ATOM     70  C   UNL     1     -16.422  11.039  -6.596  1.00  0.00     0.022 A 
BRANCH  67  71
ATOM     71  S   UNL     1     -17.695  10.490  -4.176  1.00  0.00     0.124 S 
ATOM     72  O   UNL     1     -16.835   9.734  -3.269  1.00  0.00    -0.237 OA
ATOM     73  O   UNL     1     -18.417  11.611  -3.585  1.00  0.00    -0.237 OA
ATOM     74  O   UNL     1     -18.464   9.678  -5.116  1.00  0.00    -0.744 OA
ENDBRANCH  67  71
ENDBRANCH  50  64
BRANCH  51  75
ATOM     75  C   UNL     1      -6.822  17.755  -1.349  1.00  0.00     0.023 A 
ATOM     76  C   UNL     1      -6.967  18.939  -0.610  1.00  0.00     0.031 A 
ATOM     77  C   UNL     1      -5.519  17.300  -1.618  1.00  0.00     0.131 A 
ATOM     78  C   UNL     1      -5.829  19.653  -0.202  1.00  0.00     0.055 A 
ATOM     79  C   UNL     1      -4.390  17.986  -1.168  1.00  0.00     0.041 A 
ATOM     80  F   UNL     1      -5.325  16.170  -2.316  1.00  0.00    -0.206 F 
ATOM     81  C   UNL     1      -4.542  19.178  -0.466  1.00  0.00     0.022 A 
BRANCH  78  82
ATOM     82  S   UNL     1      -6.056  21.258   0.611  1.00  0.00     0.124 S 
ATOM     83  O   UNL     1      -6.824  21.992  -0.387  1.00  0.00    -0.237 OA
ATOM     84  O   UNL     1      -6.774  20.882   1.825  1.00  0.00    -0.237 OA
ATOM     85  O   UNL     1      -4.689  21.730   0.819  1.00  0.00    -0.744 OA
ENDBRANCH  78  82
ENDBRANCH  51  75
BRANCH  63  86
ATOM     86  C   UNL     1     -11.655  19.308  -6.121  1.00  0.00     0.023 A 
ATOM     87  C   UNL     1     -10.764  19.698  -7.135  1.00  0.00     0.031 A 
ATOM     88  C   UNL     1     -12.785  20.109  -5.884  1.00  0.00     0.131 A 
ATOM     89  C   UNL     1     -10.995  20.884  -7.848  1.00  0.00     0.055 A 
ATOM     90  C   UNL     1     -13.038  21.259  -6.633  1.00  0.00     0.041 A 
ATOM     91  F   UNL     1     -13.665  19.782  -4.925  1.00  0.00    -0.206 F 
ATOM     92  C   UNL     1     -12.135  21.658  -7.614  1.00  0.00     0.022 A 
BRANCH  89  93
ATOM     93  S   UNL     1      -9.749  21.440  -9.043  1.00  0.00     0.124 S 
ATOM     94  O   UNL     1      -8.583  21.648  -8.190  1.00  0.00    -0.237 OA
ATOM     95  O   UNL     1      -9.671  20.311  -9.964  1.00  0.00    -0.237 OA
ATOM     96  O   UNL     1     -10.332  22.657  -9.605  1.00  0.00    -0.744 OA
ENDBRANCH  89  93
ENDBRANCH  63  86
ENDBRANCH  37  38
ENDBRANCH  29  32
ENDBRANCH  27  28
ENDBRANCH   1  27
TORSDOF 17
