REMARK SMILES Cc1ccc(NC(=O)CN2C(=O)S/C(=C\c3cc(Cl)c(OCC(=O)NCCCCNC(=O)c4ccc(-c5c6nc(c(-c7cc(S(=O)(=O)[O-])ccc7F)c7ccc([nH]7)c(-c7cc(S(=O)(=O)[O-])ccc7F)c7nc(c(-c8cc(S(=O)(=O)[O-])ccc8F)c8ccc5[nH]8)C=C7)C=C6)cc4)c(Cl)c3)C2=O)cc1
REMARK SMILES IDX 26 1 25 2 23 3 24 4 22 6 21 7 20 8 16 9 17 10 98 11 18 12
REMARK SMILES IDX 96 13 19 14 97 15 15 16 10 17 11 18 99 19 12 20 13 21 14 22
REMARK SMILES IDX 100 23 9 24 7 25 6 26 8 28 5 29 1 30 2 31 3 32 102 33 4 34
REMARK SMILES IDX 101 35 27 36 28 37 29 38 30 39 31 40 32 42 33 43 34 44 95 45
REMARK SMILES IDX 35 46 94 47 36 48 37 49 38 50 88 51 39 52 93 53 87 54 89 55
REMARK SMILES IDX 40 56 92 57 86 58 85 59 41 61 73 62 53 63 72 64 54 65 57 66
REMARK SMILES IDX 71 67 90 68 55 69 56 70 70 72 91 73 58 74 42 75 43 76 51 77
REMARK SMILES IDX 44 78 50 79 52 80 49 81 45 82 46 83 47 84 48 85 74 86 75 87
REMARK SMILES IDX 83 88 76 89 82 90 84 91 81 92 77 93 78 94 79 95 80 96 59 97
REMARK SMILES IDX 60 98 68 99 61 100 67 101 69 102 66 103 62 104 63 105 64 106
REMARK SMILES IDX 65 107
REMARK H PARENT 25 5 6 27 30 41 89 60 57 71
REMARK Flexibility Score: inf
ROOT
ATOM      1  C   UNL     1      -6.356  -4.566 -12.694  1.00  0.00     0.116 C 
ENDROOT
BRANCH   1   2
ATOM      2  N   UNL     1      -7.216  -4.389 -11.534  1.00  0.00    -0.353 N 
ATOM      3  C   UNL     1      -7.386  -3.289 -10.747  1.00  0.00     0.257 C 
ATOM      4  O   UNL     1      -8.243  -3.343  -9.863  1.00  0.00    -0.271 OA
ATOM      5  H   UNL     1      -7.752  -5.175 -11.281  1.00  0.00     0.163 HD
BRANCH   3   6
ATOM      6  C   UNL     1      -6.548  -2.024 -11.000  1.00  0.00     0.329 C 
BRANCH   6   7
ATOM      7  O   UNL     1      -5.150  -2.061 -10.774  1.00  0.00    -0.481 OA
BRANCH   7   8
ATOM      8  C   UNL     1      -4.597  -2.264  -9.540  1.00  0.00     0.157 A 
ATOM      9  C   UNL     1      -3.110  -2.767  -7.141  1.00  0.00    -0.021 A 
ATOM     10  C   UNL     1      -2.479  -2.830  -8.376  1.00  0.00     0.032 A 
ATOM     11  C   UNL     1      -4.482  -2.487  -7.127  1.00  0.00     0.032 A 
ATOM     12  C   UNL     1      -3.216  -2.587  -9.553  1.00  0.00     0.085 A 
ATOM     13  C   UNL     1      -5.202  -2.163  -8.286  1.00  0.00     0.085 A 
ATOM     14  Cl  UNL     1      -2.329  -2.661 -11.045  1.00  0.00    -0.080 Cl
ATOM     15  Cl  UNL     1      -6.764  -1.506  -7.953  1.00  0.00    -0.080 Cl
BRANCH   9  16
ATOM     16  C   UNL     1      -2.414  -3.028  -5.862  1.00  0.00     0.029 C 
ATOM     17  N   UNL     1      -3.115  -2.086  -2.498  1.00  0.00    -0.259 N 
ATOM     18  C   UNL     1      -3.931  -1.136  -3.059  1.00  0.00     0.294 C 
ATOM     19  C   UNL     1      -2.303  -2.774  -3.381  1.00  0.00     0.268 C 
ATOM     20  O   UNL     1      -4.949  -0.658  -2.595  1.00  0.00    -0.261 OA
ATOM     21  S   UNL     1      -3.342  -0.733  -4.650  1.00  0.00    -0.022 SA
ATOM     22  C   UNL     1      -2.542  -2.257  -4.766  1.00  0.00     0.083 C 
ATOM     23  O   UNL     1      -1.610  -3.747  -3.118  1.00  0.00    -0.268 OA
BRANCH  17  24
ATOM     24  C   UNL     1      -3.444  -2.626  -1.188  1.00  0.00     0.230 C 
BRANCH  24  25
ATOM     25  C   UNL     1      -3.796  -1.544  -0.161  1.00  0.00     0.244 C 
ATOM     26  N   UNL     1      -2.987  -0.461   0.035  1.00  0.00    -0.325 N 
ATOM     27  H   UNL     1      -3.462   0.363   0.289  1.00  0.00     0.169 HD
ATOM     28  O   UNL     1      -4.836  -1.624   0.500  1.00  0.00    -0.273 OA
BRANCH  26  29
ATOM     29  C   UNL     1      -1.597  -0.322  -0.062  1.00  0.00     0.041 A 
ATOM     30  C   UNL     1       2.672   0.307  -0.032  1.00  0.00     0.044 C 
ATOM     31  C   UNL     1       1.187   0.106  -0.042  1.00  0.00    -0.051 A 
ATOM     32  C   UNL     1       0.663  -1.188   0.026  1.00  0.00     0.005 A 
ATOM     33  C   UNL     1       0.306   1.189  -0.113  1.00  0.00     0.005 A 
ATOM     34  C   UNL     1      -0.718  -1.400   0.018  1.00  0.00     0.026 A 
ATOM     35  C   UNL     1      -1.076   0.975  -0.109  1.00  0.00     0.026 A 
ENDBRANCH  26  29
ENDBRANCH  24  25
ENDBRANCH  17  24
ENDBRANCH   9  16
ENDBRANCH   7   8
ENDBRANCH   6   7
ENDBRANCH   3   6
ENDBRANCH   1   2
BRANCH   1  36
ATOM     36  C   UNL     1      -5.050  -5.287 -12.356  1.00  0.00     0.023 C 
BRANCH  36  37
ATOM     37  C   UNL     1      -5.201  -6.637 -11.661  1.00  0.00     0.023 C 
BRANCH  37  38
ATOM     38  C   UNL     1      -5.955  -7.695 -12.451  1.00  0.00     0.116 C 
BRANCH  38  39
ATOM     39  N   UNL     1      -5.149  -8.475 -13.382  1.00  0.00    -0.352 N 
ATOM     40  C   UNL     1      -5.452  -9.667 -14.027  1.00  0.00     0.251 C 
ATOM     41  H   UNL     1      -4.260  -8.103 -13.583  1.00  0.00     0.163 HD
ATOM     42  O   UNL     1      -4.592 -10.300 -14.634  1.00  0.00    -0.269 OA
BRANCH  40  43
ATOM     43  C   UNL     1      -6.871 -10.089 -14.149  1.00  0.00     0.039 A 
ATOM     44  C   UNL     1      -7.323 -10.393 -15.444  1.00  0.00     0.014 A 
ATOM     45  C   UNL     1      -7.779  -9.803 -13.143  1.00  0.00     0.014 A 
ATOM     46  C   UNL     1      -8.626 -10.074 -15.796  1.00  0.00     0.010 A 
ATOM     47  C   UNL     1      -8.998  -9.308 -13.521  1.00  0.00     0.010 A 
ATOM     48  C   UNL     1      -9.389  -9.393 -14.859  1.00  0.00    -0.014 A 
BRANCH  48  49
ATOM     49  C   UNL     1     -10.646  -8.741 -15.137  1.00  0.00     0.031 A 
ATOM     50  C   UNL     1     -11.868  -9.448 -14.739  1.00  0.00     0.074 A 
ATOM     51  C   UNL     1     -10.630  -7.453 -15.541  1.00  0.00     0.049 A 
ATOM     52  N   UNL     1     -13.037  -9.181 -15.191  1.00  0.00    -0.248 NA
ATOM     53  C   UNL     1     -11.859 -10.584 -13.819  1.00  0.00     0.031 C 
ATOM     54  C   UNL     1     -11.721  -6.488 -15.524  1.00  0.00     0.029 A 
ATOM     55  N   UNL     1      -9.624  -6.821 -16.270  1.00  0.00    -0.354 N 
ATOM     56  C   UNL     1     -13.943  -9.834 -14.385  1.00  0.00     0.074 A 
ATOM     57  C   UNL     1     -13.166 -10.791 -13.644  1.00  0.00     0.031 C 
ATOM     58  C   UNL     1     -11.457  -5.515 -16.414  1.00  0.00     0.029 A 
ATOM     59  C   UNL     1     -10.264  -5.917 -17.140  1.00  0.00     0.049 A 
ATOM     60  H   UNL     1      -8.655  -6.976 -16.192  1.00  0.00     0.167 HD
ATOM     61  C   UNL     1     -15.211  -9.347 -14.330  1.00  0.00     0.034 A 
ATOM     62  C   UNL     1     -10.198  -6.110 -18.492  1.00  0.00     0.034 A 
ATOM     63  C   UNL     1     -15.356  -8.230 -15.264  1.00  0.00     0.049 A 
ATOM     64  C   UNL     1     -11.558  -6.387 -19.097  1.00  0.00     0.074 A 
ATOM     65  C   UNL     1     -15.338  -6.855 -15.098  1.00  0.00     0.029 A 
ATOM     66  N   UNL     1     -15.199  -8.467 -16.621  1.00  0.00    -0.354 N 
ATOM     67  N   UNL     1     -12.578  -6.850 -18.424  1.00  0.00    -0.248 NA
ATOM     68  C   UNL     1     -11.893  -6.106 -20.487  1.00  0.00     0.031 C 
ATOM     69  C   UNL     1     -15.123  -6.268 -16.373  1.00  0.00     0.029 A 
ATOM     70  C   UNL     1     -15.042  -7.284 -17.310  1.00  0.00     0.049 A 
ATOM     71  H   UNL     1     -15.199  -9.360 -17.036  1.00  0.00     0.167 HD
ATOM     72  C   UNL     1     -13.690  -6.895 -19.231  1.00  0.00     0.074 A 
ATOM     73  C   UNL     1     -13.200  -6.425 -20.517  1.00  0.00     0.031 C 
ATOM     74  C   UNL     1     -14.912  -7.299 -18.759  1.00  0.00     0.034 A 
BRANCH  61  75
ATOM     75  C   UNL     1     -16.242  -9.646 -13.267  1.00  0.00     0.023 A 
ATOM     76  C   UNL     1     -17.306  -8.732 -13.116  1.00  0.00     0.031 A 
ATOM     77  C   UNL     1     -16.247 -10.724 -12.362  1.00  0.00     0.131 A 
ATOM     78  C   UNL     1     -18.250  -8.854 -12.083  1.00  0.00     0.055 A 
ATOM     79  C   UNL     1     -17.177 -10.838 -11.318  1.00  0.00     0.041 A 
ATOM     80  F   UNL     1     -15.389 -11.744 -12.455  1.00  0.00    -0.206 F 
ATOM     81  C   UNL     1     -18.182  -9.896 -11.168  1.00  0.00     0.022 A 
BRANCH  78  82
ATOM     82  S   UNL     1     -19.560  -7.611 -11.959  1.00  0.00     0.124 S 
ATOM     83  O   UNL     1     -18.800  -6.390 -11.710  1.00  0.00    -0.237 OA
ATOM     84  O   UNL     1     -20.210  -7.715 -13.260  1.00  0.00    -0.237 OA
ATOM     85  O   UNL     1     -20.363  -8.079 -10.830  1.00  0.00    -0.744 OA
ENDBRANCH  78  82
ENDBRANCH  61  75
BRANCH  62  86
ATOM     86  C   UNL     1      -8.884  -6.703 -18.902  1.00  0.00     0.023 A 
ATOM     87  C   UNL     1      -7.737  -5.960 -18.535  1.00  0.00     0.031 A 
ATOM     88  C   UNL     1      -8.731  -8.082 -19.101  1.00  0.00     0.131 A 
ATOM     89  C   UNL     1      -6.570  -6.623 -18.124  1.00  0.00     0.055 A 
ATOM     90  C   UNL     1      -7.521  -8.726 -18.796  1.00  0.00     0.041 A 
ATOM     91  F   UNL     1      -9.780  -8.846 -19.439  1.00  0.00    -0.206 F 
ATOM     92  C   UNL     1      -6.458  -8.008 -18.242  1.00  0.00     0.022 A 
BRANCH  89  93
ATOM     93  S   UNL     1      -5.366  -5.679 -17.135  1.00  0.00     0.124 S 
ATOM     94  O   UNL     1      -4.686  -4.890 -18.155  1.00  0.00    -0.237 OA
ATOM     95  O   UNL     1      -6.227  -4.933 -16.217  1.00  0.00    -0.237 OA
ATOM     96  O   UNL     1      -4.554  -6.704 -16.483  1.00  0.00    -0.744 OA
ENDBRANCH  89  93
ENDBRANCH  62  86
BRANCH  74  97
ATOM     97  C   UNL     1     -16.140  -7.678 -19.575  1.00  0.00     0.023 A 
ATOM     98  C   UNL     1     -16.163  -7.700 -20.972  1.00  0.00     0.031 A 
ATOM     99  C   UNL     1     -17.346  -8.110 -18.952  1.00  0.00     0.131 A 
ATOM    100  C   UNL     1     -17.322  -8.060 -21.684  1.00  0.00     0.055 A 
ATOM    101  C   UNL     1     -18.470  -8.546 -19.659  1.00  0.00     0.041 A 
ATOM    102  F   UNL     1     -17.495  -8.149 -17.621  1.00  0.00    -0.206 F 
ATOM    103  C   UNL     1     -18.470  -8.508 -21.040  1.00  0.00     0.022 A 
BRANCH 100 104
ATOM    104  S   UNL     1     -17.303  -7.855 -23.481  1.00  0.00     0.124 S 
ATOM    105  O   UNL     1     -17.078  -6.419 -23.616  1.00  0.00    -0.237 OA
ATOM    106  O   UNL     1     -16.188  -8.709 -23.880  1.00  0.00    -0.237 OA
ATOM    107  O   UNL     1     -18.624  -8.321 -23.896  1.00  0.00    -0.744 OA
ENDBRANCH 100 104
ENDBRANCH  74  97
ENDBRANCH  48  49
ENDBRANCH  40  43
ENDBRANCH  38  39
ENDBRANCH  37  38
ENDBRANCH  36  37
ENDBRANCH   1  36
TORSDOF 20
