REMARK SMILES CN(C)C(=O)CSc1ccc(C(=O)NCCCCNC(=O)c2ccc(-c3c4nc(c(-c5cc(S(=O)(=O)[O-])ccc5F)c5ccc([nH]5)c(-c5cc(S(=O)(=O)[O-])ccc5F)c5nc(c(-c6cc(S(=O)(=O)[O-])ccc6F)c6ccc3[nH]6)C=C5)C=C4)cc2)cc1
REMARK SMILES IDX 16 1 15 2 14 3 12 4 13 5 11 7 8 8 9 9 86 10 10 11 85 12 7 13
REMARK SMILES IDX 6 14 4 15 1 16 2 17 3 18 5 19 17 20 18 21 19 22 20 23 21 25
REMARK SMILES IDX 22 26 23 27 84 28 24 29 83 30 25 31 26 32 27 33 77 34 28 35
REMARK SMILES IDX 82 36 76 37 78 38 29 39 81 40 75 41 74 42 30 44 62 45 42 46
REMARK SMILES IDX 61 47 43 48 46 49 60 50 79 51 44 52 45 53 59 55 80 56 47 57
REMARK SMILES IDX 31 58 32 59 40 60 33 61 39 62 41 63 38 64 34 65 35 66 36 67
REMARK SMILES IDX 37 68 63 69 64 70 72 71 65 72 71 73 73 74 70 75 66 76 67 77
REMARK SMILES IDX 68 78 69 79 48 80 49 81 57 82 50 83 56 84 58 85 55 86 51 87
REMARK SMILES IDX 52 88 53 89 54 90
REMARK H PARENT 14 6 19 24 78 43 46 54
REMARK Flexibility Score: inf
ROOT
ATOM      1  C   UNL     1       7.378   3.152  -3.532  1.00  0.00     0.023 C 
ENDROOT
BRANCH   1   2
ATOM      2  C   UNL     1       7.391   2.238  -4.760  1.00  0.00     0.116 C 
BRANCH   2   3
ATOM      3  N   UNL     1       7.681   0.869  -4.378  1.00  0.00    -0.352 N 
ATOM      4  C   UNL     1       6.862  -0.208  -4.149  1.00  0.00     0.251 C 
ATOM      5  O   UNL     1       7.390  -1.288  -3.882  1.00  0.00    -0.269 OA
ATOM      6  H   UNL     1       8.640   0.677  -4.263  1.00  0.00     0.163 HD
BRANCH   4   7
ATOM      7  C   UNL     1       5.377  -0.144  -4.254  1.00  0.00     0.039 A 
ATOM      8  C   UNL     1       2.551  -0.194  -4.487  1.00  0.00     0.008 A 
ATOM      9  C   UNL     1       3.309  -1.349  -4.711  1.00  0.00     0.016 A 
ATOM     10  C   UNL     1       3.222   0.980  -4.151  1.00  0.00     0.016 A 
ATOM     11  C   UNL     1       4.705  -1.324  -4.600  1.00  0.00     0.015 A 
ATOM     12  C   UNL     1       4.612   0.992  -3.992  1.00  0.00     0.015 A 
BRANCH   8  13
ATOM     13  S   UNL     1       0.780  -0.321  -4.664  1.00  0.00    -0.116 SA
BRANCH  13  14
ATOM     14  C   UNL     1       0.123   1.039  -3.633  1.00  0.00     0.175 C 
BRANCH  14  15
ATOM     15  C   UNL     1       0.667   1.061  -2.211  1.00  0.00     0.232 C 
ATOM     16  C   UNL     1       1.060   0.014  -0.061  1.00  0.00     0.146 C 
ATOM     17  N   UNL     1       0.378   0.018  -1.344  1.00  0.00    -0.348 N 
ATOM     18  C   UNL     1      -0.468  -1.122  -1.653  1.00  0.00     0.146 C 
ATOM     19  O   UNL     1       1.333   2.033  -1.836  1.00  0.00    -0.274 OA
ENDBRANCH  14  15
ENDBRANCH  13  14
ENDBRANCH   8  13
ENDBRANCH   4   7
ENDBRANCH   2   3
ENDBRANCH   1   2
BRANCH   1  20
ATOM     20  C   UNL     1       8.766   3.584  -3.054  1.00  0.00     0.023 C 
BRANCH  20  21
ATOM     21  C   UNL     1       9.537   4.457  -4.038  1.00  0.00     0.116 C 
BRANCH  21  22
ATOM     22  N   UNL     1       8.839   5.686  -4.382  1.00  0.00    -0.352 N 
ATOM     23  C   UNL     1       9.377   6.907  -4.720  1.00  0.00     0.251 C 
ATOM     24  H   UNL     1       7.856   5.638  -4.372  1.00  0.00     0.163 HD
ATOM     25  O   UNL     1       8.648   7.877  -4.876  1.00  0.00    -0.269 OA
BRANCH  23  26
ATOM     26  C   UNL     1      10.845   7.036  -4.841  1.00  0.00     0.039 A 
ATOM     27  C   UNL     1      11.486   8.072  -4.158  1.00  0.00     0.014 A 
ATOM     28  C   UNL     1      11.585   6.115  -5.587  1.00  0.00     0.014 A 
ATOM     29  C   UNL     1      12.880   8.143  -4.166  1.00  0.00     0.010 A 
ATOM     30  C   UNL     1      12.976   6.148  -5.539  1.00  0.00     0.010 A 
ATOM     31  C   UNL     1      13.637   7.160  -4.826  1.00  0.00    -0.014 A 
BRANCH  31  32
ATOM     32  C   UNL     1      15.121   7.172  -4.780  1.00  0.00     0.031 A 
ATOM     33  C   UNL     1      15.910   7.381  -6.043  1.00  0.00     0.074 A 
ATOM     34  C   UNL     1      15.753   6.925  -3.615  1.00  0.00     0.049 A 
ATOM     35  N   UNL     1      17.204   7.345  -6.226  1.00  0.00    -0.248 NA
ATOM     36  C   UNL     1      15.135   7.633  -7.267  1.00  0.00     0.031 C 
ATOM     37  C   UNL     1      15.093   6.664  -2.334  1.00  0.00     0.029 A 
ATOM     38  N   UNL     1      17.091   6.842  -3.320  1.00  0.00    -0.354 N 
ATOM     39  C   UNL     1      17.400   7.554  -7.587  1.00  0.00     0.074 A 
ATOM     40  C   UNL     1      16.086   7.657  -8.188  1.00  0.00     0.031 C 
ATOM     41  C   UNL     1      16.028   6.472  -1.389  1.00  0.00     0.029 A 
ATOM     42  C   UNL     1      17.350   6.553  -2.000  1.00  0.00     0.049 A 
ATOM     43  H   UNL     1      17.799   6.976  -3.991  1.00  0.00     0.167 HD
ATOM     44  C   UNL     1      18.567   7.671  -8.268  1.00  0.00     0.034 A 
ATOM     45  C   UNL     1      18.520   6.364  -1.359  1.00  0.00     0.034 A 
ATOM     46  C   UNL     1      19.867   7.582  -7.649  1.00  0.00     0.049 A 
ATOM     47  C   UNL     1      19.805   6.486  -2.140  1.00  0.00     0.074 A 
ATOM     48  C   UNL     1      21.112   7.746  -8.231  1.00  0.00     0.029 A 
ATOM     49  N   UNL     1      20.092   7.298  -6.308  1.00  0.00    -0.354 N 
ATOM     50  N   UNL     1      19.974   6.738  -3.418  1.00  0.00    -0.248 NA
ATOM     51  C   UNL     1      21.054   6.310  -1.389  1.00  0.00     0.031 C 
ATOM     52  C   UNL     1      22.088   7.500  -7.258  1.00  0.00     0.029 A 
ATOM     53  C   UNL     1      21.454   7.253  -6.051  1.00  0.00     0.049 A 
ATOM     54  H   UNL     1      19.386   7.149  -5.637  1.00  0.00     0.167 HD
ATOM     55  C   UNL     1      21.351   6.782  -3.615  1.00  0.00     0.074 A 
ATOM     56  C   UNL     1      21.963   6.543  -2.324  1.00  0.00     0.031 C 
ATOM     57  C   UNL     1      22.048   7.005  -4.759  1.00  0.00     0.034 A 
BRANCH  44  58
ATOM     58  C   UNL     1      18.481   7.882  -9.761  1.00  0.00     0.023 A 
ATOM     59  C   UNL     1      17.880   9.028 -10.312  1.00  0.00     0.031 A 
ATOM     60  C   UNL     1      18.979   6.910 -10.647  1.00  0.00     0.131 A 
ATOM     61  C   UNL     1      17.722   9.137 -11.702  1.00  0.00     0.055 A 
ATOM     62  C   UNL     1      18.892   7.064 -12.033  1.00  0.00     0.041 A 
ATOM     63  F   UNL     1      19.544   5.786 -10.182  1.00  0.00    -0.206 F 
ATOM     64  C   UNL     1      18.246   8.175 -12.567  1.00  0.00     0.022 A 
BRANCH  61  65
ATOM     65  S   UNL     1      16.694  10.482 -12.352  1.00  0.00     0.124 S 
ATOM     66  O   UNL     1      15.411  10.211 -11.708  1.00  0.00    -0.237 OA
ATOM     67  O   UNL     1      17.401  11.671 -11.892  1.00  0.00    -0.237 OA
ATOM     68  O   UNL     1      16.716  10.263 -13.797  1.00  0.00    -0.744 OA
ENDBRANCH  61  65
ENDBRANCH  44  58
BRANCH  45  69
ATOM     69  C   UNL     1      18.543   6.034   0.094  1.00  0.00     0.023 A 
ATOM     70  C   UNL     1      19.104   6.922   1.026  1.00  0.00     0.031 A 
ATOM     71  C   UNL     1      18.045   4.808   0.568  1.00  0.00     0.131 A 
ATOM     72  C   UNL     1      19.198   6.551   2.377  1.00  0.00     0.055 A 
ATOM     73  C   UNL     1      18.094   4.465   1.921  1.00  0.00     0.041 A 
ATOM     74  F   UNL     1      17.492   3.926  -0.280  1.00  0.00    -0.206 F 
ATOM     75  C   UNL     1      18.686   5.334   2.832  1.00  0.00     0.022 A 
BRANCH  72  76
ATOM     76  S   UNL     1      20.079   7.651   3.519  1.00  0.00     0.124 S 
ATOM     77  O   UNL     1      21.394   7.738   2.894  1.00  0.00    -0.237 OA
ATOM     78  O   UNL     1      19.261   8.859   3.465  1.00  0.00    -0.237 OA
ATOM     79  O   UNL     1      20.036   6.928   4.788  1.00  0.00    -0.744 OA
ENDBRANCH  72  76
ENDBRANCH  45  69
BRANCH  57  80
ATOM     80  C   UNL     1      23.552   7.047  -4.645  1.00  0.00     0.023 A 
ATOM     81  C   UNL     1      24.303   5.900  -4.334  1.00  0.00     0.031 A 
ATOM     82  C   UNL     1      24.239   8.258  -4.839  1.00  0.00     0.131 A 
ATOM     83  C   UNL     1      25.694   6.000  -4.173  1.00  0.00     0.055 A 
ATOM     84  C   UNL     1      25.628   8.339  -4.734  1.00  0.00     0.041 A 
ATOM     85  F   UNL     1      23.570   9.383  -5.136  1.00  0.00    -0.206 F 
ATOM     86  C   UNL     1      26.362   7.209  -4.386  1.00  0.00     0.022 A 
BRANCH  83  87
ATOM     87  S   UNL     1      26.610   4.546  -3.593  1.00  0.00     0.124 S 
ATOM     88  O   UNL     1      25.966   4.271  -2.313  1.00  0.00    -0.237 OA
ATOM     89  O   UNL     1      26.360   3.576  -4.654  1.00  0.00    -0.237 OA
ATOM     90  O   UNL     1      27.989   5.023  -3.503  1.00  0.00    -0.744 OA
ENDBRANCH  83  87
ENDBRANCH  57  80
ENDBRANCH  31  32
ENDBRANCH  23  26
ENDBRANCH  21  22
ENDBRANCH  20  21
ENDBRANCH   1  20
TORSDOF 17
