REMARK SMILES COc1ccc(-c2cnc(N)c(C(=O)NCCCCNC(=O)c3ccc(-c4c5nc(c(-c6cc(S(=O)(=O)[O-])ccc6F)c6ccc([nH]6)c(-c6cc(S(=O)(=O)[O-])ccc6F)c6nc(c(-c7cc(S(=O)(=O)[O-])ccc7F)c7ccc4[nH]7)C=C6)C=C5)cc3)c2)c(C)c1
REMARK SMILES IDX 18 1 17 2 16 3 15 4 13 5 14 6 12 8 7 9 8 10 86 11 9 12 10 13
REMARK SMILES IDX 6 14 3 15 4 16 89 17 5 18 87 19 88 20 2 21 1 22 11 23 19 26
REMARK SMILES IDX 20 27 21 28 22 30 23 31 24 32 85 33 25 34 84 35 26 36 27 37
REMARK SMILES IDX 28 38 78 39 29 40 83 41 77 42 79 43 30 44 82 45 76 46 75 47
REMARK SMILES IDX 31 49 63 50 43 51 62 52 44 53 47 54 61 55 80 56 45 57 46 58
REMARK SMILES IDX 60 60 81 61 48 62 32 63 33 64 41 65 34 66 40 67 42 68 39 69
REMARK SMILES IDX 35 70 36 71 37 72 38 73 64 74 65 75 73 76 66 77 72 78 74 79
REMARK SMILES IDX 71 80 67 81 68 82 69 83 70 84 49 85 50 86 58 87 51 88 57 89
REMARK SMILES IDX 59 90 56 91 52 92 53 93 54 94 55 95
REMARK H PARENT 15 7 11 24 11 25 20 29 79 48 47 59
REMARK Flexibility Score: inf
ROOT
ATOM      1  C   UNL     1       0.068 -13.749  -0.708  1.00  0.00     0.023 C 
ENDROOT
BRANCH   1   2
ATOM      2  C   UNL     1       0.655 -12.694   0.225  1.00  0.00     0.023 C 
BRANCH   2   3
ATOM      3  C   UNL     1       1.641 -11.707  -0.403  1.00  0.00     0.116 C 
BRANCH   3   4
ATOM      4  N   UNL     1       1.084 -10.881  -1.472  1.00  0.00    -0.352 N 
ATOM      5  C   UNL     1       1.188  -9.526  -1.717  1.00  0.00     0.255 C 
ATOM      6  O   UNL     1       0.585  -9.063  -2.688  1.00  0.00    -0.269 OA
ATOM      7  H   UNL     1       0.542 -11.374  -2.130  1.00  0.00     0.163 HD
BRANCH   5   8
ATOM      8  C   UNL     1       1.885  -8.591  -0.799  1.00  0.00     0.082 A 
ATOM      9  C   UNL     1       1.819  -6.431   0.342  1.00  0.00     0.001 A 
ATOM     10  C   UNL     1       2.968  -6.861   1.000  1.00  0.00     0.122 A 
ATOM     11  C   UNL     1       1.256  -7.352  -0.548  1.00  0.00     0.028 A 
ATOM     12  N   UNL     1       3.636  -8.000   0.724  1.00  0.00    -0.238 NA
ATOM     13  C   UNL     1       3.132  -8.821  -0.223  1.00  0.00     0.136 A 
BRANCH   9  14
ATOM     14  C   UNL     1       1.349  -5.041   0.500  1.00  0.00    -0.014 A 
ATOM     15  C   UNL     1       0.679  -2.290   0.715  1.00  0.00     0.119 A 
ATOM     16  C   UNL     1       1.976  -2.660   0.396  1.00  0.00     0.047 A 
ATOM     17  C   UNL     1      -0.273  -3.283   0.958  1.00  0.00     0.050 A 
ATOM     18  C   UNL     1       2.297  -4.014   0.281  1.00  0.00     0.013 A 
ATOM     19  C   UNL     1       0.041  -4.657   0.856  1.00  0.00    -0.040 A 
ATOM     20  C   UNL     1      -1.074  -5.637   1.103  1.00  0.00     0.045 C 
BRANCH  15  21
ATOM     21  O   UNL     1       0.251  -0.997   0.850  1.00  0.00    -0.497 OA
ATOM     22  C   UNL     1       0.888  -0.070  -0.025  1.00  0.00     0.278 C 
ENDBRANCH  15  21
ENDBRANCH   9  14
BRANCH  13  23
ATOM     23  N   UNL     1       4.042  -9.746  -0.680  1.00  0.00    -0.383 N 
ATOM     24  H   UNL     1       4.906  -9.854  -0.221  1.00  0.00     0.158 HD
ATOM     25  H   UNL     1       3.829 -10.299  -1.465  1.00  0.00     0.158 HD
ENDBRANCH  13  23
ENDBRANCH   5   8
ENDBRANCH   3   4
ENDBRANCH   2   3
ENDBRANCH   1   2
BRANCH   1  26
ATOM     26  C   UNL     1       1.073 -14.658  -1.415  1.00  0.00     0.116 C 
BRANCH  26  27
ATOM     27  N   UNL     1       1.332 -15.929  -0.737  1.00  0.00    -0.352 N 
ATOM     28  C   UNL     1       1.940 -17.072  -1.239  1.00  0.00     0.251 C 
ATOM     29  H   UNL     1       1.037 -15.979   0.201  1.00  0.00     0.163 HD
ATOM     30  O   UNL     1       2.131 -18.064  -0.547  1.00  0.00    -0.269 OA
BRANCH  28  31
ATOM     31  C   UNL     1       2.485 -17.031  -2.618  1.00  0.00     0.039 A 
ATOM     32  C   UNL     1       3.862 -17.223  -2.775  1.00  0.00     0.014 A 
ATOM     33  C   UNL     1       1.717 -16.528  -3.662  1.00  0.00     0.014 A 
ATOM     34  C   UNL     1       4.505 -16.645  -3.866  1.00  0.00     0.010 A 
ATOM     35  C   UNL     1       2.363 -15.856  -4.683  1.00  0.00     0.010 A 
ATOM     36  C   UNL     1       3.760 -15.848  -4.739  1.00  0.00    -0.014 A 
BRANCH  36  37
ATOM     37  C   UNL     1       4.379 -14.851  -5.608  1.00  0.00     0.031 A 
ATOM     38  C   UNL     1       4.495 -15.075  -7.060  1.00  0.00     0.074 A 
ATOM     39  C   UNL     1       4.862 -13.698  -5.091  1.00  0.00     0.049 A 
ATOM     40  N   UNL     1       5.513 -14.711  -7.767  1.00  0.00    -0.248 NA
ATOM     41  C   UNL     1       3.459 -15.751  -7.830  1.00  0.00     0.031 C 
ATOM     42  C   UNL     1       5.363 -12.544  -5.836  1.00  0.00     0.029 A 
ATOM     43  N   UNL     1       5.207 -13.417  -3.770  1.00  0.00    -0.354 N 
ATOM     44  C   UNL     1       5.142 -14.815  -9.087  1.00  0.00     0.074 A 
ATOM     45  C   UNL     1       3.896 -15.550  -9.077  1.00  0.00     0.031 C 
ATOM     46  C   UNL     1       6.208 -11.862  -5.047  1.00  0.00     0.029 A 
ATOM     47  C   UNL     1       6.363 -12.624  -3.820  1.00  0.00     0.049 A 
ATOM     48  H   UNL     1       4.732 -13.716  -2.961  1.00  0.00     0.167 HD
ATOM     49  C   UNL     1       5.815 -14.129 -10.054  1.00  0.00     0.034 A 
ATOM     50  C   UNL     1       7.547 -12.960  -3.233  1.00  0.00     0.034 A 
ATOM     51  C   UNL     1       6.872 -13.290  -9.501  1.00  0.00     0.049 A 
ATOM     52  C   UNL     1       8.702 -13.000  -4.210  1.00  0.00     0.074 A 
ATOM     53  C   UNL     1       6.934 -11.933  -9.227  1.00  0.00     0.029 A 
ATOM     54  N   UNL     1       7.976 -13.865  -8.883  1.00  0.00    -0.354 N 
ATOM     55  N   UNL     1       8.562 -13.011  -5.506  1.00  0.00    -0.248 NA
ATOM     56  C   UNL     1      10.098 -13.093  -3.801  1.00  0.00     0.031 C 
ATOM     57  C   UNL     1       8.066 -11.698  -8.409  1.00  0.00     0.029 A 
ATOM     58  C   UNL     1       8.705 -12.908  -8.201  1.00  0.00     0.049 A 
ATOM     59  H   UNL     1       8.207 -14.821  -8.925  1.00  0.00     0.167 HD
ATOM     60  C   UNL     1       9.791 -13.149  -6.104  1.00  0.00     0.074 A 
ATOM     61  C   UNL     1      10.722 -13.163  -4.989  1.00  0.00     0.031 C 
ATOM     62  C   UNL     1       9.912 -13.262  -7.464  1.00  0.00     0.034 A 
BRANCH  49  63
ATOM     63  C   UNL     1       5.271 -13.968 -11.453  1.00  0.00     0.023 A 
ATOM     64  C   UNL     1       5.431 -12.744 -12.133  1.00  0.00     0.031 A 
ATOM     65  C   UNL     1       4.568 -14.967 -12.152  1.00  0.00     0.131 A 
ATOM     66  C   UNL     1       4.819 -12.511 -13.377  1.00  0.00     0.055 A 
ATOM     67  C   UNL     1       3.911 -14.721 -13.365  1.00  0.00     0.041 A 
ATOM     68  F   UNL     1       4.509 -16.227 -11.691  1.00  0.00    -0.206 F 
ATOM     69  C   UNL     1       4.021 -13.480 -13.977  1.00  0.00     0.022 A 
BRANCH  66  70
ATOM     70  S   UNL     1       5.087 -10.916 -14.201  1.00  0.00     0.124 S 
ATOM     71  O   UNL     1       4.595  -9.966 -13.209  1.00  0.00    -0.237 OA
ATOM     72  O   UNL     1       6.528 -10.925 -14.427  1.00  0.00    -0.237 OA
ATOM     73  O   UNL     1       4.273 -11.020 -15.412  1.00  0.00    -0.744 OA
ENDBRANCH  66  70
ENDBRANCH  49  63
BRANCH  50  74
ATOM     74  C   UNL     1       7.415 -13.848  -2.047  1.00  0.00     0.023 A 
ATOM     75  C   UNL     1       6.707 -13.345  -0.937  1.00  0.00     0.031 A 
ATOM     76  C   UNL     1       7.591 -15.235  -2.147  1.00  0.00     0.131 A 
ATOM     77  C   UNL     1       6.057 -14.225  -0.062  1.00  0.00     0.055 A 
ATOM     78  C   UNL     1       6.987 -16.109  -1.237  1.00  0.00     0.041 A 
ATOM     79  F   UNL     1       8.216 -15.770  -3.206  1.00  0.00    -0.206 F 
ATOM     80  C   UNL     1       6.178 -15.608  -0.217  1.00  0.00     0.022 A 
BRANCH  77  81
ATOM     81  S   UNL     1       4.855 -13.581   1.137  1.00  0.00     0.124 S 
ATOM     82  O   UNL     1       5.550 -13.747   2.397  1.00  0.00    -0.237 OA
ATOM     83  O   UNL     1       4.655 -12.198   0.695  1.00  0.00    -0.237 OA
ATOM     84  O   UNL     1       3.691 -14.442   0.922  1.00  0.00    -0.744 OA
ENDBRANCH  77  81
ENDBRANCH  50  74
BRANCH  62  85
ATOM     85  C   UNL     1      11.173 -13.614  -8.237  1.00  0.00     0.023 A 
ATOM     86  C   UNL     1      12.352 -14.076  -7.637  1.00  0.00     0.031 A 
ATOM     87  C   UNL     1      11.210 -13.537  -9.653  1.00  0.00     0.131 A 
ATOM     88  C   UNL     1      13.508 -14.347  -8.395  1.00  0.00     0.055 A 
ATOM     89  C   UNL     1      12.334 -13.881 -10.413  1.00  0.00     0.041 A 
ATOM     90  F   UNL     1      10.151 -13.136 -10.371  1.00  0.00    -0.206 F 
ATOM     91  C   UNL     1      13.503 -14.271  -9.783  1.00  0.00     0.022 A 
BRANCH  88  92
ATOM     92  S   UNL     1      15.041 -14.732  -7.508  1.00  0.00     0.124 S 
ATOM     93  O   UNL     1      15.251 -13.514  -6.729  1.00  0.00    -0.237 OA
ATOM     94  O   UNL     1      14.669 -15.916  -6.741  1.00  0.00    -0.237 OA
ATOM     95  O   UNL     1      16.011 -14.960  -8.576  1.00  0.00    -0.744 OA
ENDBRANCH  88  92
ENDBRANCH  62  85
ENDBRANCH  36  37
ENDBRANCH  28  31
ENDBRANCH  26  27
ENDBRANCH   1  26
TORSDOF 17
