REMARK SMILES O=C(NCCCCNC(=O)[C@H]1CC[C@H](CN2C(=O)c3cccnc3C2=O)O1)c1ccc(-c2c3nc(c(-c4cc(S(=O)(=O)[O-])ccc4F)c4ccc([nH]4)c(-c4cc(S(=O)(=O)[O-])ccc4F)c4nc(c(-c5cc(S(=O)(=O)[O-])ccc5F)c5ccc2[nH]5)C=C4)C=C3)cc1
REMARK SMILES IDX 5 1 4 2 3 3 1 4 2 5 28 7 29 8 90 9 30 10 89 11 31 12 32 13
REMARK SMILES IDX 33 14 83 15 34 16 88 17 82 18 84 19 35 20 87 21 81 22 80 23
REMARK SMILES IDX 36 25 68 26 48 27 67 28 49 29 52 30 66 31 85 32 50 33 51 34
REMARK SMILES IDX 65 36 86 37 53 38 37 39 38 40 46 41 39 42 45 43 47 44 44 45
REMARK SMILES IDX 40 46 41 47 42 48 43 49 69 50 70 51 78 52 71 53 77 54 79 55
REMARK SMILES IDX 76 56 72 57 73 58 74 59 75 60 54 61 55 62 63 63 56 64 62 65
REMARK SMILES IDX 64 66 61 67 57 68 58 69 59 70 60 71 6 72 7 73 8 74 9 75
REMARK SMILES IDX 10 77 11 78 12 79 27 80 13 81 14 82 15 83 16 84 17 85 25 86
REMARK SMILES IDX 18 87 19 88 24 89 26 90 20 91 23 92 21 93 22 94
REMARK H PARENT 3 6 84 24 52 35 8 76
REMARK Flexibility Score: inf
ROOT
ATOM      1  C   UNL     1       2.975   9.467   3.538  1.00  0.00     0.023 C 
ENDROOT
BRANCH   1   2
ATOM      2  C   UNL     1       3.526  10.364   4.634  1.00  0.00     0.116 C 
BRANCH   2   3
ATOM      3  N   UNL     1       3.852  11.713   4.186  1.00  0.00    -0.352 N 
ATOM      4  O   UNL     1       3.831  13.979   4.346  1.00  0.00    -0.269 OA
ATOM      5  C   UNL     1       3.608  12.890   4.860  1.00  0.00     0.251 C 
ATOM      6  H   UNL     1       4.293  11.791   3.310  1.00  0.00     0.163 HD
BRANCH   5   7
ATOM      7  C   UNL     1       3.032  12.794   6.215  1.00  0.00     0.039 A 
ATOM      8  C   UNL     1       3.616  11.931   7.144  1.00  0.00     0.014 A 
ATOM      9  C   UNL     1       1.839  13.458   6.506  1.00  0.00     0.014 A 
ATOM     10  C   UNL     1       2.917  11.596   8.292  1.00  0.00     0.010 A 
ATOM     11  C   UNL     1       1.201  13.212   7.724  1.00  0.00     0.010 A 
ATOM     12  C   UNL     1       1.720  12.257   8.614  1.00  0.00    -0.014 A 
BRANCH  12  13
ATOM     13  C   UNL     1       1.091  11.993   9.933  1.00  0.00     0.031 A 
ATOM     14  C   UNL     1      -0.296  11.424  10.046  1.00  0.00     0.074 A 
ATOM     15  C   UNL     1       1.815  12.259  11.039  1.00  0.00     0.049 A 
ATOM     16  N   UNL     1      -0.990  11.165  11.126  1.00  0.00    -0.248 NA
ATOM     17  C   UNL     1      -1.000  11.113   8.793  1.00  0.00     0.031 C 
ATOM     18  C   UNL     1       3.175  12.810  11.039  1.00  0.00     0.029 A 
ATOM     19  N   UNL     1       1.530  12.092  12.368  1.00  0.00    -0.354 N 
ATOM     20  C   UNL     1      -2.217  10.680  10.688  1.00  0.00     0.074 A 
ATOM     21  C   UNL     1      -2.182  10.706   9.240  1.00  0.00     0.031 C 
ATOM     22  C   UNL     1       3.624  12.880  12.297  1.00  0.00     0.029 A 
ATOM     23  C   UNL     1       2.553  12.486  13.200  1.00  0.00     0.049 A 
ATOM     24  H   UNL     1       0.677  11.726  12.696  1.00  0.00     0.167 HD
ATOM     25  C   UNL     1      -3.269  10.254  11.432  1.00  0.00     0.034 A 
ATOM     26  C   UNL     1       2.612  12.565  14.542  1.00  0.00     0.034 A 
ATOM     27  C   UNL     1      -3.276  10.240  12.877  1.00  0.00     0.049 A 
ATOM     28  C   UNL     1       1.405  12.148  15.335  1.00  0.00     0.074 A 
ATOM     29  C   UNL     1      -4.276   9.800  13.728  1.00  0.00     0.029 A 
ATOM     30  N   UNL     1      -2.242  10.695  13.688  1.00  0.00    -0.354 N 
ATOM     31  N   UNL     1       0.257  11.678  14.904  1.00  0.00    -0.248 NA
ATOM     32  C   UNL     1       1.501  12.267  16.794  1.00  0.00     0.031 C 
ATOM     33  C   UNL     1      -3.885  10.069  15.044  1.00  0.00     0.029 A 
ATOM     34  C   UNL     1      -2.599  10.584  15.024  1.00  0.00     0.049 A 
ATOM     35  H   UNL     1      -1.382  11.045  13.361  1.00  0.00     0.167 HD
ATOM     36  C   UNL     1      -0.495  11.418  16.045  1.00  0.00     0.074 A 
ATOM     37  C   UNL     1       0.340  11.761  17.178  1.00  0.00     0.031 C 
ATOM     38  C   UNL     1      -1.760  10.939  16.146  1.00  0.00     0.034 A 
BRANCH  25  39
ATOM     39  C   UNL     1      -4.521   9.816  10.706  1.00  0.00     0.023 A 
ATOM     40  C   UNL     1      -4.541   8.691   9.864  1.00  0.00     0.031 A 
ATOM     41  C   UNL     1      -5.722  10.529  10.877  1.00  0.00     0.131 A 
ATOM     42  C   UNL     1      -5.722   8.342   9.189  1.00  0.00     0.055 A 
ATOM     43  C   UNL     1      -6.912  10.132  10.264  1.00  0.00     0.041 A 
ATOM     44  F   UNL     1      -5.761  11.626  11.650  1.00  0.00    -0.206 F 
ATOM     45  C   UNL     1      -6.914   9.038   9.405  1.00  0.00     0.022 A 
BRANCH  42  46
ATOM     46  S   UNL     1      -5.651   7.038   7.929  1.00  0.00     0.124 S 
ATOM     47  O   UNL     1      -4.648   7.570   7.010  1.00  0.00    -0.237 OA
ATOM     48  O   UNL     1      -5.250   5.871   8.705  1.00  0.00    -0.237 OA
ATOM     49  O   UNL     1      -7.012   6.998   7.399  1.00  0.00    -0.744 OA
ENDBRANCH  42  46
ENDBRANCH  25  39
BRANCH  26  50
ATOM     50  C   UNL     1       3.828  13.109  15.212  1.00  0.00     0.023 A 
ATOM     51  C   UNL     1       4.559  12.332  16.122  1.00  0.00     0.031 A 
ATOM     52  C   UNL     1       4.247  14.434  14.991  1.00  0.00     0.131 A 
ATOM     53  C   UNL     1       5.631  12.904  16.823  1.00  0.00     0.055 A 
ATOM     54  C   UNL     1       5.361  14.974  15.633  1.00  0.00     0.041 A 
ATOM     55  F   UNL     1       3.584  15.224  14.130  1.00  0.00    -0.206 F 
ATOM     56  C   UNL     1       6.048  14.213  16.571  1.00  0.00     0.022 A 
BRANCH  53  57
ATOM     57  S   UNL     1       6.390  11.950  18.164  1.00  0.00     0.124 S 
ATOM     58  O   UNL     1       5.236  11.652  19.004  1.00  0.00    -0.237 OA
ATOM     59  O   UNL     1       6.967  10.821  17.442  1.00  0.00    -0.237 OA
ATOM     60  O   UNL     1       7.357  12.882  18.738  1.00  0.00    -0.744 OA
ENDBRANCH  53  57
ENDBRANCH  26  50
BRANCH  38  61
ATOM     61  C   UNL     1      -2.291  10.707  17.540  1.00  0.00     0.023 A 
ATOM     62  C   UNL     1      -2.500  11.766  18.441  1.00  0.00     0.031 A 
ATOM     63  C   UNL     1      -2.566   9.400  17.981  1.00  0.00     0.131 A 
ATOM     64  C   UNL     1      -2.907  11.494  19.756  1.00  0.00     0.055 A 
ATOM     65  C   UNL     1      -3.041   9.143  19.267  1.00  0.00     0.041 A 
ATOM     66  F   UNL     1      -2.376   8.349  17.167  1.00  0.00    -0.206 F 
ATOM     67  C   UNL     1      -3.199  10.191  20.168  1.00  0.00     0.022 A 
BRANCH  64  68
ATOM     68  S   UNL     1      -2.941  12.854  20.954  1.00  0.00     0.124 S 
ATOM     69  O   UNL     1      -1.561  13.326  20.916  1.00  0.00    -0.237 OA
ATOM     70  O   UNL     1      -3.938  13.752  20.380  1.00  0.00    -0.237 OA
ATOM     71  O   UNL     1      -3.339  12.203  22.201  1.00  0.00    -0.744 OA
ENDBRANCH  64  68
ENDBRANCH  38  61
ENDBRANCH  12  13
ENDBRANCH   5   7
ENDBRANCH   2   3
ENDBRANCH   1   2
BRANCH   1  72
ATOM     72  C   UNL     1       3.932   9.240   2.373  1.00  0.00     0.023 C 
BRANCH  72  73
ATOM     73  C   UNL     1       5.256   8.605   2.794  1.00  0.00     0.116 C 
BRANCH  73  74
ATOM     74  N   UNL     1       5.188   7.162   2.788  1.00  0.00    -0.354 N 
ATOM     75  C   UNL     1       5.793   6.252   1.980  1.00  0.00     0.249 C 
ATOM     76  H   UNL     1       4.608   6.775   3.483  1.00  0.00     0.163 HD
ATOM     77  O   UNL     1       5.630   5.058   2.256  1.00  0.00    -0.272 OA
BRANCH  75  78
ATOM     78  C   UNL     1       6.578   6.643   0.698  1.00  0.00     0.207 C 
ATOM     79  C   UNL     1       5.672   6.593  -0.521  1.00  0.00     0.045 C 
ATOM     80  O   UNL     1       7.301   7.866   0.614  1.00  0.00    -0.363 OA
ATOM     81  C   UNL     1       5.422   8.040  -0.847  1.00  0.00     0.037 C 
ATOM     82  C   UNL     1       6.635   8.767  -0.286  1.00  0.00     0.139 C 
BRANCH  82  83
ATOM     83  C   UNL     1       7.617   9.320  -1.327  1.00  0.00     0.161 C 
BRANCH  83  84
ATOM     84  N   UNL     1       6.968  10.293  -2.191  1.00  0.00    -0.270 N 
ATOM     85  C   UNL     1       6.635  10.055  -3.494  1.00  0.00     0.263 C 
ATOM     86  C   UNL     1       6.473  11.495  -1.748  1.00  0.00     0.280 C 
ATOM     87  O   UNL     1       6.876   9.089  -4.188  1.00  0.00    -0.269 OA
ATOM     88  C   UNL     1       5.835  11.190  -3.931  1.00  0.00     0.071 A 
ATOM     89  C   UNL     1       5.734  12.067  -2.880  1.00  0.00     0.141 A 
ATOM     90  O   UNL     1       6.565  11.973  -0.632  1.00  0.00    -0.267 OA
ATOM     91  C   UNL     1       5.163  11.437  -5.107  1.00  0.00     0.018 A 
ATOM     92  N   UNL     1       5.005  13.196  -2.869  1.00  0.00    -0.250 NA
ATOM     93  C   UNL     1       4.392  12.601  -5.151  1.00  0.00     0.021 A 
ATOM     94  C   UNL     1       4.341  13.435  -4.025  1.00  0.00     0.112 A 
ENDBRANCH  83  84
ENDBRANCH  82  83
ENDBRANCH  75  78
ENDBRANCH  73  74
ENDBRANCH  72  73
ENDBRANCH   1  72
TORSDOF 16
