REMARK SMILES COCC[C@@]1(C(=O)NCCCCNC(=O)c2ccc(-c3c4nc(c(-c5cc(S(=O)(=O)[O-])ccc5F)c5ccc([nH]5)c(-c5cc(S(=O)(=O)[O-])ccc5F)c5nc(c(-c6cc(S(=O)(=O)[O-])ccc6F)c6ccc3[nH]6)C=C5)C=C4)cc2)CCC[N@@H+](Cc2cccc3c2OC(C)(C)C3)C1
REMARK SMILES IDX 10 1 9 2 8 3 6 4 7 5 5 7 79 8 95 9 80 10 82 11 81 12 4 14
REMARK SMILES IDX 3 15 2 16 1 17 83 18 84 19 85 20 89 21 86 22 88 23 90 24
REMARK SMILES IDX 87 25 94 26 91 27 92 28 93 29 11 30 12 31 13 32 14 33 15 35
REMARK SMILES IDX 16 36 17 37 78 38 18 39 77 40 19 41 20 42 21 43 71 44 22 45
REMARK SMILES IDX 76 46 70 47 72 48 23 49 75 50 69 51 68 52 24 54 56 55 36 56
REMARK SMILES IDX 55 57 37 58 40 59 54 60 73 61 38 62 39 63 53 65 74 66 41 67
REMARK SMILES IDX 25 68 26 69 34 70 27 71 33 72 35 73 32 74 28 75 29 76 30 77
REMARK SMILES IDX 31 78 57 79 58 80 66 81 59 82 65 83 67 84 64 85 60 86 61 87
REMARK SMILES IDX 62 88 63 89 42 90 43 91 51 92 44 93 50 94 52 95 49 96 45 97
REMARK SMILES IDX 46 98 47 99 48 100
REMARK H PARENT 8 6 82 13 13 34 72 53 40 64
REMARK Flexibility Score: inf
ROOT
ATOM      1  C   UNL     1      -1.623   5.527   0.169  1.00  0.00     0.023 C 
ENDROOT
BRANCH   1   2
ATOM      2  C   UNL     1      -1.821   4.029   0.288  1.00  0.00     0.116 C 
BRANCH   2   3
ATOM      3  N   UNL     1      -0.902   3.264  -0.512  1.00  0.00    -0.355 N 
ATOM      4  C   UNL     1      -0.109   2.229  -0.150  1.00  0.00     0.232 C 
ATOM      5  O   UNL     1       0.059   1.391  -1.050  1.00  0.00    -0.274 OA
ATOM      6  H   UNL     1      -0.841   3.532  -1.457  1.00  0.00     0.163 HD
BRANCH   4   7
ATOM      7  C   UNL     1       0.682   2.105   1.182  1.00  0.00     0.100 C 
ATOM      8  C   UNL     1       0.673   0.598   1.554  1.00  0.00     0.029 C 
ATOM      9  C   UNL     1       0.179   2.872   2.445  1.00  0.00     0.279 C 
ATOM     10  C   UNL     1      -0.733   0.177   1.998  1.00  0.00     0.063 C 
ATOM     11  N   UNL     1      -1.142   2.450   2.934  1.00  0.00    -0.330 N 
ATOM     12  C   UNL     1      -1.223   1.012   3.185  1.00  0.00     0.262 C 
ATOM     13  H   UNL     1      -1.789   2.599   2.159  1.00  0.00     0.348 HD
BRANCH   7  14
ATOM     14  C   UNL     1       2.150   2.603   0.932  1.00  0.00     0.051 C 
BRANCH  14  15
ATOM     15  C   UNL     1       2.882   2.169  -0.349  1.00  0.00     0.161 C 
BRANCH  15  16
ATOM     16  O   UNL     1       3.278   3.300  -1.135  1.00  0.00    -0.385 OA
ATOM     17  C   UNL     1       2.210   3.878  -1.877  1.00  0.00     0.194 C 
ENDBRANCH  15  16
ENDBRANCH  14  15
ENDBRANCH   7  14
BRANCH  11  18
ATOM     18  C   UNL     1      -1.719   3.333   3.994  1.00  0.00     0.303 C 
BRANCH  18  19
ATOM     19  C   UNL     1      -1.198   3.063   5.386  1.00  0.00     0.049 A 
ATOM     20  C   UNL     1      -1.702   1.984   6.123  1.00  0.00     0.013 A 
ATOM     21  C   UNL     1       0.002   3.594   5.802  1.00  0.00     0.132 A 
ATOM     22  C   UNL     1      -0.871   1.306   7.024  1.00  0.00     0.001 A 
ATOM     23  C   UNL     1       0.898   2.815   6.504  1.00  0.00    -0.001 A 
ATOM     24  O   UNL     1       0.482   4.846   5.526  1.00  0.00    -0.487 OA
ATOM     25  C   UNL     1       0.479   1.660   7.134  1.00  0.00     0.008 A 
ATOM     26  C   UNL     1       2.243   3.422   6.304  1.00  0.00     0.087 C 
ATOM     27  C   UNL     1       1.786   4.887   6.187  1.00  0.00     0.108 C 
ATOM     28  C   UNL     1       1.751   5.489   7.610  1.00  0.00     0.057 C 
ATOM     29  C   UNL     1       2.649   5.775   5.293  1.00  0.00     0.057 C 
ENDBRANCH  18  19
ENDBRANCH  11  18
ENDBRANCH   4   7
ENDBRANCH   2   3
ENDBRANCH   1   2
BRANCH   1  30
ATOM     30  C   UNL     1      -2.276   6.137  -1.063  1.00  0.00     0.023 C 
BRANCH  30  31
ATOM     31  C   UNL     1      -3.718   5.707  -1.309  1.00  0.00     0.116 C 
BRANCH  31  32
ATOM     32  N   UNL     1      -4.577   5.796  -0.134  1.00  0.00    -0.352 N 
ATOM     33  C   UNL     1      -5.907   6.157  -0.073  1.00  0.00     0.251 C 
ATOM     34  H   UNL     1      -4.154   5.569   0.726  1.00  0.00     0.163 HD
ATOM     35  O   UNL     1      -6.484   6.241   0.996  1.00  0.00    -0.269 OA
BRANCH  33  36
ATOM     36  C   UNL     1      -6.585   6.496  -1.340  1.00  0.00     0.039 A 
ATOM     37  C   UNL     1      -7.178   7.752  -1.468  1.00  0.00     0.014 A 
ATOM     38  C   UNL     1      -6.508   5.624  -2.428  1.00  0.00     0.014 A 
ATOM     39  C   UNL     1      -7.617   8.173  -2.723  1.00  0.00     0.010 A 
ATOM     40  C   UNL     1      -6.858   6.082  -3.690  1.00  0.00     0.010 A 
ATOM     41  C   UNL     1      -7.411   7.362  -3.853  1.00  0.00    -0.014 A 
BRANCH  41  42
ATOM     42  C   UNL     1      -7.763   7.832  -5.216  1.00  0.00     0.031 A 
ATOM     43  C   UNL     1      -8.792   7.086  -6.018  1.00  0.00     0.074 A 
ATOM     44  C   UNL     1      -7.101   8.873  -5.759  1.00  0.00     0.049 A 
ATOM     45  N   UNL     1      -9.183   7.279  -7.252  1.00  0.00    -0.248 NA
ATOM     46  C   UNL     1      -9.435   5.943  -5.355  1.00  0.00     0.031 C 
ATOM     47  C   UNL     1      -6.045   9.645  -5.097  1.00  0.00     0.029 A 
ATOM     48  N   UNL     1      -7.214   9.461  -6.993  1.00  0.00    -0.354 N 
ATOM     49  C   UNL     1     -10.098   6.267  -7.519  1.00  0.00     0.074 A 
ATOM     50  C   UNL     1     -10.142   5.423  -6.344  1.00  0.00     0.031 C 
ATOM     51  C   UNL     1      -5.641  10.629  -5.917  1.00  0.00     0.029 A 
ATOM     52  C   UNL     1      -6.370  10.531  -7.177  1.00  0.00     0.049 A 
ATOM     53  H   UNL     1      -7.841   9.145  -7.684  1.00  0.00     0.167 HD
ATOM     54  C   UNL     1     -10.854   6.077  -8.629  1.00  0.00     0.034 A 
ATOM     55  C   UNL     1      -6.203  11.339  -8.242  1.00  0.00     0.034 A 
ATOM     56  C   UNL     1     -10.808   6.944  -9.781  1.00  0.00     0.049 A 
ATOM     57  C   UNL     1      -7.034  11.097  -9.475  1.00  0.00     0.074 A 
ATOM     58  C   UNL     1     -11.581   6.897 -10.928  1.00  0.00     0.029 A 
ATOM     59  N   UNL     1      -9.932   8.012  -9.938  1.00  0.00    -0.354 N 
ATOM     60  N   UNL     1      -7.944  10.175  -9.692  1.00  0.00    -0.248 NA
ATOM     61  C   UNL     1      -6.818  12.010 -10.604  1.00  0.00     0.031 C 
ATOM     62  C   UNL     1     -11.125   7.889 -11.805  1.00  0.00     0.029 A 
ATOM     63  C   UNL     1     -10.119   8.606 -11.176  1.00  0.00     0.049 A 
ATOM     64  H   UNL     1      -9.274   8.303  -9.266  1.00  0.00     0.167 HD
ATOM     65  C   UNL     1      -8.433  10.420 -10.973  1.00  0.00     0.074 A 
ATOM     66  C   UNL     1      -7.721  11.579 -11.473  1.00  0.00     0.031 C 
ATOM     67  C   UNL     1      -9.389   9.753 -11.668  1.00  0.00     0.034 A 
BRANCH  54  68
ATOM     68  C   UNL     1     -11.761   4.868  -8.645  1.00  0.00     0.023 A 
ATOM     69  C   UNL     1     -12.775   4.692  -7.686  1.00  0.00     0.031 A 
ATOM     70  C   UNL     1     -11.566   3.842  -9.586  1.00  0.00     0.131 A 
ATOM     71  C   UNL     1     -13.476   3.479  -7.619  1.00  0.00     0.055 A 
ATOM     72  C   UNL     1     -12.336   2.677  -9.576  1.00  0.00     0.041 A 
ATOM     73  F   UNL     1     -10.603   3.940 -10.516  1.00  0.00    -0.206 F 
ATOM     74  C   UNL     1     -13.282   2.479  -8.574  1.00  0.00     0.022 A 
BRANCH  71  75
ATOM     75  S   UNL     1     -14.498   3.153  -6.156  1.00  0.00     0.124 S 
ATOM     76  O   UNL     1     -13.527   3.316  -5.076  1.00  0.00    -0.237 OA
ATOM     77  O   UNL     1     -15.524   4.184  -6.253  1.00  0.00    -0.237 OA
ATOM     78  O   UNL     1     -14.965   1.784  -6.362  1.00  0.00    -0.744 OA
ENDBRANCH  71  75
ENDBRANCH  54  68
BRANCH  55  79
ATOM     79  C   UNL     1      -5.226  12.463  -8.191  1.00  0.00     0.023 A 
ATOM     80  C   UNL     1      -5.667  13.795  -8.226  1.00  0.00     0.031 A 
ATOM     81  C   UNL     1      -3.841  12.226  -8.133  1.00  0.00     0.131 A 
ATOM     82  C   UNL     1      -4.732  14.842  -8.241  1.00  0.00     0.055 A 
ATOM     83  C   UNL     1      -2.917  13.272  -8.102  1.00  0.00     0.041 A 
ATOM     84  F   UNL     1      -3.369  10.970  -8.089  1.00  0.00    -0.206 F 
ATOM     85  C   UNL     1      -3.360  14.589  -8.167  1.00  0.00     0.022 A 
BRANCH  82  86
ATOM     86  S   UNL     1      -5.336  16.543  -8.419  1.00  0.00     0.124 S 
ATOM     87  O   UNL     1      -6.014  16.483  -9.709  1.00  0.00    -0.237 OA
ATOM     88  O   UNL     1      -6.194  16.684  -7.247  1.00  0.00    -0.237 OA
ATOM     89  O   UNL     1      -4.113  17.342  -8.392  1.00  0.00    -0.744 OA
ENDBRANCH  82  86
ENDBRANCH  55  79
BRANCH  67  90
ATOM     90  C   UNL     1      -9.748  10.297 -13.029  1.00  0.00     0.023 A 
ATOM     91  C   UNL     1      -8.843  10.265 -14.103  1.00  0.00     0.031 A 
ATOM     92  C   UNL     1     -11.014  10.871 -13.247  1.00  0.00     0.131 A 
ATOM     93  C   UNL     1      -9.195  10.845 -15.332  1.00  0.00     0.055 A 
ATOM     94  C   UNL     1     -11.381  11.391 -14.489  1.00  0.00     0.041 A 
ATOM     95  F   UNL     1     -11.917  10.931 -12.255  1.00  0.00    -0.206 F 
ATOM     96  C   UNL     1     -10.464  11.392 -15.536  1.00  0.00     0.022 A 
BRANCH  93  97
ATOM     97  S   UNL     1      -7.938  10.958 -16.635  1.00  0.00     0.124 S 
ATOM     98  O   UNL     1      -6.892  11.737 -15.980  1.00  0.00    -0.237 OA
ATOM     99  O   UNL     1      -7.624   9.556 -16.889  1.00  0.00    -0.237 OA
ATOM    100  O   UNL     1      -8.633  11.644 -17.723  1.00  0.00    -0.744 OA
ENDBRANCH  93  97
ENDBRANCH  67  90
ENDBRANCH  41  42
ENDBRANCH  33  36
ENDBRANCH  31  32
ENDBRANCH  30  31
ENDBRANCH   1  30
TORSDOF 19
