REMARK SMILES CC(C)[N@@H+](C)Cc1cc2c(cc1Cl)C=C(C(=O)NCCCCNC(=O)c1ccc(-c3c4nc(c(-c5cc(S(=O)(=O)[O-])ccc5F)c5ccc([nH]5)c(-c5cc(S(=O)(=O)[O-])ccc5F)c5nc(c(-c6cc(S(=O)(=O)[O-])ccc6F)c6ccc3[nH]6)C=C5)C=C4)cc1)[C@@H](C(F)(F)F)O2
REMARK SMILES IDX 20 1 19 2 18 3 16 4 17 5 15 7 7 8 8 9 12 10 9 11 11 12 13 13
REMARK SMILES IDX 10 14 94 15 14 16 89 17 6 18 4 19 5 20 2 22 1 23 3 24 90 25
REMARK SMILES IDX 91 26 92 27 93 28 21 29 22 30 23 31 24 32 25 34 26 35 27 36
REMARK SMILES IDX 88 37 28 38 87 39 29 40 30 41 31 42 81 43 32 44 86 45 80 46
REMARK SMILES IDX 82 47 33 48 85 49 79 50 78 51 34 53 66 54 46 55 65 56 47 57
REMARK SMILES IDX 50 58 64 59 83 60 48 61 49 62 63 64 84 65 51 66 35 67 36 68
REMARK SMILES IDX 44 69 37 70 43 71 45 72 42 73 38 74 39 75 40 76 41 77 67 78
REMARK SMILES IDX 68 79 76 80 69 81 75 82 77 83 74 84 70 85 71 86 72 87 73 88
REMARK SMILES IDX 52 89 53 90 61 91 54 92 60 93 62 94 59 95 55 96 56 97 57 98
REMARK SMILES IDX 58 99
REMARK H PARENT 18 6 4 21 23 33 82 52 50 63
REMARK Flexibility Score: inf
ROOT
ATOM      1  C   UNL     1       3.032  -7.124   6.493  1.00  0.00     0.023 C 
ENDROOT
BRANCH   1   2
ATOM      2  C   UNL     1       3.476  -7.382   5.056  1.00  0.00     0.116 C 
BRANCH   2   3
ATOM      3  N   UNL     1       2.515  -8.187   4.322  1.00  0.00    -0.352 N 
ATOM      4  C   UNL     1       1.470  -7.956   3.494  1.00  0.00     0.251 C 
ATOM      5  O   UNL     1       0.883  -8.962   3.083  1.00  0.00    -0.270 OA
ATOM      6  H   UNL     1       2.662  -9.150   4.464  1.00  0.00     0.163 HD
BRANCH   4   7
ATOM      7  C   UNL     1       1.005  -6.607   3.054  1.00  0.00     0.067 C 
ATOM      8  C   UNL     1      -1.388  -2.830   0.719  1.00  0.00     0.029 A 
ATOM      9  C   UNL     1      -0.409  -2.910   1.724  1.00  0.00     0.058 A 
ATOM     10  C   UNL     1      -2.060  -4.014   0.369  1.00  0.00     0.050 A 
ATOM     11  C   UNL     1      -0.015  -4.139   2.245  1.00  0.00     0.128 A 
ATOM     12  C   UNL     1      -1.676  -5.248   0.916  1.00  0.00     0.033 A 
ATOM     13  Cl  UNL     1      -3.417  -4.029  -0.701  1.00  0.00    -0.084 Cl
ATOM     14  C   UNL     1      -0.627  -5.316   1.833  1.00  0.00     0.019 A 
ATOM     15  O   UNL     1       0.985  -4.117   3.174  1.00  0.00    -0.475 OA
ATOM     16  C   UNL     1      -0.160  -6.585   2.377  1.00  0.00     0.025 C 
ATOM     17  C   UNL     1       1.780  -5.334   3.262  1.00  0.00     0.314 C 
BRANCH   8  18
ATOM     18  C   UNL     1      -1.650  -1.480   0.086  1.00  0.00     0.300 C 
BRANCH  18  19
ATOM     19  N   UNL     1      -0.934  -1.152  -1.156  1.00  0.00    -0.332 N 
ATOM     20  C   UNL     1      -1.417  -1.869  -2.329  1.00  0.00     0.333 C 
ATOM     21  H   UNL     1      -1.220  -0.175  -1.226  1.00  0.00     0.348 HD
BRANCH  19  22
ATOM     22  C   UNL     1       0.526  -0.970  -1.151  1.00  0.00     0.177 C 
ATOM     23  C   UNL     1       0.993   0.076  -0.133  1.00  0.00     0.075 C 
ATOM     24  C   UNL     1       1.383  -2.239  -1.049  1.00  0.00     0.075 C 
ENDBRANCH  19  22
ENDBRANCH  18  19
ENDBRANCH   8  18
BRANCH  17  25
ATOM     25  C   UNL     1       2.997  -5.210   2.325  1.00  0.00     0.429 C 
ATOM     26  F   UNL     1       3.818  -4.216   2.748  1.00  0.00    -0.167 F 
ATOM     27  F   UNL     1       3.745  -6.337   2.287  1.00  0.00    -0.167 F 
ATOM     28  F   UNL     1       2.647  -4.926   1.050  1.00  0.00    -0.167 F 
ENDBRANCH  17  25
ENDBRANCH   4   7
ENDBRANCH   2   3
ENDBRANCH   1   2
BRANCH   1  29
ATOM     29  C   UNL     1       3.368  -8.257   7.466  1.00  0.00     0.023 C 
BRANCH  29  30
ATOM     30  C   UNL     1       4.836  -8.675   7.506  1.00  0.00     0.116 C 
BRANCH  30  31
ATOM     31  N   UNL     1       5.769  -7.571   7.696  1.00  0.00    -0.352 N 
ATOM     32  C   UNL     1       7.018  -7.613   8.277  1.00  0.00     0.251 C 
ATOM     33  H   UNL     1       5.471  -6.691   7.372  1.00  0.00     0.163 HD
ATOM     34  O   UNL     1       7.668  -6.583   8.431  1.00  0.00    -0.269 OA
BRANCH  32  35
ATOM     35  C   UNL     1       7.526  -8.912   8.760  1.00  0.00     0.039 A 
ATOM     36  C   UNL     1       7.505 -10.025   7.918  1.00  0.00     0.014 A 
ATOM     37  C   UNL     1       7.910  -9.038  10.097  1.00  0.00     0.014 A 
ATOM     38  C   UNL     1       7.685 -11.290   8.460  1.00  0.00     0.010 A 
ATOM     39  C   UNL     1       8.174 -10.306  10.619  1.00  0.00     0.010 A 
ATOM     40  C   UNL     1       8.001 -11.447   9.821  1.00  0.00    -0.014 A 
BRANCH  40  41
ATOM     41  C   UNL     1       8.126 -12.819  10.378  1.00  0.00     0.031 A 
ATOM     42  C   UNL     1       7.147 -13.332  11.400  1.00  0.00     0.074 A 
ATOM     43  C   UNL     1       9.085 -13.631   9.894  1.00  0.00     0.049 A 
ATOM     44  N   UNL     1       7.061 -14.526  11.928  1.00  0.00    -0.248 NA
ATOM     45  C   UNL     1       6.134 -12.386  11.897  1.00  0.00     0.031 C 
ATOM     46  C   UNL     1      10.083 -13.236   8.900  1.00  0.00     0.029 A 
ATOM     47  N   UNL     1       9.359 -14.953  10.137  1.00  0.00    -0.354 N 
ATOM     48  C   UNL     1       6.000 -14.473  12.826  1.00  0.00     0.074 A 
ATOM     49  C   UNL     1       5.494 -13.119  12.798  1.00  0.00     0.031 C 
ATOM     50  C   UNL     1      10.815 -14.308   8.566  1.00  0.00     0.029 A 
ATOM     51  C   UNL     1      10.387 -15.450   9.370  1.00  0.00     0.049 A 
ATOM     52  H   UNL     1       8.868 -15.494  10.797  1.00  0.00     0.167 HD
ATOM     53  C   UNL     1       5.488 -15.469  13.589  1.00  0.00     0.034 A 
ATOM     54  C   UNL     1      10.929 -16.684   9.316  1.00  0.00     0.034 A 
ATOM     55  C   UNL     1       5.990 -16.820  13.589  1.00  0.00     0.049 A 
ATOM     56  C   UNL     1      10.354 -17.767  10.189  1.00  0.00     0.074 A 
ATOM     57  C   UNL     1       5.520 -17.905  14.307  1.00  0.00     0.029 A 
ATOM     58  N   UNL     1       7.064 -17.274  12.837  1.00  0.00    -0.354 N 
ATOM     59  N   UNL     1       9.325 -17.708  11.002  1.00  0.00    -0.248 NA
ATOM     60  C   UNL     1      11.009 -19.080  10.145  1.00  0.00     0.031 C 
ATOM     61  C   UNL     1       6.339 -19.001  14.028  1.00  0.00     0.029 A 
ATOM     62  C   UNL     1       7.286 -18.617  13.092  1.00  0.00     0.049 A 
ATOM     63  H   UNL     1       7.590 -16.723  12.213  1.00  0.00     0.167 HD
ATOM     64  C   UNL     1       9.207 -18.976  11.562  1.00  0.00     0.074 A 
ATOM     65  C   UNL     1      10.248 -19.790  10.967  1.00  0.00     0.031 C 
ATOM     66  C   UNL     1       8.326 -19.420  12.493  1.00  0.00     0.034 A 
BRANCH  53  67
ATOM     67  C   UNL     1       4.314 -15.160  14.485  1.00  0.00     0.023 A 
ATOM     68  C   UNL     1       4.450 -15.249  15.883  1.00  0.00     0.031 A 
ATOM     69  C   UNL     1       3.038 -14.898  13.955  1.00  0.00     0.131 A 
ATOM     70  C   UNL     1       3.323 -15.104  16.703  1.00  0.00     0.055 A 
ATOM     71  C   UNL     1       1.925 -14.722  14.778  1.00  0.00     0.041 A 
ATOM     72  F   UNL     1       2.858 -14.801  12.628  1.00  0.00    -0.206 F 
ATOM     73  C   UNL     1       2.063 -14.836  16.158  1.00  0.00     0.022 A 
BRANCH  70  74
ATOM     74  S   UNL     1       3.435 -15.311  18.501  1.00  0.00     0.124 S 
ATOM     75  O   UNL     1       2.982 -14.006  18.980  1.00  0.00    -0.237 OA
ATOM     76  O   UNL     1       2.513 -16.417  18.740  1.00  0.00    -0.237 OA
ATOM     77  O   UNL     1       4.845 -15.602  18.734  1.00  0.00    -0.744 OA
ENDBRANCH  70  74
ENDBRANCH  53  67
BRANCH  54  78
ATOM     78  C   UNL     1      12.042 -16.942   8.358  1.00  0.00     0.023 A 
ATOM     79  C   UNL     1      13.254 -16.235   8.453  1.00  0.00     0.031 A 
ATOM     80  C   UNL     1      11.860 -17.799   7.260  1.00  0.00     0.131 A 
ATOM     81  C   UNL     1      14.200 -16.331   7.424  1.00  0.00     0.055 A 
ATOM     82  C   UNL     1      12.838 -17.950   6.275  1.00  0.00     0.041 A 
ATOM     83  F   UNL     1      10.716 -18.485   7.120  1.00  0.00    -0.206 F 
ATOM     84  C   UNL     1      14.007 -17.197   6.344  1.00  0.00     0.022 A 
BRANCH  81  85
ATOM     85  S   UNL     1      15.633 -15.219   7.377  1.00  0.00     0.124 S 
ATOM     86  O   UNL     1      16.748 -16.155   7.473  1.00  0.00    -0.237 OA
ATOM     87  O   UNL     1      15.464 -14.569   6.079  1.00  0.00    -0.237 OA
ATOM     88  O   UNL     1      15.433 -14.351   8.532  1.00  0.00    -0.744 OA
ENDBRANCH  81  85
ENDBRANCH  54  78
BRANCH  66  89
ATOM     89  C   UNL     1       8.440 -20.850  12.961  1.00  0.00     0.023 A 
ATOM     90  C   UNL     1       7.395 -21.761  12.717  1.00  0.00     0.031 A 
ATOM     91  C   UNL     1       9.512 -21.265  13.769  1.00  0.00     0.131 A 
ATOM     92  C   UNL     1       7.428 -23.031  13.307  1.00  0.00     0.055 A 
ATOM     93  C   UNL     1       9.561 -22.546  14.320  1.00  0.00     0.041 A 
ATOM     94  F   UNL     1      10.527 -20.427  14.037  1.00  0.00    -0.206 F 
ATOM     95  C   UNL     1       8.509 -23.430  14.101  1.00  0.00     0.022 A 
BRANCH  92  96
ATOM     96  S   UNL     1       6.036 -24.181  13.135  1.00  0.00     0.124 S 
ATOM     97  O   UNL     1       6.660 -25.310  12.451  1.00  0.00    -0.237 OA
ATOM     98  O   UNL     1       5.663 -24.423  14.526  1.00  0.00    -0.237 OA
ATOM     99  O   UNL     1       5.060 -23.437  12.345  1.00  0.00    -0.744 OA
ENDBRANCH  92  96
ENDBRANCH  66  89
ENDBRANCH  40  41
ENDBRANCH  32  35
ENDBRANCH  30  31
ENDBRANCH  29  30
ENDBRANCH   1  29
TORSDOF 18
