REMARK SMILES Cc1cc(=O)c(Oc2ccc(C(=O)NCCCCNC(=O)c3ccc(-c4c5nc(c(-c6cc(S(=O)(=O)[O-])ccc6F)c6ccc([nH]6)c(-c6cc(S(=O)(=O)[O-])ccc6F)c6nc(c(-c7cc(S(=O)(=O)[O-])ccc7F)c7ccc4[nH]7)C=C6)C=C5)cc3)cc2)c(-c2ccc(S(C)(=O)=O)cc2)o1
REMARK SMILES IDX 16 1 15 2 14 3 12 4 13 5 11 7 8 8 9 9 86 10 10 11 85 12 7 13
REMARK SMILES IDX 6 14 1 15 2 16 3 17 98 18 4 19 87 20 5 21 88 22 89 23 97 24
REMARK SMILES IDX 90 25 96 26 91 27 92 28 93 29 94 30 95 31 17 32 18 33 19 34
REMARK SMILES IDX 20 35 21 37 22 38 23 39 84 40 24 41 83 42 25 43 26 44 27 45
REMARK SMILES IDX 77 46 28 47 82 48 76 49 78 50 29 51 81 52 75 53 74 54 30 56
REMARK SMILES IDX 62 57 42 58 61 59 43 60 46 61 60 62 79 63 44 64 45 65 59 67
REMARK SMILES IDX 80 68 47 69 31 70 32 71 40 72 33 73 39 74 41 75 38 76 34 77
REMARK SMILES IDX 35 78 36 79 37 80 63 81 64 82 72 83 65 84 71 85 73 86 70 87
REMARK SMILES IDX 66 88 67 89 68 90 69 91 48 92 49 93 57 94 50 95 56 96 58 97
REMARK SMILES IDX 55 98 51 99 52 100 53 101 54 102
REMARK H PARENT 14 6 19 36 78 55 46 66
REMARK Flexibility Score: inf
ROOT
ATOM      1  C   UNL     1      -0.780  -4.981   9.312  1.00  0.00     0.023 C 
ENDROOT
BRANCH   1   2
ATOM      2  C   UNL     1      -1.371  -5.839   8.199  1.00  0.00     0.116 C 
BRANCH   2   3
ATOM      3  N   UNL     1      -2.794  -5.691   7.957  1.00  0.00    -0.352 N 
ATOM      4  C   UNL     1      -3.527  -5.847   6.799  1.00  0.00     0.251 C 
ATOM      5  O   UNL     1      -4.754  -5.814   6.852  1.00  0.00    -0.269 OA
ATOM      6  H   UNL     1      -3.322  -5.438   8.748  1.00  0.00     0.163 HD
BRANCH   4   7
ATOM      7  C   UNL     1      -2.868  -5.929   5.468  1.00  0.00     0.040 A 
ATOM      8  C   UNL     1      -1.446  -5.438   3.130  1.00  0.00     0.127 A 
ATOM      9  C   UNL     1      -2.774  -5.037   3.212  1.00  0.00     0.048 A 
ATOM     10  C   UNL     1      -0.914  -6.286   4.100  1.00  0.00     0.048 A 
ATOM     11  C   UNL     1      -3.474  -5.246   4.403  1.00  0.00     0.017 A 
ATOM     12  C   UNL     1      -1.647  -6.567   5.252  1.00  0.00     0.017 A 
BRANCH   8  13
ATOM     13  O   UNL     1      -0.642  -5.116   2.079  1.00  0.00    -0.449 OA
BRANCH  13  14
ATOM     14  C   UNL     1      -0.261  -3.818   1.761  1.00  0.00     0.217 A 
ATOM     15  C   UNL     1       0.980   0.002   0.154  1.00  0.00     0.088 C 
ATOM     16  C   UNL     1       0.647  -1.367   0.654  1.00  0.00     0.105 A 
ATOM     17  C   UNL     1       1.045  -2.474   0.025  1.00  0.00     0.098 A 
ATOM     18  O   UNL     1      -0.098  -1.400   1.812  1.00  0.00    -0.457 OA
ATOM     19  C   UNL     1       0.641  -3.779   0.562  1.00  0.00     0.228 A 
ATOM     20  C   UNL     1      -0.532  -2.615   2.338  1.00  0.00     0.180 A 
ATOM     21  O   UNL     1       1.049  -4.799   0.013  1.00  0.00    -0.285 OA
BRANCH  20  22
ATOM     22  C   UNL     1      -1.327  -2.356   3.554  1.00  0.00     0.021 A 
ATOM     23  C   UNL     1      -2.605  -1.780   3.438  1.00  0.00     0.013 A 
ATOM     24  C   UNL     1      -0.824  -2.649   4.830  1.00  0.00     0.013 A 
ATOM     25  C   UNL     1      -3.405  -1.590   4.568  1.00  0.00     0.021 A 
ATOM     26  C   UNL     1      -1.616  -2.447   5.966  1.00  0.00     0.021 A 
ATOM     27  C   UNL     1      -2.909  -1.936   5.827  1.00  0.00     0.067 A 
BRANCH  27  28
ATOM     28  S   UNL     1      -3.993  -1.848   7.239  1.00  0.00     0.175 S 
ATOM     29  C   UNL     1      -4.020  -0.126   7.649  1.00  0.00     0.163 C 
ATOM     30  O   UNL     1      -5.316  -2.215   6.774  1.00  0.00    -0.224 OA
ATOM     31  O   UNL     1      -3.349  -2.552   8.332  1.00  0.00    -0.224 OA
ENDBRANCH  27  28
ENDBRANCH  20  22
ENDBRANCH  13  14
ENDBRANCH   8  13
ENDBRANCH   4   7
ENDBRANCH   2   3
ENDBRANCH   1   2
BRANCH   1  32
ATOM     32  C   UNL     1      -1.426  -5.081  10.684  1.00  0.00     0.023 C 
BRANCH  32  33
ATOM     33  C   UNL     1      -1.716  -6.486  11.189  1.00  0.00     0.116 C 
BRANCH  33  34
ATOM     34  N   UNL     1      -0.534  -7.326  11.340  1.00  0.00    -0.352 N 
ATOM     35  C   UNL     1      -0.051  -7.985  12.452  1.00  0.00     0.251 C 
ATOM     36  H   UNL     1       0.002  -7.441  10.523  1.00  0.00     0.163 HD
ATOM     37  O   UNL     1       1.011  -8.598  12.384  1.00  0.00    -0.269 OA
BRANCH  35  38
ATOM     38  C   UNL     1      -0.782  -7.896  13.737  1.00  0.00     0.039 A 
ATOM     39  C   UNL     1      -2.168  -8.021  13.772  1.00  0.00     0.014 A 
ATOM     40  C   UNL     1      -0.079  -7.602  14.909  1.00  0.00     0.014 A 
ATOM     41  C   UNL     1      -2.862  -7.598  14.898  1.00  0.00     0.010 A 
ATOM     42  C   UNL     1      -0.781  -7.303  16.084  1.00  0.00     0.010 A 
ATOM     43  C   UNL     1      -2.181  -7.220  16.069  1.00  0.00    -0.014 A 
BRANCH  43  44
ATOM     44  C   UNL     1      -2.966  -6.743  17.242  1.00  0.00     0.031 A 
ATOM     45  C   UNL     1      -2.788  -5.350  17.793  1.00  0.00     0.074 A 
ATOM     46  C   UNL     1      -3.912  -7.551  17.764  1.00  0.00     0.049 A 
ATOM     47  N   UNL     1      -3.448  -4.756  18.755  1.00  0.00    -0.248 NA
ATOM     48  C   UNL     1      -1.732  -4.515  17.197  1.00  0.00     0.031 C 
ATOM     49  C   UNL     1      -4.174  -8.919  17.317  1.00  0.00     0.029 A 
ATOM     50  N   UNL     1      -4.848  -7.338  18.746  1.00  0.00    -0.354 N 
ATOM     51  C   UNL     1      -2.881  -3.492  18.891  1.00  0.00     0.074 A 
ATOM     52  C   UNL     1      -1.793  -3.419  17.942  1.00  0.00     0.031 C 
ATOM     53  C   UNL     1      -5.247  -9.394  17.961  1.00  0.00     0.029 A 
ATOM     54  C   UNL     1      -5.699  -8.403  18.933  1.00  0.00     0.049 A 
ATOM     55  H   UNL     1      -4.904  -6.504  19.266  1.00  0.00     0.167 HD
ATOM     56  C   UNL     1      -3.248  -2.481  19.716  1.00  0.00     0.034 A 
ATOM     57  C   UNL     1      -6.724  -8.577  19.793  1.00  0.00     0.034 A 
ATOM     58  C   UNL     1      -4.354  -2.560  20.641  1.00  0.00     0.049 A 
ATOM     59  C   UNL     1      -7.096  -7.447  20.715  1.00  0.00     0.074 A 
ATOM     60  C   UNL     1      -4.823  -1.577  21.494  1.00  0.00     0.029 A 
ATOM     61  N   UNL     1      -5.163  -3.671  20.833  1.00  0.00    -0.354 N 
ATOM     62  N   UNL     1      -6.580  -6.242  20.792  1.00  0.00    -0.248 NA
ATOM     63  C   UNL     1      -8.189  -7.692  21.665  1.00  0.00     0.031 C 
ATOM     64  C   UNL     1      -5.863  -2.114  22.252  1.00  0.00     0.029 A 
ATOM     65  C   UNL     1      -6.106  -3.406  21.815  1.00  0.00     0.049 A 
ATOM     66  H   UNL     1      -5.080  -4.522  20.345  1.00  0.00     0.167 HD
ATOM     67  C   UNL     1      -7.294  -5.582  21.788  1.00  0.00     0.074 A 
ATOM     68  C   UNL     1      -8.304  -6.509  22.255  1.00  0.00     0.031 C 
ATOM     69  C   UNL     1      -7.118  -4.328  22.276  1.00  0.00     0.034 A 
BRANCH  56  70
ATOM     70  C   UNL     1      -2.477  -1.181  19.669  1.00  0.00     0.023 A 
ATOM     71  C   UNL     1      -1.811  -0.715  20.819  1.00  0.00     0.031 A 
ATOM     72  C   UNL     1      -2.526  -0.336  18.546  1.00  0.00     0.131 A 
ATOM     73  C   UNL     1      -1.260   0.574  20.835  1.00  0.00     0.055 A 
ATOM     74  C   UNL     1      -1.933   0.929  18.550  1.00  0.00     0.041 A 
ATOM     75  F   UNL     1      -3.152  -0.727  17.424  1.00  0.00    -0.206 F 
ATOM     76  C   UNL     1      -1.310   1.394  19.704  1.00  0.00     0.022 A 
BRANCH  73  77
ATOM     77  S   UNL     1      -0.530   1.268  22.344  1.00  0.00     0.124 S 
ATOM     78  O   UNL     1       0.832   1.565  21.908  1.00  0.00    -0.237 OA
ATOM     79  O   UNL     1      -1.376   2.434  22.584  1.00  0.00    -0.237 OA
ATOM     80  O   UNL     1      -0.649   0.190  23.319  1.00  0.00    -0.744 OA
ENDBRANCH  73  77
ENDBRANCH  56  70
BRANCH  57  81
ATOM     81  C   UNL     1      -7.479  -9.865  19.770  1.00  0.00     0.023 A 
ATOM     82  C   UNL     1      -6.822 -11.088  20.004  1.00  0.00     0.031 A 
ATOM     83  C   UNL     1      -8.831  -9.905  19.394  1.00  0.00     0.131 A 
ATOM     84  C   UNL     1      -7.492 -12.296  19.774  1.00  0.00     0.055 A 
ATOM     85  C   UNL     1      -9.520 -11.112  19.250  1.00  0.00     0.041 A 
ATOM     86  F   UNL     1      -9.499  -8.768  19.147  1.00  0.00    -0.206 F 
ATOM     87  C   UNL     1      -8.843 -12.316  19.418  1.00  0.00     0.022 A 
BRANCH  84  88
ATOM     88  S   UNL     1      -6.589 -13.871  19.775  1.00  0.00     0.124 S 
ATOM     89  O   UNL     1      -7.269 -14.611  20.833  1.00  0.00    -0.237 OA
ATOM     90  O   UNL     1      -6.826 -14.350  18.415  1.00  0.00    -0.237 OA
ATOM     91  O   UNL     1      -5.213 -13.479  20.062  1.00  0.00    -0.744 OA
ENDBRANCH  84  88
ENDBRANCH  57  81
BRANCH  69  92
ATOM     92  C   UNL     1      -8.028  -3.853  23.386  1.00  0.00     0.023 A 
ATOM     93  C   UNL     1      -8.848  -2.724  23.193  1.00  0.00     0.031 A 
ATOM     94  C   UNL     1      -7.977  -4.422  24.671  1.00  0.00     0.131 A 
ATOM     95  C   UNL     1      -9.549  -2.176  24.275  1.00  0.00     0.055 A 
ATOM     96  C   UNL     1      -8.722  -3.907  25.732  1.00  0.00     0.041 A 
ATOM     97  F   UNL     1      -7.200  -5.490  24.913  1.00  0.00    -0.206 F 
ATOM     98  C   UNL     1      -9.501  -2.770  25.541  1.00  0.00     0.022 A 
BRANCH  95  99
ATOM     99  S   UNL     1     -10.470  -0.622  24.107  1.00  0.00     0.124 S 
ATOM    100  O   UNL     1     -11.834  -1.044  24.417  1.00  0.00    -0.237 OA
ATOM    101  O   UNL     1      -9.835   0.222  25.115  1.00  0.00    -0.237 OA
ATOM    102  O   UNL     1     -10.242  -0.225  22.721  1.00  0.00    -0.744 OA
ENDBRANCH  95  99
ENDBRANCH  69  92
ENDBRANCH  43  44
ENDBRANCH  35  38
ENDBRANCH  33  34
ENDBRANCH  32  33
ENDBRANCH   1  32
TORSDOF 18
