REMARK SMILES CCOC(=O)[C@H](C)NC(=O)N1CC[C@H](C(=O)NCCCCNC(=O)c2ccc(-c3c4nc(c(-c5cc(S(=O)(=O)[O-])ccc5F)c5ccc([nH]5)c(-c5cc(S(=O)(=O)[O-])ccc5F)c5nc(c(-c6cc(S(=O)(=O)[O-])ccc6F)c6ccc3[nH]6)C=C5)C=C4)cc2)[C@@H]1C
REMARK SMILES IDX 18 1 17 2 15 3 16 4 14 6 11 7 12 8 88 9 13 10 89 11 9 12
REMARK SMILES IDX 8 13 10 15 6 16 7 17 4 18 5 19 3 20 2 21 1 22 19 23 20 24
REMARK SMILES IDX 21 25 22 26 23 27 24 29 25 30 26 31 87 32 27 33 86 34 28 35
REMARK SMILES IDX 29 36 30 37 80 38 31 39 85 40 79 41 81 42 32 43 84 44 78 45
REMARK SMILES IDX 77 46 33 48 65 49 45 50 64 51 46 52 49 53 63 54 82 55 47 56
REMARK SMILES IDX 48 57 62 59 83 60 50 61 34 62 35 63 43 64 36 65 42 66 44 67
REMARK SMILES IDX 41 68 37 69 38 70 39 71 40 72 66 73 67 74 75 75 68 76 74 77
REMARK SMILES IDX 76 78 73 79 69 80 70 81 71 82 72 83 51 84 52 85 60 86 53 87
REMARK SMILES IDX 59 88 61 89 58 90 54 91 55 92 56 93 57 94
REMARK H PARENT 17 5 8 14 22 28 81 47 49 58
REMARK Flexibility Score: inf
ROOT
ATOM      1  C   UNL     1       9.476  -0.039   5.219  1.00  0.00     0.116 C 
ENDROOT
BRANCH   1   2
ATOM      2  N   UNL     1       9.146   1.294   5.692  1.00  0.00    -0.356 N 
ATOM      3  C   UNL     1       7.923   1.902   5.783  1.00  0.00     0.225 C 
ATOM      4  O   UNL     1       7.896   3.029   6.269  1.00  0.00    -0.275 OA
ATOM      5  H   UNL     1       9.911   1.837   5.990  1.00  0.00     0.163 HD
BRANCH   3   6
ATOM      6  C   UNL     1       6.700   1.196   5.199  1.00  0.00     0.102 C 
ATOM      7  N   UNL     1       4.397   0.824   5.727  1.00  0.00    -0.321 N 
ATOM      8  C   UNL     1       5.146  -0.109   6.527  1.00  0.00     0.122 C 
ATOM      9  C   UNL     1       5.306   1.891   5.261  1.00  0.00     0.096 C 
ATOM     10  C   UNL     1       6.463  -0.202   5.801  1.00  0.00     0.037 C 
ATOM     11  C   UNL     1       5.156   3.126   6.150  1.00  0.00     0.032 C 
BRANCH   7  12
ATOM     12  C   UNL     1       3.042   0.793   5.822  1.00  0.00     0.318 C 
ATOM     13  N   UNL     1       2.260   1.358   4.892  1.00  0.00    -0.325 N 
ATOM     14  H   UNL     1       1.364   1.599   5.221  1.00  0.00     0.166 HD
ATOM     15  O   UNL     1       2.468   0.211   6.744  1.00  0.00    -0.249 OA
BRANCH  13  16
ATOM     16  C   UNL     1       2.476   1.686   3.489  1.00  0.00     0.190 C 
ATOM     17  C   UNL     1       2.009   0.553   2.583  1.00  0.00     0.043 C 
BRANCH  16  18
ATOM     18  C   UNL     1       1.663   2.945   3.225  1.00  0.00     0.328 C 
ATOM     19  O   UNL     1       0.476   3.070   3.506  1.00  0.00    -0.250 OA
BRANCH  18  20
ATOM     20  O   UNL     1       2.451   3.916   2.684  1.00  0.00    -0.464 OA
BRANCH  20  21
ATOM     21  C   UNL     1       1.835   5.204   2.566  1.00  0.00     0.229 C 
ATOM     22  C   UNL     1       1.005   5.280   1.299  1.00  0.00     0.049 C 
ENDBRANCH  20  21
ENDBRANCH  18  20
ENDBRANCH  16  18
ENDBRANCH  13  16
ENDBRANCH   7  12
ENDBRANCH   3   6
ENDBRANCH   1   2
BRANCH   1  23
ATOM     23  C   UNL     1      10.907  -0.179   4.715  1.00  0.00     0.023 C 
BRANCH  23  24
ATOM     24  C   UNL     1      12.000   0.171   5.724  1.00  0.00     0.023 C 
BRANCH  24  25
ATOM     25  C   UNL     1      11.846  -0.444   7.113  1.00  0.00     0.116 C 
BRANCH  25  26
ATOM     26  N   UNL     1      11.854  -1.898   7.098  1.00  0.00    -0.352 N 
ATOM     27  C   UNL     1      12.759  -2.782   7.644  1.00  0.00     0.251 C 
ATOM     28  H   UNL     1      11.097  -2.315   6.626  1.00  0.00     0.163 HD
ATOM     29  O   UNL     1      12.665  -3.976   7.398  1.00  0.00    -0.269 OA
BRANCH  27  30
ATOM     30  C   UNL     1      13.862  -2.273   8.491  1.00  0.00     0.039 A 
ATOM     31  C   UNL     1      15.165  -2.711   8.238  1.00  0.00     0.014 A 
ATOM     32  C   UNL     1      13.618  -1.346   9.505  1.00  0.00     0.014 A 
ATOM     33  C   UNL     1      16.232  -2.145   8.940  1.00  0.00     0.010 A 
ATOM     34  C   UNL     1      14.688  -0.722  10.142  1.00  0.00     0.010 A 
ATOM     35  C   UNL     1      16.008  -1.109   9.861  1.00  0.00    -0.014 A 
BRANCH  35  36
ATOM     36  C   UNL     1      17.136  -0.408  10.534  1.00  0.00     0.031 A 
ATOM     37  C   UNL     1      17.260  -0.450  12.033  1.00  0.00     0.074 A 
ATOM     38  C   UNL     1      17.997   0.330   9.804  1.00  0.00     0.049 A 
ATOM     39  N   UNL     1      18.102   0.179  12.813  1.00  0.00    -0.248 NA
ATOM     40  C   UNL     1      16.283  -1.282  12.751  1.00  0.00     0.031 C 
ATOM     41  C   UNL     1      17.954   0.487   8.348  1.00  0.00     0.029 A 
ATOM     42  N   UNL     1      19.070   1.098  10.185  1.00  0.00    -0.354 N 
ATOM     43  C   UNL     1      17.744  -0.165  14.113  1.00  0.00     0.074 A 
ATOM     44  C   UNL     1      16.571  -1.007  14.014  1.00  0.00     0.031 C 
ATOM     45  C   UNL     1      18.965   1.280   7.960  1.00  0.00     0.029 A 
ATOM     46  C   UNL     1      19.699   1.731   9.138  1.00  0.00     0.049 A 
ATOM     47  H   UNL     1      19.361   1.188  11.121  1.00  0.00     0.167 HD
ATOM     48  C   UNL     1      18.351   0.172  15.278  1.00  0.00     0.034 A 
ATOM     49  C   UNL     1      20.739   2.589   9.127  1.00  0.00     0.034 A 
ATOM     50  C   UNL     1      19.532   0.997  15.356  1.00  0.00     0.049 A 
ATOM     51  C   UNL     1      21.391   2.959  10.435  1.00  0.00     0.074 A 
ATOM     52  C   UNL     1      20.267   1.346  16.476  1.00  0.00     0.029 A 
ATOM     53  N   UNL     1      20.150   1.609  14.272  1.00  0.00    -0.354 N 
ATOM     54  N   UNL     1      21.073   2.582  11.652  1.00  0.00    -0.248 NA
ATOM     55  C   UNL     1      22.547   3.863  10.368  1.00  0.00     0.031 C 
ATOM     56  C   UNL     1      21.284   2.221  16.080  1.00  0.00     0.029 A 
ATOM     57  C   UNL     1      21.235   2.357  14.702  1.00  0.00     0.049 A 
ATOM     58  H   UNL     1      19.859   1.524  13.336  1.00  0.00     0.167 HD
ATOM     59  C   UNL     1      22.011   3.178  12.491  1.00  0.00     0.074 A 
ATOM     60  C   UNL     1      22.912   3.928  11.640  1.00  0.00     0.031 C 
ATOM     61  C   UNL     1      22.120   3.108  13.842  1.00  0.00     0.034 A 
BRANCH  48  62
ATOM     62  C   UNL     1      17.730  -0.335  16.558  1.00  0.00     0.023 A 
ATOM     63  C   UNL     1      17.625  -1.710  16.835  1.00  0.00     0.031 A 
ATOM     64  C   UNL     1      17.208   0.566  17.503  1.00  0.00     0.131 A 
ATOM     65  C   UNL     1      16.945  -2.145  17.982  1.00  0.00     0.055 A 
ATOM     66  C   UNL     1      16.608   0.128  18.685  1.00  0.00     0.041 A 
ATOM     67  F   UNL     1      17.260   1.890  17.286  1.00  0.00    -0.206 F 
ATOM     68  C   UNL     1      16.458  -1.235  18.923  1.00  0.00     0.022 A 
BRANCH  65  69
ATOM     69  S   UNL     1      16.575  -3.913  18.150  1.00  0.00     0.124 S 
ATOM     70  O   UNL     1      15.787  -4.164  16.945  1.00  0.00    -0.237 OA
ATOM     71  O   UNL     1      17.904  -4.511  18.180  1.00  0.00    -0.237 OA
ATOM     72  O   UNL     1      15.827  -3.989  19.403  1.00  0.00    -0.744 OA
ENDBRANCH  65  69
ENDBRANCH  48  62
BRANCH  49  73
ATOM     73  C   UNL     1      21.227   3.171   7.842  1.00  0.00     0.023 A 
ATOM     74  C   UNL     1      22.514   2.884   7.359  1.00  0.00     0.031 A 
ATOM     75  C   UNL     1      20.427   4.056   7.098  1.00  0.00     0.131 A 
ATOM     76  C   UNL     1      22.980   3.512   6.194  1.00  0.00     0.055 A 
ATOM     77  C   UNL     1      20.876   4.637   5.911  1.00  0.00     0.041 A 
ATOM     78  F   UNL     1      19.186   4.361   7.511  1.00  0.00    -0.206 F 
ATOM     79  C   UNL     1      22.166   4.376   5.460  1.00  0.00     0.022 A 
BRANCH  76  80
ATOM     80  S   UNL     1      24.704   3.246   5.695  1.00  0.00     0.124 S 
ATOM     81  O   UNL     1      25.429   3.710   6.872  1.00  0.00    -0.237 OA
ATOM     82  O   UNL     1      24.730   1.808   5.450  1.00  0.00    -0.237 OA
ATOM     83  O   UNL     1      24.846   4.081   4.504  1.00  0.00    -0.744 OA
ENDBRANCH  76  80
ENDBRANCH  49  73
BRANCH  61  84
ATOM     84  C   UNL     1      23.287   3.826  14.475  1.00  0.00     0.023 A 
ATOM     85  C   UNL     1      23.386   5.228  14.471  1.00  0.00     0.031 A 
ATOM     86  C   UNL     1      24.318   3.091  15.088  1.00  0.00     0.131 A 
ATOM     87  C   UNL     1      24.517   5.850  15.023  1.00  0.00     0.055 A 
ATOM     88  C   UNL     1      25.411   3.717  15.688  1.00  0.00     0.041 A 
ATOM     89  F   UNL     1      24.276   1.750  15.118  1.00  0.00    -0.206 F 
ATOM     90  C   UNL     1      25.521   5.104  15.646  1.00  0.00     0.022 A 
BRANCH  87  91
ATOM     91  S   UNL     1      24.703   7.645  14.838  1.00  0.00     0.124 S 
ATOM     92  O   UNL     1      24.690   7.803  13.387  1.00  0.00    -0.237 OA
ATOM     93  O   UNL     1      23.533   8.155  15.545  1.00  0.00    -0.237 OA
ATOM     94  O   UNL     1      25.985   7.925  15.481  1.00  0.00    -0.744 OA
ENDBRANCH  87  91
ENDBRANCH  61  84
ENDBRANCH  35  36
ENDBRANCH  27  30
ENDBRANCH  25  26
ENDBRANCH  24  25
ENDBRANCH  23  24
ENDBRANCH   1  23
TORSDOF 19
