REMARK SMILES C[C@@H](C(=O)NCCCCNC(=O)c1ccc(-c2c3nc(c(-c4cc(S(=O)(=O)[O-])ccc4F)c4ccc([nH]4)c(-c4cc(S(=O)(=O)[O-])ccc4F)c4nc(c(-c5cc(S(=O)(=O)[O-])ccc5F)c5ccc2[nH]5)C=C4)C=C3)cc1)c1ccc(C[C@H]2CCC[C@@H]2O)cc1F
REMARK SMILES IDX 7 1 6 2 5 3 3 4 4 5 2 7 1 8 76 9 77 10 88 11 78 12 87 13
REMARK SMILES IDX 89 14 79 15 80 16 81 17 82 18 85 19 83 20 84 21 86 22 8 24
REMARK SMILES IDX 9 25 10 26 11 27 12 29 13 30 14 31 75 32 15 33 74 34 16 35
REMARK SMILES IDX 17 36 18 37 68 38 19 39 73 40 67 41 69 42 20 43 72 44 66 45
REMARK SMILES IDX 65 46 21 48 53 49 33 50 52 51 34 52 37 53 51 54 70 55 35 56
REMARK SMILES IDX 36 57 50 59 71 60 38 61 22 62 23 63 31 64 24 65 30 66 32 67
REMARK SMILES IDX 29 68 25 69 26 70 27 71 28 72 54 73 55 74 63 75 56 76 62 77
REMARK SMILES IDX 64 78 61 79 57 80 58 81 59 82 60 83 39 84 40 85 48 86 41 87
REMARK SMILES IDX 47 88 49 89 46 90 42 91 43 92 44 93 45 94
REMARK H PARENT 5 6 86 23 10 28 69 47 37 58
REMARK Flexibility Score: inf
ROOT
ATOM      1  C   UNL     1       4.300   1.106   0.504  1.00  0.00     0.023 C 
ENDROOT
BRANCH   1   2
ATOM      2  C   UNL     1       3.552   0.431   1.655  1.00  0.00     0.116 C 
BRANCH   2   3
ATOM      3  N   UNL     1       2.507   1.289   2.170  1.00  0.00    -0.356 N 
ATOM      4  C   UNL     1       1.160   1.256   1.961  1.00  0.00     0.227 C 
ATOM      5  O   UNL     1       0.505   2.149   2.503  1.00  0.00    -0.274 OA
ATOM      6  H   UNL     1       2.817   2.009   2.765  1.00  0.00     0.163 HD
BRANCH   4   7
ATOM      7  C   UNL     1       0.528   0.119   1.130  1.00  0.00     0.108 C 
ATOM      8  C   UNL     1       0.928   0.136  -0.346  1.00  0.00     0.023 C 
BRANCH   7   9
ATOM      9  C   UNL     1      -0.992   0.118   1.189  1.00  0.00    -0.000 A 
ATOM     10  C   UNL     1      -1.736   1.261   0.862  1.00  0.00     0.008 A 
ATOM     11  C   UNL     1      -1.686  -1.047   1.521  1.00  0.00     0.127 A 
ATOM     12  C   UNL     1      -3.127   1.250   0.935  1.00  0.00     0.004 A 
ATOM     13  C   UNL     1      -3.075  -1.063   1.605  1.00  0.00     0.043 A 
ATOM     14  F   UNL     1      -1.014  -2.181   1.771  1.00  0.00    -0.207 F 
ATOM     15  C   UNL     1      -3.808   0.104   1.357  1.00  0.00    -0.045 A 
BRANCH  15  16
ATOM     16  C   UNL     1      -5.295   0.152   1.605  1.00  0.00     0.041 C 
BRANCH  16  17
ATOM     17  C   UNL     1      -5.711   0.758   2.959  1.00  0.00     0.022 C 
ATOM     18  C   UNL     1      -5.161   0.053   4.210  1.00  0.00     0.007 C 
ATOM     19  C   UNL     1      -5.349   2.231   3.171  1.00  0.00     0.117 C 
ATOM     20  C   UNL     1      -4.915   1.156   5.245  1.00  0.00     0.003 C 
ATOM     21  C   UNL     1      -5.549   2.411   4.667  1.00  0.00     0.032 C 
BRANCH  19  22
ATOM     22  O   UNL     1      -6.197   3.080   2.420  1.00  0.00    -0.393 OA
ATOM     23  H   UNL     1      -7.121   2.910   2.661  1.00  0.00     0.210 HD
ENDBRANCH  19  22
ENDBRANCH  16  17
ENDBRANCH  15  16
ENDBRANCH   7   9
ENDBRANCH   4   7
ENDBRANCH   2   3
ENDBRANCH   1   2
BRANCH   1  24
ATOM     24  C   UNL     1       5.063   2.373   0.895  1.00  0.00     0.023 C 
BRANCH  24  25
ATOM     25  C   UNL     1       6.053   2.200   2.038  1.00  0.00     0.116 C 
BRANCH  25  26
ATOM     26  N   UNL     1       7.046   1.176   1.763  1.00  0.00    -0.352 N 
ATOM     27  C   UNL     1       8.400   1.211   1.978  1.00  0.00     0.251 C 
ATOM     28  H   UNL     1       6.699   0.343   1.369  1.00  0.00     0.163 HD
ATOM     29  O   UNL     1       9.108   0.315   1.520  1.00  0.00    -0.269 OA
BRANCH  27  30
ATOM     30  C   UNL     1       9.000   2.334   2.729  1.00  0.00     0.039 A 
ATOM     31  C   UNL     1      10.198   2.888   2.275  1.00  0.00     0.014 A 
ATOM     32  C   UNL     1       8.387   2.837   3.881  1.00  0.00     0.014 A 
ATOM     33  C   UNL     1      10.764   3.966   2.958  1.00  0.00     0.010 A 
ATOM     34  C   UNL     1       8.902   3.970   4.504  1.00  0.00     0.010 A 
ATOM     35  C   UNL     1      10.112   4.528   4.068  1.00  0.00    -0.014 A 
BRANCH  35  36
ATOM     36  C   UNL     1      10.718   5.658   4.821  1.00  0.00     0.031 A 
ATOM     37  C   UNL     1      11.118   5.467   6.261  1.00  0.00     0.074 A 
ATOM     38  C   UNL     1      10.881   6.854   4.223  1.00  0.00     0.049 A 
ATOM     39  N   UNL     1      11.645   6.325   7.096  1.00  0.00    -0.248 NA
ATOM     40  C   UNL     1      10.860   4.144   6.848  1.00  0.00     0.031 C 
ATOM     41  C   UNL     1      10.497   7.170   2.846  1.00  0.00     0.029 A 
ATOM     42  N   UNL     1      11.418   8.025   4.694  1.00  0.00    -0.354 N 
ATOM     43  C   UNL     1      11.763   5.652   8.308  1.00  0.00     0.074 A 
ATOM     44  C   UNL     1      11.182   4.341   8.116  1.00  0.00     0.031 C 
ATOM     45  C   UNL     1      10.854   8.435   2.570  1.00  0.00     0.029 A 
ATOM     46  C   UNL     1      11.448   9.036   3.760  1.00  0.00     0.049 A 
ATOM     47  H   UNL     1      11.751   8.133   5.614  1.00  0.00     0.167 HD
ATOM     48  C   UNL     1      12.328   6.076   9.466  1.00  0.00     0.034 A 
ATOM     49  C   UNL     1      11.905  10.300   3.854  1.00  0.00     0.034 A 
ATOM     50  C   UNL     1      12.917   7.383   9.632  1.00  0.00     0.049 A 
ATOM     51  C   UNL     1      12.513  10.757   5.158  1.00  0.00     0.074 A 
ATOM     52  C   UNL     1      13.566   7.901  10.739  1.00  0.00     0.029 A 
ATOM     53  N   UNL     1      12.920   8.383   8.667  1.00  0.00    -0.354 N 
ATOM     54  N   UNL     1      12.669  10.091   6.279  1.00  0.00    -0.248 NA
ATOM     55  C   UNL     1      13.024  12.132   5.199  1.00  0.00     0.031 C 
ATOM     56  C   UNL     1      13.886   9.237  10.473  1.00  0.00     0.029 A 
ATOM     57  C   UNL     1      13.529   9.525   9.165  1.00  0.00     0.049 A 
ATOM     58  H   UNL     1      12.544   8.294   7.761  1.00  0.00     0.167 HD
ATOM     59  C   UNL     1      13.342  10.953   7.142  1.00  0.00     0.074 A 
ATOM     60  C   UNL     1      13.567  12.180   6.406  1.00  0.00     0.031 C 
ATOM     61  C   UNL     1      13.747  10.746   8.422  1.00  0.00     0.034 A 
BRANCH  48  62
ATOM     62  C   UNL     1      12.300   5.127  10.643  1.00  0.00     0.023 A 
ATOM     63  C   UNL     1      12.917   3.863  10.597  1.00  0.00     0.031 A 
ATOM     64  C   UNL     1      11.607   5.472  11.818  1.00  0.00     0.131 A 
ATOM     65  C   UNL     1      12.750   2.960  11.658  1.00  0.00     0.055 A 
ATOM     66  C   UNL     1      11.527   4.605  12.910  1.00  0.00     0.041 A 
ATOM     67  F   UNL     1      10.976   6.652  11.918  1.00  0.00    -0.206 F 
ATOM     68  C   UNL     1      12.084   3.333  12.827  1.00  0.00     0.022 A 
BRANCH  65  69
ATOM     69  S   UNL     1      13.262   1.236  11.416  1.00  0.00     0.124 S 
ATOM     70  O   UNL     1      12.481   0.859  10.240  1.00  0.00    -0.237 OA
ATOM     71  O   UNL     1      14.701   1.359  11.216  1.00  0.00    -0.237 OA
ATOM     72  O   UNL     1      12.857   0.581  12.658  1.00  0.00    -0.744 OA
ENDBRANCH  65  69
ENDBRANCH  48  62
BRANCH  49  73
ATOM     73  C   UNL     1      11.828  11.224   2.686  1.00  0.00     0.023 A 
ATOM     74  C   UNL     1      12.994  11.732   2.089  1.00  0.00     0.031 A 
ATOM     75  C   UNL     1      10.589  11.653   2.177  1.00  0.00     0.131 A 
ATOM     76  C   UNL     1      12.898  12.679   1.058  1.00  0.00     0.055 A 
ATOM     77  C   UNL     1      10.499  12.550   1.111  1.00  0.00     0.041 A 
ATOM     78  F   UNL     1       9.443  11.196   2.706  1.00  0.00    -0.206 F 
ATOM     79  C   UNL     1      11.659  13.080   0.555  1.00  0.00     0.022 A 
BRANCH  76  80
ATOM     80  S   UNL     1      14.421  13.452   0.445  1.00  0.00     0.124 S 
ATOM     81  O   UNL     1      14.957  14.053   1.661  1.00  0.00    -0.237 OA
ATOM     82  O   UNL     1      15.152  12.305  -0.082  1.00  0.00    -0.237 OA
ATOM     83  O   UNL     1      13.941  14.398  -0.560  1.00  0.00    -0.744 OA
ENDBRANCH  76  80
ENDBRANCH  49  73
BRANCH  61  84
ATOM     84  C   UNL     1      14.542  11.850   9.080  1.00  0.00     0.023 A 
ATOM     85  C   UNL     1      13.997  13.122   9.328  1.00  0.00     0.031 A 
ATOM     86  C   UNL     1      15.885  11.629   9.440  1.00  0.00     0.131 A 
ATOM     87  C   UNL     1      14.809  14.143   9.844  1.00  0.00     0.055 A 
ATOM     88  C   UNL     1      16.666  12.626  10.025  1.00  0.00     0.041 A 
ATOM     89  F   UNL     1      16.463  10.436   9.225  1.00  0.00    -0.206 F 
ATOM     90  C   UNL     1      16.134  13.898  10.213  1.00  0.00     0.022 A 
BRANCH  87  91
ATOM     91  S   UNL     1      14.151  15.833   9.902  1.00  0.00     0.124 S 
ATOM     92  O   UNL     1      13.753  16.051   8.515  1.00  0.00    -0.237 OA
ATOM     93  O   UNL     1      13.062  15.709  10.866  1.00  0.00    -0.237 OA
ATOM     94  O   UNL     1      15.291  16.629  10.353  1.00  0.00    -0.744 OA
ENDBRANCH  87  91
ENDBRANCH  61  84
ENDBRANCH  35  36
ENDBRANCH  27  30
ENDBRANCH  25  26
ENDBRANCH  24  25
ENDBRANCH   1  24
TORSDOF 18
