REMARK SMILES Cc1cc2c(c(C)c1Cl)C=C(C(=O)NCCCCNC(=O)c1ccc(-c3c4nc(c(-c5cc(S(=O)(=O)[O-])ccc5F)c5ccc([nH]5)c(-c5cc(S(=O)(=O)[O-])ccc5F)c5nc(c(-c6cc(S(=O)(=O)[O-])ccc6F)c6ccc3[nH]6)C=C5)C=C4)cc1)[C@@H](C(F)(F)F)O2
REMARK SMILES IDX 17 1 16 2 15 3 14 4 12 5 13 6 11 8 1 9 2 10 3 11 8 12 4 13
REMARK SMILES IDX 6 14 9 15 5 16 90 17 7 18 10 19 85 20 86 21 87 22 88 23
REMARK SMILES IDX 89 24 18 25 19 26 20 27 21 29 22 30 23 31 84 32 24 33 83 34
REMARK SMILES IDX 25 35 26 36 27 37 77 38 28 39 82 40 76 41 78 42 29 43 81 44
REMARK SMILES IDX 75 45 74 46 30 48 62 49 42 50 61 51 43 52 46 53 60 54 79 55
REMARK SMILES IDX 44 56 45 57 59 59 80 60 47 61 31 62 32 63 40 64 33 65 39 66
REMARK SMILES IDX 41 67 38 68 34 69 35 70 36 71 37 72 63 73 64 74 72 75 65 76
REMARK SMILES IDX 71 77 73 78 70 79 66 80 67 81 68 82 69 83 48 84 49 85 57 86
REMARK SMILES IDX 50 87 56 88 58 89 55 90 51 91 52 92 53 93 54 94
REMARK H PARENT 14 7 19 28 78 47 46 58
REMARK Flexibility Score: inf
ROOT
ATOM      1  C   UNL     1      -1.670   3.436  10.143  1.00  0.00     0.023 C 
ENDROOT
BRANCH   1   2
ATOM      2  C   UNL     1      -1.582   2.698   8.804  1.00  0.00     0.023 C 
BRANCH   2   3
ATOM      3  C   UNL     1      -2.501   3.254   7.720  1.00  0.00     0.116 C 
BRANCH   3   4
ATOM      4  N   UNL     1      -1.907   4.387   7.032  1.00  0.00    -0.352 N 
ATOM      5  C   UNL     1      -1.276   4.609   5.856  1.00  0.00     0.251 C 
ATOM      6  O   UNL     1      -0.910   5.773   5.667  1.00  0.00    -0.270 OA
ATOM      7  H   UNL     1      -1.983   5.213   7.563  1.00  0.00     0.163 HD
BRANCH   5   8
ATOM      8  C   UNL     1      -1.007   3.577   4.810  1.00  0.00     0.067 C 
ATOM      9  C   UNL     1       1.030   0.055  -0.282  1.00  0.00     0.046 C 
ATOM     10  C   UNL     1       0.697   1.125   0.722  1.00  0.00    -0.028 A 
ATOM     11  C   UNL     1       0.065   0.753   1.913  1.00  0.00     0.052 A 
ATOM     12  C   UNL     1       1.012   2.483   0.513  1.00  0.00     0.047 A 
ATOM     13  C   UNL     1      -0.250   1.709   2.873  1.00  0.00     0.128 A 
ATOM     14  C   UNL     1       0.693   3.467   1.481  1.00  0.00    -0.021 A 
ATOM     15  Cl  UNL     1       1.825   2.922  -0.961  1.00  0.00    -0.084 Cl
ATOM     16  C   UNL     1       0.069   3.057   2.685  1.00  0.00     0.022 A 
ATOM     17  O   UNL     1      -0.835   1.230   4.011  1.00  0.00    -0.475 OA
ATOM     18  C   UNL     1       1.024   4.926   1.272  1.00  0.00     0.047 C 
ATOM     19  C   UNL     1      -0.226   3.977   3.788  1.00  0.00     0.026 C 
ATOM     20  C   UNL     1      -1.575   2.190   4.814  1.00  0.00     0.314 C 
BRANCH  20  21
ATOM     21  C   UNL     1      -3.061   2.153   4.414  1.00  0.00     0.429 C 
ATOM     22  F   UNL     1      -3.600   0.942   4.702  1.00  0.00    -0.167 F 
ATOM     23  F   UNL     1      -3.801   3.071   5.078  1.00  0.00    -0.167 F 
ATOM     24  F   UNL     1      -3.249   2.374   3.093  1.00  0.00    -0.167 F 
ENDBRANCH  20  21
ENDBRANCH   5   8
ENDBRANCH   3   4
ENDBRANCH   2   3
ENDBRANCH   1   2
BRANCH   1  25
ATOM     25  C   UNL     1      -3.070   3.542  10.746  1.00  0.00     0.116 C 
BRANCH  25  26
ATOM     26  N   UNL     1      -3.778   2.272  10.825  1.00  0.00    -0.352 N 
ATOM     27  C   UNL     1      -4.735   1.899  11.741  1.00  0.00     0.251 C 
ATOM     28  H   UNL     1      -3.544   1.601  10.143  1.00  0.00     0.163 HD
ATOM     29  O   UNL     1      -5.211   0.770  11.726  1.00  0.00    -0.269 OA
BRANCH  27  30
ATOM     30  C   UNL     1      -5.129   2.877  12.771  1.00  0.00     0.039 A 
ATOM     31  C   UNL     1      -4.905   2.565  14.112  1.00  0.00     0.014 A 
ATOM     32  C   UNL     1      -5.599   4.139  12.394  1.00  0.00     0.014 A 
ATOM     33  C   UNL     1      -5.072   3.556  15.079  1.00  0.00     0.010 A 
ATOM     34  C   UNL     1      -5.712   5.139  13.354  1.00  0.00     0.010 A 
ATOM     35  C   UNL     1      -5.431   4.860  14.700  1.00  0.00    -0.014 A 
BRANCH  35  36
ATOM     36  C   UNL     1      -5.491   5.951  15.702  1.00  0.00     0.031 A 
ATOM     37  C   UNL     1      -6.808   6.583  16.046  1.00  0.00     0.074 A 
ATOM     38  C   UNL     1      -4.351   6.401  16.262  1.00  0.00     0.049 A 
ATOM     39  N   UNL     1      -7.058   7.579  16.854  1.00  0.00    -0.248 NA
ATOM     40  C   UNL     1      -7.996   6.039  15.371  1.00  0.00     0.031 C 
ATOM     41  C   UNL     1      -3.007   5.891  15.973  1.00  0.00     0.029 A 
ATOM     42  N   UNL     1      -4.137   7.385  17.192  1.00  0.00    -0.354 N 
ATOM     43  C   UNL     1      -8.430   7.787  16.782  1.00  0.00     0.074 A 
ATOM     44  C   UNL     1      -8.948   6.849  15.809  1.00  0.00     0.031 C 
ATOM     45  C   UNL     1      -2.116   6.540  16.741  1.00  0.00     0.029 A 
ATOM     46  C   UNL     1      -2.817   7.532  17.550  1.00  0.00     0.049 A 
ATOM     47  H   UNL     1      -4.861   7.936  17.570  1.00  0.00     0.167 HD
ATOM     48  C   UNL     1      -9.190   8.663  17.482  1.00  0.00     0.034 A 
ATOM     49  C   UNL     1      -2.240   8.370  18.432  1.00  0.00     0.034 A 
ATOM     50  C   UNL     1      -8.668   9.575  18.465  1.00  0.00     0.049 A 
ATOM     51  C   UNL     1      -3.102   9.341  19.191  1.00  0.00     0.074 A 
ATOM     52  C   UNL     1      -9.356  10.470  19.265  1.00  0.00     0.029 A 
ATOM     53  N   UNL     1      -7.323   9.706  18.786  1.00  0.00    -0.354 N 
ATOM     54  N   UNL     1      -4.401   9.516  19.118  1.00  0.00    -0.248 NA
ATOM     55  C   UNL     1      -2.424  10.227  20.146  1.00  0.00     0.031 C 
ATOM     56  C   UNL     1      -8.425  11.169  20.041  1.00  0.00     0.029 A 
ATOM     57  C   UNL     1      -7.161  10.678  19.758  1.00  0.00     0.049 A 
ATOM     58  H   UNL     1      -6.593   9.184  18.381  1.00  0.00     0.167 HD
ATOM     59  C   UNL     1      -4.697  10.522  20.031  1.00  0.00     0.074 A 
ATOM     60  C   UNL     1      -3.444  10.916  20.642  1.00  0.00     0.031 C 
ATOM     61  C   UNL     1      -5.900  11.065  20.340  1.00  0.00     0.034 A 
BRANCH  48  62
ATOM     62  C   UNL     1     -10.667   8.671  17.194  1.00  0.00     0.023 A 
ATOM     63  C   UNL     1     -11.480   7.577  17.532  1.00  0.00     0.031 A 
ATOM     64  C   UNL     1     -11.263   9.770  16.552  1.00  0.00     0.131 A 
ATOM     65  C   UNL     1     -12.834   7.576  17.168  1.00  0.00     0.055 A 
ATOM     66  C   UNL     1     -12.627   9.792  16.255  1.00  0.00     0.041 A 
ATOM     67  F   UNL     1     -10.527  10.832  16.191  1.00  0.00    -0.206 F 
ATOM     68  C   UNL     1     -13.418   8.686  16.553  1.00  0.00     0.022 A 
BRANCH  65  69
ATOM     69  S   UNL     1     -13.800   6.063  17.423  1.00  0.00     0.124 S 
ATOM     70  O   UNL     1     -13.169   5.152  16.471  1.00  0.00    -0.237 OA
ATOM     71  O   UNL     1     -13.571   5.771  18.833  1.00  0.00    -0.237 OA
ATOM     72  O   UNL     1     -15.163   6.467  17.084  1.00  0.00    -0.744 OA
ENDBRANCH  65  69
ENDBRANCH  48  62
BRANCH  49  73
ATOM     73  C   UNL     1      -0.770   8.323  18.652  1.00  0.00     0.023 A 
ATOM     74  C   UNL     1      -0.239   7.783  19.833  1.00  0.00     0.031 A 
ATOM     75  C   UNL     1       0.121   8.815  17.683  1.00  0.00     0.131 A 
ATOM     76  C   UNL     1       1.151   7.767  20.028  1.00  0.00     0.055 A 
ATOM     77  C   UNL     1       1.504   8.771  17.870  1.00  0.00     0.041 A 
ATOM     78  F   UNL     1      -0.343   9.327  16.533  1.00  0.00    -0.206 F 
ATOM     79  C   UNL     1       2.026   8.250  19.051  1.00  0.00     0.022 A 
BRANCH  76  80
ATOM     80  S   UNL     1       1.804   7.116  21.589  1.00  0.00     0.124 S 
ATOM     81  O   UNL     1       1.297   8.088  22.551  1.00  0.00    -0.237 OA
ATOM     82  O   UNL     1       1.204   5.787  21.641  1.00  0.00    -0.237 OA
ATOM     83  O   UNL     1       3.251   7.134  21.385  1.00  0.00    -0.744 OA
ENDBRANCH  76  80
ENDBRANCH  49  73
BRANCH  61  84
ATOM     84  C   UNL     1      -5.921  12.126  21.403  1.00  0.00     0.023 A 
ATOM     85  C   UNL     1      -5.511  13.440  21.128  1.00  0.00     0.031 A 
ATOM     86  C   UNL     1      -6.405  11.827  22.688  1.00  0.00     0.131 A 
ATOM     87  C   UNL     1      -5.574  14.411  22.137  1.00  0.00     0.055 A 
ATOM     88  C   UNL     1      -6.497  12.805  23.678  1.00  0.00     0.041 A 
ATOM     89  F   UNL     1      -6.811  10.584  22.991  1.00  0.00    -0.206 F 
ATOM     90  C   UNL     1      -6.079  14.105  23.405  1.00  0.00     0.022 A 
BRANCH  87  91
ATOM     91  S   UNL     1      -4.988  16.089  21.777  1.00  0.00     0.124 S 
ATOM     92  O   UNL     1      -3.546  15.890  21.683  1.00  0.00    -0.237 OA
ATOM     93  O   UNL     1      -5.670  16.405  20.526  1.00  0.00    -0.237 OA
ATOM     94  O   UNL     1      -5.435  16.862  22.935  1.00  0.00    -0.744 OA
ENDBRANCH  87  91
ENDBRANCH  61  84
ENDBRANCH  35  36
ENDBRANCH  27  30
ENDBRANCH  25  26
ENDBRANCH   1  25
TORSDOF 15
