REMARK SMILES CC(C)(C)c1cc2c(cc1Cl)C=C(C(=O)NCCCCNC(=O)c1ccc(-c3c4nc(c(-c5cc(S(=O)(=O)[O-])ccc5F)c5ccc([nH]5)c(-c5cc(S(=O)(=O)[O-])ccc5F)c5nc(c(-c6cc(S(=O)(=O)[O-])ccc6F)c6ccc3[nH]6)C=C5)C=C4)cc1)[C@H](C(F)(F)F)O2
REMARK SMILES IDX 19 1 18 2 17 3 16 4 14 5 15 6 13 8 5 9 6 10 10 11 7 12 9 13
REMARK SMILES IDX 11 14 8 15 92 16 12 17 87 18 2 19 1 20 3 21 4 22 88 23 89 24
REMARK SMILES IDX 90 25 91 26 20 27 21 28 22 29 23 31 24 32 25 33 86 34 26 35
REMARK SMILES IDX 85 36 27 37 28 38 29 39 79 40 30 41 84 42 78 43 80 44 31 45
REMARK SMILES IDX 83 46 77 47 76 48 32 50 64 51 44 52 63 53 45 54 48 55 62 56
REMARK SMILES IDX 81 57 46 58 47 59 61 61 82 62 49 63 33 64 34 65 42 66 35 67
REMARK SMILES IDX 41 68 43 69 40 70 36 71 37 72 38 73 39 74 65 75 66 76 74 77
REMARK SMILES IDX 67 78 73 79 75 80 72 81 68 82 69 83 70 84 71 85 50 86 51 87
REMARK SMILES IDX 59 88 52 89 58 90 60 91 57 92 53 93 54 94 55 95 56 96
REMARK H PARENT 16 7 21 30 80 49 48 60
REMARK Flexibility Score: inf
ROOT
ATOM      1  C   UNL     1       2.186   6.378  10.183  1.00  0.00     0.023 C 
ENDROOT
BRANCH   1   2
ATOM      2  C   UNL     1       2.183   5.989   8.704  1.00  0.00     0.023 C 
BRANCH   2   3
ATOM      3  C   UNL     1       3.422   5.217   8.251  1.00  0.00     0.116 C 
BRANCH   3   4
ATOM      4  N   UNL     1       3.313   3.802   8.556  1.00  0.00    -0.352 N 
ATOM      5  C   UNL     1       2.981   2.680   7.877  1.00  0.00     0.251 C 
ATOM      6  O   UNL     1       3.118   1.621   8.497  1.00  0.00    -0.270 OA
ATOM      7  H   UNL     1       3.539   3.610   9.495  1.00  0.00     0.163 HD
BRANCH   5   8
ATOM      8  C   UNL     1       2.472   2.644   6.475  1.00  0.00     0.067 C 
ATOM      9  C   UNL     1       0.944   1.108   1.871  1.00  0.00    -0.020 A 
ATOM     10  C   UNL     1       1.222   2.349   2.491  1.00  0.00     0.053 A 
ATOM     11  C   UNL     1       1.137  -0.039   2.678  1.00  0.00     0.045 A 
ATOM     12  C   UNL     1       1.688   2.442   3.803  1.00  0.00     0.128 A 
ATOM     13  C   UNL     1       1.659   0.060   3.982  1.00  0.00     0.032 A 
ATOM     14  Cl  UNL     1       0.710  -1.647   2.207  1.00  0.00    -0.084 Cl
ATOM     15  C   UNL     1       1.944   1.300   4.546  1.00  0.00     0.019 A 
ATOM     16  O   UNL     1       1.895   3.699   4.301  1.00  0.00    -0.475 OA
ATOM     17  C   UNL     1       2.503   1.433   5.884  1.00  0.00     0.025 C 
ATOM     18  C   UNL     1       1.836   3.803   5.755  1.00  0.00     0.314 C 
BRANCH   9  19
ATOM     19  C   UNL     1       0.399   1.110   0.419  1.00  0.00    -0.012 C 
ATOM     20  C   UNL     1       0.911  -0.054  -0.460  1.00  0.00     0.016 C 
ATOM     21  C   UNL     1       0.794   2.395  -0.363  1.00  0.00     0.016 C 
ATOM     22  C   UNL     1      -1.141   1.062   0.483  1.00  0.00     0.016 C 
ENDBRANCH   9  19
BRANCH  18  23
ATOM     23  C   UNL     1       0.397   4.095   6.216  1.00  0.00     0.429 C 
ATOM     24  F   UNL     1      -0.534   3.457   5.471  1.00  0.00    -0.167 F 
ATOM     25  F   UNL     1       0.180   3.743   7.503  1.00  0.00    -0.167 F 
ATOM     26  F   UNL     1       0.140   5.426   6.123  1.00  0.00    -0.167 F 
ENDBRANCH  18  23
ENDBRANCH   5   8
ENDBRANCH   3   4
ENDBRANCH   2   3
ENDBRANCH   1   2
BRANCH   1  27
ATOM     27  C   UNL     1       3.316   7.310  10.600  1.00  0.00     0.116 C 
BRANCH  27  28
ATOM     28  N   UNL     1       3.382   8.545   9.831  1.00  0.00    -0.352 N 
ATOM     29  C   UNL     1       3.872   9.768  10.245  1.00  0.00     0.251 C 
ATOM     30  H   UNL     1       3.038   8.504   8.910  1.00  0.00     0.163 HD
ATOM     31  O   UNL     1       3.806  10.748   9.521  1.00  0.00    -0.269 OA
BRANCH  29  32
ATOM     32  C   UNL     1       4.421   9.860  11.614  1.00  0.00     0.039 A 
ATOM     33  C   UNL     1       5.379   8.938  12.037  1.00  0.00     0.014 A 
ATOM     34  C   UNL     1       3.864  10.774  12.511  1.00  0.00     0.014 A 
ATOM     35  C   UNL     1       5.630   8.799  13.394  1.00  0.00     0.010 A 
ATOM     36  C   UNL     1       4.196  10.694  13.866  1.00  0.00     0.010 A 
ATOM     37  C   UNL     1       5.032   9.665  14.326  1.00  0.00    -0.014 A 
BRANCH  37  38
ATOM     38  C   UNL     1       5.299   9.459  15.774  1.00  0.00     0.031 A 
ATOM     39  C   UNL     1       4.195   9.071  16.721  1.00  0.00     0.074 A 
ATOM     40  C   UNL     1       6.569   9.546  16.215  1.00  0.00     0.049 A 
ATOM     41  N   UNL     1       4.268   8.797  17.999  1.00  0.00    -0.248 NA
ATOM     42  C   UNL     1       2.833   8.980  16.171  1.00  0.00     0.031 C 
ATOM     43  C   UNL     1       7.714   9.908  15.378  1.00  0.00     0.029 A 
ATOM     44  N   UNL     1       7.119   9.303  17.447  1.00  0.00    -0.354 N 
ATOM     45  C   UNL     1       2.968   8.527  18.410  1.00  0.00     0.074 A 
ATOM     46  C   UNL     1       2.119   8.695  17.252  1.00  0.00     0.031 C 
ATOM     47  C   UNL     1       8.836   9.787  16.097  1.00  0.00     0.029 A 
ATOM     48  C   UNL     1       8.490   9.420  17.468  1.00  0.00     0.049 A 
ATOM     49  H   UNL     1       6.585   9.067  18.240  1.00  0.00     0.167 HD
ATOM     50  C   UNL     1       2.529   8.160  19.638  1.00  0.00     0.034 A 
ATOM     51  C   UNL     1       9.372   9.259  18.474  1.00  0.00     0.034 A 
ATOM     52  C   UNL     1       3.393   7.971  20.776  1.00  0.00     0.049 A 
ATOM     53  C   UNL     1       8.857   8.859  19.830  1.00  0.00     0.074 A 
ATOM     54  C   UNL     1       3.046   7.585  22.059  1.00  0.00     0.029 A 
ATOM     55  N   UNL     1       4.771   8.141  20.771  1.00  0.00    -0.354 N 
ATOM     56  N   UNL     1       7.625   8.588  20.194  1.00  0.00    -0.248 NA
ATOM     57  C   UNL     1       9.842   8.747  20.913  1.00  0.00     0.031 C 
ATOM     58  C   UNL     1       4.203   7.568  22.840  1.00  0.00     0.029 A 
ATOM     59  C   UNL     1       5.284   7.886  22.033  1.00  0.00     0.049 A 
ATOM     60  H   UNL     1       5.304   8.404  19.987  1.00  0.00     0.167 HD
ATOM     61  C   UNL     1       7.688   8.271  21.547  1.00  0.00     0.074 A 
ATOM     62  C   UNL     1       9.084   8.345  21.925  1.00  0.00     0.031 C 
ATOM     63  C   UNL     1       6.678   7.962  22.399  1.00  0.00     0.034 A 
BRANCH  50  64
ATOM     64  C   UNL     1       1.051   7.924  19.838  1.00  0.00     0.023 A 
ATOM     65  C   UNL     1       0.317   8.752  20.710  1.00  0.00     0.031 A 
ATOM     66  C   UNL     1       0.402   6.815  19.270  1.00  0.00     0.131 A 
ATOM     67  C   UNL     1      -1.015   8.439  21.010  1.00  0.00     0.055 A 
ATOM     68  C   UNL     1      -0.937   6.527  19.546  1.00  0.00     0.041 A 
ATOM     69  F   UNL     1       1.058   5.997  18.431  1.00  0.00    -0.206 F 
ATOM     70  C   UNL     1      -1.647   7.335  20.429  1.00  0.00     0.022 A 
BRANCH  67  71
ATOM     71  S   UNL     1      -1.963   9.416  22.209  1.00  0.00     0.124 S 
ATOM     72  O   UNL     1      -3.084   9.882  21.395  1.00  0.00    -0.237 OA
ATOM     73  O   UNL     1      -2.299   8.418  23.220  1.00  0.00    -0.237 OA
ATOM     74  O   UNL     1      -1.030  10.454  22.633  1.00  0.00    -0.744 OA
ENDBRANCH  67  71
ENDBRANCH  50  64
BRANCH  51  75
ATOM     75  C   UNL     1      10.827   9.437  18.194  1.00  0.00     0.023 A 
ATOM     76  C   UNL     1      11.324  10.665  17.719  1.00  0.00     0.031 A 
ATOM     77  C   UNL     1      11.711   8.349  18.265  1.00  0.00     0.131 A 
ATOM     78  C   UNL     1      12.640  10.749  17.249  1.00  0.00     0.055 A 
ATOM     79  C   UNL     1      13.046   8.459  17.870  1.00  0.00     0.041 A 
ATOM     80  F   UNL     1      11.281   7.154  18.700  1.00  0.00    -0.206 F 
ATOM     81  C   UNL     1      13.510   9.658  17.337  1.00  0.00     0.022 A 
BRANCH  78  82
ATOM     82  S   UNL     1      13.210  12.222  16.354  1.00  0.00     0.124 S 
ATOM     83  O   UNL     1      14.268  12.717  17.228  1.00  0.00    -0.237 OA
ATOM     84  O   UNL     1      13.655  11.648  15.086  1.00  0.00    -0.237 OA
ATOM     85  O   UNL     1      12.016  13.056  16.269  1.00  0.00    -0.744 OA
ENDBRANCH  78  82
ENDBRANCH  51  75
BRANCH  63  86
ATOM     86  C   UNL     1       7.023   7.691  23.843  1.00  0.00     0.023 A 
ATOM     87  C   UNL     1       6.796   6.418  24.399  1.00  0.00     0.031 A 
ATOM     88  C   UNL     1       7.444   8.727  24.695  1.00  0.00     0.131 A 
ATOM     89  C   UNL     1       6.963   6.221  25.775  1.00  0.00     0.055 A 
ATOM     90  C   UNL     1       7.648   8.515  26.059  1.00  0.00     0.041 A 
ATOM     91  F   UNL     1       7.664   9.960  24.211  1.00  0.00    -0.206 F 
ATOM     92  C   UNL     1       7.394   7.261  26.607  1.00  0.00     0.022 A 
BRANCH  89  93
ATOM     93  S   UNL     1       6.547   4.635  26.551  1.00  0.00     0.124 S 
ATOM     94  O   UNL     1       7.844   4.204  27.067  1.00  0.00    -0.237 OA
ATOM     95  O   UNL     1       5.574   5.034  27.565  1.00  0.00    -0.237 OA
ATOM     96  O   UNL     1       6.015   3.835  25.454  1.00  0.00    -0.744 OA
ENDBRANCH  89  93
ENDBRANCH  63  86
ENDBRANCH  37  38
ENDBRANCH  29  32
ENDBRANCH  27  28
ENDBRANCH   1  27
TORSDOF 16
