REMARK SMILES Cc1nc(-c2ccccc2)sc1C(=O)N[C@@H](CC1=c2ccccc2=NC1)C(=O)NCCCCNC(=O)c1ccc(-c2c3nc(c(-c4cc(S(=O)(=O)[O-])ccc4F)c4ccc([nH]4)c(-c4cc(S(=O)(=O)[O-])ccc4F)c4nc(c(-c5cc(S(=O)(=O)[O-])ccc5F)c5ccc2[nH]5)C=C4)C=C3)cc1
REMARK SMILES IDX 31 1 30 2 29 3 27 4 28 5 16 7 15 8 13 9 14 10 12 12 1 13
REMARK SMILES IDX 2 14 3 15 4 16 11 17 5 18 6 19 10 20 7 21 9 22 8 23 17 24
REMARK SMILES IDX 18 25 19 26 26 27 20 28 24 29 25 30 21 31 23 32 22 33 32 34
REMARK SMILES IDX 33 35 34 36 35 37 36 39 37 40 38 41 99 42 39 43 98 44 40 45
REMARK SMILES IDX 41 46 42 47 92 48 43 49 97 50 91 51 93 52 44 53 96 54 90 55
REMARK SMILES IDX 89 56 45 58 77 59 57 60 76 61 58 62 61 63 75 64 94 65 59 66
REMARK SMILES IDX 60 67 74 69 95 70 62 71 46 72 47 73 55 74 48 75 54 76 56 77
REMARK SMILES IDX 53 78 49 79 50 80 51 81 52 82 78 83 79 84 87 85 80 86 86 87
REMARK SMILES IDX 88 88 85 89 81 90 82 91 83 92 84 93 63 94 64 95 72 96 65 97
REMARK SMILES IDX 71 98 73 99 70 100 66 101 67 102 68 103 69 104
REMARK H PARENT 29 6 15 11 34 38 93 57 61 68
REMARK Flexibility Score: inf
ROOT
ATOM      1  C   UNL     1      -3.022  -6.396   2.250  1.00  0.00     0.023 C 
ENDROOT
BRANCH   1   2
ATOM      2  C   UNL     1      -3.476  -5.282   1.324  1.00  0.00     0.116 C 
BRANCH   2   3
ATOM      3  N   UNL     1      -3.886  -4.066   1.984  1.00  0.00    -0.354 N 
ATOM      4  C   UNL     1      -3.940  -2.798   1.493  1.00  0.00     0.242 C 
ATOM      5  O   UNL     1      -4.739  -2.025   2.033  1.00  0.00    -0.273 OA
ATOM      6  H   UNL     1      -4.166  -4.168   2.923  1.00  0.00     0.163 HD
BRANCH   4   7
ATOM      7  C   UNL     1      -3.129  -2.312   0.269  1.00  0.00     0.175 C 
BRANCH   7   8
ATOM      8  N   UNL     1      -1.719  -2.659   0.268  1.00  0.00    -0.339 N 
ATOM      9  C   UNL     1      -0.558  -1.960   0.082  1.00  0.00     0.263 C 
ATOM     10  O   UNL     1       0.426  -2.713   0.051  1.00  0.00    -0.268 OA
ATOM     11  H   UNL     1      -1.563  -3.616   0.440  1.00  0.00     0.164 HD
BRANCH   9  12
ATOM     12  C   UNL     1      -0.428  -0.509  -0.046  1.00  0.00     0.115 A 
ATOM     13  C   UNL     1      -2.674   0.788  -0.583  1.00  0.00     0.068 C 
ATOM     14  C   UNL     1      -1.230   0.610  -0.281  1.00  0.00     0.062 A 
ATOM     15  N   UNL     1      -0.565   1.828  -0.246  1.00  0.00    -0.241 NA
ATOM     16  C   UNL     1       0.721   1.673  -0.077  1.00  0.00     0.124 A 
ATOM     17  S   UNL     1       1.232   0.067   0.102  1.00  0.00    -0.108 S 
BRANCH  16  18
ATOM     18  C   UNL     1       1.646   2.798  -0.027  1.00  0.00     0.010 A 
ATOM     19  C   UNL     1       1.474   3.771   0.967  1.00  0.00     0.011 A 
ATOM     20  C   UNL     1       2.604   3.000  -1.028  1.00  0.00     0.011 A 
ATOM     21  C   UNL     1       2.240   4.936   0.955  1.00  0.00     0.001 A 
ATOM     22  C   UNL     1       3.363   4.172  -1.043  1.00  0.00     0.001 A 
ATOM     23  C   UNL     1       3.176   5.141  -0.056  1.00  0.00     0.000 A 
ENDBRANCH  16  18
ENDBRANCH   9  12
ENDBRANCH   7   8
BRANCH   7  24
ATOM     24  C   UNL     1      -3.801  -2.536  -1.111  1.00  0.00     0.068 C 
BRANCH  24  25
ATOM     25  C   UNL     1      -4.008  -3.943  -1.581  1.00  0.00    -0.037 C 
ATOM     26  C   UNL     1      -3.112  -4.863  -1.940  1.00  0.00     0.001 A 
ATOM     27  C   UNL     1      -5.396  -4.515  -1.647  1.00  0.00     0.174 C 
ATOM     28  C   UNL     1      -1.690  -4.906  -2.068  1.00  0.00     0.010 A 
ATOM     29  C   UNL     1      -3.928  -6.089  -2.016  1.00  0.00     0.065 A 
ATOM     30  N   UNL     1      -5.211  -5.965  -1.876  1.00  0.00    -0.280 NA
ATOM     31  C   UNL     1      -1.087  -6.102  -2.166  1.00  0.00     0.001 A 
ATOM     32  C   UNL     1      -3.193  -7.367  -2.131  1.00  0.00     0.028 A 
ATOM     33  C   UNL     1      -1.850  -7.339  -2.165  1.00  0.00     0.002 A 
ENDBRANCH  24  25
ENDBRANCH   7  24
ENDBRANCH   4   7
ENDBRANCH   2   3
ENDBRANCH   1   2
BRANCH   1  34
ATOM     34  C   UNL     1      -4.089  -6.925   3.201  1.00  0.00     0.023 C 
BRANCH  34  35
ATOM     35  C   UNL     1      -5.456  -7.199   2.582  1.00  0.00     0.116 C 
BRANCH  35  36
ATOM     36  N   UNL     1      -5.415  -8.126   1.460  1.00  0.00    -0.352 N 
ATOM     37  C   UNL     1      -6.086  -9.319   1.297  1.00  0.00     0.251 C 
ATOM     38  H   UNL     1      -4.828  -7.865   0.714  1.00  0.00     0.163 HD
ATOM     39  O   UNL     1      -5.836 -10.048   0.347  1.00  0.00    -0.269 OA
BRANCH  37  40
ATOM     40  C   UNL     1      -7.079  -9.716   2.318  1.00  0.00     0.039 A 
ATOM     41  C   UNL     1      -6.967 -10.966   2.928  1.00  0.00     0.014 A 
ATOM     42  C   UNL     1      -8.059  -8.810   2.730  1.00  0.00     0.014 A 
ATOM     43  C   UNL     1      -7.777 -11.268   4.025  1.00  0.00     0.010 A 
ATOM     44  C   UNL     1      -8.800  -9.077   3.876  1.00  0.00     0.010 A 
ATOM     45  C   UNL     1      -8.661 -10.305   4.542  1.00  0.00    -0.014 A 
BRANCH  45  46
ATOM     46  C   UNL     1      -9.444 -10.555   5.781  1.00  0.00     0.031 A 
ATOM     47  C   UNL     1     -10.947 -10.549   5.731  1.00  0.00     0.074 A 
ATOM     48  C   UNL     1      -8.805 -10.701   6.960  1.00  0.00     0.049 A 
ATOM     49  N   UNL     1     -11.810 -10.646   6.710  1.00  0.00    -0.248 NA
ATOM     50  C   UNL     1     -11.559 -10.368   4.407  1.00  0.00     0.031 C 
ATOM     51  C   UNL     1      -7.352 -10.665   7.148  1.00  0.00     0.029 A 
ATOM     52  N   UNL     1      -9.294 -10.898   8.227  1.00  0.00    -0.354 N 
ATOM     53  C   UNL     1     -13.064 -10.517   6.123  1.00  0.00     0.074 A 
ATOM     54  C   UNL     1     -12.842 -10.266   4.714  1.00  0.00     0.031 C 
ATOM     55  C   UNL     1      -7.070 -10.862   8.446  1.00  0.00     0.029 A 
ATOM     56  C   UNL     1      -8.317 -10.995   9.191  1.00  0.00     0.049 A 
ATOM     57  H   UNL     1     -10.256 -10.964   8.428  1.00  0.00     0.167 HD
ATOM     58  C   UNL     1     -14.287 -10.625   6.698  1.00  0.00     0.034 A 
ATOM     59  C   UNL     1      -8.415 -11.165  10.525  1.00  0.00     0.034 A 
ATOM     60  C   UNL     1     -14.491 -10.899   8.099  1.00  0.00     0.049 A 
ATOM     61  C   UNL     1      -9.784 -11.291  11.143  1.00  0.00     0.074 A 
ATOM     62  C   UNL     1     -15.681 -11.091   8.778  1.00  0.00     0.029 A 
ATOM     63  N   UNL     1     -13.475 -11.020   9.040  1.00  0.00    -0.354 N 
ATOM     64  N   UNL     1     -10.961 -11.223  10.564  1.00  0.00    -0.248 NA
ATOM     65  C   UNL     1      -9.838 -11.533  12.590  1.00  0.00     0.031 C 
ATOM     66  C   UNL     1     -15.390 -11.271  10.135  1.00  0.00     0.029 A 
ATOM     67  C   UNL     1     -14.014 -11.261  10.295  1.00  0.00     0.049 A 
ATOM     68  H   UNL     1     -12.513 -10.946   8.845  1.00  0.00     0.167 HD
ATOM     69  C   UNL     1     -11.893 -11.443  11.574  1.00  0.00     0.074 A 
ATOM     70  C   UNL     1     -11.141 -11.661  12.793  1.00  0.00     0.031 C 
ATOM     71  C   UNL     1     -13.249 -11.469  11.502  1.00  0.00     0.034 A 
BRANCH  58  72
ATOM     72  C   UNL     1     -15.490 -10.426   5.806  1.00  0.00     0.023 A 
ATOM     73  C   UNL     1     -15.750 -11.280   4.720  1.00  0.00     0.031 A 
ATOM     74  C   UNL     1     -16.365  -9.346   6.017  1.00  0.00     0.131 A 
ATOM     75  C   UNL     1     -16.801 -10.991   3.836  1.00  0.00     0.055 A 
ATOM     76  C   UNL     1     -17.461  -9.114   5.183  1.00  0.00     0.041 A 
ATOM     77  F   UNL     1     -16.159  -8.485   7.026  1.00  0.00    -0.206 F 
ATOM     78  C   UNL     1     -17.674  -9.928   4.075  1.00  0.00     0.022 A 
BRANCH  75  79
ATOM     79  S   UNL     1     -16.913 -11.933   2.290  1.00  0.00     0.124 S 
ATOM     80  O   UNL     1     -15.625 -11.632   1.669  1.00  0.00    -0.237 OA
ATOM     81  O   UNL     1     -17.089 -13.300   2.765  1.00  0.00    -0.237 OA
ATOM     82  O   UNL     1     -18.072 -11.350   1.617  1.00  0.00    -0.744 OA
ENDBRANCH  75  79
ENDBRANCH  58  72
BRANCH  59  83
ATOM     83  C   UNL     1      -7.190 -11.227  11.374  1.00  0.00     0.023 A 
ATOM     84  C   UNL     1      -6.841 -12.406  12.051  1.00  0.00     0.031 A 
ATOM     85  C   UNL     1      -6.374 -10.096  11.554  1.00  0.00     0.131 A 
ATOM     86  C   UNL     1      -5.735 -12.416  12.915  1.00  0.00     0.055 A 
ATOM     87  C   UNL     1      -5.246 -10.125  12.377  1.00  0.00     0.041 A 
ATOM     88  F   UNL     1      -6.658  -8.946  10.922  1.00  0.00    -0.206 F 
ATOM     89  C   UNL     1      -4.929 -11.287  13.074  1.00  0.00     0.022 A 
BRANCH  86  90
ATOM     90  S   UNL     1      -5.411 -13.909  13.894  1.00  0.00     0.124 S 
ATOM     91  O   UNL     1      -6.660 -14.058  14.631  1.00  0.00    -0.237 OA
ATOM     92  O   UNL     1      -5.156 -14.901  12.855  1.00  0.00    -0.237 OA
ATOM     93  O   UNL     1      -4.249 -13.541  14.700  1.00  0.00    -0.744 OA
ENDBRANCH  86  90
ENDBRANCH  59  83
BRANCH  71  94
ATOM     94  C   UNL     1     -13.994 -11.791  12.772  1.00  0.00     0.023 A 
ATOM     95  C   UNL     1     -14.005 -10.912  13.869  1.00  0.00     0.031 A 
ATOM     96  C   UNL     1     -14.693 -13.006  12.890  1.00  0.00     0.131 A 
ATOM     97  C   UNL     1     -14.653 -11.284  15.056  1.00  0.00     0.055 A 
ATOM     98  C   UNL     1     -15.385 -13.346  14.053  1.00  0.00     0.041 A 
ATOM     99  F   UNL     1     -14.715 -13.883  11.873  1.00  0.00    -0.206 F 
ATOM    100  C   UNL     1     -15.356 -12.489  15.149  1.00  0.00     0.022 A 
BRANCH  97 101
ATOM    101  S   UNL     1     -14.490 -10.213  16.510  1.00  0.00     0.124 S 
ATOM    102  O   UNL     1     -13.044 -10.171  16.697  1.00  0.00    -0.237 OA
ATOM    103  O   UNL     1     -15.110  -8.973  16.055  1.00  0.00    -0.237 OA
ATOM    104  O   UNL     1     -15.229 -10.929  17.549  1.00  0.00    -0.744 OA
ENDBRANCH  97 101
ENDBRANCH  71  94
ENDBRANCH  45  46
ENDBRANCH  37  40
ENDBRANCH  35  36
ENDBRANCH  34  35
ENDBRANCH   1  34
TORSDOF 19
