REMARK SMILES Cc1ccccc1[C@@H]1[NH2+][C@@H](C(=O)NCCCCNC(=O)c2ccc(-c3c4nc(c(-c5cc(S(=O)(=O)[O-])ccc5F)c5ccc([nH]5)c(-c5cc(S(=O)(=O)[O-])ccc5F)c5nc(c(-c6cc(S(=O)(=O)[O-])ccc6F)c6ccc3[nH]6)C=C5)C=C4)cc2)CC2=c3ccccc3=N[C@H]21
REMARK SMILES IDX 16 1 15 2 14 3 13 4 11 5 12 6 10 8 8 9 9 10 93 11 85 14
REMARK SMILES IDX 92 15 84 16 86 17 91 18 87 19 90 20 88 21 89 22 7 23 1 24
REMARK SMILES IDX 2 25 3 26 4 27 6 28 5 29 17 30 18 31 19 32 20 34 21 35 22 36
REMARK SMILES IDX 83 37 23 38 82 39 24 40 25 41 26 42 76 43 27 44 81 45 75 46
REMARK SMILES IDX 77 47 28 48 80 49 74 50 73 51 29 53 61 54 41 55 60 56 42 57
REMARK SMILES IDX 45 58 59 59 78 60 43 61 44 62 58 64 79 65 46 66 30 67 31 68
REMARK SMILES IDX 39 69 32 70 38 71 40 72 37 73 33 74 34 75 35 76 36 77 62 78
REMARK SMILES IDX 63 79 71 80 64 81 70 82 72 83 69 84 65 85 66 86 67 87 68 88
REMARK SMILES IDX 47 89 48 90 56 91 49 92 55 93 57 94 54 95 50 96 51 97 52 98
REMARK SMILES IDX 53 99
REMARK H PARENT 13 7 9 12 9 13 18 33 77 52 45 63
REMARK Flexibility Score: inf
ROOT
ATOM      1  C   UNL     1      -3.359   8.319  -1.172  1.00  0.00     0.023 C 
ENDROOT
BRANCH   1   2
ATOM      2  C   UNL     1      -2.883   7.043  -0.479  1.00  0.00     0.023 C 
BRANCH   2   3
ATOM      3  C   UNL     1      -3.833   5.842  -0.596  1.00  0.00     0.116 C 
BRANCH   3   4
ATOM      4  N   UNL     1      -3.409   4.760  -1.486  1.00  0.00    -0.351 N 
ATOM      5  C   UNL     1      -2.429   3.813  -1.356  1.00  0.00     0.278 C 
ATOM      6  O   UNL     1      -2.610   2.750  -1.969  1.00  0.00    -0.268 OA
ATOM      7  H   UNL     1      -3.919   4.703  -2.326  1.00  0.00     0.163 HD
BRANCH   5   8
ATOM      8  C   UNL     1      -1.070   4.085  -0.636  1.00  0.00     0.277 C 
ATOM      9  C   UNL     1       0.644   2.388   0.291  1.00  0.00     0.243 C 
ATOM     10  N   UNL     1      -0.151   2.910  -0.855  1.00  0.00    -0.327 N 
ATOM     11  C   UNL     1       0.561   3.095   1.679  1.00  0.00     0.196 C 
ATOM     12  H   UNL     1      -0.728   2.140  -1.194  1.00  0.00     0.347 HD
ATOM     13  H   UNL     1       0.555   3.271  -1.497  1.00  0.00     0.347 HD
ATOM     14  C   UNL     1      -0.806   3.646   1.807  1.00  0.00    -0.024 C 
ATOM     15  N   UNL     1       0.694   2.135   2.824  1.00  0.00    -0.270 NA
ATOM     16  C   UNL     1      -1.199   4.630   0.787  1.00  0.00     0.109 C 
ATOM     17  C   UNL     1      -1.486   3.078   2.789  1.00  0.00     0.002 A 
ATOM     18  C   UNL     1      -0.471   2.212   3.400  1.00  0.00     0.066 A 
ATOM     19  C   UNL     1      -2.829   3.127   3.253  1.00  0.00     0.010 A 
ATOM     20  C   UNL     1      -0.887   1.506   4.632  1.00  0.00     0.028 A 
ATOM     21  C   UNL     1      -3.156   2.409   4.337  1.00  0.00     0.001 A 
ATOM     22  C   UNL     1      -2.160   1.625   5.050  1.00  0.00     0.002 A 
BRANCH   9  23
ATOM     23  C   UNL     1       2.115   2.175  -0.100  1.00  0.00     0.015 A 
ATOM     24  C   UNL     1       2.665   4.681  -0.351  1.00  0.00     0.045 C 
ATOM     25  C   UNL     1       3.039   3.224  -0.315  1.00  0.00    -0.042 A 
ATOM     26  C   UNL     1       4.408   2.918  -0.438  1.00  0.00     0.004 A 
ATOM     27  C   UNL     1       4.859   1.600  -0.422  1.00  0.00     0.000 A 
ATOM     28  C   UNL     1       2.589   0.847  -0.149  1.00  0.00     0.010 A 
ATOM     29  C   UNL     1       3.945   0.562  -0.308  1.00  0.00     0.001 A 
ENDBRANCH   9  23
ENDBRANCH   5   8
ENDBRANCH   3   4
ENDBRANCH   2   3
ENDBRANCH   1   2
BRANCH   1  30
ATOM     30  C   UNL     1      -4.717   8.849  -0.707  1.00  0.00     0.116 C 
BRANCH  30  31
ATOM     31  N   UNL     1      -4.691  10.099   0.056  1.00  0.00    -0.352 N 
ATOM     32  C   UNL     1      -5.738  10.966   0.351  1.00  0.00     0.251 C 
ATOM     33  H   UNL     1      -3.810  10.361   0.409  1.00  0.00     0.163 HD
ATOM     34  O   UNL     1      -5.573  11.970   1.039  1.00  0.00    -0.269 OA
BRANCH  32  35
ATOM     35  C   UNL     1      -7.121  10.581  -0.036  1.00  0.00     0.039 A 
ATOM     36  C   UNL     1      -8.060  10.471   0.997  1.00  0.00     0.014 A 
ATOM     37  C   UNL     1      -7.353   9.969  -1.258  1.00  0.00     0.014 A 
ATOM     38  C   UNL     1      -9.011   9.460   0.933  1.00  0.00     0.010 A 
ATOM     39  C   UNL     1      -8.188   8.874  -1.271  1.00  0.00     0.010 A 
ATOM     40  C   UNL     1      -8.953   8.576  -0.141  1.00  0.00    -0.014 A 
BRANCH  40  41
ATOM     41  C   UNL     1      -9.656   7.304  -0.169  1.00  0.00     0.031 A 
ATOM     42  C   UNL     1     -10.954   7.253  -0.858  1.00  0.00     0.074 A 
ATOM     43  C   UNL     1      -9.126   6.209   0.417  1.00  0.00     0.049 A 
ATOM     44  N   UNL     1     -11.919   6.465  -0.544  1.00  0.00    -0.248 NA
ATOM     45  C   UNL     1     -11.285   8.171  -1.940  1.00  0.00     0.031 C 
ATOM     46  C   UNL     1      -9.609   4.832   0.348  1.00  0.00     0.029 A 
ATOM     47  N   UNL     1      -8.127   6.161   1.376  1.00  0.00    -0.354 N 
ATOM     48  C   UNL     1     -12.885   6.578  -1.520  1.00  0.00     0.074 A 
ATOM     49  C   UNL     1     -12.474   7.704  -2.322  1.00  0.00     0.031 C 
ATOM     50  C   UNL     1      -9.084   4.132   1.371  1.00  0.00     0.029 A 
ATOM     51  C   UNL     1      -8.360   5.067   2.218  1.00  0.00     0.049 A 
ATOM     52  H   UNL     1      -7.376   6.793   1.453  1.00  0.00     0.167 HD
ATOM     53  C   UNL     1     -13.848   5.618  -1.610  1.00  0.00     0.034 A 
ATOM     54  C   UNL     1      -8.614   5.269   3.547  1.00  0.00     0.034 A 
ATOM     55  C   UNL     1     -13.710   4.651  -0.518  1.00  0.00     0.049 A 
ATOM     56  C   UNL     1     -10.044   4.926   3.929  1.00  0.00     0.074 A 
ATOM     57  C   UNL     1     -13.090   3.414  -0.441  1.00  0.00     0.029 A 
ATOM     58  N   UNL     1     -13.923   5.065   0.794  1.00  0.00    -0.354 N 
ATOM     59  N   UNL     1     -11.020   4.744   3.079  1.00  0.00    -0.248 NA
ATOM     60  C   UNL     1     -10.475   4.779   5.315  1.00  0.00     0.031 C 
ATOM     61  C   UNL     1     -12.835   3.142   0.930  1.00  0.00     0.029 A 
ATOM     62  C   UNL     1     -13.347   4.181   1.690  1.00  0.00     0.049 A 
ATOM     63  H   UNL     1     -14.417   5.877   1.050  1.00  0.00     0.167 HD
ATOM     64  C   UNL     1     -12.192   4.531   3.761  1.00  0.00     0.074 A 
ATOM     65  C   UNL     1     -11.781   4.507   5.157  1.00  0.00     0.031 C 
ATOM     66  C   UNL     1     -13.404   4.425   3.129  1.00  0.00     0.034 A 
BRANCH  53  67
ATOM     67  C   UNL     1     -14.689   5.377  -2.847  1.00  0.00     0.023 A 
ATOM     68  C   UNL     1     -15.148   4.069  -3.111  1.00  0.00     0.031 A 
ATOM     69  C   UNL     1     -15.022   6.336  -3.824  1.00  0.00     0.131 A 
ATOM     70  C   UNL     1     -15.792   3.744  -4.321  1.00  0.00     0.055 A 
ATOM     71  C   UNL     1     -15.612   6.005  -5.053  1.00  0.00     0.041 A 
ATOM     72  F   UNL     1     -14.850   7.647  -3.618  1.00  0.00    -0.206 F 
ATOM     73  C   UNL     1     -15.991   4.698  -5.312  1.00  0.00     0.022 A 
BRANCH  70  74
ATOM     74  S   UNL     1     -16.372   2.046  -4.580  1.00  0.00     0.124 S 
ATOM     75  O   UNL     1     -15.132   1.281  -4.496  1.00  0.00    -0.237 OA
ATOM     76  O   UNL     1     -17.316   1.871  -3.481  1.00  0.00    -0.237 OA
ATOM     77  O   UNL     1     -16.978   2.094  -5.910  1.00  0.00    -0.744 OA
ENDBRANCH  70  74
ENDBRANCH  53  67
BRANCH  54  78
ATOM     78  C   UNL     1      -7.844   6.428   4.102  1.00  0.00     0.023 A 
ATOM     79  C   UNL     1      -6.434   6.349   4.080  1.00  0.00     0.031 A 
ATOM     80  C   UNL     1      -8.429   7.700   4.176  1.00  0.00     0.131 A 
ATOM     81  C   UNL     1      -5.669   7.517   3.918  1.00  0.00     0.055 A 
ATOM     82  C   UNL     1      -7.654   8.858   4.062  1.00  0.00     0.041 A 
ATOM     83  F   UNL     1      -9.762   7.840   4.202  1.00  0.00    -0.206 F 
ATOM     84  C   UNL     1      -6.278   8.769   3.863  1.00  0.00     0.022 A 
BRANCH  81  85
ATOM     85  S   UNL     1      -3.910   7.371   3.501  1.00  0.00     0.124 S 
ATOM     86  O   UNL     1      -3.280   7.337   4.816  1.00  0.00    -0.237 OA
ATOM     87  O   UNL     1      -3.875   6.125   2.744  1.00  0.00    -0.237 OA
ATOM     88  O   UNL     1      -3.641   8.558   2.693  1.00  0.00    -0.744 OA
ENDBRANCH  81  85
ENDBRANCH  54  78
BRANCH  66  89
ATOM     89  C   UNL     1     -14.751   4.446   3.831  1.00  0.00     0.023 A 
ATOM     90  C   UNL     1     -14.909   4.852   5.163  1.00  0.00     0.031 A 
ATOM     91  C   UNL     1     -15.948   4.090   3.165  1.00  0.00     0.131 A 
ATOM     92  C   UNL     1     -16.145   4.745   5.821  1.00  0.00     0.055 A 
ATOM     93  C   UNL     1     -17.202   4.101   3.788  1.00  0.00     0.041 A 
ATOM     94  F   UNL     1     -15.960   3.719   1.876  1.00  0.00    -0.206 F 
ATOM     95  C   UNL     1     -17.303   4.396   5.137  1.00  0.00     0.022 A 
BRANCH  92  96
ATOM     96  S   UNL     1     -16.159   4.946   7.621  1.00  0.00     0.124 S 
ATOM     97  O   UNL     1     -15.277   3.862   8.046  1.00  0.00    -0.237 OA
ATOM     98  O   UNL     1     -15.630   6.295   7.792  1.00  0.00    -0.237 OA
ATOM     99  O   UNL     1     -17.566   4.777   7.976  1.00  0.00    -0.744 OA
ENDBRANCH  92  96
ENDBRANCH  66  89
ENDBRANCH  40  41
ENDBRANCH  32  35
ENDBRANCH  30  31
ENDBRANCH   1  30
TORSDOF 15
