REMARK SMILES O=C(NCCCCNC(=O)[C@@H]1CCCC[C@@H]1C(=O)N1CCN(C(=O)c2sc3cc([N+](=O)[O-])ccc3c2Cl)CC1)c1ccc(-c2c3nc(c(-c4cc(S(=O)(=O)[O-])ccc4F)c4ccc([nH]4)c(-c4cc(S(=O)(=O)[O-])ccc4F)c4nc(c(-c5cc(S(=O)(=O)[O-])ccc5F)c5ccc2[nH]5)C=C4)C=C3)cc1
REMARK SMILES IDX 5 1 4 2 3 3 1 4 2 5 40 7 41 8 102 9 42 10 101 11 43 12 44 13
REMARK SMILES IDX 45 14 95 15 46 16 100 17 94 18 96 19 47 20 99 21 93 22 92 23
REMARK SMILES IDX 48 25 80 26 60 27 79 28 61 29 64 30 78 31 97 32 62 33 63 34
REMARK SMILES IDX 77 36 98 37 65 38 49 39 50 40 58 41 51 42 57 43 59 44 56 45
REMARK SMILES IDX 52 46 53 47 54 48 55 49 81 50 82 51 90 52 83 53 89 54 91 55
REMARK SMILES IDX 88 56 84 57 85 58 86 59 87 60 66 61 67 62 75 63 68 64 74 65
REMARK SMILES IDX 76 66 73 67 69 68 70 69 71 70 72 71 6 72 7 73 8 74 9 75
REMARK SMILES IDX 10 77 11 78 12 79 16 80 13 81 15 82 14 83 17 84 18 85 19 86
REMARK SMILES IDX 20 87 39 88 21 89 38 90 22 91 23 92 24 93 25 94 26 95 36 96
REMARK SMILES IDX 27 97 35 98 37 99 28 100 34 101 29 102 33 103 30 104 31 105
REMARK SMILES IDX 32 106
REMARK H PARENT 3 6 96 24 64 35 8 76
REMARK Flexibility Score: inf
ROOT
ATOM      1  C   UNL     1       5.091  -2.713  -0.301  1.00  0.00     0.023 C 
ENDROOT
BRANCH   1   2
ATOM      2  C   UNL     1       4.581  -1.319   0.029  1.00  0.00     0.116 C 
BRANCH   2   3
ATOM      3  N   UNL     1       3.111  -1.194   0.055  1.00  0.00    -0.352 N 
ATOM      4  O   UNL     1       1.207   0.027   0.425  1.00  0.00    -0.269 OA
ATOM      5  C   UNL     1       2.359  -0.014   0.050  1.00  0.00     0.251 C 
ATOM      6  H   UNL     1       2.602  -2.036   0.078  1.00  0.00     0.163 HD
BRANCH   5   7
ATOM      7  C   UNL     1       3.028   1.179  -0.502  1.00  0.00     0.039 A 
ATOM      8  C   UNL     1       3.140   2.400   0.166  1.00  0.00     0.014 A 
ATOM      9  C   UNL     1       3.749   0.918  -1.651  1.00  0.00     0.014 A 
ATOM     10  C   UNL     1       4.094   3.311  -0.297  1.00  0.00     0.010 A 
ATOM     11  C   UNL     1       4.887   1.639  -1.838  1.00  0.00     0.010 A 
ATOM     12  C   UNL     1       5.001   2.899  -1.288  1.00  0.00    -0.014 A 
BRANCH  12  13
ATOM     13  C   UNL     1       6.114   3.710  -1.769  1.00  0.00     0.031 A 
ATOM     14  C   UNL     1       6.861   4.442  -0.716  1.00  0.00     0.074 A 
ATOM     15  C   UNL     1       6.541   3.692  -3.055  1.00  0.00     0.049 A 
ATOM     16  N   UNL     1       6.743   5.692  -0.419  1.00  0.00    -0.248 NA
ATOM     17  C   UNL     1       7.687   3.680   0.231  1.00  0.00     0.031 C 
ATOM     18  C   UNL     1       6.149   2.820  -4.179  1.00  0.00     0.029 A 
ATOM     19  N   UNL     1       7.509   4.453  -3.624  1.00  0.00    -0.354 N 
ATOM     20  C   UNL     1       7.652   5.934   0.605  1.00  0.00     0.074 A 
ATOM     21  C   UNL     1       8.047   4.635   1.093  1.00  0.00     0.031 C 
ATOM     22  C   UNL     1       7.038   2.931  -5.189  1.00  0.00     0.029 A 
ATOM     23  C   UNL     1       7.912   4.042  -4.886  1.00  0.00     0.049 A 
ATOM     24  H   UNL     1       7.896   5.238  -3.174  1.00  0.00     0.167 HD
ATOM     25  C   UNL     1       8.165   7.182   0.810  1.00  0.00     0.034 A 
ATOM     26  C   UNL     1       8.886   4.587  -5.655  1.00  0.00     0.034 A 
ATOM     27  C   UNL     1       7.442   8.164   0.037  1.00  0.00     0.049 A 
ATOM     28  C   UNL     1       9.113   5.963  -5.147  1.00  0.00     0.074 A 
ATOM     29  C   UNL     1       6.136   8.609   0.026  1.00  0.00     0.029 A 
ATOM     30  N   UNL     1       7.975   8.528  -1.179  1.00  0.00    -0.354 N 
ATOM     31  N   UNL     1       8.232   6.921  -5.255  1.00  0.00    -0.248 NA
ATOM     32  C   UNL     1      10.089   6.123  -4.080  1.00  0.00     0.031 C 
ATOM     33  C   UNL     1       5.815   8.763  -1.354  1.00  0.00     0.029 A 
ATOM     34  C   UNL     1       6.963   8.498  -2.106  1.00  0.00     0.049 A 
ATOM     35  H   UNL     1       8.914   8.767  -1.352  1.00  0.00     0.167 HD
ATOM     36  C   UNL     1       8.252   7.552  -4.019  1.00  0.00     0.074 A 
ATOM     37  C   UNL     1       9.469   7.067  -3.365  1.00  0.00     0.031 C 
ATOM     38  C   UNL     1       7.145   8.172  -3.510  1.00  0.00     0.034 A 
BRANCH  25  39
ATOM     39  C   UNL     1       9.513   7.470   1.423  1.00  0.00     0.023 A 
ATOM     40  C   UNL     1      10.483   6.478   1.650  1.00  0.00     0.031 A 
ATOM     41  C   UNL     1       9.944   8.801   1.600  1.00  0.00     0.131 A 
ATOM     42  C   UNL     1      11.792   6.801   2.030  1.00  0.00     0.055 A 
ATOM     43  C   UNL     1      11.269   9.129   1.915  1.00  0.00     0.041 A 
ATOM     44  F   UNL     1       9.103   9.831   1.417  1.00  0.00    -0.206 F 
ATOM     45  C   UNL     1      12.203   8.125   2.130  1.00  0.00     0.022 A 
BRANCH  42  46
ATOM     46  S   UNL     1      12.993   5.488   2.387  1.00  0.00     0.124 S 
ATOM     47  O   UNL     1      14.036   5.761   1.405  1.00  0.00    -0.237 OA
ATOM     48  O   UNL     1      13.339   5.777   3.777  1.00  0.00    -0.237 OA
ATOM     49  O   UNL     1      12.227   4.262   2.183  1.00  0.00    -0.744 OA
ENDBRANCH  42  46
ENDBRANCH  25  39
BRANCH  26  50
ATOM     50  C   UNL     1       9.952   3.807  -6.328  1.00  0.00     0.023 A 
ATOM     51  C   UNL     1      10.320   2.547  -5.820  1.00  0.00     0.031 A 
ATOM     52  C   UNL     1      10.821   4.410  -7.252  1.00  0.00     0.131 A 
ATOM     53  C   UNL     1      11.543   1.965  -6.176  1.00  0.00     0.055 A 
ATOM     54  C   UNL     1      12.032   3.814  -7.626  1.00  0.00     0.041 A 
ATOM     55  F   UNL     1      10.543   5.624  -7.752  1.00  0.00    -0.206 F 
ATOM     56  C   UNL     1      12.407   2.593  -7.072  1.00  0.00     0.022 A 
BRANCH  53  57
ATOM     57  S   UNL     1      12.081   0.423  -5.386  1.00  0.00     0.124 S 
ATOM     58  O   UNL     1      12.482  -0.383  -6.537  1.00  0.00    -0.237 OA
ATOM     59  O   UNL     1      13.169   0.893  -4.536  1.00  0.00    -0.237 OA
ATOM     60  O   UNL     1      10.881  -0.035  -4.693  1.00  0.00    -0.744 OA
ENDBRANCH  53  57
ENDBRANCH  26  50
BRANCH  38  61
ATOM     61  C   UNL     1       5.920   8.342  -4.390  1.00  0.00     0.023 A 
ATOM     62  C   UNL     1       5.335   9.619  -4.423  1.00  0.00     0.031 A 
ATOM     63  C   UNL     1       5.189   7.285  -4.967  1.00  0.00     0.131 A 
ATOM     64  C   UNL     1       4.051   9.801  -4.951  1.00  0.00     0.055 A 
ATOM     65  C   UNL     1       3.934   7.483  -5.557  1.00  0.00     0.041 A 
ATOM     66  F   UNL     1       5.617   6.019  -4.904  1.00  0.00    -0.206 F 
ATOM     67  C   UNL     1       3.349   8.743  -5.533  1.00  0.00     0.022 A 
BRANCH  64  68
ATOM     68  S   UNL     1       3.200  11.386  -4.743  1.00  0.00     0.124 S 
ATOM     69  O   UNL     1       3.014  11.819  -6.125  1.00  0.00    -0.237 OA
ATOM     70  O   UNL     1       1.981  10.993  -4.040  1.00  0.00    -0.237 OA
ATOM     71  O   UNL     1       4.134  12.188  -3.958  1.00  0.00    -0.744 OA
ENDBRANCH  64  68
ENDBRANCH  38  61
ENDBRANCH  12  13
ENDBRANCH   5   7
ENDBRANCH   2   3
ENDBRANCH   1   2
BRANCH   1  72
ATOM     72  C   UNL     1       4.682  -3.225  -1.687  1.00  0.00     0.023 C 
BRANCH  72  73
ATOM     73  C   UNL     1       5.268  -2.545  -2.919  1.00  0.00     0.116 C 
BRANCH  73  74
ATOM     74  N   UNL     1       6.630  -2.966  -3.179  1.00  0.00    -0.356 N 
ATOM     75  C   UNL     1       7.197  -4.022  -3.807  1.00  0.00     0.223 C 
ATOM     76  H   UNL     1       7.297  -2.339  -2.815  1.00  0.00     0.163 HD
ATOM     77  O   UNL     1       8.426  -4.122  -3.705  1.00  0.00    -0.275 OA
BRANCH  75  78
ATOM     78  C   UNL     1       6.470  -5.072  -4.655  1.00  0.00     0.091 C 
ATOM     79  C   UNL     1       5.025  -4.884  -5.088  1.00  0.00     0.014 C 
ATOM     80  C   UNL     1       6.731  -6.518  -4.150  1.00  0.00     0.091 C 
ATOM     81  C   UNL     1       4.662  -5.841  -6.224  1.00  0.00     0.001 C 
ATOM     82  C   UNL     1       6.366  -7.518  -5.253  1.00  0.00     0.014 C 
ATOM     83  C   UNL     1       5.029  -7.296  -5.965  1.00  0.00     0.001 C 
BRANCH  80  84
ATOM     84  C   UNL     1       6.281  -6.698  -2.676  1.00  0.00     0.226 C 
ATOM     85  O   UNL     1       7.013  -6.243  -1.788  1.00  0.00    -0.275 OA
ATOM     86  N   UNL     1       5.043  -7.175  -2.308  1.00  0.00    -0.339 N 
ATOM     87  C   UNL     1       4.432  -6.685  -1.063  1.00  0.00     0.141 C 
ATOM     88  C   UNL     1       4.293  -8.289  -2.867  1.00  0.00     0.141 C 
ATOM     89  C   UNL     1       3.025  -6.155  -1.386  1.00  0.00     0.141 C 
ATOM     90  C   UNL     1       2.844  -7.867  -3.166  1.00  0.00     0.141 C 
ATOM     91  N   UNL     1       2.208  -7.192  -2.018  1.00  0.00    -0.334 N 
ATOM     92  C   UNL     1       0.851  -7.246  -1.709  1.00  0.00     0.265 C 
ATOM     93  O   UNL     1       0.311  -6.373  -1.033  1.00  0.00    -0.268 OA
BRANCH  92  94
ATOM     94  C   UNL     1       0.123  -8.395  -2.195  1.00  0.00     0.112 A 
ATOM     95  S   UNL     1      -1.295  -8.159  -3.107  1.00  0.00    -0.128 S 
ATOM     96  C   UNL     1       0.386  -9.730  -1.989  1.00  0.00     0.072 A 
ATOM     97  C   UNL     1      -1.524  -9.850  -3.327  1.00  0.00     0.043 A 
ATOM     98  C   UNL     1      -0.515 -10.589  -2.702  1.00  0.00     0.012 A 
ATOM     99  Cl  UNL     1       1.655 -10.353  -1.007  1.00  0.00    -0.082 Cl
ATOM    100  C   UNL     1      -2.576 -10.471  -4.029  1.00  0.00     0.105 A 
ATOM    101  C   UNL     1      -0.537 -12.001  -2.836  1.00  0.00     0.018 A 
ATOM    102  C   UNL     1      -2.584 -11.871  -4.106  1.00  0.00     0.270 A 
ATOM    103  C   UNL     1      -1.565 -12.633  -3.538  1.00  0.00     0.086 A 
BRANCH 102 104
ATOM    104  N   UNL     1      -3.697 -12.548  -4.783  1.00  0.00     0.062 N 
ATOM    105  O   UNL     1      -4.600 -11.844  -5.255  1.00  0.00    -0.258 OA
ATOM    106  O   UNL     1      -3.672 -13.786  -4.834  1.00  0.00    -0.258 OA
ENDBRANCH 102 104
ENDBRANCH  92  94
ENDBRANCH  80  84
ENDBRANCH  75  78
ENDBRANCH  73  74
ENDBRANCH  72  73
ENDBRANCH   1  72
TORSDOF 17
