REMARK SMILES C[C@@H](C(=O)NCCCCNC(=O)c1ccc(-c2c3nc(c(-c4cc(S(=O)(=O)[O-])ccc4F)c4ccc([nH]4)c(-c4cc(S(=O)(=O)[O-])ccc4F)c4nc(c(-c5cc(S(=O)(=O)[O-])ccc5F)c5ccc2[nH]5)C=C4)C=C3)cc1)c1ccc(C[C@H]2CCC[C@H]2O)cc1-c1ccc(O)cc1
REMARK SMILES IDX 7 1 6 2 5 3 3 4 4 5 2 7 1 8 76 9 77 10 88 11 78 12 87 13
REMARK SMILES IDX 79 14 89 15 90 16 95 17 91 18 94 19 92 20 93 21 80 23 81 24
REMARK SMILES IDX 82 25 85 26 83 27 84 28 86 29 8 31 9 32 10 33 11 34 12 36
REMARK SMILES IDX 13 37 14 38 75 39 15 40 74 41 16 42 17 43 18 44 68 45 19 46
REMARK SMILES IDX 73 47 67 48 69 49 20 50 72 51 66 52 65 53 21 55 53 56 33 57
REMARK SMILES IDX 52 58 34 59 37 60 51 61 70 62 35 63 36 64 50 66 71 67 38 68
REMARK SMILES IDX 22 69 23 70 31 71 24 72 30 73 32 74 29 75 25 76 26 77 27 78
REMARK SMILES IDX 28 79 54 80 55 81 63 82 56 83 62 84 64 85 61 86 57 87 58 88
REMARK SMILES IDX 59 89 60 90 39 91 40 92 48 93 41 94 47 95 49 96 46 97 42 98
REMARK SMILES IDX 43 99 44 100 45 101
REMARK H PARENT 5 6 93 22 86 30 10 35 69 54 37 65
REMARK Flexibility Score: inf
ROOT
ATOM      1  C   UNL     1       4.288  -1.148  -0.318  1.00  0.00     0.023 C 
ENDROOT
BRANCH   1   2
ATOM      2  C   UNL     1       3.605  -0.650  -1.589  1.00  0.00     0.116 C 
BRANCH   2   3
ATOM      3  N   UNL     1       2.608  -1.574  -2.084  1.00  0.00    -0.356 N 
ATOM      4  C   UNL     1       1.295  -1.339  -2.355  1.00  0.00     0.227 C 
ATOM      5  O   UNL     1       0.831  -1.953  -3.320  1.00  0.00    -0.274 OA
ATOM      6  H   UNL     1       2.921  -2.493  -2.247  1.00  0.00     0.163 HD
BRANCH   4   7
ATOM      7  C   UNL     1       0.493  -0.271  -1.600  1.00  0.00     0.106 C 
ATOM      8  C   UNL     1       0.797  -0.005  -0.118  1.00  0.00     0.023 C 
BRANCH   7   9
ATOM      9  C   UNL     1      -1.032  -0.438  -1.696  1.00  0.00    -0.028 A 
ATOM     10  C   UNL     1      -1.750   0.735  -2.007  1.00  0.00     0.005 A 
ATOM     11  C   UNL     1      -1.752  -1.626  -1.391  1.00  0.00    -0.014 A 
ATOM     12  C   UNL     1      -3.137   0.774  -1.940  1.00  0.00     0.004 A 
ATOM     13  C   UNL     1      -3.157  -1.532  -1.265  1.00  0.00     0.012 A 
ATOM     14  C   UNL     1      -3.849  -0.330  -1.483  1.00  0.00    -0.047 A 
BRANCH  11  15
ATOM     15  C   UNL     1      -1.141  -2.973  -1.316  1.00  0.00    -0.018 A 
ATOM     16  C   UNL     1      -1.367  -3.878  -2.373  1.00  0.00     0.012 A 
ATOM     17  C   UNL     1      -0.297  -3.391  -0.276  1.00  0.00     0.012 A 
ATOM     18  C   UNL     1      -0.717  -5.114  -2.427  1.00  0.00     0.047 A 
ATOM     19  C   UNL     1       0.379  -4.617  -0.339  1.00  0.00     0.047 A 
ATOM     20  C   UNL     1       0.174  -5.461  -1.424  1.00  0.00     0.115 A 
BRANCH  20  21
ATOM     21  O   UNL     1       0.837  -6.644  -1.548  1.00  0.00    -0.508 OA
ATOM     22  H   UNL     1       0.680  -7.194  -2.290  1.00  0.00     0.293 HD
ENDBRANCH  20  21
ENDBRANCH  11  15
BRANCH  14  23
ATOM     23  C   UNL     1      -5.329  -0.216  -1.217  1.00  0.00     0.041 C 
BRANCH  23  24
ATOM     24  C   UNL     1      -5.753   0.342   0.156  1.00  0.00     0.022 C 
ATOM     25  C   UNL     1      -5.193  -0.399   1.383  1.00  0.00     0.007 C 
ATOM     26  C   UNL     1      -5.515   1.831   0.461  1.00  0.00     0.117 C 
ATOM     27  C   UNL     1      -5.101   0.642   2.503  1.00  0.00     0.003 C 
ATOM     28  C   UNL     1      -5.769   1.903   1.963  1.00  0.00     0.032 C 
BRANCH  26  29
ATOM     29  O   UNL     1      -4.200   2.299   0.218  1.00  0.00    -0.393 OA
ATOM     30  H   UNL     1      -3.572   1.795   0.758  1.00  0.00     0.210 HD
ENDBRANCH  26  29
ENDBRANCH  23  24
ENDBRANCH  14  23
ENDBRANCH   7   9
ENDBRANCH   4   7
ENDBRANCH   2   3
ENDBRANCH   1   2
BRANCH   1  31
ATOM     31  C   UNL     1       5.038  -2.474  -0.466  1.00  0.00     0.023 C 
BRANCH  31  32
ATOM     32  C   UNL     1       5.995  -2.558  -1.650  1.00  0.00     0.116 C 
BRANCH  32  33
ATOM     33  N   UNL     1       6.981  -1.489  -1.656  1.00  0.00    -0.352 N 
ATOM     34  C   UNL     1       8.340  -1.558  -1.854  1.00  0.00     0.251 C 
ATOM     35  H   UNL     1       6.624  -0.586  -1.494  1.00  0.00     0.163 HD
ATOM     36  O   UNL     1       9.029  -0.562  -1.687  1.00  0.00    -0.269 OA
BRANCH  34  37
ATOM     37  C   UNL     1       8.959  -2.850  -2.227  1.00  0.00     0.039 A 
ATOM     38  C   UNL     1      10.097  -3.271  -1.536  1.00  0.00     0.014 A 
ATOM     39  C   UNL     1       8.405  -3.653  -3.228  1.00  0.00     0.014 A 
ATOM     40  C   UNL     1      10.633  -4.534  -1.795  1.00  0.00     0.010 A 
ATOM     41  C   UNL     1       8.898  -4.940  -3.433  1.00  0.00     0.010 A 
ATOM     42  C   UNL     1      10.011  -5.398  -2.712  1.00  0.00    -0.014 A 
BRANCH  42  43
ATOM     43  C   UNL     1      10.497  -6.790  -2.904  1.00  0.00     0.031 A 
ATOM     44  C   UNL     1      11.037  -7.228  -4.238  1.00  0.00     0.074 A 
ATOM     45  C   UNL     1      10.397  -7.672  -1.889  1.00  0.00     0.049 A 
ATOM     46  N   UNL     1      11.447  -8.412  -4.614  1.00  0.00    -0.248 NA
ATOM     47  C   UNL     1      11.101  -6.207  -5.295  1.00  0.00     0.031 C 
ATOM     48  C   UNL     1       9.856  -7.373  -0.560  1.00  0.00     0.029 A 
ATOM     49  N   UNL     1      10.737  -9.000  -1.812  1.00  0.00    -0.354 N 
ATOM     50  C   UNL     1      11.810  -8.283  -5.950  1.00  0.00     0.074 A 
ATOM     51  C   UNL     1      11.518  -6.918  -6.333  1.00  0.00     0.031 C 
ATOM     52  C   UNL     1       9.925  -8.475   0.203  1.00  0.00     0.029 A 
ATOM     53  C   UNL     1      10.463  -9.574  -0.591  1.00  0.00     0.049 A 
ATOM     54  H   UNL     1      11.140  -9.496  -2.561  1.00  0.00     0.167 HD
ATOM     55  C   UNL     1      12.354  -9.212  -6.774  1.00  0.00     0.034 A 
ATOM     56  C   UNL     1      10.611 -10.845  -0.165  1.00  0.00     0.034 A 
ATOM     57  C   UNL     1      12.646 -10.568  -6.374  1.00  0.00     0.049 A 
ATOM     58  C   UNL     1      11.184 -11.867  -1.115  1.00  0.00     0.074 A 
ATOM     59  C   UNL     1      13.250 -11.571  -7.112  1.00  0.00     0.029 A 
ATOM     60  N   UNL     1      12.347 -11.116  -5.133  1.00  0.00    -0.354 N 
ATOM     61  N   UNL     1      11.578 -11.711  -2.358  1.00  0.00    -0.248 NA
ATOM     62  C   UNL     1      11.344 -13.234  -0.602  1.00  0.00     0.031 C 
ATOM     63  C   UNL     1      13.244 -12.743  -6.349  1.00  0.00     0.029 A 
ATOM     64  C   UNL     1      12.718 -12.452  -5.101  1.00  0.00     0.049 A 
ATOM     65  H   UNL     1      11.931 -10.627  -4.386  1.00  0.00     0.167 HD
ATOM     66  C   UNL     1      12.063 -12.953  -2.761  1.00  0.00     0.074 A 
ATOM     67  C   UNL     1      11.931 -13.838  -1.623  1.00  0.00     0.031 C 
ATOM     68  C   UNL     1      12.573 -13.328  -3.962  1.00  0.00     0.034 A 
BRANCH  55  69
ATOM     69  C   UNL     1      12.645  -8.803  -8.198  1.00  0.00     0.023 A 
ATOM     70  C   UNL     1      13.591  -7.809  -8.505  1.00  0.00     0.031 A 
ATOM     71  C   UNL     1      11.973  -9.423  -9.267  1.00  0.00     0.131 A 
ATOM     72  C   UNL     1      13.795  -7.423  -9.839  1.00  0.00     0.055 A 
ATOM     73  C   UNL     1      12.237  -9.090 -10.596  1.00  0.00     0.041 A 
ATOM     74  F   UNL     1      11.044 -10.364  -9.035  1.00  0.00    -0.206 F 
ATOM     75  C   UNL     1      13.144  -8.076 -10.889  1.00  0.00     0.022 A 
BRANCH  72  76
ATOM     76  S   UNL     1      14.832  -5.974 -10.174  1.00  0.00     0.124 S 
ATOM     77  O   UNL     1      14.122  -4.928  -9.443  1.00  0.00    -0.237 OA
ATOM     78  O   UNL     1      16.122  -6.375  -9.624  1.00  0.00    -0.237 OA
ATOM     79  O   UNL     1      14.786  -5.849 -11.630  1.00  0.00    -0.744 OA
ENDBRANCH  72  76
ENDBRANCH  55  69
BRANCH  56  80
ATOM     80  C   UNL     1      10.193 -11.241   1.213  1.00  0.00     0.023 A 
ATOM     81  C   UNL     1      11.123 -11.746   2.135  1.00  0.00     0.031 A 
ATOM     82  C   UNL     1       8.843 -11.184   1.606  1.00  0.00     0.131 A 
ATOM     83  C   UNL     1      10.686 -12.233   3.377  1.00  0.00     0.055 A 
ATOM     84  C   UNL     1       8.422 -11.610   2.868  1.00  0.00     0.041 A 
ATOM     85  F   UNL     1       7.909 -10.708   0.767  1.00  0.00    -0.206 F 
ATOM     86  C   UNL     1       9.344 -12.155   3.755  1.00  0.00     0.022 A 
BRANCH  83  87
ATOM     87  S   UNL     1      11.882 -13.081   4.446  1.00  0.00     0.124 S 
ATOM     88  O   UNL     1      12.372 -14.134   3.564  1.00  0.00    -0.237 OA
ATOM     89  O   UNL     1      12.823 -12.010   4.754  1.00  0.00    -0.237 OA
ATOM     90  O   UNL     1      11.068 -13.536   5.571  1.00  0.00    -0.744 OA
ENDBRANCH  83  87
ENDBRANCH  56  80
BRANCH  68  91
ATOM     91  C   UNL     1      13.071 -14.748  -4.084  1.00  0.00     0.023 A 
ATOM     92  C   UNL     1      12.200 -15.849  -4.000  1.00  0.00     0.031 A 
ATOM     93  C   UNL     1      14.441 -15.003  -4.273  1.00  0.00     0.131 A 
ATOM     94  C   UNL     1      12.716 -17.153  -4.043  1.00  0.00     0.055 A 
ATOM     95  C   UNL     1      14.939 -16.302  -4.385  1.00  0.00     0.041 A 
ATOM     96  F   UNL     1      15.320 -13.991  -4.357  1.00  0.00    -0.206 F 
ATOM     97  C   UNL     1      14.077 -17.386  -4.255  1.00  0.00     0.022 A 
BRANCH  94  98
ATOM     98  S   UNL     1      11.597 -18.543  -3.717  1.00  0.00     0.124 S 
ATOM     99  O   UNL     1      11.095 -18.222  -2.385  1.00  0.00    -0.237 OA
ATOM    100  O   UNL     1      10.633 -18.431  -4.807  1.00  0.00    -0.237 OA
ATOM    101  O   UNL     1      12.473 -19.712  -3.784  1.00  0.00    -0.744 OA
ENDBRANCH  94  98
ENDBRANCH  68  91
ENDBRANCH  42  43
ENDBRANCH  34  37
ENDBRANCH  32  33
ENDBRANCH  31  32
ENDBRANCH   1  31
TORSDOF 20
