REMARK SMILES O=C(NCCCCNC(=O)[C@@H]1CC(=O)N(CCO)C1)c1ccc(-c2c3nc(c(-c4cc(S(=O)(=O)[O-])ccc4F)c4ccc([nH]4)c(-c4cc(S(=O)(=O)[O-])ccc4F)c4nc(c(-c5cc(S(=O)(=O)[O-])ccc5F)c5ccc2[nH]5)C=C4)C=C3)cc1
REMARK SMILES IDX 5 1 4 2 3 3 1 4 2 5 20 7 21 8 82 9 22 10 81 11 23 12 24 13
REMARK SMILES IDX 25 14 75 15 26 16 80 17 74 18 76 19 27 20 79 21 73 22 72 23
REMARK SMILES IDX 28 25 60 26 40 27 59 28 41 29 44 30 58 31 77 32 42 33 43 34
REMARK SMILES IDX 57 36 78 37 45 38 29 39 30 40 38 41 31 42 37 43 39 44 36 45
REMARK SMILES IDX 32 46 33 47 34 48 35 49 61 50 62 51 70 52 63 53 69 54 71 55
REMARK SMILES IDX 68 56 64 57 65 58 66 59 67 60 46 61 47 62 55 63 48 64 54 65
REMARK SMILES IDX 56 66 53 67 49 68 50 69 51 70 52 71 6 72 7 73 8 74 9 75
REMARK SMILES IDX 10 77 11 78 12 79 19 80 13 81 15 82 14 83 16 84 17 85 18 86
REMARK H PARENT 3 6 76 24 44 35 8 76 18 87
REMARK Flexibility Score: inf
ROOT
ATOM      1  C   UNL     1       4.906  -2.482  -0.605  1.00  0.00     0.023 C 
ENDROOT
BRANCH   1   2
ATOM      2  C   UNL     1       4.576  -1.003  -0.671  1.00  0.00     0.116 C 
BRANCH   2   3
ATOM      3  N   UNL     1       3.147  -0.739  -0.801  1.00  0.00    -0.352 N 
ATOM      4  O   UNL     1       1.150   0.145  -0.212  1.00  0.00    -0.269 OA
ATOM      5  C   UNL     1       2.366   0.123  -0.064  1.00  0.00     0.251 C 
ATOM      6  H   UNL     1       2.681  -1.242  -1.507  1.00  0.00     0.163 HD
BRANCH   5   7
ATOM      7  C   UNL     1       3.025   0.993   0.932  1.00  0.00     0.039 A 
ATOM      8  C   UNL     1       4.192   1.674   0.584  1.00  0.00     0.014 A 
ATOM      9  C   UNL     1       2.536   1.043   2.238  1.00  0.00     0.014 A 
ATOM     10  C   UNL     1       4.979   2.223   1.583  1.00  0.00     0.010 A 
ATOM     11  C   UNL     1       3.271   1.714   3.220  1.00  0.00     0.010 A 
ATOM     12  C   UNL     1       4.525   2.266   2.912  1.00  0.00    -0.014 A 
BRANCH  12  13
ATOM     13  C   UNL     1       5.377   2.925   3.938  1.00  0.00     0.031 A 
ATOM     14  C   UNL     1       5.903   2.165   5.127  1.00  0.00     0.074 A 
ATOM     15  C   UNL     1       5.721   4.215   3.752  1.00  0.00     0.049 A 
ATOM     16  N   UNL     1       6.681   2.584   6.093  1.00  0.00    -0.248 NA
ATOM     17  C   UNL     1       5.495   0.758   5.257  1.00  0.00     0.031 C 
ATOM     18  C   UNL     1       5.273   5.050   2.632  1.00  0.00     0.029 A 
ATOM     19  N   UNL     1       6.543   5.043   4.469  1.00  0.00    -0.354 N 
ATOM     20  C   UNL     1       6.835   1.506   6.960  1.00  0.00     0.074 A 
ATOM     21  C   UNL     1       6.039   0.424   6.419  1.00  0.00     0.031 C 
ATOM     22  C   UNL     1       5.882   6.240   2.698  1.00  0.00     0.029 A 
ATOM     23  C   UNL     1       6.685   6.293   3.912  1.00  0.00     0.049 A 
ATOM     24  H   UNL     1       6.990   4.770   5.303  1.00  0.00     0.167 HD
ATOM     25  C   UNL     1       7.575   1.430   8.096  1.00  0.00     0.034 A 
ATOM     26  C   UNL     1       7.364   7.374   4.340  1.00  0.00     0.034 A 
ATOM     27  C   UNL     1       8.368   2.523   8.612  1.00  0.00     0.049 A 
ATOM     28  C   UNL     1       8.136   7.274   5.626  1.00  0.00     0.074 A 
ATOM     29  C   UNL     1       9.181   2.543   9.732  1.00  0.00     0.029 A 
ATOM     30  N   UNL     1       8.440   3.794   8.053  1.00  0.00    -0.354 N 
ATOM     31  N   UNL     1       8.282   6.242   6.425  1.00  0.00    -0.248 NA
ATOM     32  C   UNL     1       8.840   8.483   6.064  1.00  0.00     0.031 C 
ATOM     33  C   UNL     1       9.673   3.842   9.898  1.00  0.00     0.029 A 
ATOM     34  C   UNL     1       9.251   4.613   8.826  1.00  0.00     0.049 A 
ATOM     35  H   UNL     1       7.982   4.073   7.227  1.00  0.00     0.167 HD
ATOM     36  C   UNL     1       9.126   6.671   7.444  1.00  0.00     0.074 A 
ATOM     37  C   UNL     1       9.468   8.047   7.144  1.00  0.00     0.031 C 
ATOM     38  C   UNL     1       9.579   5.988   8.527  1.00  0.00     0.034 A 
BRANCH  25  39
ATOM     39  C   UNL     1       7.516   0.142   8.888  1.00  0.00     0.023 A 
ATOM     40  C   UNL     1       7.959  -1.083   8.359  1.00  0.00     0.031 A 
ATOM     41  C   UNL     1       6.991   0.138  10.194  1.00  0.00     0.131 A 
ATOM     42  C   UNL     1       7.800  -2.266   9.100  1.00  0.00     0.055 A 
ATOM     43  C   UNL     1       6.916  -1.028  10.958  1.00  0.00     0.041 A 
ATOM     44  F   UNL     1       6.530   1.270  10.748  1.00  0.00    -0.206 F 
ATOM     45  C   UNL     1       7.307  -2.243  10.406  1.00  0.00     0.022 A 
BRANCH  42  46
ATOM     46  S   UNL     1       8.100  -3.853   8.273  1.00  0.00     0.124 S 
ATOM     47  O   UNL     1       7.186  -3.771   7.135  1.00  0.00    -0.237 OA
ATOM     48  O   UNL     1       9.522  -3.780   7.957  1.00  0.00    -0.237 OA
ATOM     49  O   UNL     1       7.735  -4.842   9.285  1.00  0.00    -0.744 OA
ENDBRANCH  42  46
ENDBRANCH  25  39
BRANCH  26  50
ATOM     50  C   UNL     1       7.320   8.646   3.563  1.00  0.00     0.023 A 
ATOM     51  C   UNL     1       8.488   9.203   3.023  1.00  0.00     0.031 A 
ATOM     52  C   UNL     1       6.111   9.343   3.382  1.00  0.00     0.131 A 
ATOM     53  C   UNL     1       8.432  10.445   2.373  1.00  0.00     0.055 A 
ATOM     54  C   UNL     1       6.050  10.544   2.676  1.00  0.00     0.041 A 
ATOM     55  F   UNL     1       4.962   8.853   3.876  1.00  0.00    -0.206 F 
ATOM     56  C   UNL     1       7.219  11.111   2.181  1.00  0.00     0.022 A 
BRANCH  53  57
ATOM     57  S   UNL     1       9.988  11.229   1.871  1.00  0.00     0.124 S 
ATOM     58  O   UNL     1      10.702  11.308   3.140  1.00  0.00    -0.237 OA
ATOM     59  O   UNL     1      10.508  10.273   0.899  1.00  0.00    -0.237 OA
ATOM     60  O   UNL     1       9.558  12.510   1.314  1.00  0.00    -0.744 OA
ENDBRANCH  53  57
ENDBRANCH  26  50
BRANCH  38  61
ATOM     61  C   UNL     1      10.549   6.712   9.431  1.00  0.00     0.023 A 
ATOM     62  C   UNL     1      10.182   7.864  10.149  1.00  0.00     0.031 A 
ATOM     63  C   UNL     1      11.877   6.261   9.543  1.00  0.00     0.131 A 
ATOM     64  C   UNL     1      11.149   8.569  10.882  1.00  0.00     0.055 A 
ATOM     65  C   UNL     1      12.815   6.923  10.337  1.00  0.00     0.041 A 
ATOM     66  F   UNL     1      12.288   5.171   8.876  1.00  0.00    -0.206 F 
ATOM     67  C   UNL     1      12.458   8.094  10.998  1.00  0.00     0.022 A 
BRANCH  64  68
ATOM     68  S   UNL     1      10.707  10.187  11.575  1.00  0.00     0.124 S 
ATOM     69  O   UNL     1      10.260  10.911  10.390  1.00  0.00    -0.237 OA
ATOM     70  O   UNL     1       9.669   9.840  12.539  1.00  0.00    -0.237 OA
ATOM     71  O   UNL     1      11.960  10.664  12.158  1.00  0.00    -0.744 OA
ENDBRANCH  64  68
ENDBRANCH  38  61
ENDBRANCH  12  13
ENDBRANCH   5   7
ENDBRANCH   2   3
ENDBRANCH   1   2
BRANCH   1  72
ATOM     72  C   UNL     1       4.434  -3.288  -1.809  1.00  0.00     0.023 C 
BRANCH  72  73
ATOM     73  C   UNL     1       4.975  -2.795  -3.153  1.00  0.00     0.116 C 
BRANCH  73  74
ATOM     74  N   UNL     1       6.408  -2.989  -3.249  1.00  0.00    -0.356 N 
ATOM     75  C   UNL     1       7.117  -3.919  -3.947  1.00  0.00     0.225 C 
ATOM     76  H   UNL     1       6.951  -2.351  -2.732  1.00  0.00     0.163 HD
ATOM     77  O   UNL     1       8.344  -3.887  -3.860  1.00  0.00    -0.275 OA
BRANCH  75  78
ATOM     78  C   UNL     1       6.392  -4.872  -4.888  1.00  0.00     0.107 C 
ATOM     79  C   UNL     1       5.387  -5.804  -4.210  1.00  0.00     0.115 C 
ATOM     80  C   UNL     1       7.357  -5.826  -5.582  1.00  0.00     0.133 C 
ATOM     81  C   UNL     1       6.119  -7.101  -4.049  1.00  0.00     0.223 C 
ATOM     82  N   UNL     1       7.254  -7.051  -4.825  1.00  0.00    -0.340 N 
ATOM     83  O   UNL     1       5.724  -8.052  -3.388  1.00  0.00    -0.275 OA
BRANCH  82  84
ATOM     84  C   UNL     1       8.194  -8.156  -4.937  1.00  0.00     0.147 C 
BRANCH  84  85
ATOM     85  C   UNL     1       7.856  -9.094  -6.095  1.00  0.00     0.177 C 
BRANCH  85  86
ATOM     86  O   UNL     1       8.252  -8.538  -7.347  1.00  0.00    -0.395 OA
ATOM     87  H   UNL     1       7.780  -7.703  -7.494  1.00  0.00     0.210 HD
ENDBRANCH  85  86
ENDBRANCH  84  85
ENDBRANCH  82  84
ENDBRANCH  75  78
ENDBRANCH  73  74
ENDBRANCH  72  73
ENDBRANCH   1  72
TORSDOF 17
