REMARK SMILES CC1(c2ccc(C(=O)NCCCCNC(=O)c3ccc(-c4c5nc(c(-c6cc(S(=O)(=O)[O-])ccc6F)c6ccc([nH]6)c(-c6cc(S(=O)(=O)[O-])ccc6F)c6nc(c(-c7cc(S(=O)(=O)[O-])ccc7F)c7ccc4[nH]7)C=C6)C=C5)cc3)cc2)CC1
REMARK SMILES IDX 12 1 11 2 10 3 9 4 7 5 8 6 6 8 3 9 4 10 81 11 5 12 80 13
REMARK SMILES IDX 2 14 1 15 82 16 83 17 13 18 14 19 15 20 16 22 17 23 18 24
REMARK SMILES IDX 79 25 19 26 78 27 20 28 21 29 22 30 72 31 23 32 77 33 71 34
REMARK SMILES IDX 73 35 24 36 76 37 70 38 69 39 25 41 57 42 37 43 56 44 38 45
REMARK SMILES IDX 41 46 55 47 74 48 39 49 40 50 54 52 75 53 42 54 26 55 27 56
REMARK SMILES IDX 35 57 28 58 34 59 36 60 33 61 29 62 30 63 31 64 32 65 58 66
REMARK SMILES IDX 59 67 67 68 60 69 66 70 68 71 65 72 61 73 62 74 63 75 64 76
REMARK SMILES IDX 43 77 44 78 52 79 45 80 51 81 53 82 50 83 46 84 47 85 48 86
REMARK SMILES IDX 49 87
REMARK H PARENT 9 7 14 21 73 40 41 51
REMARK Flexibility Score: inf
ROOT
ATOM      1  C   UNL     1       0.163  -6.901   1.881  1.00  0.00     0.023 C 
ENDROOT
BRANCH   1   2
ATOM      2  C   UNL     1      -0.146  -5.462   1.448  1.00  0.00     0.023 C 
BRANCH   2   3
ATOM      3  C   UNL     1      -1.221  -4.779   2.297  1.00  0.00     0.116 C 
BRANCH   3   4
ATOM      4  N   UNL     1      -0.642  -4.157   3.467  1.00  0.00    -0.352 N 
ATOM      5  C   UNL     1      -0.220  -2.883   3.742  1.00  0.00     0.251 C 
ATOM      6  O   UNL     1       0.189  -2.677   4.888  1.00  0.00    -0.269 OA
ATOM      7  H   UNL     1      -0.527  -4.777   4.223  1.00  0.00     0.163 HD
BRANCH   5   8
ATOM      8  C   UNL     1      -0.191  -1.755   2.760  1.00  0.00     0.039 A 
ATOM      9  C   UNL     1       0.322   0.457   1.035  1.00  0.00    -0.042 A 
ATOM     10  C   UNL     1       0.389   0.597   2.426  1.00  0.00     0.005 A 
ATOM     11  C   UNL     1      -0.130  -0.772   0.537  1.00  0.00     0.005 A 
ATOM     12  C   UNL     1       0.125  -0.486   3.274  1.00  0.00     0.014 A 
ATOM     13  C   UNL     1      -0.339  -1.871   1.379  1.00  0.00     0.014 A 
BRANCH   9  14
ATOM     14  C   UNL     1       0.917   1.475   0.079  1.00  0.00    -0.007 C 
ATOM     15  C   UNL     1       2.205   0.992  -0.556  1.00  0.00     0.016 C 
ATOM     16  C   UNL     1       0.760   2.961   0.328  1.00  0.00     0.012 C 
ATOM     17  C   UNL     1      -0.007   2.309  -0.783  1.00  0.00     0.012 C 
ENDBRANCH   9  14
ENDBRANCH   5   8
ENDBRANCH   3   4
ENDBRANCH   2   3
ENDBRANCH   1   2
BRANCH   1  18
ATOM     18  C   UNL     1      -1.026  -7.857   1.810  1.00  0.00     0.116 C 
BRANCH  18  19
ATOM     19  N   UNL     1      -1.640  -7.907   0.495  1.00  0.00    -0.352 N 
ATOM     20  C   UNL     1      -2.358  -8.937  -0.074  1.00  0.00     0.251 C 
ATOM     21  H   UNL     1      -1.529  -7.103  -0.062  1.00  0.00     0.163 HD
ATOM     22  O   UNL     1      -2.700  -8.871  -1.240  1.00  0.00    -0.269 OA
BRANCH  20  23
ATOM     23  C   UNL     1      -2.658 -10.134   0.743  1.00  0.00     0.039 A 
ATOM     24  C   UNL     1      -2.385 -11.392   0.207  1.00  0.00     0.014 A 
ATOM     25  C   UNL     1      -3.178 -10.011   2.034  1.00  0.00     0.014 A 
ATOM     26  C   UNL     1      -2.587 -12.530   0.989  1.00  0.00     0.010 A 
ATOM     27  C   UNL     1      -3.304 -11.140   2.839  1.00  0.00     0.010 A 
ATOM     28  C   UNL     1      -3.021 -12.412   2.321  1.00  0.00    -0.014 A 
BRANCH  28  29
ATOM     29  C   UNL     1      -3.202 -13.618   3.167  1.00  0.00     0.031 A 
ATOM     30  C   UNL     1      -4.572 -13.994   3.660  1.00  0.00     0.074 A 
ATOM     31  C   UNL     1      -2.127 -14.354   3.511  1.00  0.00     0.049 A 
ATOM     32  N   UNL     1      -4.935 -15.010   4.401  1.00  0.00    -0.248 NA
ATOM     33  C   UNL     1      -5.676 -13.092   3.298  1.00  0.00     0.031 C 
ATOM     34  C   UNL     1      -0.742 -14.053   3.139  1.00  0.00     0.029 A 
ATOM     35  N   UNL     1      -2.027 -15.508   4.245  1.00  0.00    -0.354 N 
ATOM     36  C   UNL     1      -6.305 -14.866   4.597  1.00  0.00     0.074 A 
ATOM     37  C   UNL     1      -6.690 -13.624   3.961  1.00  0.00     0.031 C 
ATOM     38  C   UNL     1       0.061 -15.018   3.613  1.00  0.00     0.029 A 
ATOM     39  C   UNL     1      -0.742 -15.986   4.353  1.00  0.00     0.049 A 
ATOM     40  H   UNL     1      -2.804 -15.953   4.657  1.00  0.00     0.167 HD
ATOM     41  C   UNL     1      -7.167 -15.706   5.222  1.00  0.00     0.034 A 
ATOM     42  C   UNL     1      -0.267 -17.083   4.975  1.00  0.00     0.034 A 
ATOM     43  C   UNL     1      -6.763 -16.944   5.845  1.00  0.00     0.049 A 
ATOM     44  C   UNL     1      -1.243 -18.002   5.665  1.00  0.00     0.074 A 
ATOM     45  C   UNL     1      -7.553 -17.896   6.466  1.00  0.00     0.029 A 
ATOM     46  N   UNL     1      -5.453 -17.401   5.932  1.00  0.00    -0.354 N 
ATOM     47  N   UNL     1      -2.546 -17.886   5.786  1.00  0.00    -0.248 NA
ATOM     48  C   UNL     1      -0.685 -19.210   6.283  1.00  0.00     0.031 C 
ATOM     49  C   UNL     1      -6.716 -18.891   6.985  1.00  0.00     0.029 A 
ATOM     50  C   UNL     1      -5.410 -18.605   6.619  1.00  0.00     0.049 A 
ATOM     51  H   UNL     1      -4.669 -16.936   5.559  1.00  0.00     0.167 HD
ATOM     52  C   UNL     1      -2.966 -19.024   6.469  1.00  0.00     0.074 A 
ATOM     53  C   UNL     1      -1.780 -19.823   6.707  1.00  0.00     0.031 C 
ATOM     54  C   UNL     1      -4.216 -19.380   6.864  1.00  0.00     0.034 A 
BRANCH  41  55
ATOM     55  C   UNL     1      -8.620 -15.294   5.277  1.00  0.00     0.023 A 
ATOM     56  C   UNL     1      -9.382 -15.117   4.107  1.00  0.00     0.031 A 
ATOM     57  C   UNL     1      -9.244 -15.036   6.510  1.00  0.00     0.131 A 
ATOM     58  C   UNL     1     -10.690 -14.617   4.190  1.00  0.00     0.055 A 
ATOM     59  C   UNL     1     -10.576 -14.623   6.590  1.00  0.00     0.041 A 
ATOM     60  F   UNL     1      -8.565 -15.165   7.661  1.00  0.00    -0.206 F 
ATOM     61  C   UNL     1     -11.302 -14.394   5.424  1.00  0.00     0.022 A 
BRANCH  58  62
ATOM     62  S   UNL     1     -11.524 -14.116   2.658  1.00  0.00     0.124 S 
ATOM     63  O   UNL     1     -10.607 -13.101   2.143  1.00  0.00    -0.237 OA
ATOM     64  O   UNL     1     -11.583 -15.364   1.908  1.00  0.00    -0.237 OA
ATOM     65  O   UNL     1     -12.812 -13.603   3.121  1.00  0.00    -0.744 OA
ENDBRANCH  58  62
ENDBRANCH  41  55
BRANCH  42  66
ATOM     66  C   UNL     1       1.194 -17.385   4.971  1.00  0.00     0.023 A 
ATOM     67  C   UNL     1       1.695 -18.536   4.342  1.00  0.00     0.031 A 
ATOM     68  C   UNL     1       2.106 -16.550   5.640  1.00  0.00     0.131 A 
ATOM     69  C   UNL     1       3.060 -18.849   4.438  1.00  0.00     0.055 A 
ATOM     70  C   UNL     1       3.472 -16.836   5.686  1.00  0.00     0.041 A 
ATOM     71  F   UNL     1       1.682 -15.433   6.252  1.00  0.00    -0.206 F 
ATOM     72  C   UNL     1       3.954 -18.000   5.095  1.00  0.00     0.022 A 
BRANCH  69  73
ATOM     73  S   UNL     1       3.638 -20.432   3.767  1.00  0.00     0.124 S 
ATOM     74  O   UNL     1       2.815 -21.385   4.503  1.00  0.00    -0.237 OA
ATOM     75  O   UNL     1       3.336 -20.286   2.347  1.00  0.00    -0.237 OA
ATOM     76  O   UNL     1       5.060 -20.444   4.101  1.00  0.00    -0.744 OA
ENDBRANCH  69  73
ENDBRANCH  42  66
BRANCH  54  77
ATOM     77  C   UNL     1      -4.354 -20.713   7.562  1.00  0.00     0.023 A 
ATOM     78  C   UNL     1      -3.747 -20.964   8.805  1.00  0.00     0.031 A 
ATOM     79  C   UNL     1      -5.067 -21.762   6.953  1.00  0.00     0.131 A 
ATOM     80  C   UNL     1      -3.795 -22.251   9.360  1.00  0.00     0.055 A 
ATOM     81  C   UNL     1      -5.174 -23.020   7.546  1.00  0.00     0.041 A 
ATOM     82  F   UNL     1      -5.667 -21.582   5.765  1.00  0.00    -0.206 F 
ATOM     83  C   UNL     1      -4.520 -23.276   8.747  1.00  0.00     0.022 A 
BRANCH  80  84
ATOM     84  S   UNL     1      -2.787 -22.602  10.827  1.00  0.00     0.124 S 
ATOM     85  O   UNL     1      -1.453 -22.218  10.377  1.00  0.00    -0.237 OA
ATOM     86  O   UNL     1      -3.393 -21.738  11.835  1.00  0.00    -0.237 OA
ATOM     87  O   UNL     1      -2.981 -24.035  11.041  1.00  0.00    -0.744 OA
ENDBRANCH  80  84
ENDBRANCH  54  77
ENDBRANCH  28  29
ENDBRANCH  20  23
ENDBRANCH  18  19
ENDBRANCH   1  18
TORSDOF 15
