REMARK SMILES Cc1cc(CNC(=O)C[C@H](C)CC(=O)NCCCCNC(=O)c2ccc(-c3c4nc(c(-c5cc(S(=O)(=O)[O-])ccc5F)c5ccc([nH]5)c(-c5cc(S(=O)(=O)[O-])ccc5F)c5nc(c(-c6cc(S(=O)(=O)[O-])ccc6F)c6ccc3[nH]6)C=C5)C=C4)cc2)cc(C)c1F
REMARK SMILES IDX 16 1 15 2 13 3 14 4 12 6 10 7 11 8 9 9 7 10 6 11 8 13 5 14
REMARK SMILES IDX 4 15 1 16 2 17 3 18 89 19 87 20 90 21 86 22 88 23 17 24
REMARK SMILES IDX 18 25 19 26 20 27 21 28 22 30 23 31 24 32 85 33 25 34 84 35
REMARK SMILES IDX 26 36 27 37 28 38 78 39 29 40 83 41 77 42 79 43 30 44 82 45
REMARK SMILES IDX 76 46 75 47 31 49 63 50 43 51 62 52 44 53 47 54 61 55 80 56
REMARK SMILES IDX 45 57 46 58 60 60 81 61 48 62 32 63 33 64 41 65 34 66 40 67
REMARK SMILES IDX 42 68 39 69 35 70 36 71 37 72 38 73 64 74 65 75 73 76 66 77
REMARK SMILES IDX 72 78 74 79 71 80 67 81 68 82 69 83 70 84 49 85 50 86 58 87
REMARK SMILES IDX 51 88 57 89 59 90 56 91 52 92 53 93 54 94 55 95
REMARK H PARENT 15 5 6 12 20 29 79 48 47 59
REMARK Flexibility Score: inf
ROOT
ATOM      1  C   UNL     1       4.646  -5.730   4.685  1.00  0.00     0.116 C 
ENDROOT
BRANCH   1   2
ATOM      2  N   UNL     1       4.414  -4.357   5.087  1.00  0.00    -0.356 N 
ATOM      3  C   UNL     1       3.386  -3.524   4.764  1.00  0.00     0.220 C 
ATOM      4  O   UNL     1       3.424  -2.353   5.144  1.00  0.00    -0.275 OA
ATOM      5  H   UNL     1       5.098  -3.971   5.680  1.00  0.00     0.163 HD
BRANCH   3   6
ATOM      6  C   UNL     1       2.214  -4.030   3.938  1.00  0.00     0.103 C 
BRANCH   6   7
ATOM      7  C   UNL     1       2.478  -3.953   2.421  1.00  0.00     0.004 C 
ATOM      8  C   UNL     1       2.644  -5.351   1.810  1.00  0.00     0.009 C 
BRANCH   7   9
ATOM      9  C   UNL     1       1.351  -3.191   1.696  1.00  0.00     0.103 C 
BRANCH   9  10
ATOM     10  C   UNL     1       1.542  -3.170   0.187  1.00  0.00     0.220 C 
ATOM     11  N   UNL     1       2.562  -2.453  -0.361  1.00  0.00    -0.352 N 
ATOM     12  H   UNL     1       2.815  -2.699  -1.280  1.00  0.00     0.163 HD
ATOM     13  O   UNL     1       0.820  -3.842  -0.551  1.00  0.00    -0.275 OA
BRANCH  11  14
ATOM     14  C   UNL     1       3.319  -1.376   0.237  1.00  0.00     0.151 C 
BRANCH  14  15
ATOM     15  C   UNL     1       4.806  -1.483   0.000  1.00  0.00    -0.028 A 
ATOM     16  C   UNL     1       7.718  -3.717   1.036  1.00  0.00     0.047 C 
ATOM     17  C   UNL     1       6.942  -2.601   0.405  1.00  0.00    -0.015 A 
ATOM     18  C   UNL     1       5.542  -2.581   0.473  1.00  0.00     0.012 A 
ATOM     19  C   UNL     1       7.603  -1.515  -0.168  1.00  0.00     0.129 A 
ATOM     20  C   UNL     1       6.899  -0.423  -0.679  1.00  0.00    -0.015 A 
ATOM     21  F   UNL     1       8.943  -1.516  -0.218  1.00  0.00    -0.206 F 
ATOM     22  C   UNL     1       5.499  -0.415  -0.591  1.00  0.00     0.012 A 
ATOM     23  C   UNL     1       7.621   0.739  -1.289  1.00  0.00     0.047 C 
ENDBRANCH  14  15
ENDBRANCH  11  14
ENDBRANCH   9  10
ENDBRANCH   7   9
ENDBRANCH   6   7
ENDBRANCH   3   6
ENDBRANCH   1   2
BRANCH   1  24
ATOM     24  C   UNL     1       5.667  -5.798   3.548  1.00  0.00     0.023 C 
BRANCH  24  25
ATOM     25  C   UNL     1       7.112  -5.925   4.014  1.00  0.00     0.023 C 
BRANCH  25  26
ATOM     26  C   UNL     1       7.426  -7.257   4.681  1.00  0.00     0.116 C 
BRANCH  26  27
ATOM     27  N   UNL     1       7.235  -8.401   3.792  1.00  0.00    -0.352 N 
ATOM     28  C   UNL     1       8.120  -9.412   3.501  1.00  0.00     0.251 C 
ATOM     29  H   UNL     1       6.360  -8.454   3.344  1.00  0.00     0.163 HD
ATOM     30  O   UNL     1       7.862 -10.248   2.641  1.00  0.00    -0.269 OA
BRANCH  28  31
ATOM     31  C   UNL     1       9.399  -9.449   4.231  1.00  0.00     0.039 A 
ATOM     32  C   UNL     1      10.596  -9.453   3.515  1.00  0.00     0.014 A 
ATOM     33  C   UNL     1       9.393  -9.365   5.626  1.00  0.00     0.014 A 
ATOM     34  C   UNL     1      11.800  -9.297   4.202  1.00  0.00     0.010 A 
ATOM     35  C   UNL     1      10.582  -9.119   6.295  1.00  0.00     0.010 A 
ATOM     36  C   UNL     1      11.796  -9.094   5.591  1.00  0.00    -0.014 A 
BRANCH  36  37
ATOM     37  C   UNL     1      13.051  -8.891   6.351  1.00  0.00     0.031 A 
ATOM     38  C   UNL     1      13.460  -9.913   7.372  1.00  0.00     0.074 A 
ATOM     39  C   UNL     1      13.761  -7.758   6.191  1.00  0.00     0.049 A 
ATOM     40  N   UNL     1      14.471  -9.893   8.197  1.00  0.00    -0.248 NA
ATOM     41  C   UNL     1      12.593 -11.097   7.511  1.00  0.00     0.031 C 
ATOM     42  C   UNL     1      13.419  -6.668   5.276  1.00  0.00     0.029 A 
ATOM     43  N   UNL     1      14.912  -7.330   6.803  1.00  0.00    -0.354 N 
ATOM     44  C   UNL     1      14.344 -11.038   8.972  1.00  0.00     0.074 A 
ATOM     45  C   UNL     1      13.129 -11.702   8.559  1.00  0.00     0.031 C 
ATOM     46  C   UNL     1      14.354  -5.708   5.369  1.00  0.00     0.029 A 
ATOM     47  C   UNL     1      15.346  -6.100   6.368  1.00  0.00     0.049 A 
ATOM     48  H   UNL     1      15.383  -7.854   7.491  1.00  0.00     0.167 HD
ATOM     49  C   UNL     1      15.183 -11.510   9.921  1.00  0.00     0.034 A 
ATOM     50  C   UNL     1      16.426  -5.377   6.727  1.00  0.00     0.034 A 
ATOM     51  C   UNL     1      16.419 -10.870  10.276  1.00  0.00     0.049 A 
ATOM     52  C   UNL     1      17.378  -5.947   7.748  1.00  0.00     0.074 A 
ATOM     53  C   UNL     1      17.393 -11.322  11.146  1.00  0.00     0.029 A 
ATOM     54  N   UNL     1      16.854  -9.653   9.775  1.00  0.00    -0.354 N 
ATOM     55  N   UNL     1      17.304  -7.087   8.393  1.00  0.00    -0.248 NA
ATOM     56  C   UNL     1      18.562  -5.144   8.084  1.00  0.00     0.031 C 
ATOM     57  C   UNL     1      18.402 -10.358  11.201  1.00  0.00     0.029 A 
ATOM     58  C   UNL     1      18.077  -9.327  10.332  1.00  0.00     0.049 A 
ATOM     59  H   UNL     1      16.366  -9.103   9.121  1.00  0.00     0.167 HD
ATOM     60  C   UNL     1      18.443  -7.152   9.190  1.00  0.00     0.074 A 
ATOM     61  C   UNL     1      19.195  -5.940   8.938  1.00  0.00     0.031 C 
ATOM     62  C   UNL     1      18.828  -8.127  10.051  1.00  0.00     0.034 A 
BRANCH  49  63
ATOM     63  C   UNL     1      14.818 -12.790  10.621  1.00  0.00     0.023 A 
ATOM     64  C   UNL     1      14.530 -12.781  11.997  1.00  0.00     0.031 A 
ATOM     65  C   UNL     1      14.831 -14.024   9.947  1.00  0.00     0.131 A 
ATOM     66  C   UNL     1      14.279 -13.988  12.659  1.00  0.00     0.055 A 
ATOM     67  C   UNL     1      14.546 -15.220  10.604  1.00  0.00     0.041 A 
ATOM     68  F   UNL     1      15.094 -14.079   8.631  1.00  0.00    -0.206 F 
ATOM     69  C   UNL     1      14.276 -15.206  11.969  1.00  0.00     0.022 A 
BRANCH  66  70
ATOM     70  S   UNL     1      13.966 -14.028  14.444  1.00  0.00     0.124 S 
ATOM     71  O   UNL     1      12.697 -14.750  14.512  1.00  0.00    -0.237 OA
ATOM     72  O   UNL     1      15.128 -14.761  14.939  1.00  0.00    -0.237 OA
ATOM     73  O   UNL     1      13.897 -12.620  14.820  1.00  0.00    -0.744 OA
ENDBRANCH  66  70
ENDBRANCH  49  63
BRANCH  50  74
ATOM     74  C   UNL     1      16.700  -4.088   6.032  1.00  0.00     0.023 A 
ATOM     75  C   UNL     1      15.857  -2.974   6.194  1.00  0.00     0.031 A 
ATOM     76  C   UNL     1      17.754  -3.995   5.107  1.00  0.00     0.131 A 
ATOM     77  C   UNL     1      16.054  -1.834   5.403  1.00  0.00     0.055 A 
ATOM     78  C   UNL     1      17.978  -2.838   4.360  1.00  0.00     0.041 A 
ATOM     79  F   UNL     1      18.573  -5.039   4.912  1.00  0.00    -0.206 F 
ATOM     80  C   UNL     1      17.118  -1.753   4.498  1.00  0.00     0.022 A 
BRANCH  77  81
ATOM     81  S   UNL     1      14.886  -0.447   5.462  1.00  0.00     0.124 S 
ATOM     82  O   UNL     1      15.774   0.698   5.648  1.00  0.00    -0.237 OA
ATOM     83  O   UNL     1      14.249  -0.544   4.151  1.00  0.00    -0.237 OA
ATOM     84  O   UNL     1      14.030  -0.767   6.599  1.00  0.00    -0.744 OA
ENDBRANCH  77  81
ENDBRANCH  50  74
BRANCH  62  85
ATOM     85  C   UNL     1      20.128  -7.965  10.794  1.00  0.00     0.023 A 
ATOM     86  C   UNL     1      21.189  -8.855  10.546  1.00  0.00     0.031 A 
ATOM     87  C   UNL     1      20.245  -7.061  11.862  1.00  0.00     0.131 A 
ATOM     88  C   UNL     1      22.305  -8.857  11.391  1.00  0.00     0.055 A 
ATOM     89  C   UNL     1      21.379  -7.038  12.676  1.00  0.00     0.041 A 
ATOM     90  F   UNL     1      19.252  -6.202  12.140  1.00  0.00    -0.206 F 
ATOM     91  C   UNL     1      22.408  -7.949  12.450  1.00  0.00     0.022 A 
BRANCH  88  92
ATOM     92  S   UNL     1      23.623 -10.087  11.195  1.00  0.00     0.124 S 
ATOM     93  O   UNL     1      24.807  -9.243  11.051  1.00  0.00    -0.237 OA
ATOM     94  O   UNL     1      23.535 -10.831  12.448  1.00  0.00    -0.237 OA
ATOM     95  O   UNL     1      23.240 -10.826   9.996  1.00  0.00    -0.744 OA
ENDBRANCH  88  92
ENDBRANCH  62  85
ENDBRANCH  36  37
ENDBRANCH  28  31
ENDBRANCH  26  27
ENDBRANCH  25  26
ENDBRANCH  24  25
ENDBRANCH   1  24
TORSDOF 19
