REMARK SMILES CCCOC(=O)c1c(NC(=O)[C@@H]2CC=CC[C@H]2C(=O)NCCCCNC(=O)c2ccc(-c3c4nc(c(-c5cc(S(=O)(=O)[O-])ccc5F)c5ccc([nH]5)c(-c5cc(S(=O)(=O)[O-])ccc5F)c5nc(c(-c6cc(S(=O)(=O)[O-])ccc6F)c6ccc3[nH]6)C=C5)C=C4)cc2)sc2c1CCCC2
REMARK SMILES IDX 21 1 20 2 18 3 19 4 17 6 12 7 13 8 14 9 16 10 15 11 10 12
REMARK SMILES IDX 9 13 11 15 8 16 7 17 93 18 91 19 92 20 94 21 97 22 95 23
REMARK SMILES IDX 96 24 5 25 6 26 4 27 3 28 2 29 1 30 22 31 23 32 24 33 25 34
REMARK SMILES IDX 26 35 27 37 28 38 29 39 90 40 30 41 89 42 31 43 32 44 33 45
REMARK SMILES IDX 83 46 34 47 88 48 82 49 84 50 35 51 87 52 81 53 80 54 36 56
REMARK SMILES IDX 68 57 48 58 67 59 49 60 52 61 66 62 85 63 50 64 51 65 65 67
REMARK SMILES IDX 86 68 53 69 37 70 38 71 46 72 39 73 45 74 47 75 44 76 40 77
REMARK SMILES IDX 41 78 42 79 43 80 69 81 70 82 78 83 71 84 77 85 79 86 76 87
REMARK SMILES IDX 72 88 73 89 74 90 75 91 54 92 55 93 63 94 56 95 62 96 64 97
REMARK SMILES IDX 61 98 57 99 58 100 59 101 60 102
REMARK H PARENT 20 5 9 14 25 36 84 55 52 66
REMARK Flexibility Score: inf
ROOT
ATOM      1  C   UNL     1       0.217   3.068   0.575  1.00  0.00     0.116 C 
ENDROOT
BRANCH   1   2
ATOM      2  N   UNL     1       1.661   2.935   0.612  1.00  0.00    -0.356 N 
ATOM      3  C   UNL     1       2.458   1.853   0.357  1.00  0.00     0.224 C 
ATOM      4  O   UNL     1       3.554   2.106  -0.162  1.00  0.00    -0.275 OA
ATOM      5  H   UNL     1       2.145   3.755   0.862  1.00  0.00     0.163 HD
BRANCH   3   6
ATOM      6  C   UNL     1       2.114   0.375   0.653  1.00  0.00     0.095 C 
ATOM      7  C   UNL     1       1.254   0.066   1.870  1.00  0.00     0.095 C 
ATOM      8  C   UNL     1       1.378  -1.414   2.262  1.00  0.00     0.041 C 
ATOM      9  C   UNL     1       1.097  -2.298   1.082  1.00  0.00    -0.030 C 
ATOM     10  C   UNL     1       1.511  -0.409  -0.524  1.00  0.00     0.041 C 
ATOM     11  C   UNL     1       1.135  -1.835  -0.178  1.00  0.00    -0.030 C 
BRANCH   7  12
ATOM     12  C   UNL     1       1.536   0.912   3.054  1.00  0.00     0.229 C 
ATOM     13  N   UNL     1       0.513   1.344   3.827  1.00  0.00    -0.317 N 
ATOM     14  H   UNL     1       0.830   1.806   4.637  1.00  0.00     0.170 HD
ATOM     15  O   UNL     1       2.692   1.160   3.404  1.00  0.00    -0.274 OA
BRANCH  13  16
ATOM     16  C   UNL     1      -0.864   1.298   3.762  1.00  0.00     0.110 A 
ATOM     17  C   UNL     1      -1.948   0.956   2.942  1.00  0.00     0.098 A 
ATOM     18  C   UNL     1      -3.193   1.274   3.630  1.00  0.00    -0.017 A 
ATOM     19  S   UNL     1      -1.371   1.931   5.281  1.00  0.00    -0.122 S 
ATOM     20  C   UNL     1      -2.993   1.708   4.922  1.00  0.00     0.011 A 
ATOM     21  C   UNL     1      -4.583   1.095   3.082  1.00  0.00     0.038 C 
ATOM     22  C   UNL     1      -4.054   2.015   5.928  1.00  0.00     0.047 C 
ATOM     23  C   UNL     1      -5.625   1.815   3.953  1.00  0.00     0.005 C 
ATOM     24  C   UNL     1      -5.415   1.507   5.441  1.00  0.00     0.006 C 
BRANCH  17  25
ATOM     25  C   UNL     1      -2.002   0.333   1.610  1.00  0.00     0.341 C 
ATOM     26  O   UNL     1      -2.004  -0.896   1.470  1.00  0.00    -0.246 OA
BRANCH  25  27
ATOM     27  O   UNL     1      -2.153   1.214   0.562  1.00  0.00    -0.462 OA
BRANCH  27  28
ATOM     28  C   UNL     1      -2.324   0.625  -0.756  1.00  0.00     0.233 C 
BRANCH  28  29
ATOM     29  C   UNL     1      -2.001   1.601  -1.909  1.00  0.00     0.038 C 
ATOM     30  C   UNL     1      -0.598   1.509  -2.507  1.00  0.00     0.007 C 
ENDBRANCH  28  29
ENDBRANCH  27  28
ENDBRANCH  25  27
ENDBRANCH  17  25
ENDBRANCH  13  16
ENDBRANCH   7  12
ENDBRANCH   3   6
ENDBRANCH   1   2
BRANCH   1  31
ATOM     31  C   UNL     1      -0.422   3.976   1.637  1.00  0.00     0.023 C 
BRANCH  31  32
ATOM     32  C   UNL     1      -1.040   5.290   1.129  1.00  0.00     0.023 C 
BRANCH  32  33
ATOM     33  C   UNL     1      -2.210   5.187   0.141  1.00  0.00     0.116 C 
BRANCH  33  34
ATOM     34  N   UNL     1      -3.463   4.698   0.707  1.00  0.00    -0.352 N 
ATOM     35  C   UNL     1      -4.724   5.266   0.715  1.00  0.00     0.251 C 
ATOM     36  H   UNL     1      -3.401   3.824   1.155  1.00  0.00     0.163 HD
ATOM     37  O   UNL     1      -5.640   4.680   1.290  1.00  0.00    -0.269 OA
BRANCH  35  38
ATOM     38  C   UNL     1      -4.978   6.592   0.088  1.00  0.00     0.039 A 
ATOM     39  C   UNL     1      -5.698   7.556   0.805  1.00  0.00     0.014 A 
ATOM     40  C   UNL     1      -4.507   6.904  -1.188  1.00  0.00     0.014 A 
ATOM     41  C   UNL     1      -5.826   8.860   0.303  1.00  0.00     0.010 A 
ATOM     42  C   UNL     1      -4.576   8.221  -1.657  1.00  0.00     0.010 A 
ATOM     43  C   UNL     1      -5.205   9.225  -0.902  1.00  0.00    -0.014 A 
BRANCH  43  44
ATOM     44  C   UNL     1      -5.141  10.645  -1.365  1.00  0.00     0.031 A 
ATOM     45  C   UNL     1      -5.743  11.050  -2.686  1.00  0.00     0.074 A 
ATOM     46  C   UNL     1      -4.442  11.554  -0.651  1.00  0.00     0.049 A 
ATOM     47  N   UNL     1      -5.634  12.182  -3.336  1.00  0.00    -0.248 NA
ATOM     48  C   UNL     1      -6.551  10.036  -3.376  1.00  0.00     0.031 C 
ATOM     49  C   UNL     1      -3.784  11.297   0.632  1.00  0.00     0.029 A 
ATOM     50  N   UNL     1      -4.143  12.872  -0.912  1.00  0.00    -0.354 N 
ATOM     51  C   UNL     1      -6.338  12.010  -4.524  1.00  0.00     0.074 A 
ATOM     52  C   UNL     1      -6.833  10.648  -4.517  1.00  0.00     0.031 C 
ATOM     53  C   UNL     1      -3.169  12.416   1.046  1.00  0.00     0.029 A 
ATOM     54  C   UNL     1      -3.334  13.457   0.037  1.00  0.00     0.049 A 
ATOM     55  H   UNL     1      -4.477  13.352  -1.704  1.00  0.00     0.167 HD
ATOM     56  C   UNL     1      -6.561  12.905  -5.520  1.00  0.00     0.034 A 
ATOM     57  C   UNL     1      -2.763  14.679   0.083  1.00  0.00     0.034 A 
ATOM     58  C   UNL     1      -6.080  14.267  -5.510  1.00  0.00     0.049 A 
ATOM     59  C   UNL     1      -3.002  15.649  -1.049  1.00  0.00     0.074 A 
ATOM     60  C   UNL     1      -6.296  15.264  -6.447  1.00  0.00     0.029 A 
ATOM     61  N   UNL     1      -5.283  14.825  -4.519  1.00  0.00    -0.354 N 
ATOM     62  N   UNL     1      -3.695  15.476  -2.151  1.00  0.00    -0.248 NA
ATOM     63  C   UNL     1      -2.390  16.980  -0.929  1.00  0.00     0.031 C 
ATOM     64  C   UNL     1      -5.581  16.401  -6.057  1.00  0.00     0.029 A 
ATOM     65  C   UNL     1      -4.981  16.142  -4.836  1.00  0.00     0.049 A 
ATOM     66  H   UNL     1      -4.978  14.356  -3.709  1.00  0.00     0.167 HD
ATOM     67  C   UNL     1      -3.636  16.690  -2.830  1.00  0.00     0.074 A 
ATOM     68  C   UNL     1      -2.843  17.586  -2.016  1.00  0.00     0.031 C 
ATOM     69  C   UNL     1      -4.197  17.034  -4.016  1.00  0.00     0.034 A 
BRANCH  56  70
ATOM     70  C   UNL     1      -7.340  12.430  -6.724  1.00  0.00     0.023 A 
ATOM     71  C   UNL     1      -8.681  12.024  -6.624  1.00  0.00     0.031 A 
ATOM     72  C   UNL     1      -6.730  12.376  -7.990  1.00  0.00     0.131 A 
ATOM     73  C   UNL     1      -9.345  11.515  -7.750  1.00  0.00     0.055 A 
ATOM     74  C   UNL     1      -7.422  11.945  -9.124  1.00  0.00     0.041 A 
ATOM     75  F   UNL     1      -5.445  12.734  -8.146  1.00  0.00    -0.206 F 
ATOM     76  C   UNL     1      -8.734  11.497  -9.005  1.00  0.00     0.022 A 
BRANCH  73  77
ATOM     77  S   UNL     1     -10.973  10.749  -7.521  1.00  0.00     0.124 S 
ATOM     78  O   UNL     1     -10.664   9.678  -6.576  1.00  0.00    -0.237 OA
ATOM     79  O   UNL     1     -11.771  11.852  -6.998  1.00  0.00    -0.237 OA
ATOM     80  O   UNL     1     -11.332  10.299  -8.864  1.00  0.00    -0.744 OA
ENDBRANCH  73  77
ENDBRANCH  56  70
BRANCH  57  81
ATOM     81  C   UNL     1      -1.881  15.062   1.225  1.00  0.00     0.023 A 
ATOM     82  C   UNL     1      -2.234  16.110   2.091  1.00  0.00     0.031 A 
ATOM     83  C   UNL     1      -0.645  14.425   1.433  1.00  0.00     0.131 A 
ATOM     84  C   UNL     1      -1.339  16.524   3.089  1.00  0.00     0.055 A 
ATOM     85  C   UNL     1       0.217  14.803   2.464  1.00  0.00     0.041 A 
ATOM     86  F   UNL     1      -0.259  13.415   0.636  1.00  0.00    -0.206 F 
ATOM     87  C   UNL     1      -0.122  15.870   3.291  1.00  0.00     0.022 A 
BRANCH  84  88
ATOM     88  S   UNL     1      -1.748  18.001   4.061  1.00  0.00     0.124 S 
ATOM     89  O   UNL     1      -1.905  19.008   3.018  1.00  0.00    -0.237 OA
ATOM     90  O   UNL     1      -2.969  17.585   4.743  1.00  0.00    -0.237 OA
ATOM     91  O   UNL     1      -0.581  18.173   4.925  1.00  0.00    -0.744 OA
ENDBRANCH  84  88
ENDBRANCH  57  81
BRANCH  69  92
ATOM     92  C   UNL     1      -4.040  18.465  -4.470  1.00  0.00     0.023 A 
ATOM     93  C   UNL     1      -2.800  18.994  -4.868  1.00  0.00     0.031 A 
ATOM     94  C   UNL     1      -5.163  19.312  -4.510  1.00  0.00     0.131 A 
ATOM     95  C   UNL     1      -2.705  20.342  -5.249  1.00  0.00     0.055 A 
ATOM     96  C   UNL     1      -5.073  20.636  -4.940  1.00  0.00     0.041 A 
ATOM     97  F   UNL     1      -6.372  18.860  -4.138  1.00  0.00    -0.206 F 
ATOM     98  C   UNL     1      -3.836  21.161  -5.303  1.00  0.00     0.022 A 
BRANCH  95  99
ATOM     99  S   UNL     1      -1.069  21.036  -5.612  1.00  0.00     0.124 S 
ATOM    100  O   UNL     1      -0.366  20.835  -4.349  1.00  0.00    -0.237 OA
ATOM    101  O   UNL     1      -0.620  20.211  -6.729  1.00  0.00    -0.237 OA
ATOM    102  O   UNL     1      -1.353  22.430  -5.949  1.00  0.00    -0.744 OA
ENDBRANCH  95  99
ENDBRANCH  69  92
ENDBRANCH  43  44
ENDBRANCH  35  38
ENDBRANCH  33  34
ENDBRANCH  32  33
ENDBRANCH  31  32
ENDBRANCH   1  31
TORSDOF 20
