REMARK SMILES CCC(=O)N1CCC[C@](C[C@H]2CC(c3ccc(C)cc3)=NO2)(C(=O)NCCCCNC(=O)c2ccc(-c3c4nc(c(-c5cc(S(=O)(=O)[O-])ccc5F)c5ccc([nH]5)c(-c5cc(S(=O)(=O)[O-])ccc5F)c5nc(c(-c6cc(S(=O)(=O)[O-])ccc6F)c6ccc3[nH]6)C=C5)C=C4)cc2)C1
REMARK SMILES IDX 27 1 26 2 25 3 23 4 24 5 9 7 5 8 6 9 96 10 7 11 8 12 3 13
REMARK SMILES IDX 4 14 2 15 1 16 10 17 11 18 12 19 22 20 13 21 21 22 14 23
REMARK SMILES IDX 15 24 20 25 16 26 19 27 17 28 18 29 28 30 29 31 30 32 31 33
REMARK SMILES IDX 32 35 33 36 34 37 95 38 35 39 94 40 36 41 37 42 38 43 88 44
REMARK SMILES IDX 39 45 93 46 87 47 89 48 40 49 92 50 86 51 85 52 41 54 73 55
REMARK SMILES IDX 53 56 72 57 54 58 57 59 71 60 90 61 55 62 56 63 70 65 91 66
REMARK SMILES IDX 58 67 42 68 43 69 51 70 44 71 50 72 52 73 49 74 45 75 46 76
REMARK SMILES IDX 47 77 48 78 74 79 75 80 83 81 76 82 82 83 84 84 81 85 77 86
REMARK SMILES IDX 78 87 79 88 80 89 59 90 60 91 68 92 61 93 67 94 69 95 66 96
REMARK SMILES IDX 62 97 63 98 64 99 65 100
REMARK H PARENT 25 6 30 34 89 53 57 64
REMARK Flexibility Score: inf
ROOT
ATOM      1  C   UNL     1       5.484   4.021   5.018  1.00  0.00     0.023 C 
ENDROOT
BRANCH   1   2
ATOM      2  C   UNL     1       4.812   2.642   5.071  1.00  0.00     0.116 C 
BRANCH   2   3
ATOM      3  N   UNL     1       3.628   2.551   4.216  1.00  0.00    -0.356 N 
ATOM      4  C   UNL     1       3.250   1.694   3.223  1.00  0.00     0.228 C 
ATOM      5  O   UNL     1       2.185   1.972   2.658  1.00  0.00    -0.274 OA
ATOM      6  H   UNL     1       2.965   3.256   4.394  1.00  0.00     0.163 HD
BRANCH   4   7
ATOM      7  C   UNL     1       4.146   0.525   2.727  1.00  0.00     0.070 C 
ATOM      8  N   UNL     1       2.209  -1.095   2.401  1.00  0.00    -0.342 N 
ATOM      9  C   UNL     1       2.569  -1.859   3.593  1.00  0.00     0.119 C 
ATOM     10  C   UNL     1       3.304  -0.360   1.740  1.00  0.00     0.136 C 
ATOM     11  C   UNL     1       3.378  -1.040   4.581  1.00  0.00     0.023 C 
ATOM     12  C   UNL     1       4.575  -0.408   3.876  1.00  0.00     0.021 C 
BRANCH   8  13
ATOM     13  C   UNL     1       0.902  -1.202   1.950  1.00  0.00     0.222 C 
ATOM     14  O   UNL     1      -0.019  -1.551   2.695  1.00  0.00    -0.275 OA
BRANCH  13  15
ATOM     15  C   UNL     1       0.616  -1.093   0.460  1.00  0.00     0.097 C 
ATOM     16  C   UNL     1       0.686   0.278  -0.177  1.00  0.00     0.014 C 
ENDBRANCH  13  15
ENDBRANCH   8  13
BRANCH   7  17
ATOM     17  C   UNL     1       5.303   1.253   1.964  1.00  0.00     0.067 C 
BRANCH  17  18
ATOM     18  C   UNL     1       6.513   0.525   1.372  1.00  0.00     0.211 C 
ATOM     19  C   UNL     1       7.435  -0.168   2.345  1.00  0.00     0.108 C 
ATOM     20  O   UNL     1       6.129  -0.434   0.384  1.00  0.00    -0.392 OA
ATOM     21  C   UNL     1       7.242  -1.565   1.885  1.00  0.00     0.091 C 
ATOM     22  N   UNL     1       6.578  -1.711   0.784  1.00  0.00    -0.090 NA
BRANCH  21  23
ATOM     23  C   UNL     1       7.822  -2.694   2.624  1.00  0.00    -0.001 A 
ATOM     24  C   UNL     1       7.643  -2.804   4.003  1.00  0.00     0.010 A 
ATOM     25  C   UNL     1       8.520  -3.675   1.918  1.00  0.00     0.010 A 
ATOM     26  C   UNL     1       8.149  -3.916   4.676  1.00  0.00     0.004 A 
ATOM     27  C   UNL     1       9.049  -4.771   2.600  1.00  0.00     0.004 A 
ATOM     28  C   UNL     1       8.850  -4.909   3.980  1.00  0.00    -0.051 A 
ATOM     29  C   UNL     1       9.416  -6.091   4.708  1.00  0.00     0.044 C 
ENDBRANCH  21  23
ENDBRANCH  17  18
ENDBRANCH   7  17
ENDBRANCH   4   7
ENDBRANCH   2   3
ENDBRANCH   1   2
BRANCH   1  30
ATOM     30  C   UNL     1       4.618   5.200   5.454  1.00  0.00     0.023 C 
BRANCH  30  31
ATOM     31  C   UNL     1       4.180   5.162   6.913  1.00  0.00     0.116 C 
BRANCH  31  32
ATOM     32  N   UNL     1       5.026   5.923   7.819  1.00  0.00    -0.352 N 
ATOM     33  C   UNL     1       4.874   6.137   9.186  1.00  0.00     0.251 C 
ATOM     34  H   UNL     1       5.814   6.347   7.409  1.00  0.00     0.163 HD
ATOM     35  O   UNL     1       5.630   6.854   9.799  1.00  0.00    -0.269 OA
BRANCH  33  36
ATOM     36  C   UNL     1       3.830   5.362   9.913  1.00  0.00     0.039 A 
ATOM     37  C   UNL     1       4.235   4.645  11.046  1.00  0.00     0.014 A 
ATOM     38  C   UNL     1       2.554   5.178   9.389  1.00  0.00     0.014 A 
ATOM     39  C   UNL     1       3.453   3.586  11.503  1.00  0.00     0.010 A 
ATOM     40  C   UNL     1       1.822   4.072   9.778  1.00  0.00     0.010 A 
ATOM     41  C   UNL     1       2.301   3.240  10.795  1.00  0.00    -0.014 A 
BRANCH  41  42
ATOM     42  C   UNL     1       1.620   1.961  10.963  1.00  0.00     0.031 A 
ATOM     43  C   UNL     1       0.340   1.862  11.687  1.00  0.00     0.074 A 
ATOM     44  C   UNL     1       2.154   0.840  10.431  1.00  0.00     0.049 A 
ATOM     45  N   UNL     1      -0.041   0.816  12.342  1.00  0.00    -0.248 NA
ATOM     46  C   UNL     1      -0.611   2.964  11.751  1.00  0.00     0.031 C 
ATOM     47  C   UNL     1       1.525  -0.471  10.306  1.00  0.00     0.029 A 
ATOM     48  N   UNL     1       3.492   0.615  10.123  1.00  0.00    -0.354 N 
ATOM     49  C   UNL     1      -1.369   0.985  12.653  1.00  0.00     0.074 A 
ATOM     50  C   UNL     1      -1.656   2.366  12.330  1.00  0.00     0.031 C 
ATOM     51  C   UNL     1       2.485  -1.404  10.214  1.00  0.00     0.029 A 
ATOM     52  C   UNL     1       3.759  -0.736  10.405  1.00  0.00     0.049 A 
ATOM     53  H   UNL     1       4.131   1.277   9.774  1.00  0.00     0.167 HD
ATOM     54  C   UNL     1      -2.131  -0.089  13.007  1.00  0.00     0.034 A 
ATOM     55  C   UNL     1       4.716  -1.091  11.310  1.00  0.00     0.034 A 
ATOM     56  C   UNL     1      -1.363  -1.332  13.010  1.00  0.00     0.049 A 
ATOM     57  C   UNL     1       4.185  -1.906  12.467  1.00  0.00     0.074 A 
ATOM     58  C   UNL     1      -1.261  -2.374  12.102  1.00  0.00     0.029 A 
ATOM     59  N   UNL     1      -0.339  -1.517  13.932  1.00  0.00    -0.354 N 
ATOM     60  N   UNL     1       2.920  -2.027  12.762  1.00  0.00    -0.248 NA
ATOM     61  C   UNL     1       5.041  -2.632  13.399  1.00  0.00     0.031 C 
ATOM     62  C   UNL     1      -0.143  -3.169  12.464  1.00  0.00     0.029 A 
ATOM     63  C   UNL     1       0.420  -2.625  13.605  1.00  0.00     0.049 A 
ATOM     64  H   UNL     1      -0.177  -0.938  14.712  1.00  0.00     0.167 HD
ATOM     65  C   UNL     1       2.775  -2.795  13.893  1.00  0.00     0.074 A 
ATOM     66  C   UNL     1       4.136  -3.172  14.233  1.00  0.00     0.031 C 
ATOM     67  C   UNL     1       1.543  -3.033  14.444  1.00  0.00     0.034 A 
BRANCH  54  68
ATOM     68  C   UNL     1      -3.642  -0.046  13.034  1.00  0.00     0.023 A 
ATOM     69  C   UNL     1      -4.383  -1.186  12.658  1.00  0.00     0.031 A 
ATOM     70  C   UNL     1      -4.404   1.085  13.382  1.00  0.00     0.131 A 
ATOM     71  C   UNL     1      -5.782  -1.137  12.521  1.00  0.00     0.055 A 
ATOM     72  C   UNL     1      -5.788   1.158  13.179  1.00  0.00     0.041 A 
ATOM     73  F   UNL     1      -3.841   2.151  13.971  1.00  0.00    -0.206 F 
ATOM     74  C   UNL     1      -6.484   0.046  12.728  1.00  0.00     0.022 A 
BRANCH  71  75
ATOM     75  S   UNL     1      -6.679  -2.653  12.084  1.00  0.00     0.124 S 
ATOM     76  O   UNL     1      -6.046  -3.041  10.829  1.00  0.00    -0.237 OA
ATOM     77  O   UNL     1      -6.413  -3.509  13.235  1.00  0.00    -0.237 OA
ATOM     78  O   UNL     1      -8.066  -2.202  11.962  1.00  0.00    -0.744 OA
ENDBRANCH  71  75
ENDBRANCH  54  68
BRANCH  55  79
ATOM     79  C   UNL     1       5.850  -0.122  11.364  1.00  0.00     0.023 A 
ATOM     80  C   UNL     1       6.520   0.141  10.147  1.00  0.00     0.031 A 
ATOM     81  C   UNL     1       5.990   0.804  12.405  1.00  0.00     0.131 A 
ATOM     82  C   UNL     1       7.132   1.382   9.930  1.00  0.00     0.055 A 
ATOM     83  C   UNL     1       6.680   2.008  12.212  1.00  0.00     0.041 A 
ATOM     84  F   UNL     1       5.359   0.622  13.574  1.00  0.00    -0.206 F 
ATOM     85  C   UNL     1       7.209   2.324  10.957  1.00  0.00     0.022 A 
BRANCH  82  86
ATOM     86  S   UNL     1       7.548   1.858   8.223  1.00  0.00     0.124 S 
ATOM     87  O   UNL     1       8.931   1.413   8.103  1.00  0.00    -0.237 OA
ATOM     88  O   UNL     1       6.579   1.117   7.416  1.00  0.00    -0.237 OA
ATOM     89  O   UNL     1       7.344   3.304   8.206  1.00  0.00    -0.744 OA
ENDBRANCH  82  86
ENDBRANCH  55  79
BRANCH  67  90
ATOM     90  C   UNL     1       1.246  -3.733  15.762  1.00  0.00     0.023 A 
ATOM     91  C   UNL     1       2.218  -4.055  16.719  1.00  0.00     0.031 A 
ATOM     92  C   UNL     1      -0.087  -4.061  16.128  1.00  0.00     0.131 A 
ATOM     93  C   UNL     1       1.883  -4.723  17.915  1.00  0.00     0.055 A 
ATOM     94  C   UNL     1      -0.427  -4.662  17.345  1.00  0.00     0.041 A 
ATOM     95  F   UNL     1      -1.129  -3.805  15.324  1.00  0.00    -0.206 F 
ATOM     96  C   UNL     1       0.564  -5.012  18.245  1.00  0.00     0.022 A 
BRANCH  93  97
ATOM     97  S   UNL     1       3.229  -5.250  19.011  1.00  0.00     0.124 S 
ATOM     98  O   UNL     1       3.941  -6.210  18.172  1.00  0.00    -0.237 OA
ATOM     99  O   UNL     1       3.929  -3.997  19.271  1.00  0.00    -0.237 OA
ATOM    100  O   UNL     1       2.535  -5.826  20.160  1.00  0.00    -0.744 OA
ENDBRANCH  93  97
ENDBRANCH  67  90
ENDBRANCH  41  42
ENDBRANCH  33  36
ENDBRANCH  31  32
ENDBRANCH  30  31
ENDBRANCH   1  30
TORSDOF 19
