REMARK SMILES CN(CC(N)=O)S(=O)(=O)c1ccc(C(=O)NCCCCNC(=O)c2ccc(-c3c4nc(c(-c5cc(S(=O)(=O)[O-])ccc5F)c5ccc([nH]5)c(-c5cc(S(=O)(=O)[O-])ccc5F)c5nc(c(-c6cc(S(=O)(=O)[O-])ccc6F)c6ccc3[nH]6)C=C5)C=C4)cc2)cc1Br
REMARK SMILES IDX 18 1 17 2 16 3 14 4 15 5 13 7 10 8 11 9 88 10 12 11 87 12
REMARK SMILES IDX 89 13 7 14 8 15 9 16 2 17 1 18 3 19 4 20 5 21 6 22 19 25
REMARK SMILES IDX 20 26 21 27 22 28 23 30 24 31 25 32 86 33 26 34 85 35 27 36
REMARK SMILES IDX 28 37 29 38 79 39 30 40 84 41 78 42 80 43 31 44 83 45 77 46
REMARK SMILES IDX 76 47 32 49 64 50 44 51 63 52 45 53 48 54 62 55 81 56 46 57
REMARK SMILES IDX 47 58 61 60 82 61 49 62 33 63 34 64 42 65 35 66 41 67 43 68
REMARK SMILES IDX 40 69 36 70 37 71 38 72 39 73 65 74 66 75 74 76 67 77 73 78
REMARK SMILES IDX 75 79 72 80 68 81 69 82 70 83 71 84 50 85 51 86 59 87 52 88
REMARK SMILES IDX 58 89 60 90 57 91 53 92 54 93 55 94 56 95
REMARK H PARENT 16 6 5 23 5 24 21 29 80 48 48 59
REMARK Flexibility Score: inf
ROOT
ATOM      1  C   UNL     1      -1.601   2.354   7.904  1.00  0.00     0.023 C 
ENDROOT
BRANCH   1   2
ATOM      2  C   UNL     1      -0.486   1.488   8.497  1.00  0.00     0.116 C 
BRANCH   2   3
ATOM      3  N   UNL     1      -0.921   0.112   8.629  1.00  0.00    -0.352 N 
ATOM      4  C   UNL     1      -0.901  -0.968   7.787  1.00  0.00     0.251 C 
ATOM      5  O   UNL     1      -1.384  -2.017   8.220  1.00  0.00    -0.269 OA
ATOM      6  H   UNL     1      -1.313  -0.089   9.509  1.00  0.00     0.163 HD
BRANCH   4   7
ATOM      7  C   UNL     1      -0.328  -0.972   6.404  1.00  0.00     0.041 A 
ATOM      8  C   UNL     1       0.726  -1.215   3.787  1.00  0.00     0.096 A 
ATOM      9  C   UNL     1       0.355  -2.355   4.512  1.00  0.00     0.024 A 
ATOM     10  C   UNL     1       0.596   0.042   4.375  1.00  0.00     0.038 A 
ATOM     11  C   UNL     1      -0.148  -2.232   5.809  1.00  0.00     0.015 A 
ATOM     12  C   UNL     1       0.024   0.153   5.655  1.00  0.00     0.031 A 
ATOM     13  Br  UNL     1       1.183   1.674   3.596  1.00  0.00    -0.049 Br
BRANCH   8  14
ATOM     14  S   UNL     1       1.306  -1.460   2.129  1.00  0.00     0.244 S 
ATOM     15  O   UNL     1       0.813  -2.751   1.690  1.00  0.00    -0.207 OA
ATOM     16  O   UNL     1       2.722  -1.178   2.135  1.00  0.00    -0.207 OA
BRANCH  14  17
ATOM     17  N   UNL     1       0.515  -0.288   1.189  1.00  0.00    -0.192 NA
ATOM     18  C   UNL     1       1.089  -0.134  -0.167  1.00  0.00     0.125 C 
BRANCH  17  19
ATOM     19  C   UNL     1      -0.967  -0.274   1.190  1.00  0.00     0.201 C 
BRANCH  19  20
ATOM     20  C   UNL     1      -1.650  -1.468   0.554  1.00  0.00     0.232 C 
ATOM     21  N   UNL     1      -2.335  -2.287   1.407  1.00  0.00    -0.369 N 
ATOM     22  O   UNL     1      -1.626  -1.696  -0.652  1.00  0.00    -0.274 OA
ATOM     23  H   UNL     1      -2.346  -2.094   2.372  1.00  0.00     0.159 HD
ATOM     24  H   UNL     1      -2.817  -3.071   1.056  1.00  0.00     0.159 HD
ENDBRANCH  19  20
ENDBRANCH  17  19
ENDBRANCH  14  17
ENDBRANCH   8  14
ENDBRANCH   4   7
ENDBRANCH   2   3
ENDBRANCH   1   2
BRANCH   1  25
ATOM     25  C   UNL     1      -2.595   2.885   8.944  1.00  0.00     0.023 C 
BRANCH  25  26
ATOM     26  C   UNL     1      -2.000   3.865   9.952  1.00  0.00     0.116 C 
BRANCH  26  27
ATOM     27  N   UNL     1      -1.400   5.034   9.329  1.00  0.00    -0.352 N 
ATOM     28  C   UNL     1      -1.209   6.282   9.872  1.00  0.00     0.251 C 
ATOM     29  H   UNL     1      -1.091   4.917   8.402  1.00  0.00     0.163 HD
ATOM     30  O   UNL     1      -0.784   7.196   9.172  1.00  0.00    -0.269 OA
BRANCH  28  31
ATOM     31  C   UNL     1      -1.575   6.519  11.284  1.00  0.00     0.039 A 
ATOM     32  C   UNL     1      -2.402   7.603  11.589  1.00  0.00     0.014 A 
ATOM     33  C   UNL     1      -1.141   5.654  12.291  1.00  0.00     0.014 A 
ATOM     34  C   UNL     1      -2.852   7.778  12.899  1.00  0.00     0.010 A 
ATOM     35  C   UNL     1      -1.641   5.794  13.582  1.00  0.00     0.010 A 
ATOM     36  C   UNL     1      -2.505   6.853  13.897  1.00  0.00    -0.014 A 
BRANCH  36  37
ATOM     37  C   UNL     1      -3.041   6.975  15.277  1.00  0.00     0.031 A 
ATOM     38  C   UNL     1      -2.109   7.252  16.423  1.00  0.00     0.074 A 
ATOM     39  C   UNL     1      -4.353   6.764  15.501  1.00  0.00     0.049 A 
ATOM     40  N   UNL     1      -2.367   7.313  17.704  1.00  0.00    -0.248 NA
ATOM     41  C   UNL     1      -0.693   7.454  16.083  1.00  0.00     0.031 C 
ATOM     42  C   UNL     1      -5.344   6.439  14.473  1.00  0.00     0.029 A 
ATOM     43  N   UNL     1      -5.077   6.778  16.666  1.00  0.00    -0.354 N 
ATOM     44  C   UNL     1      -1.145   7.545  18.326  1.00  0.00     0.074 A 
ATOM     45  C   UNL     1      -0.141   7.553  17.282  1.00  0.00     0.031 C 
ATOM     46  C   UNL     1      -6.549   6.303  15.051  1.00  0.00     0.029 A 
ATOM     47  C   UNL     1      -6.411   6.492  16.491  1.00  0.00     0.049 A 
ATOM     48  H   UNL     1      -4.678   6.974  17.545  1.00  0.00     0.167 HD
ATOM     49  C   UNL     1      -0.888   7.754  19.641  1.00  0.00     0.034 A 
ATOM     50  C   UNL     1      -7.407   6.385  17.392  1.00  0.00     0.034 A 
ATOM     51  C   UNL     1      -1.905   7.757  20.665  1.00  0.00     0.049 A 
ATOM     52  C   UNL     1      -7.100   6.621  18.848  1.00  0.00     0.074 A 
ATOM     53  C   UNL     1      -1.768   8.014  22.018  1.00  0.00     0.029 A 
ATOM     54  N   UNL     1      -3.250   7.484  20.449  1.00  0.00    -0.354 N 
ATOM     55  N   UNL     1      -5.947   6.892  19.415  1.00  0.00    -0.248 NA
ATOM     56  C   UNL     1      -8.230   6.551  19.782  1.00  0.00     0.031 C 
ATOM     57  C   UNL     1      -3.016   7.841  22.627  1.00  0.00     0.029 A 
ATOM     58  C   UNL     1      -3.948   7.542  21.646  1.00  0.00     0.049 A 
ATOM     59  H   UNL     1      -3.650   7.279  19.573  1.00  0.00     0.167 HD
ATOM     60  C   UNL     1      -6.220   7.052  20.770  1.00  0.00     0.074 A 
ATOM     61  C   UNL     1      -7.647   6.861  20.931  1.00  0.00     0.031 C 
ATOM     62  C   UNL     1      -5.370   7.336  21.790  1.00  0.00     0.034 A 
BRANCH  49  63
ATOM     63  C   UNL     1       0.553   7.970  20.038  1.00  0.00     0.023 A 
ATOM     64  C   UNL     1       1.290   9.071  19.566  1.00  0.00     0.031 A 
ATOM     65  C   UNL     1       1.212   7.044  20.865  1.00  0.00     0.131 A 
ATOM     66  C   UNL     1       2.659   9.172  19.852  1.00  0.00     0.055 A 
ATOM     67  C   UNL     1       2.556   7.196  21.215  1.00  0.00     0.041 A 
ATOM     68  F   UNL     1       0.568   5.963  21.331  1.00  0.00    -0.206 F 
ATOM     69  C   UNL     1       3.292   8.256  20.694  1.00  0.00     0.022 A 
BRANCH  66  70
ATOM     70  S   UNL     1       3.632  10.432  18.982  1.00  0.00     0.124 S 
ATOM     71  O   UNL     1       3.422  10.055  17.587  1.00  0.00    -0.237 OA
ATOM     72  O   UNL     1       2.997  11.673  19.412  1.00  0.00    -0.237 OA
ATOM     73  O   UNL     1       4.990  10.221  19.480  1.00  0.00    -0.744 OA
ENDBRANCH  66  70
ENDBRANCH  49  63
BRANCH  50  74
ATOM     74  C   UNL     1      -8.787   6.036  16.952  1.00  0.00     0.023 A 
ATOM     75  C   UNL     1      -9.837   6.960  17.067  1.00  0.00     0.031 A 
ATOM     76  C   UNL     1      -9.082   4.760  16.441  1.00  0.00     0.131 A 
ATOM     77  C   UNL     1     -11.142   6.582  16.718  1.00  0.00     0.055 A 
ATOM     78  C   UNL     1     -10.375   4.404  16.052  1.00  0.00     0.041 A 
ATOM     79  F   UNL     1      -8.111   3.843  16.301  1.00  0.00    -0.206 F 
ATOM     80  C   UNL     1     -11.417   5.314  16.201  1.00  0.00     0.022 A 
BRANCH  77  81
ATOM     81  S   UNL     1     -12.495   7.753  17.018  1.00  0.00     0.124 S 
ATOM     82  O   UNL     1     -12.380   7.979  18.455  1.00  0.00    -0.237 OA
ATOM     83  O   UNL     1     -12.120   8.873  16.161  1.00  0.00    -0.237 OA
ATOM     84  O   UNL     1     -13.683   7.016  16.594  1.00  0.00    -0.744 OA
ENDBRANCH  77  81
ENDBRANCH  50  74
BRANCH  62  85
ATOM     85  C   UNL     1      -5.979   7.498  23.159  1.00  0.00     0.023 A 
ATOM     86  C   UNL     1      -6.540   6.411  23.852  1.00  0.00     0.031 A 
ATOM     87  C   UNL     1      -6.014   8.764  23.771  1.00  0.00     0.131 A 
ATOM     88  C   UNL     1      -7.160   6.619  25.093  1.00  0.00     0.055 A 
ATOM     89  C   UNL     1      -6.583   8.954  25.031  1.00  0.00     0.041 A 
ATOM     90  F   UNL     1      -5.495   9.836  23.152  1.00  0.00    -0.206 F 
ATOM     91  C   UNL     1      -7.172   7.881  25.693  1.00  0.00     0.022 A 
BRANCH  88  92
ATOM     92  S   UNL     1      -8.029   5.233  25.876  1.00  0.00     0.124 S 
ATOM     93  O   UNL     1      -9.017   4.881  24.860  1.00  0.00    -0.237 OA
ATOM     94  O   UNL     1      -6.955   4.267  26.081  1.00  0.00    -0.237 OA
ATOM     95  O   UNL     1      -8.578   5.818  27.098  1.00  0.00    -0.744 OA
ENDBRANCH  88  92
ENDBRANCH  62  85
ENDBRANCH  36  37
ENDBRANCH  28  31
ENDBRANCH  26  27
ENDBRANCH  25  26
ENDBRANCH   1  25
TORSDOF 18
