REMARK SMILES O=C(NCCCCNC(=O)[C@H]1C[C@](O)(c2ccc(Cl)cc2)[C@@H](c2ccc(Cl)cc2)O1)c1ccc(-c2c3nc(c(-c4cc(S(=O)(=O)[O-])ccc4F)c4ccc([nH]4)c(-c4cc(S(=O)(=O)[O-])ccc4F)c4nc(c(-c5cc(S(=O)(=O)[O-])ccc5F)c5ccc2[nH]5)C=C4)C=C3)cc1
REMARK SMILES IDX 4 1 3 2 1 3 2 4 31 6 32 7 93 8 33 9 92 10 34 11 35 12 36 13
REMARK SMILES IDX 86 14 37 15 91 16 85 17 87 18 38 19 90 20 84 21 83 22 39 24
REMARK SMILES IDX 71 25 51 26 70 27 52 28 55 29 69 30 88 31 53 32 54 33 68 35
REMARK SMILES IDX 89 36 56 37 40 38 41 39 49 40 42 41 48 42 50 43 47 44 43 45
REMARK SMILES IDX 44 46 45 47 46 48 72 49 73 50 81 51 74 52 80 53 82 54 79 55
REMARK SMILES IDX 75 56 76 57 77 58 78 59 57 60 58 61 66 62 59 63 65 64 67 65
REMARK SMILES IDX 64 66 60 67 61 68 62 69 63 70 5 71 6 72 7 73 8 74 9 75 10 77
REMARK SMILES IDX 11 78 12 79 30 80 13 81 22 82 15 83 16 84 21 85 17 86 20 87
REMARK SMILES IDX 18 88 19 89 14 90 23 92 24 93 29 94 25 95 28 96 26 97 27 98
REMARK H PARENT 3 5 87 23 55 34 8 76 14 91
REMARK Flexibility Score: inf
ROOT
ATOM      1  C   UNL     1      11.555   0.176  -6.445  1.00  0.00     0.116 C 
ENDROOT
BRANCH   1   2
ATOM      2  N   UNL     1      12.487   0.461  -5.367  1.00  0.00    -0.352 N 
ATOM      3  O   UNL     1      14.421   0.350  -4.221  1.00  0.00    -0.269 OA
ATOM      4  C   UNL     1      13.830   0.167  -5.278  1.00  0.00     0.251 C 
ATOM      5  H   UNL     1      12.105   0.930  -4.590  1.00  0.00     0.163 HD
BRANCH   4   6
ATOM      6  C   UNL     1      14.549  -0.385  -6.451  1.00  0.00     0.039 A 
ATOM      7  C   UNL     1      14.356   0.147  -7.727  1.00  0.00     0.014 A 
ATOM      8  C   UNL     1      15.447  -1.442  -6.266  1.00  0.00     0.014 A 
ATOM      9  C   UNL     1      14.954  -0.458  -8.829  1.00  0.00     0.010 A 
ATOM     10  C   UNL     1      16.109  -2.000  -7.367  1.00  0.00     0.010 A 
ATOM     11  C   UNL     1      15.847  -1.530  -8.663  1.00  0.00    -0.014 A 
BRANCH  11  12
ATOM     12  C   UNL     1      16.523  -2.099  -9.860  1.00  0.00     0.031 A 
ATOM     13  C   UNL     1      16.250  -3.506 -10.317  1.00  0.00     0.074 A 
ATOM     14  C   UNL     1      17.351  -1.306 -10.570  1.00  0.00     0.049 A 
ATOM     15  N   UNL     1      16.712  -4.136 -11.367  1.00  0.00    -0.248 NA
ATOM     16  C   UNL     1      15.349  -4.314  -9.482  1.00  0.00     0.031 C 
ATOM     17  C   UNL     1      17.704   0.070 -10.212  1.00  0.00     0.029 A 
ATOM     18  N   UNL     1      18.025  -1.526 -11.743  1.00  0.00    -0.354 N 
ATOM     19  C   UNL     1      16.161  -5.413 -11.324  1.00  0.00     0.074 A 
ATOM     20  C   UNL     1      15.365  -5.479 -10.116  1.00  0.00     0.031 C 
ATOM     21  C   UNL     1      18.488   0.587 -11.170  1.00  0.00     0.029 A 
ATOM     22  C   UNL     1      18.745  -0.436 -12.177  1.00  0.00     0.049 A 
ATOM     23  H   UNL     1      17.997  -2.382 -12.229  1.00  0.00     0.167 HD
ATOM     24  C   UNL     1      16.296  -6.428 -12.215  1.00  0.00     0.034 A 
ATOM     25  C   UNL     1      19.534  -0.278 -13.257  1.00  0.00     0.034 A 
ATOM     26  C   UNL     1      17.102  -6.349 -13.412  1.00  0.00     0.049 A 
ATOM     27  C   UNL     1      19.683  -1.426 -14.218  1.00  0.00     0.074 A 
ATOM     28  C   UNL     1      17.310  -7.317 -14.381  1.00  0.00     0.029 A 
ATOM     29  N   UNL     1      17.838  -5.237 -13.806  1.00  0.00    -0.354 N 
ATOM     30  N   UNL     1      19.145  -2.623 -14.163  1.00  0.00    -0.248 NA
ATOM     31  C   UNL     1      20.536  -1.200 -15.390  1.00  0.00     0.031 C 
ATOM     32  C   UNL     1      18.211  -6.813 -15.326  1.00  0.00     0.029 A 
ATOM     33  C   UNL     1      18.514  -5.504 -14.988  1.00  0.00     0.049 A 
ATOM     34  H   UNL     1      17.874  -4.384 -13.317  1.00  0.00     0.167 HD
ATOM     35  C   UNL     1      19.588  -3.288 -15.302  1.00  0.00     0.074 A 
ATOM     36  C   UNL     1      20.406  -2.347 -16.040  1.00  0.00     0.031 C 
ATOM     37  C   UNL     1      19.346  -4.563 -15.700  1.00  0.00     0.034 A 
BRANCH  24  38
ATOM     38  C   UNL     1      15.581  -7.723 -11.909  1.00  0.00     0.023 A 
ATOM     39  C   UNL     1      14.177  -7.801 -11.879  1.00  0.00     0.031 A 
ATOM     40  C   UNL     1      16.309  -8.894 -11.635  1.00  0.00     0.131 A 
ATOM     41  C   UNL     1      13.548  -9.005 -11.524  1.00  0.00     0.055 A 
ATOM     42  C   UNL     1      15.677 -10.108 -11.354  1.00  0.00     0.041 A 
ATOM     43  F   UNL     1      17.652  -8.878 -11.630  1.00  0.00    -0.206 F 
ATOM     44  C   UNL     1      14.288 -10.165 -11.285  1.00  0.00     0.022 A 
BRANCH  41  45
ATOM     45  S   UNL     1      11.754  -9.004 -11.260  1.00  0.00     0.124 S 
ATOM     46  O   UNL     1      11.614  -8.023 -10.186  1.00  0.00    -0.237 OA
ATOM     47  O   UNL     1      11.243  -8.600 -12.565  1.00  0.00    -0.237 OA
ATOM     48  O   UNL     1      11.462 -10.383 -10.876  1.00  0.00    -0.744 OA
ENDBRANCH  41  45
ENDBRANCH  24  38
BRANCH  25  49
ATOM     49  C   UNL     1      20.269   1.002 -13.469  1.00  0.00     0.023 A 
ATOM     50  C   UNL     1      20.016   1.813 -14.585  1.00  0.00     0.031 A 
ATOM     51  C   UNL     1      21.267   1.413 -12.566  1.00  0.00     0.131 A 
ATOM     52  C   UNL     1      20.783   2.970 -14.795  1.00  0.00     0.055 A 
ATOM     53  C   UNL     1      21.986   2.594 -12.749  1.00  0.00     0.041 A 
ATOM     54  F   UNL     1      21.545   0.676 -11.479  1.00  0.00    -0.206 F 
ATOM     55  C   UNL     1      21.756   3.373 -13.877  1.00  0.00     0.022 A 
BRANCH  52  56
ATOM     56  S   UNL     1      20.554   3.896 -16.338  1.00  0.00     0.124 S 
ATOM     57  O   UNL     1      20.771   2.862 -17.343  1.00  0.00    -0.237 OA
ATOM     58  O   UNL     1      19.184   4.379 -16.199  1.00  0.00    -0.237 OA
ATOM     59  O   UNL     1      21.586   4.929 -16.271  1.00  0.00    -0.744 OA
ENDBRANCH  52  56
ENDBRANCH  25  49
BRANCH  37  60
ATOM     60  C   UNL     1      19.964  -4.988 -17.009  1.00  0.00     0.023 A 
ATOM     61  C   UNL     1      21.357  -5.103 -17.161  1.00  0.00     0.031 A 
ATOM     62  C   UNL     1      19.152  -5.236 -18.130  1.00  0.00     0.131 A 
ATOM     63  C   UNL     1      21.901  -5.388 -18.422  1.00  0.00     0.055 A 
ATOM     64  C   UNL     1      19.697  -5.579 -19.368  1.00  0.00     0.041 A 
ATOM     65  F   UNL     1      17.816  -5.139 -18.041  1.00  0.00    -0.206 F 
ATOM     66  C   UNL     1      21.079  -5.640 -19.523  1.00  0.00     0.022 A 
BRANCH  63  67
ATOM     67  S   UNL     1      23.702  -5.318 -18.628  1.00  0.00     0.124 S 
ATOM     68  O   UNL     1      24.003  -3.954 -18.207  1.00  0.00    -0.237 OA
ATOM     69  O   UNL     1      24.160  -6.377 -17.735  1.00  0.00    -0.237 OA
ATOM     70  O   UNL     1      23.895  -5.584 -20.053  1.00  0.00    -0.744 OA
ENDBRANCH  63  67
ENDBRANCH  37  60
ENDBRANCH  11  12
ENDBRANCH   4   6
ENDBRANCH   1   2
BRANCH   1  71
ATOM     71  C   UNL     1      10.261  -0.460  -5.949  1.00  0.00     0.023 C 
BRANCH  71  72
ATOM     72  C   UNL     1       9.387   0.430  -5.055  1.00  0.00     0.023 C 
BRANCH  72  73
ATOM     73  C   UNL     1       8.948   1.754  -5.689  1.00  0.00     0.116 C 
BRANCH  73  74
ATOM     74  N   UNL     1       8.255   1.513  -6.936  1.00  0.00    -0.354 N 
ATOM     75  C   UNL     1       6.913   1.444  -7.164  1.00  0.00     0.249 C 
ATOM     76  H   UNL     1       8.829   1.382  -7.725  1.00  0.00     0.163 HD
ATOM     77  O   UNL     1       6.546   0.732  -8.099  1.00  0.00    -0.272 OA
BRANCH  75  78
ATOM     78  C   UNL     1       5.932   2.253  -6.284  1.00  0.00     0.211 C 
ATOM     79  C   UNL     1       6.238   3.753  -6.308  1.00  0.00     0.085 C 
ATOM     80  O   UNL     1       4.573   2.095  -6.731  1.00  0.00    -0.357 OA
ATOM     81  C   UNL     1       4.999   4.422  -6.907  1.00  0.00     0.123 C 
ATOM     82  C   UNL     1       4.236   3.232  -7.549  1.00  0.00     0.186 C 
BRANCH  81  83
ATOM     83  C   UNL     1       4.228   5.200  -5.825  1.00  0.00    -0.013 A 
ATOM     84  C   UNL     1       4.699   6.470  -5.427  1.00  0.00     0.008 A 
ATOM     85  C   UNL     1       3.053   4.727  -5.215  1.00  0.00     0.008 A 
ATOM     86  C   UNL     1       4.000   7.254  -4.505  1.00  0.00     0.021 A 
ATOM     87  C   UNL     1       2.342   5.517  -4.302  1.00  0.00     0.021 A 
ATOM     88  C   UNL     1       2.814   6.780  -3.958  1.00  0.00     0.041 A 
ATOM     89  Cl  UNL     1       1.927   7.756  -2.853  1.00  0.00    -0.084 Cl
ENDBRANCH  81  83
BRANCH  81  90
ATOM     90  O   UNL     1       5.402   5.404  -7.870  1.00  0.00    -0.382 OA
ATOM     91  H   UNL     1       5.897   4.973  -8.584  1.00  0.00     0.212 HD
ENDBRANCH  81  90
BRANCH  82  92
ATOM     92  C   UNL     1       4.433   2.888  -9.021  1.00  0.00    -0.016 A 
ATOM     93  C   UNL     1       5.630   3.110  -9.721  1.00  0.00     0.008 A 
ATOM     94  C   UNL     1       3.376   2.257  -9.705  1.00  0.00     0.008 A 
ATOM     95  C   UNL     1       5.771   2.705 -11.053  1.00  0.00     0.021 A 
ATOM     96  C   UNL     1       3.508   1.871 -11.041  1.00  0.00     0.021 A 
ATOM     97  C   UNL     1       4.709   2.090 -11.708  1.00  0.00     0.041 A 
ATOM     98  Cl  UNL     1       4.880   1.598 -13.347  1.00  0.00    -0.084 Cl
ENDBRANCH  82  92
ENDBRANCH  75  78
ENDBRANCH  73  74
ENDBRANCH  72  73
ENDBRANCH  71  72
ENDBRANCH   1  71
TORSDOF 17
