REMARK SMILES CC(C)C[C@H](NC(=O)[C@@H](NC(=O)[C@H](C)NC(=O)CNC(=O)OCc1ccccc1)C(C)C)C(=O)NCCCCNC(=O)c1ccc(-c2c3nc(c(-c4cc(S(=O)(=O)[O-])ccc4F)c4ccc([nH]4)c(-c4cc(S(=O)(=O)[O-])ccc4F)c4nc(c(-c5cc(S(=O)(=O)[O-])ccc5F)c5ccc2[nH]5)C=C4)C=C3)cc1
REMARK SMILES IDX 5 1 4 2 2 3 1 4 3 5 33 6 34 7 35 8 36 10 37 11 38 12 39 13
REMARK SMILES IDX 40 14 41 15 42 17 43 18 44 19 105 20 45 21 104 22 46 23
REMARK SMILES IDX 47 24 48 25 98 26 49 27 103 28 97 29 99 30 50 31 102 32
REMARK SMILES IDX 96 33 95 34 51 36 83 37 63 38 82 39 64 40 67 41 81 42 100 43
REMARK SMILES IDX 65 44 66 45 80 47 101 48 68 49 52 50 53 51 61 52 54 53 60 54
REMARK SMILES IDX 62 55 59 56 55 57 56 58 57 59 58 60 84 61 85 62 93 63 86 64
REMARK SMILES IDX 92 65 94 66 91 67 87 68 88 69 89 70 90 71 69 72 70 73 78 74
REMARK SMILES IDX 71 75 77 76 79 77 76 78 72 79 73 80 74 81 75 82 6 83 7 84
REMARK SMILES IDX 8 86 9 87 10 88 11 89 12 91 13 92 14 93 15 94 16 95 17 97
REMARK SMILES IDX 18 98 19 99 20 100 21 102 22 103 23 104 24 105 25 106 29 107
REMARK SMILES IDX 26 108 28 109 27 110 30 111 31 112 32 113
REMARK H PARENT 35 9 40 16 99 35 67 46 6 85 10 90 15 96 19 101
REMARK Flexibility Score: inf
ROOT
ATOM      1  C   UNL     1      -5.152  -1.290   0.770  1.00  0.00     0.171 C 
ENDROOT
BRANCH   1   2
ATOM      2  C   UNL     1      -5.722  -0.092   1.532  1.00  0.00     0.038 C 
BRANCH   2   3
ATOM      3  C   UNL     1      -4.598   0.864   1.988  1.00  0.00    -0.015 C 
ATOM      4  C   UNL     1      -4.285   1.895   0.901  1.00  0.00     0.007 C 
ATOM      5  C   UNL     1      -4.986   1.565   3.286  1.00  0.00     0.007 C 
ENDBRANCH   2   3
ENDBRANCH   1   2
BRANCH   1   6
ATOM      6  C   UNL     1      -4.666  -2.429   1.680  1.00  0.00     0.242 C 
ATOM      7  O   UNL     1      -3.532  -2.888   1.533  1.00  0.00    -0.273 OA
ATOM      8  N   UNL     1      -5.433  -3.030   2.617  1.00  0.00    -0.354 N 
ATOM      9  H   UNL     1      -4.936  -3.664   3.183  1.00  0.00     0.163 HD
BRANCH   8  10
ATOM     10  C   UNL     1      -6.839  -2.931   2.960  1.00  0.00     0.116 C 
BRANCH  10  11
ATOM     11  C   UNL     1      -7.518  -4.302   2.967  1.00  0.00     0.023 C 
BRANCH  11  12
ATOM     12  C   UNL     1      -6.790  -5.392   3.761  1.00  0.00     0.023 C 
BRANCH  12  13
ATOM     13  C   UNL     1      -6.490  -5.047   5.213  1.00  0.00     0.116 C 
BRANCH  13  14
ATOM     14  N   UNL     1      -7.705  -4.903   5.993  1.00  0.00    -0.352 N 
ATOM     15  C   UNL     1      -8.177  -5.682   7.022  1.00  0.00     0.251 C 
ATOM     16  H   UNL     1      -8.273  -4.137   5.750  1.00  0.00     0.163 HD
ATOM     17  O   UNL     1      -9.346  -5.556   7.378  1.00  0.00    -0.269 OA
BRANCH  15  18
ATOM     18  C   UNL     1      -7.294  -6.668   7.687  1.00  0.00     0.039 A 
ATOM     19  C   UNL     1      -7.823  -7.904   8.069  1.00  0.00     0.014 A 
ATOM     20  C   UNL     1      -5.959  -6.367   7.973  1.00  0.00     0.014 A 
ATOM     21  C   UNL     1      -7.006  -8.847   8.700  1.00  0.00     0.010 A 
ATOM     22  C   UNL     1      -5.125  -7.340   8.515  1.00  0.00     0.010 A 
ATOM     23  C   UNL     1      -5.643  -8.583   8.908  1.00  0.00    -0.014 A 
BRANCH  23  24
ATOM     24  C   UNL     1      -4.755  -9.563   9.590  1.00  0.00     0.031 A 
ATOM     25  C   UNL     1      -4.093  -9.188  10.892  1.00  0.00     0.074 A 
ATOM     26  C   UNL     1      -4.497 -10.755   9.017  1.00  0.00     0.049 A 
ATOM     27  N   UNL     1      -3.205  -9.846  11.593  1.00  0.00    -0.248 NA
ATOM     28  C   UNL     1      -4.450  -7.878  11.457  1.00  0.00     0.031 C 
ATOM     29  C   UNL     1      -5.044 -11.214   7.738  1.00  0.00     0.029 A 
ATOM     30  N   UNL     1      -3.703 -11.795   9.429  1.00  0.00    -0.354 N 
ATOM     31  C   UNL     1      -2.880  -9.019  12.665  1.00  0.00     0.074 A 
ATOM     32  C   UNL     1      -3.612  -7.785  12.477  1.00  0.00     0.031 C 
ATOM     33  C   UNL     1      -4.588 -12.451   7.484  1.00  0.00     0.029 A 
ATOM     34  C   UNL     1      -3.682 -12.856   8.554  1.00  0.00     0.049 A 
ATOM     35  H   UNL     1      -3.195 -11.783  10.273  1.00  0.00     0.167 HD
ATOM     36  C   UNL     1      -2.069  -9.275  13.722  1.00  0.00     0.034 A 
ATOM     37  C   UNL     1      -2.999 -14.018   8.602  1.00  0.00     0.034 A 
ATOM     38  C   UNL     1      -1.368 -10.523  13.905  1.00  0.00     0.049 A 
ATOM     39  C   UNL     1      -2.105 -14.285   9.786  1.00  0.00     0.074 A 
ATOM     40  C   UNL     1      -0.563 -10.915  14.959  1.00  0.00     0.029 A 
ATOM     41  N   UNL     1      -1.391 -11.584  13.007  1.00  0.00    -0.354 N 
ATOM     42  N   UNL     1      -1.840 -13.509  10.813  1.00  0.00    -0.248 NA
ATOM     43  C   UNL     1      -1.429 -15.587   9.825  1.00  0.00     0.031 C 
ATOM     44  C   UNL     1      -0.052 -12.186  14.672  1.00  0.00     0.029 A 
ATOM     45  C   UNL     1      -0.597 -12.620  13.474  1.00  0.00     0.049 A 
ATOM     46  H   UNL     1      -1.897 -11.598  12.163  1.00  0.00     0.167 HD
ATOM     47  C   UNL     1      -0.988 -14.243  11.633  1.00  0.00     0.074 A 
ATOM     48  C   UNL     1      -0.799 -15.527  10.989  1.00  0.00     0.031 C 
ATOM     49  C   UNL     1      -0.414 -13.891  12.812  1.00  0.00     0.034 A 
BRANCH  36  50
ATOM     50  C   UNL     1      -1.890  -8.173  14.742  1.00  0.00     0.023 A 
ATOM     51  C   UNL     1      -2.976  -7.666  15.479  1.00  0.00     0.031 A 
ATOM     52  C   UNL     1      -0.628  -7.590  14.953  1.00  0.00     0.131 A 
ATOM     53  C   UNL     1      -2.799  -6.553  16.315  1.00  0.00     0.055 A 
ATOM     54  C   UNL     1      -0.441  -6.542  15.858  1.00  0.00     0.041 A 
ATOM     55  F   UNL     1       0.445  -8.016  14.268  1.00  0.00    -0.206 F 
ATOM     56  C   UNL     1      -1.534  -6.005  16.531  1.00  0.00     0.022 A 
BRANCH  53  57
ATOM     57  S   UNL     1      -4.272  -5.735  16.988  1.00  0.00     0.124 S 
ATOM     58  O   UNL     1      -4.983  -5.360  15.767  1.00  0.00    -0.237 OA
ATOM     59  O   UNL     1      -4.885  -6.792  17.784  1.00  0.00    -0.237 OA
ATOM     60  O   UNL     1      -3.725  -4.615  17.750  1.00  0.00    -0.744 OA
ENDBRANCH  53  57
ENDBRANCH  36  50
BRANCH  37  61
ATOM     61  C   UNL     1      -3.127 -15.014   7.500  1.00  0.00     0.023 A 
ATOM     62  C   UNL     1      -3.704 -16.274   7.725  1.00  0.00     0.031 A 
ATOM     63  C   UNL     1      -2.645 -14.732   6.209  1.00  0.00     0.131 A 
ATOM     64  C   UNL     1      -3.746 -17.221   6.689  1.00  0.00     0.055 A 
ATOM     65  C   UNL     1      -2.736 -15.658   5.168  1.00  0.00     0.041 A 
ATOM     66  F   UNL     1      -2.091 -13.540   5.938  1.00  0.00    -0.206 F 
ATOM     67  C   UNL     1      -3.277 -16.916   5.409  1.00  0.00     0.022 A 
BRANCH  64  68
ATOM     68  S   UNL     1      -4.354 -18.889   7.061  1.00  0.00     0.124 S 
ATOM     69  O   UNL     1      -3.449 -19.305   8.126  1.00  0.00    -0.237 OA
ATOM     70  O   UNL     1      -5.733 -18.628   7.456  1.00  0.00    -0.237 OA
ATOM     71  O   UNL     1      -4.195 -19.599   5.793  1.00  0.00    -0.744 OA
ENDBRANCH  64  68
ENDBRANCH  37  61
BRANCH  49  72
ATOM     72  C   UNL     1       0.434 -14.933  13.498  1.00  0.00     0.023 A 
ATOM     73  C   UNL     1       1.654 -15.370  12.955  1.00  0.00     0.031 A 
ATOM     74  C   UNL     1       0.006 -15.503  14.711  1.00  0.00     0.131 A 
ATOM     75  C   UNL     1       2.378 -16.387  13.594  1.00  0.00     0.055 A 
ATOM     76  C   UNL     1       0.761 -16.472  15.373  1.00  0.00     0.041 A 
ATOM     77  F   UNL     1      -1.152 -15.124  15.274  1.00  0.00    -0.206 F 
ATOM     78  C   UNL     1       1.948 -16.929  14.808  1.00  0.00     0.022 A 
BRANCH  75  79
ATOM     79  S   UNL     1       3.848 -17.059  12.770  1.00  0.00     0.124 S 
ATOM     80  O   UNL     1       3.296 -17.535  11.506  1.00  0.00    -0.237 OA
ATOM     81  O   UNL     1       4.720 -15.892  12.686  1.00  0.00    -0.237 OA
ATOM     82  O   UNL     1       4.303 -18.107  13.682  1.00  0.00    -0.744 OA
ENDBRANCH  75  79
ENDBRANCH  49  72
ENDBRANCH  23  24
ENDBRANCH  15  18
ENDBRANCH  13  14
ENDBRANCH  12  13
ENDBRANCH  11  12
ENDBRANCH  10  11
ENDBRANCH   8  10
ENDBRANCH   1   6
BRANCH   1  83
ATOM     83  N   UNL     1      -6.068  -1.801  -0.237  1.00  0.00    -0.343 N 
ATOM     84  C   UNL     1      -6.019  -1.872  -1.589  1.00  0.00     0.243 C 
ATOM     85  H   UNL     1      -6.897  -2.172   0.143  1.00  0.00     0.164 HD
ATOM     86  O   UNL     1      -7.035  -2.373  -2.090  1.00  0.00    -0.273 OA
BRANCH  84  87
ATOM     87  C   UNL     1      -4.897  -1.271  -2.511  1.00  0.00     0.174 C 
BRANCH  87  88
ATOM     88  N   UNL     1      -3.708  -0.639  -1.911  1.00  0.00    -0.342 N 
ATOM     89  C   UNL     1      -2.496  -1.093  -1.472  1.00  0.00     0.242 C 
ATOM     90  H   UNL     1      -3.810   0.334  -1.802  1.00  0.00     0.164 HD
ATOM     91  O   UNL     1      -1.648  -0.220  -1.254  1.00  0.00    -0.273 OA
BRANCH  89  92
ATOM     92  C   UNL     1      -2.150  -2.596  -1.362  1.00  0.00     0.168 C 
ATOM     93  C   UNL     1      -1.155  -2.789  -0.214  1.00  0.00     0.041 C 
BRANCH  92  94
ATOM     94  N   UNL     1      -1.485  -3.004  -2.604  1.00  0.00    -0.343 N 
ATOM     95  C   UNL     1      -1.539  -4.157  -3.326  1.00  0.00     0.240 C 
ATOM     96  H   UNL     1      -0.891  -2.318  -2.986  1.00  0.00     0.164 HD
ATOM     97  O   UNL     1      -0.925  -4.173  -4.398  1.00  0.00    -0.273 OA
BRANCH  95  98
ATOM     98  C   UNL     1      -2.471  -5.319  -2.952  1.00  0.00     0.219 C 
BRANCH  98  99
ATOM     99  N   UNL     1      -2.379  -5.752  -1.576  1.00  0.00    -0.312 N 
ATOM    100  C   UNL     1      -3.401  -5.890  -0.688  1.00  0.00     0.407 C 
ATOM    101  H   UNL     1      -1.478  -5.971  -1.245  1.00  0.00     0.167 HD
ATOM    102  O   UNL     1      -3.187  -6.229   0.469  1.00  0.00    -0.225 OA
BRANCH 100 103
ATOM    103  O   UNL     1      -4.610  -5.567  -1.206  1.00  0.00    -0.445 OA
BRANCH 103 104
ATOM    104  C   UNL     1      -5.652  -5.422  -0.240  1.00  0.00     0.270 C 
BRANCH 104 105
ATOM    105  C   UNL     1      -6.459  -6.672  -0.012  1.00  0.00    -0.011 A 
ATOM    106  C   UNL     1      -6.138  -7.533   1.047  1.00  0.00     0.007 A 
ATOM    107  C   UNL     1      -7.579  -6.958  -0.803  1.00  0.00     0.007 A 
ATOM    108  C   UNL     1      -6.953  -8.624   1.349  1.00  0.00     0.000 A 
ATOM    109  C   UNL     1      -8.387  -8.059  -0.508  1.00  0.00     0.000 A 
ATOM    110  C   UNL     1      -8.081  -8.882   0.575  1.00  0.00     0.000 A 
ENDBRANCH 104 105
ENDBRANCH 103 104
ENDBRANCH 100 103
ENDBRANCH  98  99
ENDBRANCH  95  98
ENDBRANCH  92  94
ENDBRANCH  89  92
ENDBRANCH  87  88
BRANCH  87 111
ATOM    111  C   UNL     1      -4.500  -2.174  -3.715  1.00  0.00     0.015 C 
ATOM    112  C   UNL     1      -5.643  -2.820  -4.501  1.00  0.00     0.010 C 
ATOM    113  C   UNL     1      -3.607  -1.430  -4.724  1.00  0.00     0.010 C 
ENDBRANCH  87 111
ENDBRANCH  84  87
ENDBRANCH   1  83
TORSDOF 27
