REMARK SMILES C#CCNC(=O)N[C@@]1(C(=O)NCCCCNC(=O)c2ccc(-c3c4nc(c(-c5cc(S(=O)(=O)[O-])ccc5F)c5ccc([nH]5)c(-c5cc(S(=O)(=O)[O-])ccc5F)c5nc(c(-c6cc(S(=O)(=O)[O-])ccc6F)c6ccc3[nH]6)C=C5)C=C4)cc2)CCc2ccccc21
REMARK SMILES IDX 13 1 12 2 11 3 9 4 10 5 8 7 82 8 89 9 83 10 84 11 88 12
REMARK SMILES IDX 85 13 87 14 86 15 7 16 4 17 5 18 6 20 3 22 2 23 1 24 14 25
REMARK SMILES IDX 15 26 16 27 17 28 18 30 19 31 20 32 81 33 21 34 80 35 22 36
REMARK SMILES IDX 23 37 24 38 74 39 25 40 79 41 73 42 75 43 26 44 78 45 72 46
REMARK SMILES IDX 71 47 27 49 59 50 39 51 58 52 40 53 43 54 57 55 76 56 41 57
REMARK SMILES IDX 42 58 56 60 77 61 44 62 28 63 29 64 37 65 30 66 36 67 38 68
REMARK SMILES IDX 35 69 31 70 32 71 33 72 34 73 60 74 61 75 69 76 62 77 68 78
REMARK SMILES IDX 70 79 67 80 63 81 64 82 65 83 66 84 45 85 46 86 54 87 47 88
REMARK SMILES IDX 53 89 55 90 52 91 48 92 49 93 50 94 51 95
REMARK H PARENT 11 6 4 19 7 21 16 29 75 48 43 59
REMARK Flexibility Score: inf
ROOT
ATOM      1  C   UNL     1      -2.987   3.083   1.029  1.00  0.00     0.023 C 
ENDROOT
BRANCH   1   2
ATOM      2  C   UNL     1      -3.136   2.017  -0.053  1.00  0.00     0.116 C 
BRANCH   2   3
ATOM      3  N   UNL     1      -3.455   2.529  -1.373  1.00  0.00    -0.354 N 
ATOM      4  C   UNL     1      -3.429   1.901  -2.597  1.00  0.00     0.250 C 
ATOM      5  O   UNL     1      -3.670   2.613  -3.579  1.00  0.00    -0.272 OA
ATOM      6  H   UNL     1      -3.732   3.474  -1.397  1.00  0.00     0.163 HD
BRANCH   4   7
ATOM      7  C   UNL     1      -3.318   0.346  -2.733  1.00  0.00     0.146 C 
ATOM      8  C   UNL     1      -2.733  -0.110  -4.115  1.00  0.00     0.048 C 
ATOM      9  C   UNL     1      -4.720  -0.259  -2.958  1.00  0.00    -0.010 A 
ATOM     10  C   UNL     1      -3.259  -1.544  -4.335  1.00  0.00     0.039 C 
ATOM     11  C   UNL     1      -4.647  -1.393  -3.803  1.00  0.00    -0.042 A 
ATOM     12  C   UNL     1      -5.915   0.036  -2.299  1.00  0.00     0.007 A 
ATOM     13  C   UNL     1      -5.682  -2.320  -3.862  1.00  0.00     0.004 A 
ATOM     14  C   UNL     1      -6.971  -0.886  -2.378  1.00  0.00     0.000 A 
ATOM     15  C   UNL     1      -6.840  -2.071  -3.122  1.00  0.00     0.000 A 
BRANCH   7  16
ATOM     16  N   UNL     1      -2.331  -0.256  -1.745  1.00  0.00    -0.320 N 
ATOM     17  N   UNL     1      -3.250  -1.454   0.064  1.00  0.00    -0.327 N 
ATOM     18  C   UNL     1      -2.233  -0.846  -0.545  1.00  0.00     0.316 C 
ATOM     19  H   UNL     1      -3.214  -1.549   1.043  1.00  0.00     0.166 HD
ATOM     20  O   UNL     1      -1.144  -0.802   0.031  1.00  0.00    -0.249 OA
ATOM     21  H   UNL     1      -1.428  -0.185  -2.130  1.00  0.00     0.166 HD
BRANCH  17  22
ATOM     22  C   UNL     1      -4.374  -1.971  -0.613  1.00  0.00     0.207 C 
BRANCH  22  23
ATOM     23  C   UNL     1      -4.306  -3.481  -0.773  1.00  0.00    -0.085 C 
ATOM     24  C   UNL     1      -4.247  -4.776  -0.910  1.00  0.00     0.006 C 
ENDBRANCH  22  23
ENDBRANCH  17  22
ENDBRANCH   7  16
ENDBRANCH   4   7
ENDBRANCH   2   3
ENDBRANCH   1   2
BRANCH   1  25
ATOM     25  C   UNL     1      -4.262   3.827   1.400  1.00  0.00     0.023 C 
BRANCH  25  26
ATOM     26  C   UNL     1      -5.370   2.950   1.970  1.00  0.00     0.116 C 
BRANCH  26  27
ATOM     27  N   UNL     1      -5.032   2.383   3.270  1.00  0.00    -0.352 N 
ATOM     28  C   UNL     1      -5.578   2.644   4.506  1.00  0.00     0.251 C 
ATOM     29  H   UNL     1      -4.308   1.716   3.263  1.00  0.00     0.163 HD
ATOM     30  O   UNL     1      -5.041   2.200   5.520  1.00  0.00    -0.269 OA
BRANCH  28  31
ATOM     31  C   UNL     1      -6.789   3.486   4.611  1.00  0.00     0.039 A 
ATOM     32  C   UNL     1      -6.829   4.517   5.551  1.00  0.00     0.014 A 
ATOM     33  C   UNL     1      -7.870   3.278   3.752  1.00  0.00     0.014 A 
ATOM     34  C   UNL     1      -7.919   5.391   5.570  1.00  0.00     0.010 A 
ATOM     35  C   UNL     1      -8.901   4.209   3.702  1.00  0.00     0.010 A 
ATOM     36  C   UNL     1      -8.943   5.274   4.615  1.00  0.00    -0.014 A 
BRANCH  36  37
ATOM     37  C   UNL     1     -10.072   6.242   4.568  1.00  0.00     0.031 A 
ATOM     38  C   UNL     1     -11.485   5.762   4.766  1.00  0.00     0.074 A 
ATOM     39  C   UNL     1      -9.832   7.540   4.292  1.00  0.00     0.049 A 
ATOM     40  N   UNL     1     -12.605   6.436   4.711  1.00  0.00    -0.248 NA
ATOM     41  C   UNL     1     -11.664   4.325   5.023  1.00  0.00     0.031 C 
ATOM     42  C   UNL     1      -8.512   8.118   4.028  1.00  0.00     0.029 A 
ATOM     43  N   UNL     1     -10.687   8.609   4.181  1.00  0.00    -0.354 N 
ATOM     44  C   UNL     1     -13.619   5.504   4.912  1.00  0.00     0.074 A 
ATOM     45  C   UNL     1     -12.982   4.209   5.011  1.00  0.00     0.031 C 
ATOM     46  C   UNL     1      -8.642   9.439   3.825  1.00  0.00     0.029 A 
ATOM     47  C   UNL     1     -10.055   9.797   3.890  1.00  0.00     0.049 A 
ATOM     48  H   UNL     1     -11.661   8.533   4.300  1.00  0.00     0.167 HD
ATOM     49  C   UNL     1     -14.954   5.712   5.032  1.00  0.00     0.034 A 
ATOM     50  C   UNL     1     -10.557  11.032   3.687  1.00  0.00     0.034 A 
ATOM     51  C   UNL     1     -15.569   7.013   4.939  1.00  0.00     0.049 A 
ATOM     52  C   UNL     1     -12.046  11.238   3.801  1.00  0.00     0.074 A 
ATOM     53  C   UNL     1     -16.901   7.350   5.106  1.00  0.00     0.029 A 
ATOM     54  N   UNL     1     -14.898   8.193   4.638  1.00  0.00    -0.354 N 
ATOM     55  N   UNL     1     -12.986  10.357   4.057  1.00  0.00    -0.248 NA
ATOM     56  C   UNL     1     -12.540  12.607   3.612  1.00  0.00     0.031 C 
ATOM     57  C   UNL     1     -17.048   8.711   4.821  1.00  0.00     0.029 A 
ATOM     58  C   UNL     1     -15.795   9.249   4.574  1.00  0.00     0.049 A 
ATOM     59  H   UNL     1     -13.927   8.268   4.492  1.00  0.00     0.167 HD
ATOM     60  C   UNL     1     -14.180  11.073   4.092  1.00  0.00     0.074 A 
ATOM     61  C   UNL     1     -13.836  12.459   3.846  1.00  0.00     0.031 C 
ATOM     62  C   UNL     1     -15.444  10.627   4.313  1.00  0.00     0.034 A 
BRANCH  49  63
ATOM     63  C   UNL     1     -15.830   4.498   5.244  1.00  0.00     0.023 A 
ATOM     64  C   UNL     1     -15.675   3.656   6.361  1.00  0.00     0.031 A 
ATOM     65  C   UNL     1     -16.808   4.151   4.295  1.00  0.00     0.131 A 
ATOM     66  C   UNL     1     -16.415   2.467   6.452  1.00  0.00     0.055 A 
ATOM     67  C   UNL     1     -17.610   3.017   4.442  1.00  0.00     0.041 A 
ATOM     68  F   UNL     1     -16.990   4.899   3.195  1.00  0.00    -0.206 F 
ATOM     69  C   UNL     1     -17.402   2.156   5.516  1.00  0.00     0.022 A 
BRANCH  66  70
ATOM     70  S   UNL     1     -15.943   1.250   7.712  1.00  0.00     0.124 S 
ATOM     71  O   UNL     1     -14.539   1.013   7.381  1.00  0.00    -0.237 OA
ATOM     72  O   UNL     1     -16.194   1.969   8.955  1.00  0.00    -0.237 OA
ATOM     73  O   UNL     1     -16.834   0.122   7.450  1.00  0.00    -0.744 OA
ENDBRANCH  66  70
ENDBRANCH  49  63
BRANCH  50  74
ATOM     74  C   UNL     1      -9.649  12.167   3.346  1.00  0.00     0.023 A 
ATOM     75  C   UNL     1      -9.505  13.268   4.205  1.00  0.00     0.031 A 
ATOM     76  C   UNL     1      -8.933  12.180   2.135  1.00  0.00     0.131 A 
ATOM     77  C   UNL     1      -8.699  14.354   3.824  1.00  0.00     0.055 A 
ATOM     78  C   UNL     1      -8.088  13.235   1.787  1.00  0.00     0.041 A 
ATOM     79  F   UNL     1      -9.033  11.152   1.277  1.00  0.00    -0.206 F 
ATOM     80  C   UNL     1      -7.977  14.336   2.629  1.00  0.00     0.022 A 
BRANCH  77  81
ATOM     81  S   UNL     1      -8.672  15.831   4.877  1.00  0.00     0.124 S 
ATOM     82  O   UNL     1     -10.079  16.212   4.890  1.00  0.00    -0.237 OA
ATOM     83  O   UNL     1      -8.137  15.302   6.128  1.00  0.00    -0.237 OA
ATOM     84  O   UNL     1      -7.784  16.743   4.160  1.00  0.00    -0.744 OA
ENDBRANCH  77  81
ENDBRANCH  50  74
BRANCH  62  85
ATOM     85  C   UNL     1     -16.544  11.662   4.346  1.00  0.00     0.023 A 
ATOM     86  C   UNL     1     -16.890  12.419   3.213  1.00  0.00     0.031 A 
ATOM     87  C   UNL     1     -17.251  11.902   5.539  1.00  0.00     0.131 A 
ATOM     88  C   UNL     1     -17.867  13.422   3.313  1.00  0.00     0.055 A 
ATOM     89  C   UNL     1     -18.272  12.850   5.613  1.00  0.00     0.041 A 
ATOM     90  F   UNL     1     -16.961  11.215   6.656  1.00  0.00    -0.206 F 
ATOM     91  C   UNL     1     -18.575  13.627   4.500  1.00  0.00     0.022 A 
BRANCH  88  92
ATOM     92  S   UNL     1     -18.119  14.534   1.903  1.00  0.00     0.124 S 
ATOM     93  O   UNL     1     -16.783  15.088   1.712  1.00  0.00    -0.237 OA
ATOM     94  O   UNL     1     -18.586  13.622   0.865  1.00  0.00    -0.237 OA
ATOM     95  O   UNL     1     -19.120  15.483   2.389  1.00  0.00    -0.744 OA
ENDBRANCH  88  92
ENDBRANCH  62  85
ENDBRANCH  36  37
ENDBRANCH  28  31
ENDBRANCH  26  27
ENDBRANCH  25  26
ENDBRANCH   1  25
TORSDOF 17
