REMARK SMILES COC(=O)c1ccc([C@H]2CC(=O)Nc3c(C(=O)NCCCCNC(=O)c4ccc(-c5c6nc(c(-c7cc(S(=O)(=O)[O-])ccc7F)c7ccc([nH]7)c(-c7cc(S(=O)(=O)[O-])ccc7F)c7nc(c(-c8cc(S(=O)(=O)[O-])ccc8F)c8ccc5[nH]8)C=C7)C=C6)cc4)cn(-c4ccccc4)c32)cc1
REMARK SMILES IDX 20 1 19 2 18 3 16 4 17 5 15 7 9 8 10 9 97 10 11 11 14 12
REMARK SMILES IDX 90 13 12 14 13 15 89 16 8 18 5 19 6 20 99 21 7 22 98 23 3 24
REMARK SMILES IDX 4 25 2 26 1 27 91 28 92 29 96 30 93 31 95 32 94 33 21 34
REMARK SMILES IDX 22 35 23 36 24 37 25 39 26 40 27 41 88 42 28 43 87 44 29 45
REMARK SMILES IDX 30 46 31 47 81 48 32 49 86 50 80 51 82 52 33 53 85 54 79 55
REMARK SMILES IDX 78 56 34 58 66 59 46 60 65 61 47 62 50 63 64 64 83 65 48 66
REMARK SMILES IDX 49 67 63 69 84 70 51 71 35 72 36 73 44 74 37 75 43 76 45 77
REMARK SMILES IDX 42 78 38 79 39 80 40 81 41 82 67 83 68 84 76 85 69 86 75 87
REMARK SMILES IDX 77 88 74 89 70 90 71 91 72 92 73 93 52 94 53 95 61 96 54 97
REMARK SMILES IDX 60 98 62 99 59 100 55 101 56 102 57 103 58 104
REMARK H PARENT 18 6 13 17 23 38 82 57 50 68
REMARK Flexibility Score: inf
ROOT
ATOM      1  C   UNL     1      -6.619  -1.929   8.445  1.00  0.00     0.023 C 
ENDROOT
BRANCH   1   2
ATOM      2  C   UNL     1      -6.275  -0.575   7.806  1.00  0.00     0.116 C 
BRANCH   2   3
ATOM      3  N   UNL     1      -5.528   0.264   8.709  1.00  0.00    -0.352 N 
ATOM      4  C   UNL     1      -4.201   0.396   9.009  1.00  0.00     0.254 C 
ATOM      5  O   UNL     1      -3.957   1.286   9.833  1.00  0.00    -0.269 OA
ATOM      6  H   UNL     1      -6.101   0.878   9.223  1.00  0.00     0.163 HD
BRANCH   4   7
ATOM      7  C   UNL     1      -3.099  -0.417   8.465  1.00  0.00     0.081 A 
ATOM      8  C   UNL     1      -0.995  -3.188   7.064  1.00  0.00     0.078 C 
ATOM      9  C   UNL     1      -2.103  -4.202   6.756  1.00  0.00     0.115 C 
ATOM     10  C   UNL     1      -1.570  -1.912   7.633  1.00  0.00     0.055 A 
ATOM     11  C   UNL     1      -3.439  -3.605   6.419  1.00  0.00     0.225 C 
ATOM     12  C   UNL     1      -2.919  -1.605   7.687  1.00  0.00     0.076 A 
ATOM     13  N   UNL     1      -0.871  -0.849   8.174  1.00  0.00    -0.317 N 
ATOM     14  O   UNL     1      -4.257  -4.210   5.727  1.00  0.00    -0.275 OA
ATOM     15  N   UNL     1      -3.791  -2.438   7.030  1.00  0.00    -0.324 N 
ATOM     16  C   UNL     1      -1.792  -0.030   8.776  1.00  0.00     0.107 A 
ATOM     17  H   UNL     1      -4.738  -2.173   6.998  1.00  0.00     0.170 HD
BRANCH   8  18
ATOM     18  C   UNL     1       0.039  -3.920   7.928  1.00  0.00    -0.038 A 
ATOM     19  C   UNL     1       2.088  -5.190   9.393  1.00  0.00     0.060 A 
ATOM     20  C   UNL     1       1.860  -5.535   8.058  1.00  0.00     0.016 A 
ATOM     21  C   UNL     1       1.241  -4.271  10.017  1.00  0.00     0.016 A 
ATOM     22  C   UNL     1       0.854  -4.896   7.329  1.00  0.00     0.005 A 
ATOM     23  C   UNL     1       0.200  -3.679   9.301  1.00  0.00     0.005 A 
BRANCH  19  24
ATOM     24  C   UNL     1       3.258  -5.790  10.088  1.00  0.00     0.337 C 
ATOM     25  O   UNL     1       4.097  -6.471   9.536  1.00  0.00    -0.246 OA
BRANCH  24  26
ATOM     26  O   UNL     1       3.252  -5.441  11.403  1.00  0.00    -0.465 OA
ATOM     27  C   UNL     1       4.384  -5.908  12.132  1.00  0.00     0.282 C 
ENDBRANCH  24  26
ENDBRANCH  19  24
ENDBRANCH   8  18
BRANCH  13  28
ATOM     28  C   UNL     1       0.537  -0.689   8.252  1.00  0.00     0.045 A 
ATOM     29  C   UNL     1       1.339  -0.964   7.140  1.00  0.00     0.026 A 
ATOM     30  C   UNL     1       1.122  -0.390   9.490  1.00  0.00     0.026 A 
ATOM     31  C   UNL     1       2.725  -1.018   7.285  1.00  0.00     0.002 A 
ATOM     32  C   UNL     1       2.508  -0.482   9.633  1.00  0.00     0.002 A 
ATOM     33  C   UNL     1       3.306  -0.808   8.536  1.00  0.00     0.000 A 
ENDBRANCH  13  28
ENDBRANCH   4   7
ENDBRANCH   2   3
ENDBRANCH   1   2
BRANCH   1  34
ATOM     34  C   UNL     1      -7.958  -1.959   9.198  1.00  0.00     0.023 C 
BRANCH  34  35
ATOM     35  C   UNL     1      -9.187  -1.918   8.293  1.00  0.00     0.116 C 
BRANCH  35  36
ATOM     36  N   UNL     1      -9.320  -3.104   7.441  1.00  0.00    -0.352 N 
ATOM     37  C   UNL     1     -10.122  -3.246   6.320  1.00  0.00     0.251 C 
ATOM     38  H   UNL     1      -8.778  -3.887   7.694  1.00  0.00     0.163 HD
ATOM     39  O   UNL     1     -10.527  -4.346   5.966  1.00  0.00    -0.269 OA
BRANCH  37  40
ATOM     40  C   UNL     1     -10.445  -2.030   5.553  1.00  0.00     0.039 A 
ATOM     41  C   UNL     1     -11.724  -1.761   5.057  1.00  0.00     0.014 A 
ATOM     42  C   UNL     1      -9.410  -1.110   5.411  1.00  0.00     0.014 A 
ATOM     43  C   UNL     1     -11.965  -0.513   4.482  1.00  0.00     0.010 A 
ATOM     44  C   UNL     1      -9.698   0.169   5.025  1.00  0.00     0.010 A 
ATOM     45  C   UNL     1     -10.945   0.453   4.484  1.00  0.00    -0.014 A 
BRANCH  45  46
ATOM     46  C   UNL     1     -11.164   1.827   4.047  1.00  0.00     0.031 A 
ATOM     47  C   UNL     1     -12.249   2.529   4.782  1.00  0.00     0.074 A 
ATOM     48  C   UNL     1     -10.283   2.476   3.249  1.00  0.00     0.049 A 
ATOM     49  N   UNL     1     -13.417   2.852   4.336  1.00  0.00    -0.248 NA
ATOM     50  C   UNL     1     -12.104   2.729   6.234  1.00  0.00     0.031 C 
ATOM     51  C   UNL     1      -9.010   1.984   2.705  1.00  0.00     0.029 A 
ATOM     52  N   UNL     1     -10.285   3.772   2.838  1.00  0.00    -0.354 N 
ATOM     53  C   UNL     1     -14.041   3.548   5.366  1.00  0.00     0.074 A 
ATOM     54  C   UNL     1     -13.304   3.218   6.555  1.00  0.00     0.031 C 
ATOM     55  C   UNL     1      -8.270   3.021   2.251  1.00  0.00     0.029 A 
ATOM     56  C   UNL     1      -9.078   4.226   2.304  1.00  0.00     0.049 A 
ATOM     57  H   UNL     1     -11.080   4.348   2.912  1.00  0.00     0.167 HD
ATOM     58  C   UNL     1     -14.930   4.546   5.094  1.00  0.00     0.034 A 
ATOM     59  C   UNL     1      -8.761   5.499   1.933  1.00  0.00     0.034 A 
ATOM     60  C   UNL     1     -15.329   4.499   3.701  1.00  0.00     0.049 A 
ATOM     61  C   UNL     1     -10.056   6.191   1.703  1.00  0.00     0.074 A 
ATOM     62  C   UNL     1     -15.924   3.545   2.898  1.00  0.00     0.029 A 
ATOM     63  N   UNL     1     -14.730   5.388   2.833  1.00  0.00    -0.354 N 
ATOM     64  N   UNL     1     -10.886   5.836   0.758  1.00  0.00    -0.248 NA
ATOM     65  C   UNL     1     -10.663   6.888   2.828  1.00  0.00     0.031 C 
ATOM     66  C   UNL     1     -15.212   3.616   1.663  1.00  0.00     0.029 A 
ATOM     67  C   UNL     1     -14.306   4.677   1.736  1.00  0.00     0.049 A 
ATOM     68  H   UNL     1     -14.625   6.357   2.973  1.00  0.00     0.167 HD
ATOM     69  C   UNL     1     -12.139   5.856   1.355  1.00  0.00     0.074 A 
ATOM     70  C   UNL     1     -11.949   6.598   2.603  1.00  0.00     0.031 C 
ATOM     71  C   UNL     1     -13.139   5.020   0.940  1.00  0.00     0.034 A 
BRANCH  58  72
ATOM     72  C   UNL     1     -15.137   5.793   5.933  1.00  0.00     0.023 A 
ATOM     73  C   UNL     1     -16.049   6.745   5.434  1.00  0.00     0.031 A 
ATOM     74  C   UNL     1     -14.316   6.237   6.993  1.00  0.00     0.131 A 
ATOM     75  C   UNL     1     -16.022   8.079   5.876  1.00  0.00     0.055 A 
ATOM     76  C   UNL     1     -14.338   7.550   7.475  1.00  0.00     0.041 A 
ATOM     77  F   UNL     1     -13.388   5.468   7.570  1.00  0.00    -0.206 F 
ATOM     78  C   UNL     1     -15.166   8.491   6.891  1.00  0.00     0.022 A 
BRANCH  75  79
ATOM     79  S   UNL     1     -16.989   9.303   4.956  1.00  0.00     0.124 S 
ATOM     80  O   UNL     1     -16.527   9.074   3.592  1.00  0.00    -0.237 OA
ATOM     81  O   UNL     1     -18.356   8.888   5.254  1.00  0.00    -0.237 OA
ATOM     82  O   UNL     1     -16.578  10.572   5.551  1.00  0.00    -0.744 OA
ENDBRANCH  75  79
ENDBRANCH  58  72
BRANCH  59  83
ATOM     83  C   UNL     1      -7.458   6.207   2.146  1.00  0.00     0.023 A 
ATOM     84  C   UNL     1      -7.046   7.351   1.421  1.00  0.00     0.031 A 
ATOM     85  C   UNL     1      -6.683   5.873   3.281  1.00  0.00     0.131 A 
ATOM     86  C   UNL     1      -5.909   8.095   1.839  1.00  0.00     0.055 A 
ATOM     87  C   UNL     1      -5.569   6.613   3.690  1.00  0.00     0.041 A 
ATOM     88  F   UNL     1      -7.034   4.856   4.084  1.00  0.00    -0.206 F 
ATOM     89  C   UNL     1      -5.182   7.732   2.974  1.00  0.00     0.022 A 
BRANCH  86  90
ATOM     90  S   UNL     1      -5.379   9.598   0.943  1.00  0.00     0.124 S 
ATOM     91  O   UNL     1      -5.027   9.073  -0.371  1.00  0.00    -0.237 OA
ATOM     92  O   UNL     1      -6.568  10.440   1.011  1.00  0.00    -0.237 OA
ATOM     93  O   UNL     1      -4.243  10.084   1.729  1.00  0.00    -0.744 OA
ENDBRANCH  86  90
ENDBRANCH  59  83
BRANCH  71  94
ATOM     94  C   UNL     1     -12.956   4.250  -0.356  1.00  0.00     0.023 A 
ATOM     95  C   UNL     1     -11.937   3.300  -0.610  1.00  0.00     0.031 A 
ATOM     96  C   UNL     1     -13.968   4.392  -1.321  1.00  0.00     0.131 A 
ATOM     97  C   UNL     1     -11.965   2.539  -1.800  1.00  0.00     0.055 A 
ATOM     98  C   UNL     1     -14.005   3.621  -2.482  1.00  0.00     0.041 A 
ATOM     99  F   UNL     1     -14.975   5.259  -1.126  1.00  0.00    -0.206 F 
ATOM    100  C   UNL     1     -13.001   2.693  -2.727  1.00  0.00     0.022 A 
BRANCH  97 101
ATOM    101  S   UNL     1     -10.646   1.335  -2.177  1.00  0.00     0.124 S 
ATOM    102  O   UNL     1      -9.421   2.096  -1.969  1.00  0.00    -0.237 OA
ATOM    103  O   UNL     1     -10.907   0.265  -1.218  1.00  0.00    -0.237 OA
ATOM    104  O   UNL     1     -10.906   0.971  -3.573  1.00  0.00    -0.744 OA
ENDBRANCH  97 101
ENDBRANCH  71  94
ENDBRANCH  45  46
ENDBRANCH  37  40
ENDBRANCH  35  36
ENDBRANCH  34  35
ENDBRANCH   1  34
TORSDOF 18
