REMARK SMILES Cc1ccc(C)c(/C=C2\SC(=S)N(CC(=O)NCCCCNC(=O)c3ccc(-c4c5nc(c(-c6cc(S(=O)(=O)[O-])ccc6F)c6ccc([nH]6)c(-c6cc(S(=O)(=O)[O-])ccc6F)c6nc(c(-c7cc(S(=O)(=O)[O-])ccc7F)c7ccc4[nH]7)C=C6)C=C5)cc3)C2=O)c1
REMARK SMILES IDX 20 1 19 2 18 3 17 4 15 5 16 6 14 8 13 9 8 10 9 11 10 12
REMARK SMILES IDX 88 13 11 14 89 15 12 16 7 17 1 18 2 19 3 20 90 21 4 22 5 23
REMARK SMILES IDX 6 24 21 25 22 26 23 27 24 29 25 30 26 31 87 32 27 33 86 34
REMARK SMILES IDX 28 35 29 36 30 37 80 38 31 39 85 40 79 41 81 42 32 43 84 44
REMARK SMILES IDX 78 45 77 46 33 48 65 49 45 50 64 51 46 52 49 53 63 54 82 55
REMARK SMILES IDX 47 56 48 57 62 59 83 60 50 61 34 62 35 63 43 64 36 65 42 66
REMARK SMILES IDX 44 67 41 68 37 69 38 70 39 71 40 72 66 73 67 74 75 75 68 76
REMARK SMILES IDX 74 77 76 78 73 79 69 80 70 81 71 82 72 83 51 84 52 85 60 86
REMARK SMILES IDX 53 87 59 88 61 89 58 90 54 91 55 92 56 93 57 94
REMARK H PARENT 17 7 22 28 81 47 49 58
REMARK Flexibility Score: inf
ROOT
ATOM      1  C   UNL     1      -4.983   2.661  -4.113  1.00  0.00     0.023 C 
ENDROOT
BRANCH   1   2
ATOM      2  C   UNL     1      -3.633   3.399  -4.143  1.00  0.00     0.023 C 
BRANCH   2   3
ATOM      3  C   UNL     1      -3.622   4.918  -4.342  1.00  0.00     0.116 C 
BRANCH   3   4
ATOM      4  N   UNL     1      -4.276   5.662  -3.290  1.00  0.00    -0.355 N 
ATOM      5  C   UNL     1      -3.748   6.576  -2.424  1.00  0.00     0.240 C 
ATOM      6  O   UNL     1      -4.538   7.340  -1.862  1.00  0.00    -0.273 OA
ATOM      7  H   UNL     1      -5.238   5.484  -3.183  1.00  0.00     0.163 HD
BRANCH   5   8
ATOM      8  C   UNL     1      -2.232   6.747  -2.250  1.00  0.00     0.227 C 
BRANCH   8   9
ATOM      9  N   UNL     1      -1.529   5.479  -2.061  1.00  0.00    -0.283 N 
ATOM     10  C   UNL     1      -1.296   2.514  -0.011  1.00  0.00     0.029 C 
ATOM     11  C   UNL     1      -1.093   3.452  -0.947  1.00  0.00     0.081 C 
ATOM     12  S   UNL     1      -0.028   3.405  -2.292  1.00  0.00    -0.054 SA
ATOM     13  C   UNL     1      -1.856   4.724  -0.950  1.00  0.00     0.266 C 
ATOM     14  C   UNL     1      -0.475   5.021  -2.821  1.00  0.00     0.148 C 
ATOM     15  O   UNL     1      -2.658   5.028  -0.074  1.00  0.00    -0.268 OA
ATOM     16  S   UNL     1       0.342   5.790  -4.052  1.00  0.00    -0.052 S 
BRANCH  10  17
ATOM     17  C   UNL     1      -0.642   1.199   0.042  1.00  0.00    -0.021 A 
ATOM     18  C   UNL     1       2.942  -0.115   0.090  1.00  0.00     0.044 C 
ATOM     19  C   UNL     1       1.443  -0.078   0.097  1.00  0.00    -0.051 A 
ATOM     20  C   UNL     1       0.706  -1.262   0.066  1.00  0.00     0.004 A 
ATOM     21  C   UNL     1       0.761   1.143   0.110  1.00  0.00     0.011 A 
ATOM     22  C   UNL     1      -0.690  -1.222   0.042  1.00  0.00     0.004 A 
ATOM     23  C   UNL     1      -1.381   0.001   0.027  1.00  0.00    -0.044 A 
ATOM     24  C   UNL     1      -2.885  -0.051  -0.028  1.00  0.00     0.045 C 
ENDBRANCH  10  17
ENDBRANCH   8   9
ENDBRANCH   5   8
ENDBRANCH   3   4
ENDBRANCH   2   3
ENDBRANCH   1   2
BRANCH   1  25
ATOM     25  C   UNL     1      -5.800   2.546  -5.407  1.00  0.00     0.116 C 
BRANCH  25  26
ATOM     26  N   UNL     1      -5.064   1.956  -6.540  1.00  0.00    -0.352 N 
ATOM     27  C   UNL     1      -5.061   2.229  -7.903  1.00  0.00     0.251 C 
ATOM     28  H   UNL     1      -4.457   1.226  -6.280  1.00  0.00     0.163 HD
ATOM     29  O   UNL     1      -4.671   1.355  -8.682  1.00  0.00    -0.269 OA
BRANCH  27  30
ATOM     30  C   UNL     1      -5.485   3.547  -8.431  1.00  0.00     0.039 A 
ATOM     31  C   UNL     1      -5.745   3.832  -9.773  1.00  0.00     0.014 A 
ATOM     32  C   UNL     1      -5.550   4.584  -7.525  1.00  0.00     0.014 A 
ATOM     33  C   UNL     1      -6.041   5.156 -10.137  1.00  0.00     0.010 A 
ATOM     34  C   UNL     1      -6.098   5.792  -7.811  1.00  0.00     0.010 A 
ATOM     35  C   UNL     1      -6.186   6.132  -9.138  1.00  0.00    -0.014 A 
BRANCH  35  36
ATOM     36  C   UNL     1      -6.464   7.536  -9.380  1.00  0.00     0.031 A 
ATOM     37  C   UNL     1      -7.796   7.793  -9.946  1.00  0.00     0.074 A 
ATOM     38  C   UNL     1      -5.749   8.549  -8.838  1.00  0.00     0.049 A 
ATOM     39  N   UNL     1      -8.070   8.105 -11.164  1.00  0.00    -0.248 NA
ATOM     40  C   UNL     1      -8.973   7.506  -9.114  1.00  0.00     0.031 C 
ATOM     41  C   UNL     1      -4.620   8.476  -7.900  1.00  0.00     0.029 A 
ATOM     42  N   UNL     1      -5.979   9.888  -8.925  1.00  0.00    -0.354 N 
ATOM     43  C   UNL     1      -9.438   8.319 -11.188  1.00  0.00     0.074 A 
ATOM     44  C   UNL     1      -9.954   7.690 -10.001  1.00  0.00     0.031 C 
ATOM     45  C   UNL     1      -4.400   9.697  -7.360  1.00  0.00     0.029 A 
ATOM     46  C   UNL     1      -5.261  10.663  -8.020  1.00  0.00     0.049 A 
ATOM     47  H   UNL     1      -6.604  10.277  -9.579  1.00  0.00     0.167 HD
ATOM     48  C   UNL     1      -9.987   9.226 -12.041  1.00  0.00     0.034 A 
ATOM     49  C   UNL     1      -5.386  12.000  -7.811  1.00  0.00     0.034 A 
ATOM     50  C   UNL     1      -9.014   9.667 -13.024  1.00  0.00     0.049 A 
ATOM     51  C   UNL     1      -5.991  12.570  -9.042  1.00  0.00     0.074 A 
ATOM     52  C   UNL     1      -8.203   9.019 -13.938  1.00  0.00     0.029 A 
ATOM     53  N   UNL     1      -8.457  10.919 -12.867  1.00  0.00    -0.354 N 
ATOM     54  N   UNL     1      -5.396  12.563 -10.204  1.00  0.00    -0.248 NA
ATOM     55  C   UNL     1      -7.438  12.722  -9.098  1.00  0.00     0.031 C 
ATOM     56  C   UNL     1      -6.954   9.709 -13.877  1.00  0.00     0.029 A 
ATOM     57  C   UNL     1      -7.094  10.785 -12.998  1.00  0.00     0.049 A 
ATOM     58  H   UNL     1      -8.945  11.756 -12.693  1.00  0.00     0.167 HD
ATOM     59  C   UNL     1      -6.392  12.257 -11.118  1.00  0.00     0.074 A 
ATOM     60  C   UNL     1      -7.642  12.487 -10.398  1.00  0.00     0.031 C 
ATOM     61  C   UNL     1      -6.115  11.573 -12.269  1.00  0.00     0.034 A 
BRANCH  48  62
ATOM     62  C   UNL     1     -11.272   9.978 -11.796  1.00  0.00     0.023 A 
ATOM     63  C   UNL     1     -11.726  10.811 -12.834  1.00  0.00     0.031 A 
ATOM     64  C   UNL     1     -11.932  10.130 -10.555  1.00  0.00     0.131 A 
ATOM     65  C   UNL     1     -12.707  11.787 -12.602  1.00  0.00     0.055 A 
ATOM     66  C   UNL     1     -12.966  11.048 -10.351  1.00  0.00     0.041 A 
ATOM     67  F   UNL     1     -11.560   9.480  -9.447  1.00  0.00    -0.206 F 
ATOM     68  C   UNL     1     -13.338  11.907 -11.368  1.00  0.00     0.022 A 
BRANCH  65  69
ATOM     69  S   UNL     1     -13.001  13.019 -13.894  1.00  0.00     0.124 S 
ATOM     70  O   UNL     1     -11.651  13.511 -14.144  1.00  0.00    -0.237 OA
ATOM     71  O   UNL     1     -13.598  12.207 -14.949  1.00  0.00    -0.237 OA
ATOM     72  O   UNL     1     -13.903  13.972 -13.252  1.00  0.00    -0.744 OA
ENDBRANCH  65  69
ENDBRANCH  48  62
BRANCH  49  73
ATOM     73  C   UNL     1      -5.253  12.744  -6.529  1.00  0.00     0.023 A 
ATOM     74  C   UNL     1      -5.044  14.138  -6.470  1.00  0.00     0.031 A 
ATOM     75  C   UNL     1      -5.579  12.101  -5.313  1.00  0.00     0.131 A 
ATOM     76  C   UNL     1      -5.165  14.826  -5.239  1.00  0.00     0.055 A 
ATOM     77  C   UNL     1      -5.688  12.784  -4.099  1.00  0.00     0.041 A 
ATOM     78  F   UNL     1      -5.890  10.796  -5.279  1.00  0.00    -0.206 F 
ATOM     79  C   UNL     1      -5.490  14.154  -4.059  1.00  0.00     0.022 A 
BRANCH  76  80
ATOM     80  S   UNL     1      -5.005  16.642  -5.176  1.00  0.00     0.124 S 
ATOM     81  O   UNL     1      -3.579  16.836  -5.413  1.00  0.00    -0.237 OA
ATOM     82  O   UNL     1      -5.904  17.073  -6.240  1.00  0.00    -0.237 OA
ATOM     83  O   UNL     1      -5.454  16.978  -3.825  1.00  0.00    -0.744 OA
ENDBRANCH  76  80
ENDBRANCH  49  73
BRANCH  61  84
ATOM     84  C   UNL     1      -4.663  11.428 -12.692  1.00  0.00     0.023 A 
ATOM     85  C   UNL     1      -3.644  10.849 -11.900  1.00  0.00     0.031 A 
ATOM     86  C   UNL     1      -4.331  11.789 -14.011  1.00  0.00     0.131 A 
ATOM     87  C   UNL     1      -2.352  10.664 -12.432  1.00  0.00     0.055 A 
ATOM     88  C   UNL     1      -3.057  11.583 -14.541  1.00  0.00     0.041 A 
ATOM     89  F   UNL     1      -5.258  12.318 -14.826  1.00  0.00    -0.206 F 
ATOM     90  C   UNL     1      -2.060  11.025 -13.750  1.00  0.00     0.022 A 
BRANCH  87  91
ATOM     91  S   UNL     1      -1.021   9.954 -11.409  1.00  0.00     0.124 S 
ATOM     92  O   UNL     1      -1.096  10.721 -10.170  1.00  0.00    -0.237 OA
ATOM     93  O   UNL     1      -1.408   8.549 -11.315  1.00  0.00    -0.237 OA
ATOM     94  O   UNL     1       0.185  10.199 -12.203  1.00  0.00    -0.744 OA
ENDBRANCH  87  91
ENDBRANCH  61  84
ENDBRANCH  35  36
ENDBRANCH  27  30
ENDBRANCH  25  26
ENDBRANCH   1  25
TORSDOF 16
