REMARK SMILES Cc1c(Cl)cccc1NC(=O)NCc1cn([C@@H]2C[NH2+][C@H](C(=O)NCCCCNC(=O)c3ccc(-c4c5nc(c(-c6cc(S(=O)(=O)[O-])ccc6F)c6ccc([nH]6)c(-c6cc(S(=O)(=O)[O-])ccc6F)c6nc(c(-c7cc(S(=O)(=O)[O-])ccc7F)c7ccc4[nH]7)C=C6)C=C5)cc3)C2)nn1
REMARK SMILES IDX 25 1 24 2 23 3 21 4 22 5 20 7 17 8 18 9 94 10 19 11 16 14
REMARK SMILES IDX 14 15 15 16 96 17 95 18 13 19 12 20 9 21 10 22 11 24 8 26
REMARK SMILES IDX 1 27 2 28 3 29 4 30 5 31 7 32 6 33 26 34 27 35 28 36 29 37
REMARK SMILES IDX 30 39 31 40 32 41 93 42 33 43 92 44 34 45 35 46 36 47 86 48
REMARK SMILES IDX 37 49 91 50 85 51 87 52 38 53 90 54 84 55 83 56 39 58 71 59
REMARK SMILES IDX 51 60 70 61 52 62 55 63 69 64 88 65 53 66 54 67 68 69 89 70
REMARK SMILES IDX 56 71 40 72 41 73 49 74 42 75 48 76 50 77 47 78 43 79 44 80
REMARK SMILES IDX 45 81 46 82 72 83 73 84 81 85 74 86 80 87 82 88 79 89 75 90
REMARK SMILES IDX 76 91 77 92 78 93 57 94 58 95 66 96 59 97 65 98 67 99 64 100
REMARK SMILES IDX 60 101 61 102 62 103 63 104
REMARK H PARENT 23 6 19 12 19 13 9 23 12 25 28 38 87 57 55 68
REMARK Flexibility Score: inf
ROOT
ATOM      1  C   UNL     1      -0.761  -7.277   2.067  1.00  0.00     0.023 C 
ENDROOT
BRANCH   1   2
ATOM      2  C   UNL     1      -1.797  -6.263   1.574  1.00  0.00     0.116 C 
BRANCH   2   3
ATOM      3  N   UNL     1      -3.077  -6.873   1.270  1.00  0.00    -0.351 N 
ATOM      4  C   UNL     1      -4.283  -6.867   1.894  1.00  0.00     0.278 C 
ATOM      5  O   UNL     1      -5.157  -7.577   1.375  1.00  0.00    -0.268 OA
ATOM      6  H   UNL     1      -3.070  -7.402   0.440  1.00  0.00     0.163 HD
BRANCH   4   7
ATOM      7  C   UNL     1      -4.677  -6.009   3.115  1.00  0.00     0.274 C 
ATOM      8  C   UNL     1      -5.073  -3.644   3.501  1.00  0.00     0.170 C 
ATOM      9  C   UNL     1      -3.610  -3.992   3.735  1.00  0.00     0.288 C 
ATOM     10  C   UNL     1      -5.567  -4.840   2.689  1.00  0.00     0.109 C 
ATOM     11  N   UNL     1      -3.568  -5.456   3.925  1.00  0.00    -0.334 N 
ATOM     12  H   UNL     1      -3.699  -5.688   4.910  1.00  0.00     0.347 HD
ATOM     13  H   UNL     1      -2.669  -5.843   3.638  1.00  0.00     0.347 HD
BRANCH   8  14
ATOM     14  N   UNL     1      -5.245  -2.365   2.855  1.00  0.00    -0.243 N 
ATOM     15  C   UNL     1      -5.092  -0.699   1.487  1.00  0.00     0.102 A 
ATOM     16  C   UNL     1      -5.018  -2.074   1.553  1.00  0.00     0.137 A 
ATOM     17  N   UNL     1      -5.415  -0.211   2.723  1.00  0.00    -0.134 NA
ATOM     18  N   UNL     1      -5.518  -1.249   3.557  1.00  0.00    -0.067 NA
BRANCH  15  19
ATOM     19  C   UNL     1      -4.619   0.056   0.311  1.00  0.00     0.178 C 
BRANCH  19  20
ATOM     20  N   UNL     1      -4.516   1.474   0.394  1.00  0.00    -0.332 N 
ATOM     21  N   UNL     1      -2.301   2.043  -0.390  1.00  0.00    -0.308 N 
ATOM     22  C   UNL     1      -3.580   2.324  -0.055  1.00  0.00     0.319 C 
ATOM     23  H   UNL     1      -1.836   2.859  -0.684  1.00  0.00     0.171 HD
ATOM     24  O   UNL     1      -3.900   3.521  -0.059  1.00  0.00    -0.248 OA
ATOM     25  H   UNL     1      -5.264   1.907   0.864  1.00  0.00     0.165 HD
BRANCH  21  26
ATOM     26  C   UNL     1      -1.430   0.930  -0.445  1.00  0.00     0.047 A 
ATOM     27  C   UNL     1       0.581   2.413   0.139  1.00  0.00     0.048 C 
ATOM     28  C   UNL     1      -0.076   1.070  -0.056  1.00  0.00    -0.009 A 
ATOM     29  C   UNL     1       0.715  -0.097   0.087  1.00  0.00     0.046 A 
ATOM     30  Cl  UNL     1       2.368  -0.033   0.607  1.00  0.00    -0.084 Cl
ATOM     31  C   UNL     1       0.194  -1.364  -0.170  1.00  0.00     0.021 A 
ATOM     32  C   UNL     1      -1.835  -0.318  -0.914  1.00  0.00     0.026 A 
ATOM     33  C   UNL     1      -1.080  -1.471  -0.696  1.00  0.00     0.004 A 
ENDBRANCH  21  26
ENDBRANCH  19  20
ENDBRANCH  15  19
ENDBRANCH   8  14
ENDBRANCH   4   7
ENDBRANCH   2   3
ENDBRANCH   1   2
BRANCH   1  34
ATOM     34  C   UNL     1      -0.176  -8.223   1.006  1.00  0.00     0.023 C 
BRANCH  34  35
ATOM     35  C   UNL     1       0.552  -7.541  -0.148  1.00  0.00     0.116 C 
BRANCH  35  36
ATOM     36  N   UNL     1       1.693  -6.726   0.278  1.00  0.00    -0.352 N 
ATOM     37  C   UNL     1       2.470  -5.873  -0.497  1.00  0.00     0.251 C 
ATOM     38  H   UNL     1       1.940  -6.791   1.229  1.00  0.00     0.163 HD
ATOM     39  O   UNL     1       3.603  -5.579  -0.161  1.00  0.00    -0.269 OA
BRANCH  37  40
ATOM     40  C   UNL     1       1.871  -5.311  -1.724  1.00  0.00     0.039 A 
ATOM     41  C   UNL     1       2.580  -5.172  -2.921  1.00  0.00     0.014 A 
ATOM     42  C   UNL     1       0.530  -4.957  -1.649  1.00  0.00     0.014 A 
ATOM     43  C   UNL     1       1.891  -4.753  -4.062  1.00  0.00     0.010 A 
ATOM     44  C   UNL     1      -0.179  -4.736  -2.795  1.00  0.00     0.010 A 
ATOM     45  C   UNL     1       0.505  -4.553  -3.989  1.00  0.00    -0.014 A 
BRANCH  45  46
ATOM     46  C   UNL     1      -0.313  -4.270  -5.161  1.00  0.00     0.031 A 
ATOM     47  C   UNL     1      -0.272  -5.319  -6.207  1.00  0.00     0.074 A 
ATOM     48  C   UNL     1      -1.254  -3.300  -5.157  1.00  0.00     0.049 A 
ATOM     49  N   UNL     1       0.289  -5.232  -7.364  1.00  0.00    -0.248 NA
ATOM     50  C   UNL     1      -0.743  -6.676  -5.881  1.00  0.00     0.031 C 
ATOM     51  C   UNL     1      -1.595  -2.381  -4.072  1.00  0.00     0.029 A 
ATOM     52  N   UNL     1      -2.207  -3.014  -6.079  1.00  0.00    -0.354 N 
ATOM     53  C   UNL     1      -0.011  -6.419  -8.020  1.00  0.00     0.074 A 
ATOM     54  C   UNL     1      -0.399  -7.341  -6.987  1.00  0.00     0.031 C 
ATOM     55  C   UNL     1      -2.820  -1.853  -4.284  1.00  0.00     0.029 A 
ATOM     56  C   UNL     1      -3.278  -2.264  -5.598  1.00  0.00     0.049 A 
ATOM     57  H   UNL     1      -2.147  -3.314  -7.015  1.00  0.00     0.167 HD
ATOM     58  C   UNL     1      -0.184  -6.443  -9.372  1.00  0.00     0.034 A 
ATOM     59  C   UNL     1      -4.465  -2.024  -6.221  1.00  0.00     0.034 A 
ATOM     60  C   UNL     1       0.257  -5.194  -9.964  1.00  0.00     0.049 A 
ATOM     61  C   UNL     1      -4.201  -2.210  -7.675  1.00  0.00     0.074 A 
ATOM     62  C   UNL     1       1.439  -4.476  -9.929  1.00  0.00     0.029 A 
ATOM     63  N   UNL     1      -0.707  -4.289 -10.364  1.00  0.00    -0.354 N 
ATOM     64  N   UNL     1      -3.378  -1.446  -8.347  1.00  0.00    -0.248 NA
ATOM     65  C   UNL     1      -4.399  -3.541  -8.237  1.00  0.00     0.031 C 
ATOM     66  C   UNL     1       1.030  -3.119  -9.764  1.00  0.00     0.029 A 
ATOM     67  C   UNL     1      -0.364  -3.067  -9.838  1.00  0.00     0.049 A 
ATOM     68  H   UNL     1      -1.495  -4.484 -10.922  1.00  0.00     0.167 HD
ATOM     69  C   UNL     1      -2.624  -2.319  -9.120  1.00  0.00     0.074 A 
ATOM     70  C   UNL     1      -3.360  -3.586  -9.079  1.00  0.00     0.031 C 
ATOM     71  C   UNL     1      -1.326  -2.044  -9.458  1.00  0.00     0.034 A 
BRANCH  58  72
ATOM     72  C   UNL     1      -1.086  -7.394 -10.130  1.00  0.00     0.023 A 
ATOM     73  C   UNL     1      -1.122  -7.245 -11.530  1.00  0.00     0.031 A 
ATOM     74  C   UNL     1      -2.096  -8.212  -9.577  1.00  0.00     0.131 A 
ATOM     75  C   UNL     1      -2.182  -7.768 -12.288  1.00  0.00     0.055 A 
ATOM     76  C   UNL     1      -3.107  -8.795 -10.347  1.00  0.00     0.041 A 
ATOM     77  F   UNL     1      -2.225  -8.424  -8.264  1.00  0.00    -0.206 F 
ATOM     78  C   UNL     1      -3.178  -8.543 -11.706  1.00  0.00     0.022 A 
BRANCH  75  79
ATOM     79  S   UNL     1      -2.333  -7.240 -14.013  1.00  0.00     0.124 S 
ATOM     80  O   UNL     1      -2.339  -5.788 -13.871  1.00  0.00    -0.237 OA
ATOM     81  O   UNL     1      -1.138  -7.825 -14.610  1.00  0.00    -0.237 OA
ATOM     82  O   UNL     1      -3.599  -7.833 -14.437  1.00  0.00    -0.744 OA
ENDBRANCH  75  79
ENDBRANCH  58  72
BRANCH  59  83
ATOM     83  C   UNL     1      -5.825  -2.003  -5.590  1.00  0.00     0.023 A 
ATOM     84  C   UNL     1      -6.982  -1.527  -6.252  1.00  0.00     0.031 A 
ATOM     85  C   UNL     1      -6.049  -2.680  -4.365  1.00  0.00     0.131 A 
ATOM     86  C   UNL     1      -8.271  -1.739  -5.694  1.00  0.00     0.055 A 
ATOM     87  C   UNL     1      -7.320  -2.886  -3.821  1.00  0.00     0.041 A 
ATOM     88  F   UNL     1      -5.040  -3.242  -3.680  1.00  0.00    -0.206 F 
ATOM     89  C   UNL     1      -8.440  -2.425  -4.490  1.00  0.00     0.022 A 
BRANCH  86  90
ATOM     90  S   UNL     1      -9.780  -1.205  -6.574  1.00  0.00     0.124 S 
ATOM     91  O   UNL     1      -9.731   0.243  -6.418  1.00  0.00    -0.237 OA
ATOM     92  O   UNL     1      -9.559  -1.723  -7.920  1.00  0.00    -0.237 OA
ATOM     93  O   UNL     1     -10.857  -1.867  -5.836  1.00  0.00    -0.744 OA
ENDBRANCH  86  90
ENDBRANCH  59  83
BRANCH  71  94
ATOM     94  C   UNL     1      -0.770  -0.647  -9.232  1.00  0.00     0.023 A 
ATOM     95  C   UNL     1      -0.770   0.044  -7.998  1.00  0.00     0.031 A 
ATOM     96  C   UNL     1      -0.071  -0.058 -10.302  1.00  0.00     0.131 A 
ATOM     97  C   UNL     1      -0.093   1.277  -7.879  1.00  0.00     0.055 A 
ATOM     98  C   UNL     1       0.620   1.146 -10.173  1.00  0.00     0.041 A 
ATOM     99  F   UNL     1      -0.009  -0.672 -11.496  1.00  0.00    -0.206 F 
ATOM    100  C   UNL     1       0.606   1.822  -8.960  1.00  0.00     0.022 A 
BRANCH  97 101
ATOM    101  S   UNL     1      -0.128   2.217  -6.317  1.00  0.00     0.124 S 
ATOM    102  O   UNL     1      -1.525   2.145  -5.905  1.00  0.00    -0.237 OA
ATOM    103  O   UNL     1       0.820   1.483  -5.483  1.00  0.00    -0.237 OA
ATOM    104  O   UNL     1       0.321   3.553  -6.716  1.00  0.00    -0.744 OA
ENDBRANCH  97 101
ENDBRANCH  71  94
ENDBRANCH  45  46
ENDBRANCH  37  40
ENDBRANCH  35  36
ENDBRANCH  34  35
ENDBRANCH   1  34
TORSDOF 18
