REMARK SMILES CC[N@@H+](Cc1cccc(C)n1)Cc1csc(C(=O)NCCCCNC(=O)c2ccc(-c3c4nc(c(-c5cc(S(=O)(=O)[O-])ccc5F)c5ccc([nH]5)c(-c5cc(S(=O)(=O)[O-])ccc5F)c5nc(c(-c6cc(S(=O)(=O)[O-])ccc6F)c6ccc3[nH]6)C=C5)C=C4)cc2)n1
REMARK SMILES IDX 21 1 20 2 19 3 17 4 18 5 16 7 13 8 14 9 90 10 15 11 12 12
REMARK SMILES IDX 3 13 2 15 1 16 4 17 5 18 6 19 11 20 7 21 9 22 8 23 10 24
REMARK SMILES IDX 22 25 23 26 24 27 25 28 26 30 27 31 28 32 89 33 29 34 88 35
REMARK SMILES IDX 30 36 31 37 32 38 82 39 33 40 87 41 81 42 83 43 34 44 86 45
REMARK SMILES IDX 80 46 79 47 35 49 67 50 47 51 66 52 48 53 51 54 65 55 84 56
REMARK SMILES IDX 49 57 50 58 64 60 85 61 52 62 36 63 37 64 45 65 38 66 44 67
REMARK SMILES IDX 46 68 43 69 39 70 40 71 41 72 42 73 68 74 69 75 77 76 70 77
REMARK SMILES IDX 76 78 78 79 75 80 71 81 72 82 73 83 74 84 53 85 54 86 62 87
REMARK SMILES IDX 55 88 61 89 63 90 60 91 56 92 57 93 58 94 59 95
REMARK H PARENT 19 6 3 14 24 29 83 48 51 59
REMARK Flexibility Score: inf
ROOT
ATOM      1  C   UNL     1       1.458   3.651   0.912  1.00  0.00     0.023 C 
ENDROOT
BRANCH   1   2
ATOM      2  C   UNL     1       1.164   3.376  -0.556  1.00  0.00     0.116 C 
BRANCH   2   3
ATOM      3  N   UNL     1       1.862   4.275  -1.456  1.00  0.00    -0.350 N 
ATOM      4  C   UNL     1       2.696   3.999  -2.529  1.00  0.00     0.280 C 
ATOM      5  O   UNL     1       3.124   4.987  -3.137  1.00  0.00    -0.267 OA
ATOM      6  H   UNL     1       1.720   5.233  -1.277  1.00  0.00     0.163 HD
BRANCH   4   7
ATOM      7  C   UNL     1       3.021   2.618  -2.904  1.00  0.00     0.181 A 
ATOM      8  C   UNL     1       2.981   0.383  -2.930  1.00  0.00     0.106 A 
ATOM      9  C   UNL     1       3.844   0.606  -3.987  1.00  0.00     0.097 A 
ATOM     10  N   UNL     1       2.557   1.541  -2.307  1.00  0.00    -0.230 NA
ATOM     11  S   UNL     1       4.073   2.291  -4.226  1.00  0.00    -0.117 S 
BRANCH   8  12
ATOM     12  C   UNL     1       2.509  -0.952  -2.412  1.00  0.00     0.320 C 
BRANCH  12  13
ATOM     13  N   UNL     1       1.046  -1.100  -2.313  1.00  0.00    -0.325 N 
ATOM     14  H   UNL     1       0.966  -2.050  -1.949  1.00  0.00     0.348 HD
BRANCH  13  15
ATOM     15  C   UNL     1       0.353  -0.274  -1.321  1.00  0.00     0.259 C 
ATOM     16  C   UNL     1       0.914  -0.347   0.094  1.00  0.00     0.071 C 
ENDBRANCH  13  15
BRANCH  13  17
ATOM     17  C   UNL     1       0.370  -1.015  -3.623  1.00  0.00     0.319 C 
BRANCH  17  18
ATOM     18  C   UNL     1       0.121  -2.352  -4.297  1.00  0.00     0.095 A 
ATOM     19  C   UNL     1       0.162  -3.553  -3.593  1.00  0.00     0.030 A 
ATOM     20  N   UNL     1      -0.260  -2.296  -5.600  1.00  0.00    -0.252 NA
ATOM     21  C   UNL     1      -0.186  -4.730  -4.245  1.00  0.00     0.004 A 
ATOM     22  C   UNL     1      -0.620  -3.446  -6.215  1.00  0.00     0.038 A 
ATOM     23  C   UNL     1      -0.592  -4.678  -5.573  1.00  0.00     0.023 A 
ATOM     24  C   UNL     1      -1.108  -3.319  -7.625  1.00  0.00     0.067 C 
ENDBRANCH  17  18
ENDBRANCH  13  17
ENDBRANCH  12  13
ENDBRANCH   8  12
ENDBRANCH   4   7
ENDBRANCH   2   3
ENDBRANCH   1   2
BRANCH   1  25
ATOM     25  C   UNL     1       0.773   4.887   1.483  1.00  0.00     0.023 C 
BRANCH  25  26
ATOM     26  C   UNL     1      -0.746   4.919   1.339  1.00  0.00     0.116 C 
BRANCH  26  27
ATOM     27  N   UNL     1      -1.413   3.767   1.929  1.00  0.00    -0.352 N 
ATOM     28  C   UNL     1      -2.487   3.726   2.789  1.00  0.00     0.251 C 
ATOM     29  H   UNL     1      -1.042   2.890   1.676  1.00  0.00     0.163 HD
ATOM     30  O   UNL     1      -2.845   2.651   3.264  1.00  0.00    -0.269 OA
BRANCH  28  31
ATOM     31  C   UNL     1      -3.171   4.980   3.173  1.00  0.00     0.039 A 
ATOM     32  C   UNL     1      -3.440   5.215   4.523  1.00  0.00     0.014 A 
ATOM     33  C   UNL     1      -3.504   5.941   2.215  1.00  0.00     0.014 A 
ATOM     34  C   UNL     1      -3.952   6.453   4.921  1.00  0.00     0.010 A 
ATOM     35  C   UNL     1      -3.936   7.202   2.620  1.00  0.00     0.010 A 
ATOM     36  C   UNL     1      -4.154   7.476   3.979  1.00  0.00    -0.014 A 
BRANCH  36  37
ATOM     37  C   UNL     1      -4.560   8.842   4.404  1.00  0.00     0.031 A 
ATOM     38  C   UNL     1      -5.867   9.427   3.944  1.00  0.00     0.074 A 
ATOM     39  C   UNL     1      -3.715   9.582   5.151  1.00  0.00     0.049 A 
ATOM     40  N   UNL     1      -6.366  10.617   4.166  1.00  0.00    -0.248 NA
ATOM     41  C   UNL     1      -6.710   8.571   3.097  1.00  0.00     0.031 C 
ATOM     42  C   UNL     1      -2.392   9.150   5.610  1.00  0.00     0.029 A 
ATOM     43  N   UNL     1      -3.836  10.854   5.652  1.00  0.00    -0.354 N 
ATOM     44  C   UNL     1      -7.574  10.657   3.478  1.00  0.00     0.074 A 
ATOM     45  C   UNL     1      -7.698   9.394   2.780  1.00  0.00     0.031 C 
ATOM     46  C   UNL     1      -1.840  10.126   6.348  1.00  0.00     0.029 A 
ATOM     47  C   UNL     1      -2.746  11.269   6.382  1.00  0.00     0.049 A 
ATOM     48  H   UNL     1      -4.630  11.418   5.503  1.00  0.00     0.167 HD
ATOM     49  C   UNL     1      -8.505  11.644   3.452  1.00  0.00     0.034 A 
ATOM     50  C   UNL     1      -2.499  12.440   7.003  1.00  0.00     0.034 A 
ATOM     51  C   UNL     1      -8.371  12.894   4.162  1.00  0.00     0.049 A 
ATOM     52  C   UNL     1      -3.545  13.523   6.955  1.00  0.00     0.074 A 
ATOM     53  C   UNL     1      -9.277  13.936   4.252  1.00  0.00     0.029 A 
ATOM     54  N   UNL     1      -7.256  13.277   4.898  1.00  0.00    -0.354 N 
ATOM     55  N   UNL     1      -4.711  13.521   6.351  1.00  0.00    -0.248 NA
ATOM     56  C   UNL     1      -3.247  14.761   7.686  1.00  0.00     0.031 C 
ATOM     57  C   UNL     1      -8.687  14.972   4.985  1.00  0.00     0.029 A 
ATOM     58  C   UNL     1      -7.441  14.549   5.419  1.00  0.00     0.049 A 
ATOM     59  H   UNL     1      -6.452  12.725   5.031  1.00  0.00     0.167 HD
ATOM     60  C   UNL     1      -5.295  14.748   6.652  1.00  0.00     0.074 A 
ATOM     61  C   UNL     1      -4.363  15.451   7.510  1.00  0.00     0.031 C 
ATOM     62  C   UNL     1      -6.494  15.249   6.256  1.00  0.00     0.034 A 
BRANCH  49  63
ATOM     63  C   UNL     1      -9.737  11.412   2.608  1.00  0.00     0.023 A 
ATOM     64  C   UNL     1     -10.636  10.366   2.886  1.00  0.00     0.031 A 
ATOM     65  C   UNL     1     -10.004  12.229   1.495  1.00  0.00     0.131 A 
ATOM     66  C   UNL     1     -11.710  10.116   2.020  1.00  0.00     0.055 A 
ATOM     67  C   UNL     1     -11.123  12.025   0.684  1.00  0.00     0.041 A 
ATOM     68  F   UNL     1      -9.174  13.231   1.167  1.00  0.00    -0.206 F 
ATOM     69  C   UNL     1     -11.976  10.954   0.935  1.00  0.00     0.022 A 
BRANCH  66  70
ATOM     70  S   UNL     1     -12.669   8.593   2.248  1.00  0.00     0.124 S 
ATOM     71  O   UNL     1     -11.636   7.570   2.108  1.00  0.00    -0.237 OA
ATOM     72  O   UNL     1     -13.221   8.765   3.587  1.00  0.00    -0.237 OA
ATOM     73  O   UNL     1     -13.645   8.636   1.161  1.00  0.00    -0.744 OA
ENDBRANCH  66  70
ENDBRANCH  49  63
BRANCH  50  74
ATOM     74  C   UNL     1      -1.211  12.659   7.722  1.00  0.00     0.023 A 
ATOM     75  C   UNL     1      -1.182  12.845   9.113  1.00  0.00     0.031 A 
ATOM     76  C   UNL     1       0.007  12.729   7.021  1.00  0.00     0.131 A 
ATOM     77  C   UNL     1       0.031  13.140   9.754  1.00  0.00     0.055 A 
ATOM     78  C   UNL     1       1.218  12.971   7.671  1.00  0.00     0.041 A 
ATOM     79  F   UNL     1       0.036  12.550   5.691  1.00  0.00    -0.206 F 
ATOM     80  C   UNL     1       1.233  13.192   9.045  1.00  0.00     0.022 A 
BRANCH  77  81
ATOM     81  S   UNL     1       0.003  13.539  11.524  1.00  0.00     0.124 S 
ATOM     82  O   UNL     1      -0.905  14.679  11.558  1.00  0.00    -0.237 OA
ATOM     83  O   UNL     1      -0.501  12.299  12.105  1.00  0.00    -0.237 OA
ATOM     84  O   UNL     1       1.400  13.844  11.826  1.00  0.00    -0.744 OA
ENDBRANCH  77  81
ENDBRANCH  50  74
BRANCH  62  85
ATOM     85  C   UNL     1      -6.868  16.614   6.784  1.00  0.00     0.023 A 
ATOM     86  C   UNL     1      -6.146  17.767   6.427  1.00  0.00     0.031 A 
ATOM     87  C   UNL     1      -7.937  16.757   7.686  1.00  0.00     0.131 A 
ATOM     88  C   UNL     1      -6.457  18.999   7.021  1.00  0.00     0.055 A 
ATOM     89  C   UNL     1      -8.284  17.997   8.224  1.00  0.00     0.041 A 
ATOM     90  F   UNL     1      -8.659  15.691   8.065  1.00  0.00    -0.206 F 
ATOM     91  C   UNL     1      -7.532  19.124   7.905  1.00  0.00     0.022 A 
BRANCH  88  92
ATOM     92  S   UNL     1      -5.366  20.415   6.712  1.00  0.00     0.124 S 
ATOM     93  O   UNL     1      -4.072  19.902   7.151  1.00  0.00    -0.237 OA
ATOM     94  O   UNL     1      -5.517  20.616   5.275  1.00  0.00    -0.237 OA
ATOM     95  O   UNL     1      -5.930  21.472   7.549  1.00  0.00    -0.744 OA
ENDBRANCH  88  92
ENDBRANCH  62  85
ENDBRANCH  36  37
ENDBRANCH  28  31
ENDBRANCH  26  27
ENDBRANCH  25  26
ENDBRANCH   1  25
TORSDOF 19
