REMARK SMILES COCC[C@H](NC(=O)c1ccc(Br)nc1)C(=O)NCCCCNC(=O)c1ccc(-c2c3nc(c(-c4cc(S(=O)(=O)[O-])ccc4F)c4ccc([nH]4)c(-c4cc(S(=O)(=O)[O-])ccc4F)c4nc(c(-c5cc(S(=O)(=O)[O-])ccc5F)c5ccc2[nH]5)C=C4)C=C3)cc1
REMARK SMILES IDX 20 1 19 2 18 3 16 4 17 5 5 7 4 8 3 9 2 10 1 11 6 12 7 13
REMARK SMILES IDX 8 15 9 16 10 17 15 18 11 19 14 20 12 21 13 22 21 23 22 24
REMARK SMILES IDX 23 25 24 26 25 28 26 29 27 30 88 31 28 32 87 33 29 34 30 35
REMARK SMILES IDX 31 36 81 37 32 38 86 39 80 40 82 41 33 42 85 43 79 44 78 45
REMARK SMILES IDX 34 47 66 48 46 49 65 50 47 51 50 52 64 53 83 54 48 55 49 56
REMARK SMILES IDX 63 58 84 59 51 60 35 61 36 62 44 63 37 64 43 65 45 66 42 67
REMARK SMILES IDX 38 68 39 69 40 70 41 71 67 72 68 73 76 74 69 75 75 76 77 77
REMARK SMILES IDX 74 78 70 79 71 80 72 81 73 82 52 83 53 84 61 85 54 86 60 87
REMARK SMILES IDX 62 88 59 89 55 90 56 91 57 92 58 93
REMARK H PARENT 18 6 6 14 23 27 82 46 50 57
REMARK Flexibility Score: inf
ROOT
ATOM      1  C   UNL     1       0.772   6.170   0.555  1.00  0.00     0.023 C 
ENDROOT
BRANCH   1   2
ATOM      2  C   UNL     1       1.494   5.271   1.554  1.00  0.00     0.116 C 
BRANCH   2   3
ATOM      3  N   UNL     1       0.614   4.314   2.192  1.00  0.00    -0.354 N 
ATOM      4  C   UNL     1       0.475   2.970   2.070  1.00  0.00     0.242 C 
ATOM      5  O   UNL     1      -0.172   2.425   2.977  1.00  0.00    -0.273 OA
ATOM      6  H   UNL     1      -0.005   4.718   2.842  1.00  0.00     0.163 HD
BRANCH   4   7
ATOM      7  C   UNL     1       0.981   2.103   0.879  1.00  0.00     0.173 C 
BRANCH   7   8
ATOM      8  C   UNL     1       2.500   2.229   0.591  1.00  0.00     0.063 C 
BRANCH   8   9
ATOM      9  C   UNL     1       2.968   2.754  -0.783  1.00  0.00     0.162 C 
BRANCH   9  10
ATOM     10  O   UNL     1       2.595   4.100  -1.052  1.00  0.00    -0.385 OA
ATOM     11  C   UNL     1       1.668   4.311  -2.111  1.00  0.00     0.194 C 
ENDBRANCH   9  10
ENDBRANCH   8   9
ENDBRANCH   7   8
BRANCH   7  12
ATOM     12  N   UNL     1       0.167   2.128  -0.343  1.00  0.00    -0.340 N 
ATOM     13  C   UNL     1      -0.960   1.518  -0.804  1.00  0.00     0.253 C 
ATOM     14  H   UNL     1       0.536   2.753  -1.008  1.00  0.00     0.164 HD
ATOM     15  O   UNL     1      -1.150   1.564  -2.022  1.00  0.00    -0.269 OA
BRANCH  13  16
ATOM     16  C   UNL     1      -1.935   0.795   0.019  1.00  0.00     0.058 A 
ATOM     17  C   UNL     1      -2.401   1.230   1.251  1.00  0.00     0.018 A 
ATOM     18  C   UNL     1      -2.560  -0.313  -0.548  1.00  0.00     0.126 A 
ATOM     19  C   UNL     1      -3.402   0.505   1.903  1.00  0.00     0.037 A 
ATOM     20  N   UNL     1      -3.538  -1.035   0.054  1.00  0.00    -0.249 NA
ATOM     21  C   UNL     1      -3.933  -0.612   1.273  1.00  0.00     0.106 A 
ATOM     22  Br  UNL     1      -5.309  -1.589   2.137  1.00  0.00    -0.029 Br
ENDBRANCH  13  16
ENDBRANCH   7  12
ENDBRANCH   4   7
ENDBRANCH   2   3
ENDBRANCH   1   2
BRANCH   1  23
ATOM     23  C   UNL     1       0.326   7.517   1.119  1.00  0.00     0.023 C 
BRANCH  23  24
ATOM     24  C   UNL     1       1.458   8.426   1.593  1.00  0.00     0.116 C 
BRANCH  24  25
ATOM     25  N   UNL     1       2.442   8.746   0.568  1.00  0.00    -0.352 N 
ATOM     26  C   UNL     1       3.144   9.919   0.396  1.00  0.00     0.251 C 
ATOM     27  H   UNL     1       2.629   8.033  -0.085  1.00  0.00     0.163 HD
ATOM     28  O   UNL     1       3.879  10.059  -0.577  1.00  0.00    -0.269 OA
BRANCH  26  29
ATOM     29  C   UNL     1       2.962  11.021   1.367  1.00  0.00     0.039 A 
ATOM     30  C   UNL     1       2.734  12.313   0.892  1.00  0.00     0.014 A 
ATOM     31  C   UNL     1       2.952  10.765   2.741  1.00  0.00     0.014 A 
ATOM     32  C   UNL     1       2.422  13.332   1.794  1.00  0.00     0.010 A 
ATOM     33  C   UNL     1       2.537  11.755   3.625  1.00  0.00     0.010 A 
ATOM     34  C   UNL     1       2.277  13.053   3.165  1.00  0.00    -0.014 A 
BRANCH  34  35
ATOM     35  C   UNL     1       1.875  14.116   4.123  1.00  0.00     0.031 A 
ATOM     36  C   UNL     1       2.799  14.512   5.244  1.00  0.00     0.074 A 
ATOM     37  C   UNL     1       0.662  14.694   4.004  1.00  0.00     0.049 A 
ATOM     38  N   UNL     1       2.634  15.421   6.171  1.00  0.00    -0.248 NA
ATOM     39  C   UNL     1       4.056  13.759   5.364  1.00  0.00     0.031 C 
ATOM     40  C   UNL     1      -0.352  14.335   3.007  1.00  0.00     0.029 A 
ATOM     41  N   UNL     1       0.076  15.709   4.717  1.00  0.00    -0.354 N 
ATOM     42  C   UNL     1       3.759  15.340   6.986  1.00  0.00     0.074 A 
ATOM     43  C   UNL     1       4.552  14.235   6.495  1.00  0.00     0.031 C 
ATOM     44  C   UNL     1      -1.408  15.153   3.139  1.00  0.00     0.029 A 
ATOM     45  C   UNL     1      -1.167  16.070   4.247  1.00  0.00     0.049 A 
ATOM     46  H   UNL     1       0.504  16.139   5.492  1.00  0.00     0.167 HD
ATOM     47  C   UNL     1       4.118  16.136   8.024  1.00  0.00     0.034 A 
ATOM     48  C   UNL     1      -2.007  17.042   4.655  1.00  0.00     0.034 A 
ATOM     49  C   UNL     1       3.320  17.246   8.485  1.00  0.00     0.049 A 
ATOM     50  C   UNL     1      -1.575  17.936   5.789  1.00  0.00     0.074 A 
ATOM     51  C   UNL     1       3.600  18.153   9.492  1.00  0.00     0.029 A 
ATOM     52  N   UNL     1       2.080  17.600   7.967  1.00  0.00    -0.354 N 
ATOM     53  N   UNL     1      -0.474  17.892   6.505  1.00  0.00    -0.248 NA
ATOM     54  C   UNL     1      -2.487  19.026   6.152  1.00  0.00     0.031 C 
ATOM     55  C   UNL     1       2.505  19.015   9.623  1.00  0.00     0.029 A 
ATOM     56  C   UNL     1       1.574  18.698   8.646  1.00  0.00     0.049 A 
ATOM     57  H   UNL     1       1.626  17.138   7.226  1.00  0.00     0.167 HD
ATOM     58  C   UNL     1      -0.548  18.971   7.381  1.00  0.00     0.074 A 
ATOM     59  C   UNL     1      -1.790  19.657   7.085  1.00  0.00     0.031 C 
ATOM     60  C   UNL     1       0.328  19.362   8.343  1.00  0.00     0.034 A 
BRANCH  47  61
ATOM     61  C   UNL     1       5.419  15.817   8.725  1.00  0.00     0.023 A 
ATOM     62  C   UNL     1       6.651  15.842   8.045  1.00  0.00     0.031 A 
ATOM     63  C   UNL     1       5.429  15.437  10.079  1.00  0.00     0.131 A 
ATOM     64  C   UNL     1       7.819  15.408   8.688  1.00  0.00     0.055 A 
ATOM     65  C   UNL     1       6.611  15.094  10.740  1.00  0.00     0.041 A 
ATOM     66  F   UNL     1       4.285  15.371  10.779  1.00  0.00    -0.206 F 
ATOM     67  C   UNL     1       7.813  15.060  10.040  1.00  0.00     0.022 A 
BRANCH  64  68
ATOM     68  S   UNL     1       9.312  15.149   7.690  1.00  0.00     0.124 S 
ATOM     69  O   UNL     1       8.851  14.153   6.725  1.00  0.00    -0.237 OA
ATOM     70  O   UNL     1       9.572  16.482   7.158  1.00  0.00    -0.237 OA
ATOM     71  O   UNL     1      10.292  14.660   8.658  1.00  0.00    -0.744 OA
ENDBRANCH  64  68
ENDBRANCH  47  61
BRANCH  48  72
ATOM     72  C   UNL     1      -3.321  17.245   3.976  1.00  0.00     0.023 A 
ATOM     73  C   UNL     1      -3.596  18.426   3.268  1.00  0.00     0.031 A 
ATOM     74  C   UNL     1      -4.335  16.275   4.056  1.00  0.00     0.131 A 
ATOM     75  C   UNL     1      -4.869  18.631   2.712  1.00  0.00     0.055 A 
ATOM     76  C   UNL     1      -5.582  16.460   3.455  1.00  0.00     0.041 A 
ATOM     77  F   UNL     1      -4.123  15.123   4.712  1.00  0.00    -0.206 F 
ATOM     78  C   UNL     1      -5.860  17.650   2.790  1.00  0.00     0.022 A 
BRANCH  75  79
ATOM     79  S   UNL     1      -5.240  20.238   1.955  1.00  0.00     0.124 S 
ATOM     80  O   UNL     1      -4.978  21.154   3.059  1.00  0.00    -0.237 OA
ATOM     81  O   UNL     1      -4.290  20.277   0.849  1.00  0.00    -0.237 OA
ATOM     82  O   UNL     1      -6.643  20.114   1.565  1.00  0.00    -0.744 OA
ENDBRANCH  75  79
ENDBRANCH  48  72
BRANCH  60  83
ATOM     83  C   UNL     1      -0.018  20.618   9.106  1.00  0.00     0.023 A 
ATOM     84  C   UNL     1      -1.151  20.693   9.934  1.00  0.00     0.031 A 
ATOM     85  C   UNL     1       0.779  21.769   8.971  1.00  0.00     0.131 A 
ATOM     86  C   UNL     1      -1.502  21.913  10.531  1.00  0.00     0.055 A 
ATOM     87  C   UNL     1       0.465  22.961   9.626  1.00  0.00     0.041 A 
ATOM     88  F   UNL     1       1.873  21.756   8.193  1.00  0.00    -0.206 F 
ATOM     89  C   UNL     1      -0.691  23.043  10.395  1.00  0.00     0.022 A 
BRANCH  86  90
ATOM     90  S   UNL     1      -3.101  22.036  11.378  1.00  0.00     0.124 S 
ATOM     91  O   UNL     1      -4.030  21.609  10.336  1.00  0.00    -0.237 OA
ATOM     92  O   UNL     1      -2.931  21.116  12.497  1.00  0.00    -0.237 OA
ATOM     93  O   UNL     1      -3.186  23.449  11.744  1.00  0.00    -0.744 OA
ENDBRANCH  86  90
ENDBRANCH  60  83
ENDBRANCH  34  35
ENDBRANCH  26  29
ENDBRANCH  24  25
ENDBRANCH  23  24
ENDBRANCH   1  23
TORSDOF 19
