REMARK SMILES C[C@@H](O)[C@@H](NC(=O)CSc1ccncc1)C(=O)NCCCCNC(=O)c1ccc(-c2c3nc(c(-c4cc(S(=O)(=O)[O-])ccc4F)c4ccc([nH]4)c(-c4cc(S(=O)(=O)[O-])ccc4F)c4nc(c(-c5cc(S(=O)(=O)[O-])ccc5F)c5ccc2[nH]5)C=C4)C=C3)cc1
REMARK SMILES IDX 20 1 19 2 18 3 16 4 17 5 4 7 2 8 1 9 3 10 5 12 6 13 7 15
REMARK SMILES IDX 8 16 9 17 10 18 11 19 15 20 12 21 14 22 13 23 21 24 22 25
REMARK SMILES IDX 23 26 24 27 25 29 26 30 27 31 88 32 28 33 87 34 29 35 30 36
REMARK SMILES IDX 31 37 81 38 32 39 86 40 80 41 82 42 33 43 85 44 79 45 78 46
REMARK SMILES IDX 34 48 66 49 46 50 65 51 47 52 50 53 64 54 83 55 48 56 49 57
REMARK SMILES IDX 63 59 84 60 51 61 35 62 36 63 44 64 37 65 43 66 45 67 42 68
REMARK SMILES IDX 38 69 39 70 40 71 41 72 67 73 68 74 76 75 69 76 75 77 77 78
REMARK SMILES IDX 74 79 70 80 71 81 72 82 73 83 52 84 53 85 61 86 54 87 60 88
REMARK SMILES IDX 62 89 59 90 55 91 56 92 57 93 58 94
REMARK H PARENT 18 6 3 11 5 14 23 28 82 47 50 58
REMARK Flexibility Score: inf
ROOT
ATOM      1  C   UNL     1       1.608   4.878   0.198  1.00  0.00     0.023 C 
ENDROOT
BRANCH   1   2
ATOM      2  C   UNL     1       0.320   4.113   0.471  1.00  0.00     0.116 C 
BRANCH   2   3
ATOM      3  N   UNL     1      -0.441   3.865  -0.737  1.00  0.00    -0.354 N 
ATOM      4  C   UNL     1      -1.109   2.739  -1.122  1.00  0.00     0.245 C 
ATOM      5  O   UNL     1      -1.878   2.833  -2.083  1.00  0.00    -0.273 OA
ATOM      6  H   UNL     1      -0.481   4.617  -1.371  1.00  0.00     0.163 HD
BRANCH   4   7
ATOM      7  C   UNL     1      -0.901   1.383  -0.414  1.00  0.00     0.200 C 
BRANCH   7   8
ATOM      8  C   UNL     1       0.554   0.902  -0.720  1.00  0.00     0.143 C 
ATOM      9  C   UNL     1       0.912  -0.444  -0.092  1.00  0.00     0.041 C 
BRANCH   8  10
ATOM     10  O   UNL     1       0.734   0.748  -2.130  1.00  0.00    -0.391 OA
ATOM     11  H   UNL     1       0.139   0.055  -2.458  1.00  0.00     0.211 HD
ENDBRANCH   8  10
ENDBRANCH   7   8
BRANCH   7  12
ATOM     12  N   UNL     1      -1.202   1.344   1.032  1.00  0.00    -0.341 N 
ATOM     13  C   UNL     1      -2.377   1.659   1.658  1.00  0.00     0.231 C 
ATOM     14  H   UNL     1      -0.465   1.056   1.618  1.00  0.00     0.164 HD
ATOM     15  O   UNL     1      -2.769   0.860   2.512  1.00  0.00    -0.274 OA
BRANCH  13  16
ATOM     16  C   UNL     1      -3.048   2.997   1.417  1.00  0.00     0.174 C 
BRANCH  16  17
ATOM     17  S   UNL     1      -3.395   3.885   2.995  1.00  0.00    -0.116 SA
BRANCH  17  18
ATOM     18  C   UNL     1      -1.787   4.269   3.688  1.00  0.00     0.011 A 
ATOM     19  C   UNL     1      -0.770   3.329   3.843  1.00  0.00     0.035 A 
ATOM     20  C   UNL     1      -1.588   5.541   4.230  1.00  0.00     0.035 A 
ATOM     21  C   UNL     1       0.408   3.703   4.468  1.00  0.00     0.112 A 
ATOM     22  C   UNL     1      -0.387   5.815   4.868  1.00  0.00     0.112 A 
ATOM     23  N   UNL     1       0.625   4.928   4.971  1.00  0.00    -0.265 NA
ENDBRANCH  17  18
ENDBRANCH  16  17
ENDBRANCH  13  16
ENDBRANCH   7  12
ENDBRANCH   4   7
ENDBRANCH   2   3
ENDBRANCH   1   2
BRANCH   1  24
ATOM     24  C   UNL     1       1.416   6.368  -0.099  1.00  0.00     0.023 C 
BRANCH  24  25
ATOM     25  C   UNL     1       0.725   7.182   0.997  1.00  0.00     0.116 C 
BRANCH  25  26
ATOM     26  N   UNL     1       1.384   7.101   2.289  1.00  0.00    -0.352 N 
ATOM     27  C   UNL     1       1.541   8.073   3.253  1.00  0.00     0.251 C 
ATOM     28  H   UNL     1       1.776   6.224   2.508  1.00  0.00     0.163 HD
ATOM     29  O   UNL     1       2.245   7.864   4.229  1.00  0.00    -0.269 OA
BRANCH  27  30
ATOM     30  C   UNL     1       0.883   9.388   3.095  1.00  0.00     0.039 A 
ATOM     31  C   UNL     1       1.639  10.530   3.371  1.00  0.00     0.014 A 
ATOM     32  C   UNL     1      -0.438   9.505   2.651  1.00  0.00     0.014 A 
ATOM     33  C   UNL     1       1.120  11.788   3.071  1.00  0.00     0.010 A 
ATOM     34  C   UNL     1      -0.936  10.757   2.300  1.00  0.00     0.010 A 
ATOM     35  C   UNL     1      -0.140  11.899   2.462  1.00  0.00    -0.014 A 
BRANCH  35  36
ATOM     36  C   UNL     1      -0.555  13.179   1.842  1.00  0.00     0.031 A 
ATOM     37  C   UNL     1      -1.684  13.985   2.403  1.00  0.00     0.074 A 
ATOM     38  C   UNL     1       0.069  13.560   0.709  1.00  0.00     0.049 A 
ATOM     39  N   UNL     1      -2.184  15.111   1.966  1.00  0.00    -0.248 NA
ATOM     40  C   UNL     1      -2.348  13.448   3.597  1.00  0.00     0.031 C 
ATOM     41  C   UNL     1       1.148  12.815   0.052  1.00  0.00     0.029 A 
ATOM     42  N   UNL     1      -0.112  14.654  -0.096  1.00  0.00    -0.354 N 
ATOM     43  C   UNL     1      -3.219  15.429   2.836  1.00  0.00     0.074 A 
ATOM     44  C   UNL     1      -3.306  14.344   3.794  1.00  0.00     0.031 C 
ATOM     45  C   UNL     1       1.543  13.482  -1.042  1.00  0.00     0.029 A 
ATOM     46  C   UNL     1       0.721  14.677  -1.190  1.00  0.00     0.049 A 
ATOM     47  H   UNL     1      -0.776  15.357   0.091  1.00  0.00     0.167 HD
ATOM     48  C   UNL     1      -4.006  16.533   2.840  1.00  0.00     0.034 A 
ATOM     49  C   UNL     1       0.804  15.555  -2.208  1.00  0.00     0.034 A 
ATOM     50  C   UNL     1      -3.909  17.590   1.861  1.00  0.00     0.049 A 
ATOM     51  C   UNL     1      -0.117  16.743  -2.209  1.00  0.00     0.074 A 
ATOM     52  C   UNL     1      -4.605  18.785   1.807  1.00  0.00     0.029 A 
ATOM     53  N   UNL     1      -3.078  17.569   0.746  1.00  0.00    -0.354 N 
ATOM     54  N   UNL     1      -1.038  17.072  -1.332  1.00  0.00    -0.248 NA
ATOM     55  C   UNL     1       0.013  17.679  -3.331  1.00  0.00     0.031 C 
ATOM     56  C   UNL     1      -4.250  19.450   0.627  1.00  0.00     0.029 A 
ATOM     57  C   UNL     1      -3.280  18.704  -0.025  1.00  0.00     0.049 A 
ATOM     58  H   UNL     1      -2.438  16.851   0.535  1.00  0.00     0.167 HD
ATOM     59  C   UNL     1      -1.590  18.262  -1.793  1.00  0.00     0.074 A 
ATOM     60  C   UNL     1      -0.882  18.603  -3.011  1.00  0.00     0.031 C 
ATOM     61  C   UNL     1      -2.590  19.007  -1.257  1.00  0.00     0.034 A 
BRANCH  48  62
ATOM     62  C   UNL     1      -5.056  16.632   3.920  1.00  0.00     0.023 A 
ATOM     63  C   UNL     1      -4.707  16.712   5.280  1.00  0.00     0.031 A 
ATOM     64  C   UNL     1      -6.422  16.623   3.592  1.00  0.00     0.131 A 
ATOM     65  C   UNL     1      -5.708  16.708   6.263  1.00  0.00     0.055 A 
ATOM     66  C   UNL     1      -7.415  16.695   4.571  1.00  0.00     0.041 A 
ATOM     67  F   UNL     1      -6.817  16.529   2.312  1.00  0.00    -0.206 F 
ATOM     68  C   UNL     1      -7.061  16.723   5.917  1.00  0.00     0.022 A 
BRANCH  65  69
ATOM     69  S   UNL     1      -5.216  16.547   8.001  1.00  0.00     0.124 S 
ATOM     70  O   UNL     1      -4.479  15.286   7.984  1.00  0.00    -0.237 OA
ATOM     71  O   UNL     1      -4.420  17.750   8.216  1.00  0.00    -0.237 OA
ATOM     72  O   UNL     1      -6.490  16.506   8.716  1.00  0.00    -0.744 OA
ENDBRANCH  65  69
ENDBRANCH  48  62
BRANCH  49  73
ATOM     73  C   UNL     1       1.775  15.331  -3.315  1.00  0.00     0.023 A 
ATOM     74  C   UNL     1       2.852  16.206  -3.520  1.00  0.00     0.031 A 
ATOM     75  C   UNL     1       1.628  14.245  -4.197  1.00  0.00     0.131 A 
ATOM     76  C   UNL     1       3.720  16.002  -4.604  1.00  0.00     0.055 A 
ATOM     77  C   UNL     1       2.520  14.020  -5.245  1.00  0.00     0.041 A 
ATOM     78  F   UNL     1       0.619  13.373  -4.037  1.00  0.00    -0.206 F 
ATOM     79  C   UNL     1       3.569  14.909  -5.460  1.00  0.00     0.022 A 
BRANCH  76  80
ATOM     80  S   UNL     1       5.018  17.229  -4.919  1.00  0.00     0.124 S 
ATOM     81  O   UNL     1       4.239  18.450  -5.089  1.00  0.00    -0.237 OA
ATOM     82  O   UNL     1       5.818  17.142  -3.702  1.00  0.00    -0.237 OA
ATOM     83  O   UNL     1       5.671  16.730  -6.128  1.00  0.00    -0.744 OA
ENDBRANCH  76  80
ENDBRANCH  49  73
BRANCH  61  84
ATOM     84  C   UNL     1      -2.962  20.265  -1.999  1.00  0.00     0.023 A 
ATOM     85  C   UNL     1      -3.584  20.214  -3.259  1.00  0.00     0.031 A 
ATOM     86  C   UNL     1      -2.671  21.527  -1.453  1.00  0.00     0.131 A 
ATOM     87  C   UNL     1      -3.848  21.402  -3.956  1.00  0.00     0.055 A 
ATOM     88  C   UNL     1      -2.988  22.708  -2.126  1.00  0.00     0.041 A 
ATOM     89  F   UNL     1      -2.074  21.632  -0.255  1.00  0.00    -0.206 F 
ATOM     90  C   UNL     1      -3.569  22.649  -3.390  1.00  0.00     0.022 A 
BRANCH  87  91
ATOM     91  S   UNL     1      -4.490  21.295  -5.648  1.00  0.00     0.124 S 
ATOM     92  O   UNL     1      -3.415  20.586  -6.335  1.00  0.00    -0.237 OA
ATOM     93  O   UNL     1      -5.731  20.549  -5.467  1.00  0.00    -0.237 OA
ATOM     94  O   UNL     1      -4.661  22.693  -6.040  1.00  0.00    -0.744 OA
ENDBRANCH  87  91
ENDBRANCH  61  84
ENDBRANCH  35  36
ENDBRANCH  27  30
ENDBRANCH  25  26
ENDBRANCH  24  25
ENDBRANCH   1  24
TORSDOF 20
