REMARK SMILES C[C@H](C(=O)NCCCCNC(=O)c1ccc(-c2c3nc(c(-c4cc(S(=O)(=O)[O-])ccc4F)c4ccc([nH]4)c(-c4cc(S(=O)(=O)[O-])ccc4F)c4nc(c(-c5cc(S(=O)(=O)[O-])ccc5F)c5ccc2[nH]5)C=C4)C=C3)cc1)c1ccc2c(c1)[nH]c1ccc(Cl)cc12
REMARK SMILES IDX 8 1 7 2 6 3 5 4 3 5 4 6 2 8 1 9 76 10 77 11 81 12 78 13
REMARK SMILES IDX 80 14 79 15 82 16 89 17 83 18 88 20 84 21 86 22 85 23 87 24
REMARK SMILES IDX 9 25 10 26 11 27 12 29 13 30 14 31 75 32 15 33 74 34 16 35
REMARK SMILES IDX 17 36 18 37 68 38 19 39 73 40 67 41 69 42 20 43 72 44 66 45
REMARK SMILES IDX 65 46 21 48 53 49 33 50 52 51 34 52 37 53 51 54 70 55 35 56
REMARK SMILES IDX 36 57 50 59 71 60 38 61 22 62 23 63 31 64 24 65 30 66 32 67
REMARK SMILES IDX 29 68 25 69 26 70 27 71 28 72 54 73 55 74 63 75 56 76 62 77
REMARK SMILES IDX 64 78 61 79 57 80 58 81 59 82 60 83 39 84 40 85 48 86 41 87
REMARK SMILES IDX 47 88 49 89 46 90 42 91 43 92 44 93 45 94
REMARK H PARENT 5 7 82 19 10 28 69 47 37 58
REMARK Flexibility Score: inf
ROOT
ATOM      1  C   UNL     1       0.034   4.367   0.706  1.00  0.00     0.023 C 
ENDROOT
BRANCH   1   2
ATOM      2  C   UNL     1      -0.313   3.201   1.635  1.00  0.00     0.023 C 
BRANCH   2   3
ATOM      3  C   UNL     1      -0.690   1.894   0.945  1.00  0.00     0.116 C 
BRANCH   3   4
ATOM      4  N   UNL     1       0.350   1.378   0.075  1.00  0.00    -0.356 N 
ATOM      5  C   UNL     1       0.668   0.092  -0.247  1.00  0.00     0.227 C 
ATOM      6  O   UNL     1       1.415  -0.071  -1.219  1.00  0.00    -0.274 OA
ATOM      7  H   UNL     1       0.915   2.064  -0.349  1.00  0.00     0.163 HD
BRANCH   5   8
ATOM      8  C   UNL     1       0.219  -1.110   0.583  1.00  0.00     0.105 C 
ATOM      9  C   UNL     1       0.772  -0.999   2.013  1.00  0.00     0.023 C 
BRANCH   8  10
ATOM     10  C   UNL     1      -1.252  -1.522   0.540  1.00  0.00    -0.034 A 
ATOM     11  C   UNL     1      -2.257  -0.779  -0.089  1.00  0.00     0.005 A 
ATOM     12  C   UNL     1      -1.608  -2.733   1.168  1.00  0.00     0.031 A 
ATOM     13  C   UNL     1      -3.614  -1.132   0.021  1.00  0.00     0.011 A 
ATOM     14  C   UNL     1      -2.960  -3.082   1.255  1.00  0.00     0.047 A 
ATOM     15  C   UNL     1      -3.978  -2.292   0.732  1.00  0.00     0.007 A 
ATOM     16  N   UNL     1      -3.551  -4.176   1.836  1.00  0.00    -0.355 N 
ATOM     17  C   UNL     1      -5.221  -2.902   1.099  1.00  0.00     0.009 A 
ATOM     18  C   UNL     1      -4.920  -4.069   1.802  1.00  0.00     0.047 A 
ATOM     19  H   UNL     1      -3.060  -4.936   2.224  1.00  0.00     0.167 HD
ATOM     20  C   UNL     1      -6.577  -2.555   0.919  1.00  0.00     0.031 A 
ATOM     21  C   UNL     1      -5.899  -4.909   2.344  1.00  0.00     0.028 A 
ATOM     22  C   UNL     1      -7.565  -3.380   1.467  1.00  0.00     0.041 A 
ATOM     23  C   UNL     1      -7.234  -4.536   2.170  1.00  0.00     0.022 A 
ATOM     24  Cl  UNL     1      -9.224  -2.952   1.282  1.00  0.00    -0.084 Cl
ENDBRANCH   8  10
ENDBRANCH   5   8
ENDBRANCH   3   4
ENDBRANCH   2   3
ENDBRANCH   1   2
BRANCH   1  25
ATOM     25  C   UNL     1      -0.919   4.607  -0.462  1.00  0.00     0.116 C 
BRANCH  25  26
ATOM     26  N   UNL     1      -2.289   4.859  -0.048  1.00  0.00    -0.352 N 
ATOM     27  C   UNL     1      -3.112   5.929  -0.325  1.00  0.00     0.251 C 
ATOM     28  H   UNL     1      -2.691   4.159   0.516  1.00  0.00     0.163 HD
ATOM     29  O   UNL     1      -4.209   6.003   0.211  1.00  0.00    -0.269 OA
BRANCH  27  30
ATOM     30  C   UNL     1      -2.646   7.005  -1.230  1.00  0.00     0.039 A 
ATOM     31  C   UNL     1      -2.798   8.334  -0.826  1.00  0.00     0.014 A 
ATOM     32  C   UNL     1      -2.038   6.711  -2.452  1.00  0.00     0.014 A 
ATOM     33  C   UNL     1      -2.258   9.361  -1.605  1.00  0.00     0.010 A 
ATOM     34  C   UNL     1      -1.431   7.729  -3.185  1.00  0.00     0.010 A 
ATOM     35  C   UNL     1      -1.526   9.065  -2.766  1.00  0.00    -0.014 A 
BRANCH  35  36
ATOM     36  C   UNL     1      -0.844  10.135  -3.544  1.00  0.00     0.031 A 
ATOM     37  C   UNL     1      -1.235  10.397  -4.974  1.00  0.00     0.074 A 
ATOM     38  C   UNL     1       0.174  10.822  -2.987  1.00  0.00     0.049 A 
ATOM     39  N   UNL     1      -0.705  11.223  -5.840  1.00  0.00    -0.248 NA
ATOM     40  C   UNL     1      -2.349   9.600  -5.508  1.00  0.00     0.031 C 
ATOM     41  C   UNL     1       0.681  10.627  -1.626  1.00  0.00     0.029 A 
ATOM     42  N   UNL     1       0.975  11.815  -3.496  1.00  0.00    -0.354 N 
ATOM     43  C   UNL     1      -1.408  11.033  -7.025  1.00  0.00     0.074 A 
ATOM     44  C   UNL     1      -2.359   9.969  -6.780  1.00  0.00     0.031 C 
ATOM     45  C   UNL     1       1.686  11.489  -1.402  1.00  0.00     0.029 A 
ATOM     46  C   UNL     1       1.931  12.264  -2.613  1.00  0.00     0.049 A 
ATOM     47  H   UNL     1       0.875  12.172  -4.408  1.00  0.00     0.167 HD
ATOM     48  C   UNL     1      -1.287  11.699  -8.201  1.00  0.00     0.034 A 
ATOM     49  C   UNL     1       2.902  13.187  -2.765  1.00  0.00     0.034 A 
ATOM     50  C   UNL     1      -0.345  12.769  -8.425  1.00  0.00     0.049 A 
ATOM     51  C   UNL     1       3.022  13.909  -4.083  1.00  0.00     0.074 A 
ATOM     52  C   UNL     1      -0.181  13.550  -9.556  1.00  0.00     0.029 A 
ATOM     53  N   UNL     1       0.597  13.206  -7.502  1.00  0.00    -0.354 N 
ATOM     54  N   UNL     1       2.313  13.754  -5.178  1.00  0.00    -0.248 NA
ATOM     55  C   UNL     1       4.064  14.939  -4.182  1.00  0.00     0.031 C 
ATOM     56  C   UNL     1       0.901  14.412  -9.342  1.00  0.00     0.029 A 
ATOM     57  C   UNL     1       1.364  14.225  -8.050  1.00  0.00     0.049 A 
ATOM     58  H   UNL     1       0.706  12.845  -6.593  1.00  0.00     0.167 HD
ATOM     59  C   UNL     1       2.806  14.690  -6.084  1.00  0.00     0.074 A 
ATOM     60  C   UNL     1       3.859  15.413  -5.402  1.00  0.00     0.031 C 
ATOM     61  C   UNL     1       2.419  14.932  -7.362  1.00  0.00     0.034 A 
BRANCH  48  62
ATOM     62  C   UNL     1      -2.184  11.268  -9.338  1.00  0.00     0.023 A 
ATOM     63  C   UNL     1      -3.584  11.369  -9.254  1.00  0.00     0.031 A 
ATOM     64  C   UNL     1      -1.635  10.725 -10.513  1.00  0.00     0.131 A 
ATOM     65  C   UNL     1      -4.388  10.862 -10.287  1.00  0.00     0.055 A 
ATOM     66  C   UNL     1      -2.438  10.300 -11.574  1.00  0.00     0.041 A 
ATOM     67  F   UNL     1      -0.306  10.585 -10.646  1.00  0.00    -0.206 F 
ATOM     68  C   UNL     1      -3.824  10.352 -11.458  1.00  0.00     0.022 A 
BRANCH  65  69
ATOM     69  S   UNL     1      -6.177  10.746 -10.013  1.00  0.00     0.124 S 
ATOM     70  O   UNL     1      -6.239   9.883  -8.836  1.00  0.00    -0.237 OA
ATOM     71  O   UNL     1      -6.556  12.138  -9.806  1.00  0.00    -0.237 OA
ATOM     72  O   UNL     1      -6.673  10.140 -11.247  1.00  0.00    -0.744 OA
ENDBRANCH  65  69
ENDBRANCH  48  62
BRANCH  49  73
ATOM     73  C   UNL     1       3.848  13.481  -1.649  1.00  0.00     0.023 A 
ATOM     74  C   UNL     1       3.873  14.743  -1.034  1.00  0.00     0.031 A 
ATOM     75  C   UNL     1       4.771  12.515  -1.209  1.00  0.00     0.131 A 
ATOM     76  C   UNL     1       4.833  15.023  -0.048  1.00  0.00     0.055 A 
ATOM     77  C   UNL     1       5.688  12.781  -0.191  1.00  0.00     0.041 A 
ATOM     78  F   UNL     1       4.786  11.290  -1.759  1.00  0.00    -0.206 F 
ATOM     79  C   UNL     1       5.732  14.046   0.386  1.00  0.00     0.022 A 
BRANCH  76  80
ATOM     80  S   UNL     1       4.944  16.713   0.601  1.00  0.00     0.124 S 
ATOM     81  O   UNL     1       5.194  17.482  -0.613  1.00  0.00    -0.237 OA
ATOM     82  O   UNL     1       3.632  16.889   1.214  1.00  0.00    -0.237 OA
ATOM     83  O   UNL     1       6.063  16.643   1.538  1.00  0.00    -0.744 OA
ENDBRANCH  76  80
ENDBRANCH  49  73
BRANCH  61  84
ATOM     84  C   UNL     1       3.112  16.061  -8.086  1.00  0.00     0.023 A 
ATOM     85  C   UNL     1       4.476  16.000  -8.424  1.00  0.00     0.031 A 
ATOM     86  C   UNL     1       2.397  17.223  -8.430  1.00  0.00     0.131 A 
ATOM     87  C   UNL     1       5.095  17.102  -9.033  1.00  0.00     0.055 A 
ATOM     88  C   UNL     1       3.004  18.291  -9.091  1.00  0.00     0.041 A 
ATOM     89  F   UNL     1       1.094  17.337  -8.129  1.00  0.00    -0.206 F 
ATOM     90  C   UNL     1       4.364  18.240  -9.384  1.00  0.00     0.022 A 
BRANCH  87  91
ATOM     91  S   UNL     1       6.892  17.068  -9.275  1.00  0.00     0.124 S 
ATOM     92  O   UNL     1       7.378  16.877  -7.912  1.00  0.00    -0.237 OA
ATOM     93  O   UNL     1       7.064  15.936 -10.179  1.00  0.00    -0.237 OA
ATOM     94  O   UNL     1       7.185  18.376  -9.859  1.00  0.00    -0.744 OA
ENDBRANCH  87  91
ENDBRANCH  61  84
ENDBRANCH  35  36
ENDBRANCH  27  30
ENDBRANCH  25  26
ENDBRANCH   1  25
TORSDOF 15
