REMARK SMILES Cn1cc(C[C@H](C(=O)NCCCCNC(=O)c2ccc(-c3c4nc(c(-c5cc(S(=O)(=O)[O-])ccc5F)c5ccc([nH]5)c(-c5cc(S(=O)(=O)[O-])ccc5F)c5nc(c(-c6cc(S(=O)(=O)[O-])ccc6F)c6ccc3[nH]6)C=C5)C=C4)cc2)c2ccc(F)cc2)cn1
REMARK SMILES IDX 12 1 11 2 10 3 9 4 7 5 8 6 6 8 5 9 4 10 1 11 2 12 3 13 88 14
REMARK SMILES IDX 87 15 80 16 81 17 86 18 82 19 85 20 83 21 84 22 13 23 14 24
REMARK SMILES IDX 15 25 16 27 17 28 18 29 79 30 19 31 78 32 20 33 21 34 22 35
REMARK SMILES IDX 72 36 23 37 77 38 71 39 73 40 24 41 76 42 70 43 69 44 25 46
REMARK SMILES IDX 57 47 37 48 56 49 38 50 41 51 55 52 74 53 39 54 40 55 54 57
REMARK SMILES IDX 75 58 42 59 26 60 27 61 35 62 28 63 34 64 36 65 33 66 29 67
REMARK SMILES IDX 30 68 31 69 32 70 58 71 59 72 67 73 60 74 66 75 68 76 65 77
REMARK SMILES IDX 61 78 62 79 63 80 64 81 43 82 44 83 52 84 45 85 51 86 53 87
REMARK SMILES IDX 50 88 46 89 47 90 48 91 49 92
REMARK H PARENT 9 7 14 26 73 45 41 56
REMARK Flexibility Score: inf
ROOT
ATOM      1  C   UNL     1       3.903  -5.206   1.725  1.00  0.00     0.023 C 
ENDROOT
BRANCH   1   2
ATOM      2  C   UNL     1       4.043  -4.554   0.348  1.00  0.00     0.023 C 
BRANCH   2   3
ATOM      3  C   UNL     1       2.778  -3.851  -0.148  1.00  0.00     0.116 C 
BRANCH   3   4
ATOM      4  N   UNL     1       2.635  -2.556   0.481  1.00  0.00    -0.356 N 
ATOM      5  C   UNL     1       3.122  -1.344   0.088  1.00  0.00     0.227 C 
ATOM      6  O   UNL     1       3.051  -0.426   0.911  1.00  0.00    -0.274 OA
ATOM      7  H   UNL     1       2.111  -2.549   1.315  1.00  0.00     0.163 HD
BRANCH   5   8
ATOM      8  C   UNL     1       3.681  -1.124  -1.336  1.00  0.00     0.113 C 
BRANCH   8   9
ATOM      9  C   UNL     1       3.701   0.404  -1.565  1.00  0.00     0.057 C 
BRANCH   9  10
ATOM     10  C   UNL     1       3.967   0.923  -2.940  1.00  0.00    -0.009 A 
ATOM     11  C   UNL     1       4.356   3.514  -5.419  1.00  0.00     0.173 C 
ATOM     12  N   UNL     1       4.254   2.321  -4.615  1.00  0.00    -0.276 N 
ATOM     13  C   UNL     1       4.043   2.263  -3.273  1.00  0.00     0.112 A 
ATOM     14  N   UNL     1       4.337   1.111  -5.192  1.00  0.00    -0.182 NA
ATOM     15  C   UNL     1       4.167   0.263  -4.172  1.00  0.00     0.138 A 
ENDBRANCH   9  10
ENDBRANCH   8   9
BRANCH   8  16
ATOM     16  C   UNL     1       5.043  -1.790  -1.531  1.00  0.00    -0.035 A 
ATOM     17  C   UNL     1       5.166  -2.909  -2.380  1.00  0.00     0.007 A 
ATOM     18  C   UNL     1       6.181  -1.353  -0.834  1.00  0.00     0.007 A 
ATOM     19  C   UNL     1       6.373  -3.604  -2.478  1.00  0.00     0.039 A 
ATOM     20  C   UNL     1       7.396  -2.034  -0.958  1.00  0.00     0.039 A 
ATOM     21  C   UNL     1       7.477  -3.161  -1.765  1.00  0.00     0.123 A 
ATOM     22  F   UNL     1       8.632  -3.834  -1.849  1.00  0.00    -0.207 F 
ENDBRANCH   8  16
ENDBRANCH   5   8
ENDBRANCH   3   4
ENDBRANCH   2   3
ENDBRANCH   1   2
BRANCH   1  23
ATOM     23  C   UNL     1       2.952  -6.395   1.771  1.00  0.00     0.116 C 
BRANCH  23  24
ATOM     24  N   UNL     1       3.336  -7.471   0.871  1.00  0.00    -0.352 N 
ATOM     25  C   UNL     1       3.155  -8.826   1.032  1.00  0.00     0.251 C 
ATOM     26  H   UNL     1       3.783  -7.195   0.038  1.00  0.00     0.163 HD
ATOM     27  O   UNL     1       3.628  -9.611   0.222  1.00  0.00    -0.269 OA
BRANCH  25  28
ATOM     28  C   UNL     1       2.428  -9.312   2.224  1.00  0.00     0.039 A 
ATOM     29  C   UNL     1       3.019 -10.301   3.014  1.00  0.00     0.014 A 
ATOM     30  C   UNL     1       1.202  -8.751   2.589  1.00  0.00     0.014 A 
ATOM     31  C   UNL     1       2.414 -10.674   4.215  1.00  0.00     0.010 A 
ATOM     32  C   UNL     1       0.638  -9.074   3.819  1.00  0.00     0.010 A 
ATOM     33  C   UNL     1       1.240 -10.034   4.646  1.00  0.00    -0.014 A 
BRANCH  33  34
ATOM     34  C   UNL     1       0.627 -10.353   5.960  1.00  0.00     0.031 A 
ATOM     35  C   UNL     1      -0.743 -10.970   6.017  1.00  0.00     0.074 A 
ATOM     36  C   UNL     1       1.272 -10.018   7.095  1.00  0.00     0.049 A 
ATOM     37  N   UNL     1      -1.487 -11.238   7.058  1.00  0.00    -0.248 NA
ATOM     38  C   UNL     1      -1.371 -11.294   4.728  1.00  0.00     0.031 C 
ATOM     39  C   UNL     1       2.584  -9.370   7.163  1.00  0.00     0.029 A 
ATOM     40  N   UNL     1       0.908 -10.164   8.410  1.00  0.00    -0.354 N 
ATOM     41  C   UNL     1      -2.677 -11.748   6.550  1.00  0.00     0.074 A 
ATOM     42  C   UNL     1      -2.575 -11.691   5.107  1.00  0.00     0.031 C 
ATOM     43  C   UNL     1       2.922  -9.194   8.451  1.00  0.00     0.029 A 
ATOM     44  C   UNL     1       1.838  -9.677   9.299  1.00  0.00     0.049 A 
ATOM     45  H   UNL     1       0.060 -10.578   8.691  1.00  0.00     0.167 HD
ATOM     46  C   UNL     1      -3.745 -12.241   7.225  1.00  0.00     0.034 A 
ATOM     47  C   UNL     1       1.813  -9.617  10.646  1.00  0.00     0.034 A 
ATOM     48  C   UNL     1      -3.821 -12.308   8.664  1.00  0.00     0.049 A 
ATOM     49  C   UNL     1       0.613 -10.165  11.374  1.00  0.00     0.074 A 
ATOM     50  C   UNL     1      -4.824 -12.843   9.452  1.00  0.00     0.029 A 
ATOM     51  N   UNL     1      -2.853 -11.819   9.534  1.00  0.00    -0.354 N 
ATOM     52  N   UNL     1      -0.483 -10.694  10.880  1.00  0.00    -0.248 NA
ATOM     53  C   UNL     1       0.651 -10.118  12.841  1.00  0.00     0.031 C 
ATOM     54  C   UNL     1      -4.492 -12.626  10.794  1.00  0.00     0.029 A 
ATOM     55  C   UNL     1      -3.249 -12.016  10.847  1.00  0.00     0.049 A 
ATOM     56  H   UNL     1      -2.009 -11.395   9.257  1.00  0.00     0.167 HD
ATOM     57  C   UNL     1      -1.253 -11.066  11.978  1.00  0.00     0.074 A 
ATOM     58  C   UNL     1      -0.488 -10.716  13.158  1.00  0.00     0.031 C 
ATOM     59  C   UNL     1      -2.479 -11.648  12.011  1.00  0.00     0.034 A 
BRANCH  46  60
ATOM     60  C   UNL     1      -4.919 -12.722   6.407  1.00  0.00     0.023 A 
ATOM     61  C   UNL     1      -4.801 -13.802   5.515  1.00  0.00     0.031 A 
ATOM     62  C   UNL     1      -6.162 -12.071   6.491  1.00  0.00     0.131 A 
ATOM     63  C   UNL     1      -5.878 -14.147   4.684  1.00  0.00     0.055 A 
ATOM     64  C   UNL     1      -7.256 -12.473   5.721  1.00  0.00     0.041 A 
ATOM     65  F   UNL     1      -6.331 -11.021   7.309  1.00  0.00    -0.206 F 
ATOM     66  C   UNL     1      -7.113 -13.506   4.799  1.00  0.00     0.022 A 
BRANCH  63  67
ATOM     67  S   UNL     1      -5.594 -15.345   3.353  1.00  0.00     0.124 S 
ATOM     68  O   UNL     1      -4.551 -14.679   2.576  1.00  0.00    -0.237 OA
ATOM     69  O   UNL     1      -5.184 -16.538   4.083  1.00  0.00    -0.237 OA
ATOM     70  O   UNL     1      -6.893 -15.434   2.689  1.00  0.00    -0.744 OA
ENDBRANCH  63  67
ENDBRANCH  46  60
BRANCH  47  71
ATOM     71  C   UNL     1       2.949  -9.013  11.398  1.00  0.00     0.023 A 
ATOM     72  C   UNL     1       3.748  -9.794  12.247  1.00  0.00     0.031 A 
ATOM     73  C   UNL     1       3.224  -7.637  11.313  1.00  0.00     0.131 A 
ATOM     74  C   UNL     1       4.755  -9.187  13.015  1.00  0.00     0.055 A 
ATOM     75  C   UNL     1       4.258  -7.046  12.041  1.00  0.00     0.041 A 
ATOM     76  F   UNL     1       2.494  -6.847  10.509  1.00  0.00    -0.206 F 
ATOM     77  C   UNL     1       5.022  -7.820  12.909  1.00  0.00     0.022 A 
BRANCH  74  78
ATOM     78  S   UNL     1       5.657 -10.199  14.219  1.00  0.00     0.124 S 
ATOM     79  O   UNL     1       4.574 -10.705  15.054  1.00  0.00    -0.237 OA
ATOM     80  O   UNL     1       6.315 -11.177  13.359  1.00  0.00    -0.237 OA
ATOM     81  O   UNL     1       6.551  -9.241  14.867  1.00  0.00    -0.744 OA
ENDBRANCH  74  78
ENDBRANCH  47  71
BRANCH  59  82
ATOM     82  C   UNL     1      -3.042 -11.973  13.372  1.00  0.00     0.023 A 
ATOM     83  C   UNL     1      -3.434 -10.964  14.268  1.00  0.00     0.031 A 
ATOM     84  C   UNL     1      -3.175 -13.312  13.779  1.00  0.00     0.131 A 
ATOM     85  C   UNL     1      -3.891 -11.308  15.549  1.00  0.00     0.055 A 
ATOM     86  C   UNL     1      -3.684 -13.649  15.034  1.00  0.00     0.041 A 
ATOM     87  F   UNL     1      -2.815 -14.314  12.961  1.00  0.00    -0.206 F 
ATOM     88  C   UNL     1      -4.034 -12.644  15.931  1.00  0.00     0.022 A 
BRANCH  85  89
ATOM     89  S   UNL     1      -4.223  -9.981  16.740  1.00  0.00     0.124 S 
ATOM     90  O   UNL     1      -2.922  -9.326  16.835  1.00  0.00    -0.237 OA
ATOM     91  O   UNL     1      -5.274  -9.219  16.075  1.00  0.00    -0.237 OA
ATOM     92  O   UNL     1      -4.645 -10.698  17.943  1.00  0.00    -0.744 OA
ENDBRANCH  85  89
ENDBRANCH  59  82
ENDBRANCH  33  34
ENDBRANCH  25  28
ENDBRANCH  23  24
ENDBRANCH   1  23
TORSDOF 17
