REMARK SMILES CC[C@@H](C)[C@H](C(=O)NCCCCNC(=O)c1ccc(-c2c3nc(c(-c4cc(S(=O)(=O)[O-])ccc4F)c4ccc([nH]4)c(-c4cc(S(=O)(=O)[O-])ccc4F)c4nc(c(-c5cc(S(=O)(=O)[O-])ccc5F)c5ccc2[nH]5)C=C4)C=C3)cc1)S(=O)(=O)c1cccc(OC)c1
REMARK SMILES IDX 10 1 9 2 8 3 6 4 7 5 5 7 3 8 4 9 2 10 1 11 79 12 80 13 81 14
REMARK SMILES IDX 82 15 83 16 89 17 84 18 86 19 85 20 87 21 88 22 11 23 12 24
REMARK SMILES IDX 13 25 14 26 15 28 16 29 17 30 78 31 18 32 77 33 19 34 20 35
REMARK SMILES IDX 21 36 71 37 22 38 76 39 70 40 72 41 23 42 75 43 69 44 68 45
REMARK SMILES IDX 24 47 56 48 36 49 55 50 37 51 40 52 54 53 73 54 38 55 39 56
REMARK SMILES IDX 53 58 74 59 41 60 25 61 26 62 34 63 27 64 33 65 35 66 32 67
REMARK SMILES IDX 28 68 29 69 30 70 31 71 57 72 58 73 66 74 59 75 65 76 67 77
REMARK SMILES IDX 64 78 60 79 61 80 62 81 63 82 42 83 43 84 51 85 44 86 50 87
REMARK SMILES IDX 52 88 49 89 45 90 46 91 47 92 48 93
REMARK H PARENT 8 6 13 27 72 46 40 57
REMARK Flexibility Score: inf
ROOT
ATOM      1  C   UNL     1       2.112   0.379  -3.020  1.00  0.00     0.023 C 
ENDROOT
BRANCH   1   2
ATOM      2  C   UNL     1       2.511  -1.010  -2.529  1.00  0.00     0.116 C 
BRANCH   2   3
ATOM      3  N   UNL     1       1.847  -1.366  -1.294  1.00  0.00    -0.355 N 
ATOM      4  C   UNL     1       1.032  -2.372  -0.898  1.00  0.00     0.239 C 
ATOM      5  O   UNL     1       0.622  -2.234   0.263  1.00  0.00    -0.274 OA
ATOM      6  H   UNL     1       2.030  -0.724  -0.570  1.00  0.00     0.163 HD
BRANCH   4   7
ATOM      7  C   UNL     1       0.593  -3.592  -1.703  1.00  0.00     0.205 C 
BRANCH   7   8
ATOM      8  C   UNL     1       0.615  -3.672  -3.254  1.00  0.00     0.014 C 
ATOM      9  C   UNL     1       1.972  -4.067  -3.855  1.00  0.00     0.009 C 
BRANCH   8  10
ATOM     10  C   UNL     1      -0.142  -2.467  -3.880  1.00  0.00     0.002 C 
ATOM     11  C   UNL     1       0.199  -2.111  -5.319  1.00  0.00     0.004 C 
ENDBRANCH   8  10
ENDBRANCH   7   8
BRANCH   7  12
ATOM     12  S   UNL     1       1.107  -5.105  -0.877  1.00  0.00     0.190 S 
ATOM     13  O   UNL     1       0.693  -5.099   0.512  1.00  0.00    -0.223 OA
ATOM     14  O   UNL     1       0.662  -6.208  -1.720  1.00  0.00    -0.223 OA
BRANCH  12  15
ATOM     15  C   UNL     1       2.890  -5.192  -0.853  1.00  0.00     0.071 A 
ATOM     16  C   UNL     1       3.511  -6.346  -1.354  1.00  0.00     0.020 A 
ATOM     17  C   UNL     1       3.654  -4.182  -0.260  1.00  0.00     0.066 A 
ATOM     18  C   UNL     1       4.896  -6.479  -1.279  1.00  0.00     0.005 A 
ATOM     19  C   UNL     1       5.045  -4.302  -0.231  1.00  0.00     0.120 A 
ATOM     20  C   UNL     1       5.659  -5.457  -0.720  1.00  0.00     0.046 A 
BRANCH  19  21
ATOM     21  O   UNL     1       5.893  -3.382   0.322  1.00  0.00    -0.497 OA
ATOM     22  C   UNL     1       5.530  -2.023   0.100  1.00  0.00     0.278 C 
ENDBRANCH  19  21
ENDBRANCH  12  15
ENDBRANCH   7  12
ENDBRANCH   4   7
ENDBRANCH   2   3
ENDBRANCH   1   2
BRANCH   1  23
ATOM     23  C   UNL     1       2.842   1.540  -2.349  1.00  0.00     0.023 C 
BRANCH  23  24
ATOM     24  C   UNL     1       4.364   1.448  -2.345  1.00  0.00     0.116 C 
BRANCH  24  25
ATOM     25  N   UNL     1       4.947   1.115  -3.638  1.00  0.00    -0.352 N 
ATOM     26  C   UNL     1       6.189   1.473  -4.120  1.00  0.00     0.251 C 
ATOM     27  H   UNL     1       4.389   0.570  -4.238  1.00  0.00     0.163 HD
ATOM     28  O   UNL     1       6.538   1.153  -5.245  1.00  0.00    -0.269 OA
BRANCH  26  29
ATOM     29  C   UNL     1       7.049   2.305  -3.256  1.00  0.00     0.039 A 
ATOM     30  C   UNL     1       7.411   3.578  -3.700  1.00  0.00     0.014 A 
ATOM     31  C   UNL     1       7.364   1.876  -1.964  1.00  0.00     0.014 A 
ATOM     32  C   UNL     1       8.007   4.467  -2.807  1.00  0.00     0.010 A 
ATOM     33  C   UNL     1       7.899   2.786  -1.060  1.00  0.00     0.010 A 
ATOM     34  C   UNL     1       8.203   4.095  -1.467  1.00  0.00    -0.014 A 
BRANCH  34  35
ATOM     35  C   UNL     1       8.693   5.070  -0.461  1.00  0.00     0.031 A 
ATOM     36  C   UNL     1      10.017   4.847   0.211  1.00  0.00     0.074 A 
ATOM     37  C   UNL     1       7.901   6.094  -0.087  1.00  0.00     0.049 A 
ATOM     38  N   UNL     1      10.565   5.506   1.198  1.00  0.00    -0.248 NA
ATOM     39  C   UNL     1      10.808   3.705  -0.269  1.00  0.00     0.031 C 
ATOM     40  C   UNL     1       6.571   6.380  -0.631  1.00  0.00     0.029 A 
ATOM     41  N   UNL     1       8.091   7.076   0.853  1.00  0.00    -0.354 N 
ATOM     42  C   UNL     1      11.758   4.847   1.474  1.00  0.00     0.074 A 
ATOM     43  C   UNL     1      11.821   3.706   0.584  1.00  0.00     0.031 C 
ATOM     44  C   UNL     1       6.072   7.471  -0.025  1.00  0.00     0.029 A 
ATOM     45  C   UNL     1       7.026   7.939   0.974  1.00  0.00     0.049 A 
ATOM     46  H   UNL     1       8.912   7.155   1.390  1.00  0.00     0.167 HD
ATOM     47  C   UNL     1      12.720   5.176   2.371  1.00  0.00     0.034 A 
ATOM     48  C   UNL     1       6.837   8.982   1.806  1.00  0.00     0.034 A 
ATOM     49  C   UNL     1      12.650   6.328   3.235  1.00  0.00     0.049 A 
ATOM     50  C   UNL     1       7.924   9.337   2.787  1.00  0.00     0.074 A 
ATOM     51  C   UNL     1      13.591   6.790   4.138  1.00  0.00     0.029 A 
ATOM     52  N   UNL     1      11.572   7.202   3.304  1.00  0.00    -0.354 N 
ATOM     53  N   UNL     1       9.069   8.732   3.003  1.00  0.00    -0.248 NA
ATOM     54  C   UNL     1       7.697  10.519   3.628  1.00  0.00     0.031 C 
ATOM     55  C   UNL     1      13.064   7.914   4.786  1.00  0.00     0.029 A 
ATOM     56  C   UNL     1      11.817   8.188   4.247  1.00  0.00     0.049 A 
ATOM     57  H   UNL     1      10.753   7.131   2.762  1.00  0.00     0.167 HD
ATOM     58  C   UNL     1       9.710   9.477   3.987  1.00  0.00     0.074 A 
ATOM     59  C   UNL     1       8.829  10.579   4.315  1.00  0.00     0.031 C 
ATOM     60  C   UNL     1      10.921   9.274   4.563  1.00  0.00     0.034 A 
BRANCH  47  61
ATOM     61  C   UNL     1      13.910   4.255   2.469  1.00  0.00     0.023 A 
ATOM     62  C   UNL     1      14.786   4.071   1.385  1.00  0.00     0.031 A 
ATOM     63  C   UNL     1      14.143   3.511   3.638  1.00  0.00     0.131 A 
ATOM     64  C   UNL     1      15.797   3.102   1.459  1.00  0.00     0.055 A 
ATOM     65  C   UNL     1      15.203   2.608   3.735  1.00  0.00     0.041 A 
ATOM     66  F   UNL     1      13.328   3.630   4.698  1.00  0.00    -0.206 F 
ATOM     67  C   UNL     1      16.027   2.386   2.635  1.00  0.00     0.022 A 
BRANCH  64  68
ATOM     68  S   UNL     1      16.704   2.686  -0.055  1.00  0.00     0.124 S 
ATOM     69  O   UNL     1      15.626   2.220  -0.924  1.00  0.00    -0.237 OA
ATOM     70  O   UNL     1      17.313   3.960  -0.419  1.00  0.00    -0.237 OA
ATOM     71  O   UNL     1      17.638   1.649   0.379  1.00  0.00    -0.744 OA
ENDBRANCH  64  68
ENDBRANCH  47  61
BRANCH  48  72
ATOM     72  C   UNL     1       5.572   9.765   1.759  1.00  0.00     0.023 A 
ATOM     73  C   UNL     1       5.564  11.095   1.313  1.00  0.00     0.031 A 
ATOM     74  C   UNL     1       4.358   9.204   2.192  1.00  0.00     0.131 A 
ATOM     75  C   UNL     1       4.373  11.837   1.349  1.00  0.00     0.055 A 
ATOM     76  C   UNL     1       3.167   9.933   2.189  1.00  0.00     0.041 A 
ATOM     77  F   UNL     1       4.312   7.931   2.616  1.00  0.00    -0.206 F 
ATOM     78  C   UNL     1       3.173  11.262   1.776  1.00  0.00     0.022 A 
BRANCH  75  79
ATOM     79  S   UNL     1       4.429  13.590   0.890  1.00  0.00     0.124 S 
ATOM     80  O   UNL     1       5.403  14.116   1.839  1.00  0.00    -0.237 OA
ATOM     81  O   UNL     1       4.860  13.523  -0.503  1.00  0.00    -0.237 OA
ATOM     82  O   UNL     1       3.053  14.039   1.093  1.00  0.00    -0.744 OA
ENDBRANCH  75  79
ENDBRANCH  48  72
BRANCH  60  83
ATOM     83  C   UNL     1      11.374  10.296   5.572  1.00  0.00     0.023 A 
ATOM     84  C   UNL     1      10.776  10.397   6.839  1.00  0.00     0.031 A 
ATOM     85  C   UNL     1      12.415  11.186   5.252  1.00  0.00     0.131 A 
ATOM     86  C   UNL     1      11.196  11.398   7.729  1.00  0.00     0.055 A 
ATOM     87  C   UNL     1      12.860  12.149   6.158  1.00  0.00     0.041 A 
ATOM     88  F   UNL     1      13.017  11.130   4.053  1.00  0.00    -0.206 F 
ATOM     89  C   UNL     1      12.242  12.265   7.401  1.00  0.00     0.022 A 
BRANCH  86  90
ATOM     90  S   UNL     1      10.312  11.594   9.300  1.00  0.00     0.124 S 
ATOM     91  O   UNL     1       8.959  11.904   8.850  1.00  0.00    -0.237 OA
ATOM     92  O   UNL     1      10.492  10.288   9.926  1.00  0.00    -0.237 OA
ATOM     93  O   UNL     1      11.015  12.696   9.954  1.00  0.00    -0.744 OA
ENDBRANCH  86  90
ENDBRANCH  60  83
ENDBRANCH  34  35
ENDBRANCH  26  29
ENDBRANCH  24  25
ENDBRANCH  23  24
ENDBRANCH   1  23
TORSDOF 19
