REMARK SMILES CCC/C=C/[C@@H](C(=O)NCCCCNC(=O)c1ccc(-c2c3nc(c(-c4cc(S(=O)(=O)[O-])ccc4F)c4ccc([nH]4)c(-c4cc(S(=O)(=O)[O-])ccc4F)c4nc(c(-c5cc(S(=O)(=O)[O-])ccc5F)c5ccc2[nH]5)C=C4)C=C3)cc1)[N@@H+]1CCCN(c2ncccn2)CC1
REMARK SMILES IDX 10 1 9 2 7 3 8 4 6 6 5 7 4 8 3 9 2 10 1 11 80 12 81 14 82 15
REMARK SMILES IDX 83 16 84 17 85 18 86 19 90 20 87 21 89 22 88 23 91 24 92 26
REMARK SMILES IDX 11 28 12 29 13 30 14 31 15 32 16 34 17 35 18 36 79 37 19 38
REMARK SMILES IDX 78 39 20 40 21 41 22 42 72 43 23 44 77 45 71 46 73 47 24 48
REMARK SMILES IDX 76 49 70 50 69 51 25 53 57 54 37 55 56 56 38 57 41 58 55 59
REMARK SMILES IDX 74 60 39 61 40 62 54 64 75 65 42 66 26 67 27 68 35 69 28 70
REMARK SMILES IDX 34 71 36 72 33 73 29 74 30 75 31 76 32 77 58 78 59 79 67 80
REMARK SMILES IDX 60 81 66 82 68 83 65 84 61 85 62 86 63 87 64 88 43 89 44 90
REMARK SMILES IDX 52 91 45 92 51 93 53 94 50 95 46 96 47 97 48 98 49 99
REMARK H PARENT 9 5 80 13 14 33 73 52 41 63
REMARK Flexibility Score: 90.00
ROOT
ATOM      1  C   UNL     1      -2.493  -2.488   0.732  1.00  0.00     0.116 C 
ENDROOT
BRANCH   1   2
ATOM      2  N   UNL     1      -3.100  -3.685   0.185  1.00  0.00    -0.351 N 
ATOM      3  C   UNL     1      -2.522  -4.611  -0.646  1.00  0.00     0.282 C 
ATOM      4  O   UNL     1      -3.284  -5.257  -1.368  1.00  0.00    -0.268 OA
ATOM      5  H   UNL     1      -4.036  -3.853   0.440  1.00  0.00     0.163 HD
BRANCH   3   6
ATOM      6  C   UNL     1      -0.967  -4.811  -0.606  1.00  0.00     0.297 C 
BRANCH   6   7
ATOM      7  C   UNL     1      -0.291  -3.737  -1.441  1.00  0.00     0.043 C 
ATOM      8  C   UNL     1       0.633  -2.869  -0.990  1.00  0.00    -0.025 C 
BRANCH   8   9
ATOM      9  C   UNL     1       1.229  -1.765  -1.823  1.00  0.00     0.027 C 
BRANCH   9  10
ATOM     10  C   UNL     1       0.745  -0.361  -1.444  1.00  0.00     0.001 C 
ATOM     11  C   UNL     1       1.053   0.042  -0.009  1.00  0.00     0.004 C 
ENDBRANCH   9  10
ENDBRANCH   8   9
ENDBRANCH   6   7
BRANCH   6  12
ATOM     12  N   UNL     1      -0.527  -6.204  -0.958  1.00  0.00    -0.320 N 
ATOM     13  H   UNL     1       0.486  -6.225  -0.841  1.00  0.00     0.349 HD
BRANCH  12  14
ATOM     14  C   UNL     1      -0.797  -6.578  -2.359  1.00  0.00     0.265 C 
BRANCH  14  15
ATOM     15  C   UNL     1       0.257  -7.526  -2.946  1.00  0.00     0.083 C 
BRANCH  15  16
ATOM     16  C   UNL     1       0.504  -8.860  -2.238  1.00  0.00     0.126 C 
BRANCH  16  17
ATOM     17  N   UNL     1      -0.572  -9.249  -1.353  1.00  0.00    -0.335 N 
BRANCH  17  18
ATOM     18  C   UNL     1      -1.660  -9.911  -1.867  1.00  0.00     0.225 A 
ATOM     19  N   UNL     1      -1.447 -10.890  -2.765  1.00  0.00    -0.221 NA
ATOM     20  N   UNL     1      -2.888  -9.579  -1.440  1.00  0.00    -0.221 NA
ATOM     21  C   UNL     1      -2.521 -11.562  -3.222  1.00  0.00     0.117 A 
ATOM     22  C   UNL     1      -3.937 -10.226  -1.982  1.00  0.00     0.117 A 
ATOM     23  C   UNL     1      -3.810 -11.257  -2.876  1.00  0.00     0.040 A 
ENDBRANCH  17  18
BRANCH  17  24
ATOM     24  C   UNL     1      -0.644  -8.617  -0.045  1.00  0.00     0.181 CG0
ATOM     25  G   UNL     1      -1.200  -7.180  -0.051  1.00  0.00     0.000 G0
ENDBRANCH  17  24
ENDBRANCH  16  17
ENDBRANCH  15  16
ENDBRANCH  14  15
ENDBRANCH  12  14
BRANCH  12  26
ATOM     26  C   UNL     1      -1.200  -7.180  -0.051  1.00  0.00     0.284 CG0
ATOM     27  G   UNL     1      -0.644  -8.617  -0.045  1.00  0.00     0.000 G0
ENDBRANCH  12  26
ENDBRANCH   6  12
ENDBRANCH   3   6
ENDBRANCH   1   2
BRANCH   1  28
ATOM     28  C   UNL     1      -2.639  -1.325  -0.252  1.00  0.00     0.023 C 
BRANCH  28  29
ATOM     29  C   UNL     1      -4.080  -0.870  -0.495  1.00  0.00     0.023 C 
BRANCH  29  30
ATOM     30  C   UNL     1      -4.811  -0.378   0.747  1.00  0.00     0.116 C 
BRANCH  30  31
ATOM     31  N   UNL     1      -4.151   0.756   1.374  1.00  0.00    -0.352 N 
ATOM     32  C   UNL     1      -4.717   1.881   1.925  1.00  0.00     0.251 C 
ATOM     33  H   UNL     1      -3.168   0.713   1.409  1.00  0.00     0.163 HD
ATOM     34  O   UNL     1      -4.001   2.811   2.283  1.00  0.00    -0.269 OA
BRANCH  32  35
ATOM     35  C   UNL     1      -6.188   1.972   2.043  1.00  0.00     0.039 A 
ATOM     36  C   UNL     1      -6.828   3.139   1.621  1.00  0.00     0.014 A 
ATOM     37  C   UNL     1      -6.933   0.898   2.538  1.00  0.00     0.014 A 
ATOM     38  C   UNL     1      -8.222   3.204   1.632  1.00  0.00     0.010 A 
ATOM     39  C   UNL     1      -8.323   0.938   2.481  1.00  0.00     0.010 A 
ATOM     40  C   UNL     1      -8.982   2.090   2.027  1.00  0.00    -0.014 A 
BRANCH  40  41
ATOM     41  C   UNL     1     -10.467   2.111   1.975  1.00  0.00     0.031 A 
ATOM     42  C   UNL     1     -11.264   1.985   3.243  1.00  0.00     0.074 A 
ATOM     43  C   UNL     1     -11.092   2.173   0.783  1.00  0.00     0.049 A 
ATOM     44  N   UNL     1     -12.559   1.894   3.403  1.00  0.00    -0.248 NA
ATOM     45  C   UNL     1     -10.498   1.918   4.497  1.00  0.00     0.031 C 
ATOM     46  C   UNL     1     -10.424   2.253  -0.519  1.00  0.00     0.029 A 
ATOM     47  N   UNL     1     -12.428   2.166   0.468  1.00  0.00    -0.354 N 
ATOM     48  C   UNL     1     -12.764   1.746   4.770  1.00  0.00     0.074 A 
ATOM     49  C   UNL     1     -11.454   1.693   5.385  1.00  0.00     0.031 C 
ATOM     50  C   UNL     1     -11.353   2.309  -1.487  1.00  0.00     0.029 A 
ATOM     51  C   UNL     1     -12.678   2.224  -0.883  1.00  0.00     0.049 A 
ATOM     52  H   UNL     1     -13.140   2.123   1.147  1.00  0.00     0.167 HD
ATOM     53  C   UNL     1     -13.935   1.684   5.452  1.00  0.00     0.034 A 
ATOM     54  C   UNL     1     -13.844   2.198  -1.560  1.00  0.00     0.034 A 
ATOM     55  C   UNL     1     -15.232   1.749   4.822  1.00  0.00     0.049 A 
ATOM     56  C   UNL     1     -15.133   2.110  -0.783  1.00  0.00     0.074 A 
ATOM     57  C   UNL     1     -16.481   1.750   5.418  1.00  0.00     0.029 A 
ATOM     58  N   UNL     1     -15.447   1.816   3.451  1.00  0.00    -0.354 N 
ATOM     59  N   UNL     1     -15.312   2.021   0.515  1.00  0.00    -0.248 NA
ATOM     60  C   UNL     1     -16.377   2.131  -1.563  1.00  0.00     0.031 C 
ATOM     61  C   UNL     1     -17.450   1.752   4.408  1.00  0.00     0.029 A 
ATOM     62  C   UNL     1     -16.808   1.830   3.182  1.00  0.00     0.049 A 
ATOM     63  H   UNL     1     -14.738   1.849   2.770  1.00  0.00     0.167 HD
ATOM     64  C   UNL     1     -16.690   2.006   0.707  1.00  0.00     0.074 A 
ATOM     65  C   UNL     1     -17.293   2.109  -0.606  1.00  0.00     0.031 C 
ATOM     66  C   UNL     1     -17.395   1.920   1.865  1.00  0.00     0.034 A 
BRANCH  53  67
ATOM     67  C   UNL     1     -13.855   1.513   6.951  1.00  0.00     0.023 A 
ATOM     68  C   UNL     1     -13.243   2.477   7.772  1.00  0.00     0.031 A 
ATOM     69  C   UNL     1     -14.362   0.355   7.566  1.00  0.00     0.131 A 
ATOM     70  C   UNL     1     -13.077   2.229   9.143  1.00  0.00     0.055 A 
ATOM     71  C   UNL     1     -14.272   0.153   8.946  1.00  0.00     0.041 A 
ATOM     72  F   UNL     1     -14.939  -0.612   6.835  1.00  0.00    -0.206 F 
ATOM     73  C   UNL     1     -13.610   1.085   9.740  1.00  0.00     0.022 A 
BRANCH  70  74
ATOM     74  S   UNL     1     -12.017   3.346  10.102  1.00  0.00     0.124 S 
ATOM     75  O   UNL     1     -10.749   3.236   9.384  1.00  0.00    -0.237 OA
ATOM     76  O   UNL     1     -12.712   4.622   9.980  1.00  0.00    -0.237 OA
ATOM     77  O   UNL     1     -12.021   2.757  11.440  1.00  0.00    -0.744 OA
ENDBRANCH  70  74
ENDBRANCH  53  67
BRANCH  54  78
ATOM     78  C   UNL     1     -13.852   2.247  -3.049  1.00  0.00     0.023 A 
ATOM     79  C   UNL     1     -14.405   3.340  -3.734  1.00  0.00     0.031 A 
ATOM     80  C   UNL     1     -13.337   1.183  -3.812  1.00  0.00     0.131 A 
ATOM     81  C   UNL     1     -14.472   3.327  -5.136  1.00  0.00     0.055 A 
ATOM     82  C   UNL     1     -13.359   1.197  -5.207  1.00  0.00     0.041 A 
ATOM     83  F   UNL     1     -12.791   0.116  -3.206  1.00  0.00    -0.206 F 
ATOM     84  C   UNL     1     -13.941   2.269  -5.878  1.00  0.00     0.022 A 
BRANCH  81  85
ATOM     85  S   UNL     1     -15.335   4.682  -5.978  1.00  0.00     0.124 S 
ATOM     86  O   UNL     1     -16.667   4.596  -5.391  1.00  0.00    -0.237 OA
ATOM     87  O   UNL     1     -14.535   5.838  -5.587  1.00  0.00    -0.237 OA
ATOM     88  O   UNL     1     -15.248   4.316  -7.390  1.00  0.00    -0.744 OA
ENDBRANCH  81  85
ENDBRANCH  54  78
BRANCH  66  89
ATOM     89  C   UNL     1     -18.899   1.979   1.757  1.00  0.00     0.023 A 
ATOM     90  C   UNL     1     -19.639   0.953   1.146  1.00  0.00     0.031 A 
ATOM     91  C   UNL     1     -19.599   3.089   2.264  1.00  0.00     0.131 A 
ATOM     92  C   UNL     1     -21.030   1.081   1.008  1.00  0.00     0.055 A 
ATOM     93  C   UNL     1     -20.988   3.183   2.178  1.00  0.00     0.041 A 
ATOM     94  F   UNL     1     -18.942   4.099   2.855  1.00  0.00    -0.206 F 
ATOM     95  C   UNL     1     -21.710   2.182   1.535  1.00  0.00     0.022 A 
BRANCH  92  96
ATOM     96  S   UNL     1     -21.930  -0.169   0.050  1.00  0.00     0.124 S 
ATOM     97  O   UNL     1     -21.274  -0.085  -1.251  1.00  0.00    -0.237 OA
ATOM     98  O   UNL     1     -21.680  -1.387   0.813  1.00  0.00    -0.237 OA
ATOM     99  O   UNL     1     -23.312   0.307   0.079  1.00  0.00    -0.744 OA
ENDBRANCH  92  96
ENDBRANCH  66  89
ENDBRANCH  40  41
ENDBRANCH  32  35
ENDBRANCH  30  31
ENDBRANCH  29  30
ENDBRANCH  28  29
ENDBRANCH   1  28
TORSDOF 19
