REMARK SMILES Cc1ccc(NC(=O)c2cnn3c2NC2=C(C(=O)CCC2)[C@H]3c2ccc(C(=O)NCCCCNC(=O)c3ccc(-c4c5nc(c(-c6cc(S(=O)(=O)[O-])ccc6F)c6ccc([nH]6)c(-c6cc(S(=O)(=O)[O-])ccc6F)c6nc(c(-c7cc(S(=O)(=O)[O-])ccc7F)c7ccc4[nH]7)C=C6)C=C5)cc3)cc2)cc1
REMARK SMILES IDX 31 1 30 2 29 3 27 4 28 5 26 7 23 8 24 9 101 10 25 11 100 12
REMARK SMILES IDX 22 13 9 14 10 15 13 16 11 17 12 18 14 19 15 20 16 22 21 23
REMARK SMILES IDX 17 24 20 25 18 26 19 27 7 28 6 29 8 31 5 32 1 33 2 34 3 35
REMARK SMILES IDX 103 36 4 37 102 38 32 39 33 40 34 41 35 42 36 44 37 45 38 46
REMARK SMILES IDX 99 47 39 48 98 49 40 50 41 51 42 52 92 53 43 54 97 55 91 56
REMARK SMILES IDX 93 57 44 58 96 59 90 60 89 61 45 63 77 64 57 65 76 66 58 67
REMARK SMILES IDX 61 68 75 69 94 70 59 71 60 72 74 74 95 75 62 76 46 77 47 78
REMARK SMILES IDX 55 79 48 80 54 81 56 82 53 83 49 84 50 85 51 86 52 87 78 88
REMARK SMILES IDX 79 89 87 90 80 91 86 92 88 93 85 94 81 95 82 96 83 97 84 98
REMARK SMILES IDX 63 99 64 100 72 101 65 102 71 103 73 104 70 105 66 106
REMARK SMILES IDX 67 107 68 108 69 109
REMARK H PARENT 29 6 14 21 6 30 34 43 93 62 61 73
REMARK Flexibility Score: inf
ROOT
ATOM      1  C   UNL     1       0.010  -2.259  -6.305  1.00  0.00     0.023 C 
ENDROOT
BRANCH   1   2
ATOM      2  C   UNL     1      -1.342  -2.912  -6.639  1.00  0.00     0.116 C 
BRANCH   2   3
ATOM      3  N   UNL     1      -1.192  -4.293  -7.096  1.00  0.00    -0.352 N 
ATOM      4  C   UNL     1      -1.212  -5.510  -6.454  1.00  0.00     0.251 C 
ATOM      5  O   UNL     1      -1.151  -6.514  -7.171  1.00  0.00    -0.269 OA
ATOM      6  H   UNL     1      -1.045  -4.368  -8.066  1.00  0.00     0.163 HD
BRANCH   4   7
ATOM      7  C   UNL     1      -1.320  -5.705  -4.973  1.00  0.00     0.039 A 
ATOM      8  C   UNL     1      -1.815  -6.208  -2.194  1.00  0.00    -0.019 A 
ATOM      9  C   UNL     1      -1.880  -7.247  -3.133  1.00  0.00     0.007 A 
ATOM     10  C   UNL     1      -1.324  -4.977  -2.660  1.00  0.00     0.007 A 
ATOM     11  C   UNL     1      -1.643  -6.992  -4.499  1.00  0.00     0.014 A 
ATOM     12  C   UNL     1      -1.110  -4.719  -4.020  1.00  0.00     0.014 A 
BRANCH   8  13
ATOM     13  C   UNL     1      -2.446  -6.352  -0.771  1.00  0.00     0.175 C 
ATOM     14  C   UNL     1      -3.478  -2.989  -0.189  1.00  0.00     0.102 A 
ATOM     15  C   UNL     1      -2.590  -3.262   0.895  1.00  0.00     0.151 A 
ATOM     16  C   UNL     1      -3.745  -4.243  -0.692  1.00  0.00     0.142 A 
ATOM     17  N   UNL     1      -2.114  -4.516   0.892  1.00  0.00    -0.178 NA
ATOM     18  N   UNL     1      -2.722  -5.030  -0.192  1.00  0.00    -0.237 N 
ATOM     19  N   UNL     1      -4.647  -4.841  -1.533  1.00  0.00    -0.343 N 
ATOM     20  C   UNL     1      -4.809  -6.235  -1.474  1.00  0.00     0.026 C 
ATOM     21  H   UNL     1      -5.172  -4.302  -2.168  1.00  0.00     0.168 HD
ATOM     22  C   UNL     1      -3.831  -6.958  -0.873  1.00  0.00     0.044 C 
ATOM     23  C   UNL     1      -6.157  -6.856  -1.712  1.00  0.00     0.055 C 
ATOM     24  C   UNL     1      -4.334  -7.764   0.272  1.00  0.00     0.163 C 
ATOM     25  C   UNL     1      -6.706  -7.536  -0.453  1.00  0.00     0.014 C 
ATOM     26  O   UNL     1      -3.591  -8.518   0.893  1.00  0.00    -0.294 OA
ATOM     27  C   UNL     1      -5.751  -7.444   0.731  1.00  0.00     0.081 C 
BRANCH  14  28
ATOM     28  C   UNL     1      -4.031  -1.724  -0.624  1.00  0.00     0.261 C 
ATOM     29  N   UNL     1      -3.239  -0.593  -0.582  1.00  0.00    -0.322 N 
ATOM     30  H   UNL     1      -3.745   0.246  -0.679  1.00  0.00     0.170 HD
ATOM     31  O   UNL     1      -5.212  -1.641  -0.962  1.00  0.00    -0.269 OA
BRANCH  29  32
ATOM     32  C   UNL     1      -1.846  -0.399  -0.428  1.00  0.00     0.041 A 
ATOM     33  C   UNL     1       2.377   0.388   0.096  1.00  0.00     0.044 C 
ATOM     34  C   UNL     1       0.914   0.132  -0.086  1.00  0.00    -0.051 A 
ATOM     35  C   UNL     1       0.477  -1.130  -0.486  1.00  0.00     0.005 A 
ATOM     36  C   UNL     1      -0.037   1.136   0.116  1.00  0.00     0.005 A 
ATOM     37  C   UNL     1      -0.884  -1.373  -0.681  1.00  0.00     0.026 A 
ATOM     38  C   UNL     1      -1.402   0.873  -0.063  1.00  0.00     0.026 A 
ENDBRANCH  29  32
ENDBRANCH  14  28
ENDBRANCH   8  13
ENDBRANCH   4   7
ENDBRANCH   2   3
ENDBRANCH   1   2
BRANCH   1  39
ATOM     39  C   UNL     1       0.839  -1.828  -7.516  1.00  0.00     0.023 C 
BRANCH  39  40
ATOM     40  C   UNL     1       0.255  -0.660  -8.306  1.00  0.00     0.116 C 
BRANCH  40  41
ATOM     41  N   UNL     1       0.718   0.665  -7.911  1.00  0.00    -0.352 N 
ATOM     42  C   UNL     1       0.389   1.896  -8.474  1.00  0.00     0.251 C 
ATOM     43  H   UNL     1       1.342   0.693  -7.150  1.00  0.00     0.163 HD
ATOM     44  O   UNL     1       0.890   2.933  -8.093  1.00  0.00    -0.269 OA
BRANCH  42  45
ATOM     45  C   UNL     1      -0.704   1.929  -9.482  1.00  0.00     0.039 A 
ATOM     46  C   UNL     1      -1.815   2.730  -9.195  1.00  0.00     0.014 A 
ATOM     47  C   UNL     1      -0.752   1.002 -10.518  1.00  0.00     0.014 A 
ATOM     48  C   UNL     1      -3.046   2.416  -9.766  1.00  0.00     0.010 A 
ATOM     49  C   UNL     1      -1.988   0.624 -11.010  1.00  0.00     0.010 A 
ATOM     50  C   UNL     1      -3.143   1.284 -10.577  1.00  0.00    -0.014 A 
BRANCH  50  51
ATOM     51  C   UNL     1      -4.416   0.632 -10.868  1.00  0.00     0.031 A 
ATOM     52  C   UNL     1      -5.040   0.734 -12.200  1.00  0.00     0.074 A 
ATOM     53  C   UNL     1      -5.035  -0.090  -9.907  1.00  0.00     0.049 A 
ATOM     54  N   UNL     1      -6.313   0.695 -12.409  1.00  0.00    -0.248 NA
ATOM     55  C   UNL     1      -4.260   0.927 -13.415  1.00  0.00     0.031 C 
ATOM     56  C   UNL     1      -6.183  -0.979 -10.061  1.00  0.00     0.029 A 
ATOM     57  N   UNL     1      -4.873   0.026  -8.531  1.00  0.00    -0.354 N 
ATOM     58  C   UNL     1      -6.510   0.576 -13.765  1.00  0.00     0.074 A 
ATOM     59  C   UNL     1      -5.206   0.794 -14.350  1.00  0.00     0.031 C 
ATOM     60  C   UNL     1      -6.773  -1.137  -8.866  1.00  0.00     0.029 A 
ATOM     61  C   UNL     1      -6.111  -0.247  -7.929  1.00  0.00     0.049 A 
ATOM     62  H   UNL     1      -4.039   0.259  -8.063  1.00  0.00     0.167 HD
ATOM     63  C   UNL     1      -7.720   0.166 -14.243  1.00  0.00     0.034 A 
ATOM     64  C   UNL     1      -6.736   0.686  -7.154  1.00  0.00     0.034 A 
ATOM     65  C   UNL     1      -8.675  -0.078 -13.163  1.00  0.00     0.049 A 
ATOM     66  C   UNL     1      -8.085   1.115  -7.684  1.00  0.00     0.074 A 
ATOM     67  C   UNL     1      -9.089  -1.239 -12.529  1.00  0.00     0.029 A 
ATOM     68  N   UNL     1      -9.147   0.980 -12.396  1.00  0.00    -0.354 N 
ATOM     69  N   UNL     1      -8.506   0.874  -8.895  1.00  0.00    -0.248 NA
ATOM     70  C   UNL     1      -9.052   1.880  -6.902  1.00  0.00     0.031 C 
ATOM     71  C   UNL     1      -9.761  -0.872 -11.337  1.00  0.00     0.029 A 
ATOM     72  C   UNL     1      -9.787   0.510 -11.264  1.00  0.00     0.049 A 
ATOM     73  H   UNL     1      -9.042   1.931 -12.627  1.00  0.00     0.167 HD
ATOM     74  C   UNL     1      -9.730   1.464  -9.083  1.00  0.00     0.074 A 
ATOM     75  C   UNL     1     -10.045   2.048  -7.792  1.00  0.00     0.031 C 
ATOM     76  C   UNL     1     -10.363   1.434 -10.296  1.00  0.00     0.034 A 
BRANCH  63  77
ATOM     77  C   UNL     1      -7.941  -0.324 -15.658  1.00  0.00     0.023 A 
ATOM     78  C   UNL     1      -8.908  -1.322 -15.902  1.00  0.00     0.031 A 
ATOM     79  C   UNL     1      -7.224   0.110 -16.789  1.00  0.00     0.131 A 
ATOM     80  C   UNL     1      -9.044  -1.922 -17.167  1.00  0.00     0.055 A 
ATOM     81  C   UNL     1      -7.312  -0.529 -18.034  1.00  0.00     0.041 A 
ATOM     82  F   UNL     1      -6.447   1.201 -16.751  1.00  0.00    -0.206 F 
ATOM     83  C   UNL     1      -8.215  -1.564 -18.224  1.00  0.00     0.022 A 
BRANCH  80  84
ATOM     84  S   UNL     1     -10.331  -3.177 -17.413  1.00  0.00     0.124 S 
ATOM     85  O   UNL     1      -9.976  -4.186 -16.420  1.00  0.00    -0.237 OA
ATOM     86  O   UNL     1     -11.552  -2.420 -17.158  1.00  0.00    -0.237 OA
ATOM     87  O   UNL     1     -10.142  -3.589 -18.803  1.00  0.00    -0.744 OA
ENDBRANCH  80  84
ENDBRANCH  63  77
BRANCH  64  88
ATOM     88  C   UNL     1      -5.785   1.570  -6.423  1.00  0.00     0.023 A 
ATOM     89  C   UNL     1      -4.899   0.957  -5.513  1.00  0.00     0.031 A 
ATOM     90  C   UNL     1      -5.479   2.860  -6.878  1.00  0.00     0.131 A 
ATOM     91  C   UNL     1      -3.678   1.567  -5.210  1.00  0.00     0.055 A 
ATOM     92  C   UNL     1      -4.280   3.489  -6.525  1.00  0.00     0.041 A 
ATOM     93  F   UNL     1      -6.271   3.479  -7.765  1.00  0.00    -0.206 F 
ATOM     94  C   UNL     1      -3.353   2.824  -5.724  1.00  0.00     0.022 A 
BRANCH  91  95
ATOM     95  S   UNL     1      -2.427   0.666  -4.262  1.00  0.00     0.124 S 
ATOM     96  O   UNL     1      -2.564   1.303  -2.958  1.00  0.00    -0.237 OA
ATOM     97  O   UNL     1      -2.862  -0.727  -4.341  1.00  0.00    -0.237 OA
ATOM     98  O   UNL     1      -1.194   0.947  -4.994  1.00  0.00    -0.744 OA
ENDBRANCH  91  95
ENDBRANCH  64  88
BRANCH  76  99
ATOM     99  C   UNL     1     -11.616   2.201 -10.665  1.00  0.00     0.023 A 
ATOM    100  C   UNL     1     -12.085   3.313  -9.951  1.00  0.00     0.031 A 
ATOM    101  C   UNL     1     -12.353   1.868 -11.829  1.00  0.00     0.131 A 
ATOM    102  C   UNL     1     -13.262   3.982 -10.333  1.00  0.00     0.055 A 
ATOM    103  C   UNL     1     -13.476   2.586 -12.255  1.00  0.00     0.041 A 
ATOM    104  F   UNL     1     -12.012   0.832 -12.610  1.00  0.00    -0.206 F 
ATOM    105  C   UNL     1     -13.949   3.642 -11.495  1.00  0.00     0.022 A 
BRANCH 102 106
ATOM    106  S   UNL     1     -13.914   5.268  -9.235  1.00  0.00     0.124 S 
ATOM    107  O   UNL     1     -14.192   4.510  -8.018  1.00  0.00    -0.237 OA
ATOM    108  O   UNL     1     -12.800   6.207  -9.155  1.00  0.00    -0.237 OA
ATOM    109  O   UNL     1     -15.094   5.762  -9.942  1.00  0.00    -0.744 OA
ENDBRANCH 102 106
ENDBRANCH  76  99
ENDBRANCH  50  51
ENDBRANCH  42  45
ENDBRANCH  40  41
ENDBRANCH  39  40
ENDBRANCH   1  39
TORSDOF 17
