REMARK SMILES [NH3+][C@H]1C=C[C@@H](C(=O)NC2(CC(=O)NCCCCNC(=O)c3ccc(-c4c5nc(c(-c6cc(S(=O)(=O)[O-])ccc6F)c6ccc([nH]6)c(-c6cc(S(=O)(=O)[O-])ccc6F)c6nc(c(-c7cc(S(=O)(=O)[O-])ccc7F)c7ccc4[nH]7)C=C6)C=C5)cc3)CCC2)C1
REMARK SMILES IDX 15 1 14 2 13 3 11 4 12 5 10 7 9 8 84 9 86 10 85 11 8 12 6 13
REMARK SMILES IDX 7 14 5 16 2 17 3 18 87 19 4 20 1 21 16 25 17 26 18 27 19 28
REMARK SMILES IDX 20 30 21 31 22 32 83 33 23 34 82 35 24 36 25 37 26 38 76 39
REMARK SMILES IDX 27 40 81 41 75 42 77 43 28 44 80 45 74 46 73 47 29 49 61 50
REMARK SMILES IDX 41 51 60 52 42 53 45 54 59 55 78 56 43 57 44 58 58 60 79 61
REMARK SMILES IDX 46 62 30 63 31 64 39 65 32 66 38 67 40 68 37 69 33 70 34 71
REMARK SMILES IDX 35 72 36 73 62 74 63 75 71 76 64 77 70 78 72 79 69 80 65 81
REMARK SMILES IDX 66 82 67 83 68 84 47 85 48 86 56 87 49 88 55 89 57 90 54 91
REMARK SMILES IDX 50 92 51 93 52 94 53 95
REMARK H PARENT 13 6 8 15 1 22 1 23 1 24 18 29 77 48 45 59
REMARK Flexibility Score: inf
ROOT
ATOM      1  C   UNL     1       3.717  -1.997  -2.715  1.00  0.00     0.023 C 
ENDROOT
BRANCH   1   2
ATOM      2  C   UNL     1       3.273  -2.124  -4.174  1.00  0.00     0.116 C 
BRANCH   2   3
ATOM      3  N   UNL     1       2.772  -3.455  -4.444  1.00  0.00    -0.356 N 
ATOM      4  C   UNL     1       1.508  -3.931  -4.304  1.00  0.00     0.222 C 
ATOM      5  O   UNL     1       1.322  -5.148  -4.373  1.00  0.00    -0.275 OA
ATOM      6  H   UNL     1       3.437  -4.102  -4.772  1.00  0.00     0.163 HD
BRANCH   4   7
ATOM      7  C   UNL     1       0.338  -3.002  -4.059  1.00  0.00     0.128 C 
BRANCH   7   8
ATOM      8  C   UNL     1      -0.031  -2.717  -2.581  1.00  0.00     0.049 C 
ATOM      9  C   UNL     1      -1.479  -2.160  -2.483  1.00  0.00     0.029 C 
ATOM     10  C   UNL     1       0.476  -1.347  -2.095  1.00  0.00     0.029 C 
ATOM     11  C   UNL     1      -0.909  -0.743  -2.339  1.00  0.00     0.005 C 
BRANCH   8  12
ATOM     12  N   UNL     1       0.218  -3.921  -1.748  1.00  0.00    -0.350 N 
ATOM     13  C   UNL     1       0.258  -4.271  -0.435  1.00  0.00     0.227 C 
ATOM     14  O   UNL     1       0.518  -5.469  -0.232  1.00  0.00    -0.274 OA
ATOM     15  H   UNL     1       0.412  -4.700  -2.317  1.00  0.00     0.164 HD
BRANCH  13  16
ATOM     16  C   UNL     1       0.051  -3.385   0.798  1.00  0.00     0.107 C 
ATOM     17  C   UNL     1       0.633  -1.170   1.690  1.00  0.00     0.205 C 
ATOM     18  C   UNL     1      -0.808  -1.269   1.314  1.00  0.00     0.033 C 
ATOM     19  C   UNL     1       1.239  -2.491   1.176  1.00  0.00     0.087 C 
ATOM     20  C   UNL     1      -1.128  -2.475   0.834  1.00  0.00    -0.012 C 
BRANCH  17  21
ATOM     21  N   UNL     1       1.252  -0.003   1.087  1.00  0.00    -0.352 N 
ATOM     22  H   UNL     1       0.819   0.842   1.458  1.00  0.00     0.345 HD
ATOM     23  H   UNL     1       1.124  -0.035   0.075  1.00  0.00     0.345 HD
ATOM     24  H   UNL     1       2.249   0.003   1.303  1.00  0.00     0.345 HD
ENDBRANCH  17  21
ENDBRANCH  13  16
ENDBRANCH   8  12
ENDBRANCH   7   8
ENDBRANCH   4   7
ENDBRANCH   2   3
ENDBRANCH   1   2
BRANCH   1  25
ATOM     25  C   UNL     1       5.116  -2.541  -2.426  1.00  0.00     0.023 C 
BRANCH  25  26
ATOM     26  C   UNL     1       6.248  -1.775  -3.103  1.00  0.00     0.116 C 
BRANCH  26  27
ATOM     27  N   UNL     1       6.301  -0.370  -2.730  1.00  0.00    -0.352 N 
ATOM     28  C   UNL     1       7.402   0.457  -2.697  1.00  0.00     0.251 C 
ATOM     29  H   UNL     1       5.445   0.040  -2.470  1.00  0.00     0.163 HD
ATOM     30  O   UNL     1       7.300   1.601  -2.262  1.00  0.00    -0.269 OA
BRANCH  28  31
ATOM     31  C   UNL     1       8.710  -0.071  -3.136  1.00  0.00     0.039 A 
ATOM     32  C   UNL     1       9.810   0.064  -2.288  1.00  0.00     0.014 A 
ATOM     33  C   UNL     1       8.831  -0.756  -4.348  1.00  0.00     0.014 A 
ATOM     34  C   UNL     1      11.015  -0.562  -2.617  1.00  0.00     0.010 A 
ATOM     35  C   UNL     1      10.009  -1.437  -4.639  1.00  0.00     0.010 A 
ATOM     36  C   UNL     1      11.110  -1.355  -3.772  1.00  0.00    -0.014 A 
BRANCH  36  37
ATOM     37  C   UNL     1      12.344  -2.121  -4.085  1.00  0.00     0.031 A 
ATOM     38  C   UNL     1      13.129  -1.804  -5.329  1.00  0.00     0.074 A 
ATOM     39  C   UNL     1      12.706  -3.152  -3.295  1.00  0.00     0.049 A 
ATOM     40  N   UNL     1      14.173  -2.415  -5.826  1.00  0.00    -0.248 NA
ATOM     41  C   UNL     1      12.656  -0.668  -6.136  1.00  0.00     0.031 C 
ATOM     42  C   UNL     1      11.995  -3.585  -2.089  1.00  0.00     0.029 A 
ATOM     43  N   UNL     1      13.754  -4.032  -3.392  1.00  0.00    -0.354 N 
ATOM     44  C   UNL     1      14.467  -1.757  -7.015  1.00  0.00     0.074 A 
ATOM     45  C   UNL     1      13.462  -0.729  -7.186  1.00  0.00     0.031 C 
ATOM     46  C   UNL     1      12.640  -4.631  -1.548  1.00  0.00     0.029 A 
ATOM     47  C   UNL     1      13.783  -4.974  -2.388  1.00  0.00     0.049 A 
ATOM     48  H   UNL     1      14.424  -3.994  -4.112  1.00  0.00     0.167 HD
ATOM     49  C   UNL     1      15.492  -1.979  -7.874  1.00  0.00     0.034 A 
ATOM     50  C   UNL     1      14.628  -6.003  -2.177  1.00  0.00     0.034 A 
ATOM     51  C   UNL     1      16.506  -2.983  -7.670  1.00  0.00     0.049 A 
ATOM     52  C   UNL     1      15.761  -6.224  -3.148  1.00  0.00     0.074 A 
ATOM     53  C   UNL     1      17.635  -3.233  -8.431  1.00  0.00     0.029 A 
ATOM     54  N   UNL     1      16.513  -3.907  -6.634  1.00  0.00    -0.354 N 
ATOM     55  N   UNL     1      16.064  -5.547  -4.232  1.00  0.00    -0.248 NA
ATOM     56  C   UNL     1      16.670  -7.342  -2.863  1.00  0.00     0.031 C 
ATOM     57  C   UNL     1      18.291  -4.345  -7.890  1.00  0.00     0.029 A 
ATOM     58  C   UNL     1      17.609  -4.747  -6.753  1.00  0.00     0.049 A 
ATOM     59  H   UNL     1      15.838  -3.958  -5.919  1.00  0.00     0.167 HD
ATOM     60  C   UNL     1      17.221  -6.136  -4.734  1.00  0.00     0.074 A 
ATOM     61  C   UNL     1      17.566  -7.213  -3.830  1.00  0.00     0.031 C 
ATOM     62  C   UNL     1      17.937  -5.816  -5.841  1.00  0.00     0.034 A 
BRANCH  49  63
ATOM     63  C   UNL     1      15.553  -1.135  -9.123  1.00  0.00     0.023 A 
ATOM     64  C   UNL     1      15.769   0.253  -9.069  1.00  0.00     0.031 A 
ATOM     65  C   UNL     1      15.389  -1.728 -10.387  1.00  0.00     0.131 A 
ATOM     66  C   UNL     1      15.753   1.010 -10.250  1.00  0.00     0.055 A 
ATOM     67  C   UNL     1      15.447  -0.980 -11.564  1.00  0.00     0.041 A 
ATOM     68  F   UNL     1      15.160  -3.046 -10.498  1.00  0.00    -0.206 F 
ATOM     69  C   UNL     1      15.619   0.400 -11.499  1.00  0.00     0.022 A 
BRANCH  66  70
ATOM     70  S   UNL     1      15.795   2.818 -10.122  1.00  0.00     0.124 S 
ATOM     71  O   UNL     1      14.569   3.089  -9.376  1.00  0.00    -0.237 OA
ATOM     72  O   UNL     1      17.044   3.056  -9.407  1.00  0.00    -0.237 OA
ATOM     73  O   UNL     1      15.780   3.261 -11.515  1.00  0.00    -0.744 OA
ENDBRANCH  66  70
ENDBRANCH  49  63
BRANCH  50  74
ATOM     74  C   UNL     1      14.447  -6.915  -1.010  1.00  0.00     0.023 A 
ATOM     75  C   UNL     1      15.425  -6.999  -0.006  1.00  0.00     0.031 A 
ATOM     76  C   UNL     1      13.332  -7.767  -0.917  1.00  0.00     0.131 A 
ATOM     77  C   UNL     1      15.302  -7.955   1.014  1.00  0.00     0.055 A 
ATOM     78  C   UNL     1      13.187  -8.678   0.131  1.00  0.00     0.041 A 
ATOM     79  F   UNL     1      12.365  -7.725  -1.847  1.00  0.00    -0.206 F 
ATOM     80  C   UNL     1      14.184  -8.788   1.096  1.00  0.00     0.022 A 
BRANCH  77  81
ATOM     81  S   UNL     1      16.681  -8.168   2.173  1.00  0.00     0.124 S 
ATOM     82  O   UNL     1      17.794  -8.425   1.266  1.00  0.00    -0.237 OA
ATOM     83  O   UNL     1      16.698  -6.881   2.860  1.00  0.00    -0.237 OA
ATOM     84  O   UNL     1      16.266  -9.305   2.991  1.00  0.00    -0.744 OA
ENDBRANCH  77  81
ENDBRANCH  50  74
BRANCH  62  85
ATOM     85  C   UNL     1      19.193  -6.611  -6.096  1.00  0.00     0.023 A 
ATOM     86  C   UNL     1      19.148  -7.970  -6.448  1.00  0.00     0.031 A 
ATOM     87  C   UNL     1      20.452  -5.998  -5.968  1.00  0.00     0.131 A 
ATOM     88  C   UNL     1      20.342  -8.688  -6.607  1.00  0.00     0.055 A 
ATOM     89  C   UNL     1      21.636  -6.704  -6.185  1.00  0.00     0.041 A 
ATOM     90  F   UNL     1      20.551  -4.702  -5.633  1.00  0.00    -0.206 F 
ATOM     91  C   UNL     1      21.586  -8.060  -6.494  1.00  0.00     0.022 A 
BRANCH  88  92
ATOM     92  S   UNL     1      20.251 -10.478  -6.885  1.00  0.00     0.124 S 
ATOM     93  O   UNL     1      19.546 -10.935  -5.692  1.00  0.00    -0.237 OA
ATOM     94  O   UNL     1      19.507 -10.563  -8.137  1.00  0.00    -0.237 OA
ATOM     95  O   UNL     1      21.653 -10.884  -6.970  1.00  0.00    -0.744 OA
ENDBRANCH  88  92
ENDBRANCH  62  85
ENDBRANCH  36  37
ENDBRANCH  28  31
ENDBRANCH  26  27
ENDBRANCH  25  26
ENDBRANCH   1  25
TORSDOF 18
