REMARK SMILES Cc1cc(C)c2c(c1)C=C(C(=O)NCCCCNC(=O)c1ccc(-c3c4nc(c(-c5cc(S(=O)(=O)[O-])ccc5F)c5ccc([nH]5)c(-c5cc(S(=O)(=O)[O-])ccc5F)c5nc(c(-c6cc(S(=O)(=O)[O-])ccc6F)c6ccc3[nH]6)C=C5)C=C4)cc1)[C@@H](C(F)(F)F)O2
REMARK SMILES IDX 16 1 15 2 14 3 13 4 11 5 12 6 10 8 1 9 2 10 3 11 8 12 4 13
REMARK SMILES IDX 7 14 5 15 6 16 9 17 89 18 84 19 85 20 86 21 87 22 88 23
REMARK SMILES IDX 17 24 18 25 19 26 20 28 21 29 22 30 83 31 23 32 82 33 24 34
REMARK SMILES IDX 25 35 26 36 76 37 27 38 81 39 75 40 77 41 28 42 80 43 74 44
REMARK SMILES IDX 73 45 29 47 61 48 41 49 60 50 42 51 45 52 59 53 78 54 43 55
REMARK SMILES IDX 44 56 58 58 79 59 46 60 30 61 31 62 39 63 32 64 38 65 40 66
REMARK SMILES IDX 37 67 33 68 34 69 35 70 36 71 62 72 63 73 71 74 64 75 70 76
REMARK SMILES IDX 72 77 69 78 65 79 66 80 67 81 68 82 47 83 48 84 56 85 49 86
REMARK SMILES IDX 55 87 57 88 54 89 50 90 51 91 52 92 53 93
REMARK H PARENT 13 7 18 27 77 46 45 57
REMARK Flexibility Score: inf
ROOT
ATOM      1  C   UNL     1       1.781  10.738   2.957  1.00  0.00     0.023 C 
ENDROOT
BRANCH   1   2
ATOM      2  C   UNL     1       1.147   9.347   3.051  1.00  0.00     0.023 C 
BRANCH   2   3
ATOM      3  C   UNL     1       0.340   8.948   1.820  1.00  0.00     0.116 C 
BRANCH   3   4
ATOM      4  N   UNL     1       1.177   8.348   0.796  1.00  0.00    -0.352 N 
ATOM      5  C   UNL     1       1.425   7.102   0.329  1.00  0.00     0.251 C 
ATOM      6  O   UNL     1       2.250   7.038  -0.589  1.00  0.00    -0.270 OA
ATOM      7  H   UNL     1       1.702   9.027   0.314  1.00  0.00     0.163 HD
BRANCH   5   8
ATOM      8  C   UNL     1       0.789   5.849   0.834  1.00  0.00     0.067 C 
ATOM      9  C   UNL     1       0.965  -0.264  -0.080  1.00  0.00     0.044 C 
ATOM     10  C   UNL     1       0.562   1.015   0.594  1.00  0.00    -0.050 A 
ATOM     11  C   UNL     1      -0.357   1.009   1.651  1.00  0.00     0.010 A 
ATOM     12  C   UNL     1       1.093   2.234   0.153  1.00  0.00     0.015 A 
ATOM     13  C   UNL     1      -0.736   2.203   2.280  1.00  0.00    -0.008 A 
ATOM     14  C   UNL     1       0.721   3.434   0.768  1.00  0.00     0.018 A 
ATOM     15  C   UNL     1      -1.715   2.187   3.419  1.00  0.00     0.048 C 
ATOM     16  C   UNL     1      -0.192   3.410   1.824  1.00  0.00     0.130 A 
ATOM     17  C   UNL     1       1.302   4.703   0.349  1.00  0.00     0.025 C 
ATOM     18  O   UNL     1      -0.554   4.548   2.489  1.00  0.00    -0.475 OA
ATOM     19  C   UNL     1      -0.375   5.805   1.782  1.00  0.00     0.314 C 
BRANCH  19  20
ATOM     20  C   UNL     1      -1.704   6.198   1.111  1.00  0.00     0.429 C 
ATOM     21  F   UNL     1      -2.651   6.450   2.051  1.00  0.00    -0.167 F 
ATOM     22  F   UNL     1      -1.599   7.322   0.364  1.00  0.00    -0.167 F 
ATOM     23  F   UNL     1      -2.187   5.230   0.301  1.00  0.00    -0.167 F 
ENDBRANCH  19  20
ENDBRANCH   5   8
ENDBRANCH   3   4
ENDBRANCH   2   3
ENDBRANCH   1   2
BRANCH   1  24
ATOM     24  C   UNL     1       0.813  11.880   2.650  1.00  0.00     0.116 C 
BRANCH  24  25
ATOM     25  N   UNL     1      -0.358  11.895   3.514  1.00  0.00    -0.352 N 
ATOM     26  C   UNL     1      -1.035  12.981   4.012  1.00  0.00     0.251 C 
ATOM     27  H   UNL     1      -0.711  11.013   3.775  1.00  0.00     0.163 HD
ATOM     28  O   UNL     1      -1.950  12.824   4.814  1.00  0.00    -0.269 OA
BRANCH  26  29
ATOM     29  C   UNL     1      -0.619  14.334   3.596  1.00  0.00     0.039 A 
ATOM     30  C   UNL     1      -0.328  15.281   4.579  1.00  0.00     0.014 A 
ATOM     31  C   UNL     1      -0.472  14.642   2.240  1.00  0.00     0.014 A 
ATOM     32  C   UNL     1       0.173  16.527   4.202  1.00  0.00     0.010 A 
ATOM     33  C   UNL     1       0.082  15.862   1.870  1.00  0.00     0.010 A 
ATOM     34  C   UNL     1       0.408  16.815   2.848  1.00  0.00    -0.014 A 
BRANCH  34  35
ATOM     35  C   UNL     1       0.960  18.124   2.428  1.00  0.00     0.031 A 
ATOM     36  C   UNL     1       0.100  19.069   1.638  1.00  0.00     0.074 A 
ATOM     37  C   UNL     1       2.237  18.440   2.718  1.00  0.00     0.049 A 
ATOM     38  N   UNL     1       0.416  20.212   1.088  1.00  0.00    -0.248 NA
ATOM     39  C   UNL     1      -1.295  18.658   1.417  1.00  0.00     0.031 C 
ATOM     40  C   UNL     1       3.171  17.594   3.466  1.00  0.00     0.029 A 
ATOM     41  N   UNL     1       2.970  19.559   2.418  1.00  0.00    -0.354 N 
ATOM     42  C   UNL     1      -0.736  20.652   0.447  1.00  0.00     0.074 A 
ATOM     43  C   UNL     1      -1.740  19.626   0.632  1.00  0.00     0.031 C 
ATOM     44  C   UNL     1       4.342  18.240   3.593  1.00  0.00     0.029 A 
ATOM     45  C   UNL     1       4.256  19.523   2.902  1.00  0.00     0.049 A 
ATOM     46  H   UNL     1       2.610  20.317   1.904  1.00  0.00     0.167 HD
ATOM     47  C   UNL     1      -0.944  21.816  -0.214  1.00  0.00     0.034 A 
ATOM     48  C   UNL     1       5.254  20.422   2.794  1.00  0.00     0.034 A 
ATOM     49  C   UNL     1       0.058  22.839  -0.372  1.00  0.00     0.049 A 
ATOM     50  C   UNL     1       5.009  21.694   2.027  1.00  0.00     0.074 A 
ATOM     51  C   UNL     1      -0.056  24.068  -0.997  1.00  0.00     0.029 A 
ATOM     52  N   UNL     1       1.359  22.753   0.106  1.00  0.00    -0.354 N 
ATOM     53  N   UNL     1       3.918  22.090   1.414  1.00  0.00    -0.248 NA
ATOM     54  C   UNL     1       6.131  22.636   1.934  1.00  0.00     0.031 C 
ATOM     55  C   UNL     1       1.189  24.705  -0.936  1.00  0.00     0.029 A 
ATOM     56  C   UNL     1       2.064  23.898  -0.227  1.00  0.00     0.049 A 
ATOM     57  H   UNL     1       1.726  21.990   0.608  1.00  0.00     0.167 HD
ATOM     58  C   UNL     1       4.221  23.332   0.867  1.00  0.00     0.074 A 
ATOM     59  C   UNL     1       5.591  23.627   1.238  1.00  0.00     0.031 C 
ATOM     60  C   UNL     1       3.438  24.156   0.127  1.00  0.00     0.034 A 
BRANCH  47  61
ATOM     61  C   UNL     1      -2.304  22.025  -0.825  1.00  0.00     0.023 A 
ATOM     62  C   UNL     1      -3.449  22.183  -0.024  1.00  0.00     0.031 A 
ATOM     63  C   UNL     1      -2.464  22.041  -2.221  1.00  0.00     0.131 A 
ATOM     64  C   UNL     1      -4.711  22.286  -0.625  1.00  0.00     0.055 A 
ATOM     65  C   UNL     1      -3.716  22.215  -2.813  1.00  0.00     0.041 A 
ATOM     66  F   UNL     1      -1.407  21.875  -3.031  1.00  0.00    -0.206 F 
ATOM     67  C   UNL     1      -4.850  22.327  -2.014  1.00  0.00     0.022 A 
BRANCH  64  68
ATOM     68  S   UNL     1      -6.181  22.267   0.436  1.00  0.00     0.124 S 
ATOM     69  O   UNL     1      -6.130  20.913   0.981  1.00  0.00    -0.237 OA
ATOM     70  O   UNL     1      -5.909  23.345   1.379  1.00  0.00    -0.237 OA
ATOM     71  O   UNL     1      -7.279  22.518  -0.496  1.00  0.00    -0.744 OA
ENDBRANCH  64  68
ENDBRANCH  47  61
BRANCH  48  72
ATOM     72  C   UNL     1       6.578  20.150   3.416  1.00  0.00     0.023 A 
ATOM     73  C   UNL     1       7.006  20.876   4.538  1.00  0.00     0.031 A 
ATOM     74  C   UNL     1       7.436  19.169   2.891  1.00  0.00     0.131 A 
ATOM     75  C   UNL     1       8.273  20.627   5.087  1.00  0.00     0.055 A 
ATOM     76  C   UNL     1       8.682  18.902   3.461  1.00  0.00     0.041 A 
ATOM     77  F   UNL     1       7.064  18.442   1.825  1.00  0.00    -0.206 F 
ATOM     78  C   UNL     1       9.109  19.638   4.562  1.00  0.00     0.022 A 
BRANCH  75  79
ATOM     79  S   UNL     1       8.827  21.632   6.491  1.00  0.00     0.124 S 
ATOM     80  O   UNL     1       8.928  22.956   5.887  1.00  0.00    -0.237 OA
ATOM     81  O   UNL     1       7.741  21.444   7.448  1.00  0.00    -0.237 OA
ATOM     82  O   UNL     1      10.097  21.017   6.869  1.00  0.00    -0.744 OA
ENDBRANCH  75  79
ENDBRANCH  48  72
BRANCH  60  83
ATOM     83  C   UNL     1       4.051  25.455  -0.324  1.00  0.00     0.023 A 
ATOM     84  C   UNL     1       5.039  25.487  -1.322  1.00  0.00     0.031 A 
ATOM     85  C   UNL     1       3.632  26.671   0.242  1.00  0.00     0.131 A 
ATOM     86  C   UNL     1       5.606  26.712  -1.700  1.00  0.00     0.055 A 
ATOM     87  C   UNL     1       4.166  27.892  -0.172  1.00  0.00     0.041 A 
ATOM     88  F   UNL     1       2.690  26.692   1.198  1.00  0.00    -0.206 F 
ATOM     89  C   UNL     1       5.165  27.916  -1.143  1.00  0.00     0.022 A 
BRANCH  86  90
ATOM     90  S   UNL     1       6.966  26.709  -2.899  1.00  0.00     0.124 S 
ATOM     91  O   UNL     1       8.001  25.973  -2.179  1.00  0.00    -0.237 OA
ATOM     92  O   UNL     1       6.376  26.024  -4.044  1.00  0.00    -0.237 OA
ATOM     93  O   UNL     1       7.245  28.129  -3.105  1.00  0.00    -0.744 OA
ENDBRANCH  86  90
ENDBRANCH  60  83
ENDBRANCH  34  35
ENDBRANCH  26  29
ENDBRANCH  24  25
ENDBRANCH   1  24
TORSDOF 15
