REMARK SMILES C[N@@H+]1CCC[C@@H](C[NH2+]CC(=O)NCCCCNC(=O)c2ccc(-c3c4nc(c(-c5cc(S(=O)(=O)[O-])ccc5F)c5ccc([nH]5)c(-c5cc(S(=O)(=O)[O-])ccc5F)c5nc(c(-c6cc(S(=O)(=O)[O-])ccc6F)c6ccc3[nH]6)C=C5)C=C4)cc2)C1
REMARK SMILES IDX 14 1 13 2 12 3 10 4 11 5 9 7 8 8 7 11 6 12 1 13 2 14 3 15
REMARK SMILES IDX 83 16 4 18 5 19 15 20 16 21 17 22 18 23 19 25 20 26 21 27
REMARK SMILES IDX 82 28 22 29 81 30 23 31 24 32 25 33 75 34 26 35 80 36 74 37
REMARK SMILES IDX 76 38 27 39 79 40 73 41 72 42 28 44 60 45 40 46 59 47 41 48
REMARK SMILES IDX 44 49 58 50 77 51 42 52 43 53 57 55 78 56 45 57 29 58 30 59
REMARK SMILES IDX 38 60 31 61 37 62 39 63 36 64 32 65 33 66 34 67 35 68 61 69
REMARK SMILES IDX 62 70 70 71 63 72 69 73 71 74 68 75 64 76 65 77 66 78 67 79
REMARK SMILES IDX 46 80 47 81 55 82 48 83 54 84 56 85 53 86 49 87 50 88 51 89
REMARK SMILES IDX 52 90
REMARK H PARENT 12 6 8 9 8 10 2 17 17 24 76 43 44 54
REMARK Flexibility Score: inf
ROOT
ATOM      1  C   UNL     1       1.168   1.156   2.818  1.00  0.00     0.023 C 
ENDROOT
BRANCH   1   2
ATOM      2  C   UNL     1       1.487   0.325   4.058  1.00  0.00     0.116 C 
BRANCH   2   3
ATOM      3  N   UNL     1       0.311  -0.409   4.487  1.00  0.00    -0.351 N 
ATOM      4  C   UNL     1      -0.104  -1.661   4.131  1.00  0.00     0.275 C 
ATOM      5  O   UNL     1      -1.263  -1.985   4.406  1.00  0.00    -0.269 OA
ATOM      6  H   UNL     1      -0.271   0.063   5.125  1.00  0.00     0.163 HD
BRANCH   4   7
ATOM      7  C   UNL     1       0.841  -2.649   3.421  1.00  0.00     0.361 C 
BRANCH   7   8
ATOM      8  N   UNL     1       0.524  -2.801   1.980  1.00  0.00    -0.338 N 
ATOM      9  H   UNL     1       0.763  -3.748   1.687  1.00  0.00     0.346 HD
ATOM     10  H   UNL     1      -0.472  -2.621   1.852  1.00  0.00     0.346 HD
BRANCH   8  11
ATOM     11  C   UNL     1       1.271  -1.846   1.160  1.00  0.00     0.270 C 
BRANCH  11  12
ATOM     12  C   UNL     1       0.892  -1.775  -0.336  1.00  0.00     0.099 C 
ATOM     13  C   UNL     1      -2.483  -0.079  -0.206  1.00  0.00     0.332 C 
ATOM     14  N   UNL     1      -1.028  -0.213  -0.142  1.00  0.00    -0.337 N 
ATOM     15  C   UNL     1      -0.382   0.824  -0.958  1.00  0.00     0.262 C 
ATOM     16  C   UNL     1      -0.607  -1.546  -0.594  1.00  0.00     0.271 C 
ATOM     17  H   UNL     1      -0.741  -0.095   0.830  1.00  0.00     0.347 HD
ATOM     18  C   UNL     1       1.140   0.747  -0.850  1.00  0.00     0.062 C 
ATOM     19  C   UNL     1       1.703  -0.665  -1.047  1.00  0.00     0.021 C 
ENDBRANCH  11  12
ENDBRANCH   8  11
ENDBRANCH   7   8
ENDBRANCH   4   7
ENDBRANCH   2   3
ENDBRANCH   1   2
BRANCH   1  20
ATOM     20  C   UNL     1       0.786   2.604   3.045  1.00  0.00     0.023 C 
BRANCH  20  21
ATOM     21  C   UNL     1       1.941   3.497   3.454  1.00  0.00     0.116 C 
BRANCH  21  22
ATOM     22  N   UNL     1       3.019   3.566   2.473  1.00  0.00    -0.352 N 
ATOM     23  C   UNL     1       3.686   4.663   1.972  1.00  0.00     0.251 C 
ATOM     24  H   UNL     1       3.315   2.698   2.114  1.00  0.00     0.163 HD
ATOM     25  O   UNL     1       4.523   4.510   1.085  1.00  0.00    -0.269 OA
BRANCH  23  26
ATOM     26  C   UNL     1       3.347   6.019   2.459  1.00  0.00     0.039 A 
ATOM     27  C   UNL     1       3.243   7.065   1.541  1.00  0.00     0.014 A 
ATOM     28  C   UNL     1       3.058   6.244   3.805  1.00  0.00     0.014 A 
ATOM     29  C   UNL     1       2.745   8.302   1.959  1.00  0.00     0.010 A 
ATOM     30  C   UNL     1       2.433   7.423   4.187  1.00  0.00     0.010 A 
ATOM     31  C   UNL     1       2.275   8.471   3.272  1.00  0.00    -0.014 A 
BRANCH  31  32
ATOM     32  C   UNL     1       1.624   9.735   3.708  1.00  0.00     0.031 A 
ATOM     33  C   UNL     1       2.191  10.517   4.864  1.00  0.00     0.074 A 
ATOM     34  C   UNL     1       0.483  10.136   3.110  1.00  0.00     0.049 A 
ATOM     35  N   UNL     1       1.742  11.610   5.425  1.00  0.00    -0.248 NA
ATOM     36  C   UNL     1       3.397   9.970   5.506  1.00  0.00     0.031 C 
ATOM     37  C   UNL     1      -0.212   9.416   2.038  1.00  0.00     0.029 A 
ATOM     38  N   UNL     1      -0.296  11.247   3.315  1.00  0.00    -0.354 N 
ATOM     39  C   UNL     1       2.595  11.866   6.493  1.00  0.00     0.074 A 
ATOM     40  C   UNL     1       3.533  10.767   6.553  1.00  0.00     0.031 C 
ATOM     41  C   UNL     1      -1.280  10.129   1.647  1.00  0.00     0.029 A 
ATOM     42  C   UNL     1      -1.375  11.333   2.465  1.00  0.00     0.049 A 
ATOM     43  H   UNL     1      -0.101  11.920   4.006  1.00  0.00     0.167 HD
ATOM     44  C   UNL     1       2.621  12.937   7.324  1.00  0.00     0.034 A 
ATOM     45  C   UNL     1      -2.329  12.278   2.355  1.00  0.00     0.034 A 
ATOM     46  C   UNL     1       1.697  14.039   7.226  1.00  0.00     0.049 A 
ATOM     47  C   UNL     1      -2.265  13.475   3.268  1.00  0.00     0.074 A 
ATOM     48  C   UNL     1       1.670  15.212   7.961  1.00  0.00     0.029 A 
ATOM     49  N   UNL     1       0.632  14.105   6.335  1.00  0.00    -0.354 N 
ATOM     50  N   UNL     1      -1.404  13.739   4.225  1.00  0.00    -0.248 NA
ATOM     51  C   UNL     1      -3.290  14.507   3.076  1.00  0.00     0.031 C 
ATOM     52  C   UNL     1       0.556  15.956   7.557  1.00  0.00     0.029 A 
ATOM     53  C   UNL     1      -0.072  15.284   6.520  1.00  0.00     0.049 A 
ATOM     54  H   UNL     1       0.411  13.414   5.670  1.00  0.00     0.167 HD
ATOM     55  C   UNL     1      -1.773  14.981   4.733  1.00  0.00     0.074 A 
ATOM     56  C   UNL     1      -2.916  15.421   3.958  1.00  0.00     0.031 C 
ATOM     57  C   UNL     1      -1.222  15.695   5.748  1.00  0.00     0.034 A 
BRANCH  44  58
ATOM     58  C   UNL     1       3.676  12.950   8.407  1.00  0.00     0.023 A 
ATOM     59  C   UNL     1       5.049  12.936   8.100  1.00  0.00     0.031 A 
ATOM     60  C   UNL     1       3.309  12.933   9.763  1.00  0.00     0.131 A 
ATOM     61  C   UNL     1       5.998  12.813   9.126  1.00  0.00     0.055 A 
ATOM     62  C   UNL     1       4.262  12.902  10.784  1.00  0.00     0.041 A 
ATOM     63  F   UNL     1       2.015  12.925  10.122  1.00  0.00    -0.206 F 
ATOM     64  C   UNL     1       5.615  12.823  10.468  1.00  0.00     0.022 A 
BRANCH  61  65
ATOM     65  S   UNL     1       7.723  12.480   8.673  1.00  0.00     0.124 S 
ATOM     66  O   UNL     1       7.596  11.224   7.936  1.00  0.00    -0.237 OA
ATOM     67  O   UNL     1       8.074  13.653   7.881  1.00  0.00    -0.237 OA
ATOM     68  O   UNL     1       8.401  12.370   9.963  1.00  0.00    -0.744 OA
ENDBRANCH  61  65
ENDBRANCH  44  58
BRANCH  45  69
ATOM     69  C   UNL     1      -3.413  12.147   1.339  1.00  0.00     0.023 A 
ATOM     70  C   UNL     1      -3.518  13.056   0.273  1.00  0.00     0.031 A 
ATOM     71  C   UNL     1      -4.381  11.132   1.436  1.00  0.00     0.131 A 
ATOM     72  C   UNL     1      -4.592  12.962  -0.626  1.00  0.00     0.055 A 
ATOM     73  C   UNL     1      -5.419  11.011   0.510  1.00  0.00     0.041 A 
ATOM     74  F   UNL     1      -4.322  10.231   2.430  1.00  0.00    -0.206 F 
ATOM     75  C   UNL     1      -5.536  11.938  -0.521  1.00  0.00     0.022 A 
BRANCH  72  76
ATOM     76  S   UNL     1      -4.782  14.247  -1.892  1.00  0.00     0.124 S 
ATOM     77  O   UNL     1      -4.869  15.455  -1.079  1.00  0.00    -0.237 OA
ATOM     78  O   UNL     1      -3.559  14.085  -2.672  1.00  0.00    -0.237 OA
ATOM     79  O   UNL     1      -6.013  13.867  -2.581  1.00  0.00    -0.744 OA
ENDBRANCH  72  76
ENDBRANCH  45  69
BRANCH  57  80
ATOM     80  C   UNL     1      -1.842  17.037   6.048  1.00  0.00     0.023 A 
ATOM     81  C   UNL     1      -3.152  17.147   6.545  1.00  0.00     0.031 A 
ATOM     82  C   UNL     1      -1.123  18.221   5.805  1.00  0.00     0.131 A 
ATOM     83  C   UNL     1      -3.728  18.413   6.719  1.00  0.00     0.055 A 
ATOM     84  C   UNL     1      -1.679  19.478   6.043  1.00  0.00     0.041 A 
ATOM     85  F   UNL     1       0.131  18.174   5.329  1.00  0.00    -0.206 F 
ATOM     86  C   UNL     1      -2.995  19.580   6.487  1.00  0.00     0.022 A 
BRANCH  83  87
ATOM     87  S   UNL     1      -5.487  18.515   7.147  1.00  0.00     0.124 S 
ATOM     88  O   UNL     1      -6.109  17.782   6.048  1.00  0.00    -0.237 OA
ATOM     89  O   UNL     1      -5.529  17.862   8.452  1.00  0.00    -0.237 OA
ATOM     90  O   UNL     1      -5.754  19.952   7.164  1.00  0.00    -0.744 OA
ENDBRANCH  83  87
ENDBRANCH  57  80
ENDBRANCH  31  32
ENDBRANCH  23  26
ENDBRANCH  21  22
ENDBRANCH  20  21
ENDBRANCH   1  20
TORSDOF 17
