REMARK SMILES CC1([C@](C)(Nc2cccc(Cl)c2)C(=O)NCCCCNC(=O)c2ccc(-c3c4nc(c(-c5cc(S(=O)(=O)[O-])ccc5F)c5ccc([nH]5)c(-c5cc(S(=O)(=O)[O-])ccc5F)c5nc(c(-c6cc(S(=O)(=O)[O-])ccc6F)c6ccc3[nH]6)C=C5)C=C4)cc2)CC1
REMARK SMILES IDX 18 1 17 2 16 3 15 4 13 5 14 6 3 8 4 9 2 10 1 11 86 12 87 13
REMARK SMILES IDX 5 14 6 16 7 17 12 18 8 19 10 20 9 21 11 22 19 23 20 24 21 25
REMARK SMILES IDX 22 27 23 28 24 29 85 30 25 31 84 32 26 33 27 34 28 35 78 36
REMARK SMILES IDX 29 37 83 38 77 39 79 40 30 41 82 42 76 43 75 44 31 46 63 47
REMARK SMILES IDX 43 48 62 49 44 50 47 51 61 52 80 53 45 54 46 55 60 57 81 58
REMARK SMILES IDX 48 59 32 60 33 61 41 62 34 63 40 64 42 65 39 66 35 67 36 68
REMARK SMILES IDX 37 69 38 70 64 71 65 72 73 73 66 74 72 75 74 76 71 77 67 78
REMARK SMILES IDX 68 79 69 80 70 81 49 82 50 83 58 84 51 85 57 86 59 87 56 88
REMARK SMILES IDX 52 89 53 90 54 91 55 92
REMARK H PARENT 15 7 5 15 20 26 79 45 47 56
REMARK Flexibility Score: inf
ROOT
ATOM      1  C   UNL     1       3.418  -1.680   6.665  1.00  0.00     0.023 C 
ENDROOT
BRANCH   1   2
ATOM      2  C   UNL     1       3.508  -1.984   5.179  1.00  0.00     0.023 C 
BRANCH   2   3
ATOM      3  C   UNL     1       2.177  -2.153   4.458  1.00  0.00     0.116 C 
BRANCH   3   4
ATOM      4  N   UNL     1       1.174  -1.147   4.739  1.00  0.00    -0.354 N 
ATOM      5  C   UNL     1       0.552  -0.263   3.901  1.00  0.00     0.245 C 
ATOM      6  O   UNL     1      -0.372   0.394   4.402  1.00  0.00    -0.272 OA
ATOM      7  H   UNL     1       0.897  -1.090   5.682  1.00  0.00     0.163 HD
BRANCH   5   8
ATOM      8  C   UNL     1       0.950  -0.091   2.389  1.00  0.00     0.119 C 
ATOM      9  C   UNL     1       0.441   1.315   1.952  1.00  0.00     0.046 C 
BRANCH   8  10
ATOM     10  C   UNL     1       0.258  -1.198   1.459  1.00  0.00    -0.001 C 
ATOM     11  C   UNL     1      -0.089  -0.744   0.051  1.00  0.00     0.014 C 
ATOM     12  C   UNL     1      -0.737  -2.169   2.098  1.00  0.00     0.010 C 
ATOM     13  C   UNL     1       0.547  -2.697   1.542  1.00  0.00     0.010 C 
ENDBRANCH   8  10
BRANCH   8  14
ATOM     14  N   UNL     1       2.418  -0.073   2.156  1.00  0.00    -0.371 N 
ATOM     15  H   UNL     1       2.752  -0.662   1.440  1.00  0.00     0.161 HD
BRANCH  14  16
ATOM     16  C   UNL     1       3.378   0.678   2.831  1.00  0.00     0.036 A 
ATOM     17  C   UNL     1       3.185   1.301   4.075  1.00  0.00     0.026 A 
ATOM     18  C   UNL     1       4.674   0.754   2.296  1.00  0.00     0.046 A 
ATOM     19  C   UNL     1       4.240   1.875   4.800  1.00  0.00     0.004 A 
ATOM     20  C   UNL     1       5.721   1.373   2.994  1.00  0.00     0.043 A 
ATOM     21  C   UNL     1       5.517   1.907   4.260  1.00  0.00     0.020 A 
ATOM     22  Cl  UNL     1       7.287   1.464   2.282  1.00  0.00    -0.084 Cl
ENDBRANCH  14  16
ENDBRANCH   8  14
ENDBRANCH   5   8
ENDBRANCH   3   4
ENDBRANCH   2   3
ENDBRANCH   1   2
BRANCH   1  23
ATOM     23  C   UNL     1       2.612  -2.696   7.455  1.00  0.00     0.116 C 
BRANCH  23  24
ATOM     24  N   UNL     1       3.141  -4.045   7.319  1.00  0.00    -0.352 N 
ATOM     25  C   UNL     1       3.581  -4.903   8.291  1.00  0.00     0.251 C 
ATOM     26  H   UNL     1       3.189  -4.389   6.398  1.00  0.00     0.163 HD
ATOM     27  O   UNL     1       4.199  -5.922   7.969  1.00  0.00    -0.269 OA
BRANCH  25  28
ATOM     28  C   UNL     1       3.333  -4.593   9.711  1.00  0.00     0.039 A 
ATOM     29  C   UNL     1       4.345  -4.817  10.646  1.00  0.00     0.014 A 
ATOM     30  C   UNL     1       2.099  -4.076  10.120  1.00  0.00     0.014 A 
ATOM     31  C   UNL     1       4.134  -4.476  11.982  1.00  0.00     0.010 A 
ATOM     32  C   UNL     1       1.929  -3.641  11.427  1.00  0.00     0.010 A 
ATOM     33  C   UNL     1       2.934  -3.862  12.378  1.00  0.00    -0.014 A 
BRANCH  33  34
ATOM     34  C   UNL     1       2.692  -3.493  13.795  1.00  0.00     0.031 A 
ATOM     35  C   UNL     1       1.565  -4.146  14.551  1.00  0.00     0.074 A 
ATOM     36  C   UNL     1       3.450  -2.544  14.377  1.00  0.00     0.049 A 
ATOM     37  N   UNL     1       1.156  -3.935  15.775  1.00  0.00    -0.248 NA
ATOM     38  C   UNL     1       0.768  -5.143  13.818  1.00  0.00     0.031 C 
ATOM     39  C   UNL     1       4.532  -1.805  13.721  1.00  0.00     0.029 A 
ATOM     40  N   UNL     1       3.430  -2.038  15.652  1.00  0.00    -0.354 N 
ATOM     41  C   UNL     1       0.047  -4.757  15.950  1.00  0.00     0.074 A 
ATOM     42  C   UNL     1      -0.198  -5.408  14.683  1.00  0.00     0.031 C 
ATOM     43  C   UNL     1       5.095  -0.970  14.609  1.00  0.00     0.029 A 
ATOM     44  C   UNL     1       4.393  -1.083  15.883  1.00  0.00     0.049 A 
ATOM     45  H   UNL     1       2.787  -2.331  16.337  1.00  0.00     0.167 HD
ATOM     46  C   UNL     1      -0.680  -4.973  17.074  1.00  0.00     0.034 A 
ATOM     47  C   UNL     1       4.675  -0.382  16.998  1.00  0.00     0.034 A 
ATOM     48  C   UNL     1      -0.403  -4.329  18.334  1.00  0.00     0.049 A 
ATOM     49  C   UNL     1       3.861  -0.646  18.239  1.00  0.00     0.074 A 
ATOM     50  C   UNL     1      -1.034  -4.505  19.552  1.00  0.00     0.029 A 
ATOM     51  N   UNL     1       0.593  -3.380  18.537  1.00  0.00    -0.354 N 
ATOM     52  N   UNL     1       2.849  -1.468  18.405  1.00  0.00    -0.248 NA
ATOM     53  C   UNL     1       4.239   0.097  19.446  1.00  0.00     0.031 C 
ATOM     54  C   UNL     1      -0.462  -3.621  20.474  1.00  0.00     0.029 A 
ATOM     55  C   UNL     1       0.578  -2.946  19.853  1.00  0.00     0.049 A 
ATOM     56  H   UNL     1       1.218  -3.062  17.846  1.00  0.00     0.167 HD
ATOM     57  C   UNL     1       2.490  -1.361  19.746  1.00  0.00     0.074 A 
ATOM     58  C   UNL     1       3.409  -0.412  20.344  1.00  0.00     0.031 C 
ATOM     59  C   UNL     1       1.496  -1.989  20.425  1.00  0.00     0.034 A 
BRANCH  46  60
ATOM     60  C   UNL     1      -1.847  -5.929  16.973  1.00  0.00     0.023 A 
ATOM     61  C   UNL     1      -1.668  -7.281  16.626  1.00  0.00     0.031 A 
ATOM     62  C   UNL     1      -3.162  -5.476  17.182  1.00  0.00     0.131 A 
ATOM     63  C   UNL     1      -2.782  -8.106  16.414  1.00  0.00     0.055 A 
ATOM     64  C   UNL     1      -4.263  -6.327  17.056  1.00  0.00     0.041 A 
ATOM     65  F   UNL     1      -3.402  -4.193  17.493  1.00  0.00    -0.206 F 
ATOM     66  C   UNL     1      -4.078  -7.646  16.653  1.00  0.00     0.022 A 
BRANCH  63  67
ATOM     67  S   UNL     1      -2.520  -9.741  15.671  1.00  0.00     0.124 S 
ATOM     68  O   UNL     1      -1.893  -9.389  14.400  1.00  0.00    -0.237 OA
ATOM     69  O   UNL     1      -1.661 -10.398  16.648  1.00  0.00    -0.237 OA
ATOM     70  O   UNL     1      -3.871 -10.287  15.560  1.00  0.00    -0.744 OA
ENDBRANCH  63  67
ENDBRANCH  46  60
BRANCH  47  71
ATOM     71  C   UNL     1       5.777   0.622  17.003  1.00  0.00     0.023 A 
ATOM     72  C   UNL     1       6.916   0.441  17.804  1.00  0.00     0.031 A 
ATOM     73  C   UNL     1       5.694   1.795  16.233  1.00  0.00     0.131 A 
ATOM     74  C   UNL     1       7.903   1.438  17.855  1.00  0.00     0.055 A 
ATOM     75  C   UNL     1       6.702   2.760  16.247  1.00  0.00     0.041 A 
ATOM     76  F   UNL     1       4.631   2.014  15.442  1.00  0.00    -0.206 F 
ATOM     77  C   UNL     1       7.809   2.591  17.072  1.00  0.00     0.022 A 
BRANCH  74  78
ATOM     78  S   UNL     1       9.274   1.244  19.027  1.00  0.00     0.124 S 
ATOM     79  O   UNL     1       8.566   1.117  20.295  1.00  0.00    -0.237 OA
ATOM     80  O   UNL     1       9.925   0.036  18.532  1.00  0.00    -0.237 OA
ATOM     81  O   UNL     1      10.041   2.477  18.859  1.00  0.00    -0.744 OA
ENDBRANCH  74  78
ENDBRANCH  47  71
BRANCH  59  82
ATOM     82  C   UNL     1       1.388  -1.693  21.900  1.00  0.00     0.023 A 
ATOM     83  C   UNL     1       1.039  -0.416  22.374  1.00  0.00     0.031 A 
ATOM     84  C   UNL     1       1.665  -2.697  22.845  1.00  0.00     0.131 A 
ATOM     85  C   UNL     1       1.041  -0.159  23.752  1.00  0.00     0.055 A 
ATOM     86  C   UNL     1       1.600  -2.452  24.217  1.00  0.00     0.041 A 
ATOM     87  F   UNL     1       2.004  -3.934  22.448  1.00  0.00    -0.206 F 
ATOM     88  C   UNL     1       1.303  -1.173  24.677  1.00  0.00     0.022 A 
BRANCH  85  89
ATOM     89  S   UNL     1       0.805   1.548  24.317  1.00  0.00     0.124 S 
ATOM     90  O   UNL     1       1.885   2.248  23.627  1.00  0.00    -0.237 OA
ATOM     91  O   UNL     1      -0.546   1.846  23.853  1.00  0.00    -0.237 OA
ATOM     92  O   UNL     1       0.956   1.453  25.768  1.00  0.00    -0.744 OA
ENDBRANCH  85  89
ENDBRANCH  59  82
ENDBRANCH  33  34
ENDBRANCH  25  28
ENDBRANCH  23  24
ENDBRANCH   1  23
TORSDOF 17
