REMARK SMILES CCc1cc(OC(F)(F)F)cc2c1O[C@@H](C(F)(F)F)C(C(=O)NCCCCNC(=O)c1ccc(-c3c4nc(c(-c5cc(S(=O)(=O)[O-])ccc5F)c5ccc([nH]5)c(-c5cc(S(=O)(=O)[O-])ccc5F)c5nc(c(-c6cc(S(=O)(=O)[O-])ccc6F)c6ccc3[nH]6)C=C5)C=C4)cc1)=C2
REMARK SMILES IDX 26 1 25 2 24 3 23 4 21 5 22 6 20 8 3 9 4 10 13 11 5 12 12 13
REMARK SMILES IDX 14 14 11 15 94 16 15 17 2 18 1 19 6 20 7 21 8 22 9 23 10 24
REMARK SMILES IDX 16 25 17 26 18 27 19 28 27 29 28 30 29 31 30 33 31 34 32 35
REMARK SMILES IDX 93 36 33 37 92 38 34 39 35 40 36 41 86 42 37 43 91 44 85 45
REMARK SMILES IDX 87 46 38 47 90 48 84 49 83 50 39 52 71 53 51 54 70 55 52 56
REMARK SMILES IDX 55 57 69 58 88 59 53 60 54 61 68 63 89 64 56 65 40 66 41 67
REMARK SMILES IDX 49 68 42 69 48 70 50 71 47 72 43 73 44 74 45 75 46 76 72 77
REMARK SMILES IDX 73 78 81 79 74 80 80 81 82 82 79 83 75 84 76 85 77 86 78 87
REMARK SMILES IDX 57 88 58 89 66 90 59 91 65 92 67 93 64 94 60 95 61 96 62 97
REMARK SMILES IDX 63 98
REMARK H PARENT 23 7 28 32 87 51 55 62
REMARK Flexibility Score: inf
ROOT
ATOM      1  C   UNL     1       1.191   7.871   5.906  1.00  0.00     0.023 C 
ENDROOT
BRANCH   1   2
ATOM      2  C   UNL     1       1.024   6.380   5.598  1.00  0.00     0.023 C 
BRANCH   2   3
ATOM      3  C   UNL     1      -0.302   6.020   4.917  1.00  0.00     0.116 C 
BRANCH   3   4
ATOM      4  N   UNL     1      -0.250   6.368   3.508  1.00  0.00    -0.352 N 
ATOM      5  C   UNL     1       0.149   5.675   2.411  1.00  0.00     0.251 C 
ATOM      6  O   UNL     1       0.243   6.276   1.344  1.00  0.00    -0.270 OA
ATOM      7  H   UNL     1      -0.563   7.281   3.311  1.00  0.00     0.163 HD
BRANCH   5   8
ATOM      8  C   UNL     1       0.413   4.211   2.432  1.00  0.00     0.067 C 
ATOM      9  C   UNL     1       0.897   0.036   2.255  1.00  0.00    -0.002 A 
ATOM     10  C   UNL     1       1.553  -0.619   3.316  1.00  0.00     0.054 A 
ATOM     11  C   UNL     1       0.726   1.427   2.318  1.00  0.00     0.131 A 
ATOM     12  C   UNL     1       2.030   0.099   4.415  1.00  0.00     0.130 A 
ATOM     13  C   UNL     1       1.230   2.153   3.393  1.00  0.00     0.021 A 
ATOM     14  O   UNL     1      -0.022   2.019   1.342  1.00  0.00    -0.475 OA
ATOM     15  C   UNL     1       1.880   1.487   4.437  1.00  0.00     0.058 A 
ATOM     16  C   UNL     1       1.008   3.589   3.460  1.00  0.00     0.025 C 
ATOM     17  C   UNL     1       0.135   3.454   1.139  1.00  0.00     0.314 C 
BRANCH   9  18
ATOM     18  C   UNL     1       0.375  -0.771   1.087  1.00  0.00     0.036 C 
ATOM     19  C   UNL     1       1.052  -0.421  -0.234  1.00  0.00     0.009 C 
ENDBRANCH   9  18
BRANCH  12  20
ATOM     20  O   UNL     1       2.643  -0.414   5.521  1.00  0.00    -0.406 OA
BRANCH  20  21
ATOM     21  C   UNL     1       2.734  -1.823   5.637  1.00  0.00     0.573 C 
ATOM     22  F   UNL     1       1.515  -2.402   5.590  1.00  0.00    -0.132 F 
ATOM     23  F   UNL     1       3.516  -2.338   4.664  1.00  0.00    -0.132 F 
ATOM     24  F   UNL     1       3.295  -2.126   6.829  1.00  0.00    -0.132 F 
ENDBRANCH  20  21
ENDBRANCH  12  20
BRANCH  17  25
ATOM     25  C   UNL     1      -1.080   3.917   0.301  1.00  0.00     0.429 C 
ATOM     26  F   UNL     1      -0.789   4.947  -0.524  1.00  0.00    -0.167 F 
ATOM     27  F   UNL     1      -1.507   2.914  -0.517  1.00  0.00    -0.167 F 
ATOM     28  F   UNL     1      -2.136   4.266   1.069  1.00  0.00    -0.167 F 
ENDBRANCH  17  25
ENDBRANCH   5   8
ENDBRANCH   3   4
ENDBRANCH   2   3
ENDBRANCH   1   2
BRANCH   1  29
ATOM     29  C   UNL     1       0.219   8.418   6.944  1.00  0.00     0.116 C 
BRANCH  29  30
ATOM     30  N   UNL     1       0.311   7.735   8.225  1.00  0.00    -0.352 N 
ATOM     31  C   UNL     1       0.046   8.236   9.477  1.00  0.00     0.251 C 
ATOM     32  H   UNL     1       0.601   6.794   8.190  1.00  0.00     0.163 HD
ATOM     33  O   UNL     1       0.283   7.561  10.471  1.00  0.00    -0.269 OA
BRANCH  31  34
ATOM     34  C   UNL     1      -0.476   9.613   9.603  1.00  0.00     0.039 A 
ATOM     35  C   UNL     1       0.162  10.495  10.477  1.00  0.00     0.014 A 
ATOM     36  C   UNL     1      -1.558  10.040   8.829  1.00  0.00     0.014 A 
ATOM     37  C   UNL     1      -0.244  11.830  10.525  1.00  0.00     0.010 A 
ATOM     38  C   UNL     1      -1.917  11.383   8.829  1.00  0.00     0.010 A 
ATOM     39  C   UNL     1      -1.262  12.292   9.675  1.00  0.00    -0.014 A 
BRANCH  39  40
ATOM     40  C   UNL     1      -1.658  13.722   9.654  1.00  0.00     0.031 A 
ATOM     41  C   UNL     1      -3.037  14.123  10.098  1.00  0.00     0.074 A 
ATOM     42  C   UNL     1      -0.804  14.642   9.165  1.00  0.00     0.049 A 
ATOM     43  N   UNL     1      -3.607  15.300  10.070  1.00  0.00    -0.248 NA
ATOM     44  C   UNL     1      -3.900  13.047  10.608  1.00  0.00     0.031 C 
ATOM     45  C   UNL     1       0.543  14.362   8.661  1.00  0.00     0.029 A 
ATOM     46  N   UNL     1      -0.945  15.996   8.998  1.00  0.00    -0.354 N 
ATOM     47  C   UNL     1      -4.900  15.105  10.542  1.00  0.00     0.074 A 
ATOM     48  C   UNL     1      -5.045  13.686  10.792  1.00  0.00     0.031 C 
ATOM     49  C   UNL     1       1.108  15.511   8.256  1.00  0.00     0.029 A 
ATOM     50  C   UNL     1       0.154  16.601   8.434  1.00  0.00     0.049 A 
ATOM     51  H   UNL     1      -1.757  16.489   9.256  1.00  0.00     0.167 HD
ATOM     52  C   UNL     1      -5.869  16.028  10.766  1.00  0.00     0.034 A 
ATOM     53  C   UNL     1       0.364  17.887   8.091  1.00  0.00     0.034 A 
ATOM     54  C   UNL     1      -5.699  17.440  10.526  1.00  0.00     0.049 A 
ATOM     55  C   UNL     1      -0.725  18.896   8.350  1.00  0.00     0.074 A 
ATOM     56  C   UNL     1      -6.589  18.471  10.771  1.00  0.00     0.029 A 
ATOM     57  N   UNL     1      -4.561  18.021   9.978  1.00  0.00    -0.354 N 
ATOM     58  N   UNL     1      -1.925  18.705   8.846  1.00  0.00    -0.248 NA
ATOM     59  C   UNL     1      -0.425  20.294   8.015  1.00  0.00     0.031 C 
ATOM     60  C   UNL     1      -6.013  19.665  10.320  1.00  0.00     0.029 A 
ATOM     61  C   UNL     1      -4.737  19.391   9.856  1.00  0.00     0.049 A 
ATOM     62  H   UNL     1      -3.749  17.531   9.715  1.00  0.00     0.167 HD
ATOM     63  C   UNL     1      -2.512  19.965   8.911  1.00  0.00     0.074 A 
ATOM     64  C   UNL     1      -1.530  20.907   8.413  1.00  0.00     0.031 C 
ATOM     65  C   UNL     1      -3.749  20.314   9.349  1.00  0.00     0.034 A 
BRANCH  52  66
ATOM     66  C   UNL     1      -7.199  15.524  11.273  1.00  0.00     0.023 A 
ATOM     67  C   UNL     1      -7.317  14.877  12.517  1.00  0.00     0.031 A 
ATOM     68  C   UNL     1      -8.357  15.653  10.488  1.00  0.00     0.131 A 
ATOM     69  C   UNL     1      -8.542  14.311  12.899  1.00  0.00     0.055 A 
ATOM     70  C   UNL     1      -9.593  15.161  10.912  1.00  0.00     0.041 A 
ATOM     71  F   UNL     1      -8.304  16.244   9.283  1.00  0.00    -0.206 F 
ATOM     72  C   UNL     1      -9.687  14.470  12.117  1.00  0.00     0.022 A 
BRANCH  69  73
ATOM     73  S   UNL     1      -8.578  13.233  14.357  1.00  0.00     0.124 S 
ATOM     74  O   UNL     1      -7.620  12.195  13.979  1.00  0.00    -0.237 OA
ATOM     75  O   UNL     1      -8.157  14.132  15.425  1.00  0.00    -0.237 OA
ATOM     76  O   UNL     1      -9.969  12.792  14.423  1.00  0.00    -0.744 OA
ENDBRANCH  69  73
ENDBRANCH  52  66
BRANCH  53  77
ATOM     77  C   UNL     1       1.652  18.298   7.464  1.00  0.00     0.023 A 
ATOM     78  C   UNL     1       2.545  19.146   8.137  1.00  0.00     0.031 A 
ATOM     79  C   UNL     1       1.993  17.872   6.168  1.00  0.00     0.131 A 
ATOM     80  C   UNL     1       3.717  19.577   7.496  1.00  0.00     0.055 A 
ATOM     81  C   UNL     1       3.182  18.267   5.552  1.00  0.00     0.041 A 
ATOM     82  F   UNL     1       1.178  17.052   5.486  1.00  0.00    -0.206 F 
ATOM     83  C   UNL     1       4.047  19.135   6.213  1.00  0.00     0.022 A 
BRANCH  80  84
ATOM     84  S   UNL     1       4.773  20.785   8.341  1.00  0.00     0.124 S 
ATOM     85  O   UNL     1       3.851  21.895   8.546  1.00  0.00    -0.237 OA
ATOM     86  O   UNL     1       5.172  20.052   9.538  1.00  0.00    -0.237 OA
ATOM     87  O   UNL     1       5.845  21.031   7.379  1.00  0.00    -0.744 OA
ENDBRANCH  80  84
ENDBRANCH  53  77
BRANCH  65  88
ATOM     88  C   UNL     1      -4.082  21.785   9.351  1.00  0.00     0.023 A 
ATOM     89  C   UNL     1      -4.250  22.508   8.158  1.00  0.00     0.031 A 
ATOM     90  C   UNL     1      -4.224  22.471  10.570  1.00  0.00     0.131 A 
ATOM     91  C   UNL     1      -4.501  23.887   8.209  1.00  0.00     0.055 A 
ATOM     92  C   UNL     1      -4.527  23.832  10.614  1.00  0.00     0.041 A 
ATOM     93  F   UNL     1      -4.072  21.828  11.739  1.00  0.00    -0.206 F 
ATOM     94  C   UNL     1      -4.655  24.551   9.429  1.00  0.00     0.022 A 
BRANCH  91  95
ATOM     95  S   UNL     1      -4.545  24.823   6.655  1.00  0.00     0.124 S 
ATOM     96  O   UNL     1      -3.213  24.574   6.113  1.00  0.00    -0.237 OA
ATOM     97  O   UNL     1      -5.651  24.192   5.942  1.00  0.00    -0.237 OA
ATOM     98  O   UNL     1      -4.792  26.197   7.089  1.00  0.00    -0.744 OA
ENDBRANCH  91  95
ENDBRANCH  65  88
ENDBRANCH  39  40
ENDBRANCH  31  34
ENDBRANCH  29  30
ENDBRANCH   1  29
TORSDOF 18
