REMARK SMILES CC[C@H](CNC(=O)[C@H]1CSc2ccccc21)C(=O)NCCCCNC(=O)c1ccc(-c2c3nc(c(-c4cc(S(=O)(=O)[O-])ccc4F)c4ccc([nH]4)c(-c4cc(S(=O)(=O)[O-])ccc4F)c4nc(c(-c5cc(S(=O)(=O)[O-])ccc5F)c5ccc2[nH]5)C=C4)C=C3)cc1
REMARK SMILES IDX 21 1 20 2 19 3 17 4 18 5 3 7 2 8 1 9 4 10 5 11 6 12 7 14
REMARK SMILES IDX 8 15 9 16 16 17 10 18 11 19 15 20 12 21 14 22 13 23 22 24
REMARK SMILES IDX 23 25 24 26 25 27 26 29 27 30 28 31 89 32 29 33 88 34 30 35
REMARK SMILES IDX 31 36 32 37 82 38 33 39 87 40 81 41 83 42 34 43 86 44 80 45
REMARK SMILES IDX 79 46 35 48 67 49 47 50 66 51 48 52 51 53 65 54 84 55 49 56
REMARK SMILES IDX 50 57 64 59 85 60 52 61 36 62 37 63 45 64 38 65 44 66 46 67
REMARK SMILES IDX 43 68 39 69 40 70 41 71 42 72 68 73 69 74 77 75 70 76 76 77
REMARK SMILES IDX 78 78 75 79 71 80 72 81 73 82 74 83 53 84 54 85 62 86 55 87
REMARK SMILES IDX 61 88 63 89 60 90 56 91 57 92 58 93 59 94
REMARK H PARENT 19 6 5 13 24 28 83 47 51 58
REMARK Flexibility Score: inf
ROOT
ATOM      1  C   UNL     1      -2.772  -0.548   2.777  1.00  0.00     0.023 C 
ENDROOT
BRANCH   1   2
ATOM      2  C   UNL     1      -1.840   0.232   3.695  1.00  0.00     0.116 C 
BRANCH   2   3
ATOM      3  N   UNL     1      -0.700  -0.552   4.130  1.00  0.00    -0.356 N 
ATOM      4  C   UNL     1       0.556  -0.717   3.649  1.00  0.00     0.224 C 
ATOM      5  O   UNL     1       1.309  -1.434   4.319  1.00  0.00    -0.275 OA
ATOM      6  H   UNL     1      -0.876  -1.075   4.946  1.00  0.00     0.163 HD
BRANCH   4   7
ATOM      7  C   UNL     1       1.077  -0.120   2.340  1.00  0.00     0.097 C 
BRANCH   7   8
ATOM      8  C   UNL     1       0.859   1.400   2.178  1.00  0.00     0.012 C 
ATOM      9  C   UNL     1      -0.079   1.838   1.055  1.00  0.00     0.005 C 
ENDBRANCH   7   8
BRANCH   7  10
ATOM     10  C   UNL     1       0.698  -0.964   1.118  1.00  0.00     0.129 C 
BRANCH  10  11
ATOM     11  N   UNL     1       1.091  -2.364   1.209  1.00  0.00    -0.355 N 
ATOM     12  C   UNL     1       0.405  -3.503   0.883  1.00  0.00     0.228 C 
ATOM     13  H   UNL     1       1.997  -2.516   1.562  1.00  0.00     0.163 HD
ATOM     14  O   UNL     1       1.031  -4.564   0.857  1.00  0.00    -0.274 OA
BRANCH  12  15
ATOM     15  C   UNL     1      -1.079  -3.432   0.574  1.00  0.00     0.120 C 
ATOM     16  C   UNL     1      -1.358  -3.871  -0.866  1.00  0.00     0.093 C 
ATOM     17  C   UNL     1      -1.958  -4.289   1.457  1.00  0.00    -0.021 A 
ATOM     18  S   UNL     1      -3.127  -4.309  -0.911  1.00  0.00    -0.125 SA
ATOM     19  C   UNL     1      -3.119  -4.732   0.810  1.00  0.00     0.011 A 
ATOM     20  C   UNL     1      -1.779  -4.542   2.815  1.00  0.00     0.006 A 
ATOM     21  C   UNL     1      -4.116  -5.406   1.498  1.00  0.00     0.015 A 
ATOM     22  C   UNL     1      -2.771  -5.239   3.511  1.00  0.00     0.000 A 
ATOM     23  C   UNL     1      -3.937  -5.660   2.859  1.00  0.00     0.001 A 
ENDBRANCH  12  15
ENDBRANCH  10  11
ENDBRANCH   7  10
ENDBRANCH   4   7
ENDBRANCH   2   3
ENDBRANCH   1   2
BRANCH   1  24
ATOM     24  C   UNL     1      -3.613  -1.603   3.492  1.00  0.00     0.023 C 
BRANCH  24  25
ATOM     25  C   UNL     1      -4.745  -1.033   4.329  1.00  0.00     0.116 C 
BRANCH  25  26
ATOM     26  N   UNL     1      -5.787  -0.391   3.538  1.00  0.00    -0.352 N 
ATOM     27  C   UNL     1      -7.143  -0.341   3.797  1.00  0.00     0.251 C 
ATOM     28  H   UNL     1      -5.488   0.063   2.718  1.00  0.00     0.163 HD
ATOM     29  O   UNL     1      -7.910   0.153   2.983  1.00  0.00    -0.269 OA
BRANCH  27  30
ATOM     30  C   UNL     1      -7.649  -0.950   5.049  1.00  0.00     0.039 A 
ATOM     31  C   UNL     1      -6.979  -0.733   6.250  1.00  0.00     0.014 A 
ATOM     32  C   UNL     1      -8.738  -1.824   5.001  1.00  0.00     0.014 A 
ATOM     33  C   UNL     1      -7.246  -1.551   7.337  1.00  0.00     0.010 A 
ATOM     34  C   UNL     1      -9.089  -2.557   6.142  1.00  0.00     0.010 A 
ATOM     35  C   UNL     1      -8.306  -2.475   7.304  1.00  0.00    -0.014 A 
BRANCH  35  36
ATOM     36  C   UNL     1      -8.555  -3.321   8.505  1.00  0.00     0.031 A 
ATOM     37  C   UNL     1      -8.469  -4.824   8.440  1.00  0.00     0.074 A 
ATOM     38  C   UNL     1      -8.765  -2.711   9.690  1.00  0.00     0.049 A 
ATOM     39  N   UNL     1      -8.576  -5.694   9.413  1.00  0.00    -0.248 NA
ATOM     40  C   UNL     1      -8.247  -5.438   7.120  1.00  0.00     0.031 C 
ATOM     41  C   UNL     1      -8.872  -1.262   9.870  1.00  0.00     0.029 A 
ATOM     42  N   UNL     1      -8.867  -3.209  10.966  1.00  0.00    -0.354 N 
ATOM     43  C   UNL     1      -8.476  -6.949   8.823  1.00  0.00     0.074 A 
ATOM     44  C   UNL     1      -8.318  -6.732   7.402  1.00  0.00     0.031 C 
ATOM     45  C   UNL     1      -8.905  -0.982  11.178  1.00  0.00     0.029 A 
ATOM     46  C   UNL     1      -8.925  -2.231  11.934  1.00  0.00     0.049 A 
ATOM     47  H   UNL     1      -8.896  -4.172  11.169  1.00  0.00     0.167 HD
ATOM     48  C   UNL     1      -8.508  -8.168   9.415  1.00  0.00     0.034 A 
ATOM     49  C   UNL     1      -8.987  -2.320  13.278  1.00  0.00     0.034 A 
ATOM     50  C   UNL     1      -8.618  -8.365  10.839  1.00  0.00     0.049 A 
ATOM     51  C   UNL     1      -8.993  -3.685  13.911  1.00  0.00     0.074 A 
ATOM     52  C   UNL     1      -8.632  -9.560  11.536  1.00  0.00     0.029 A 
ATOM     53  N   UNL     1      -8.712  -7.353  11.784  1.00  0.00    -0.354 N 
ATOM     54  N   UNL     1      -8.879  -4.859  13.334  1.00  0.00    -0.248 NA
ATOM     55  C   UNL     1      -9.144  -3.745  15.370  1.00  0.00     0.031 C 
ATOM     56  C   UNL     1      -8.787  -9.275  12.893  1.00  0.00     0.029 A 
ATOM     57  C   UNL     1      -8.801  -7.899  13.054  1.00  0.00     0.049 A 
ATOM     58  H   UNL     1      -8.715  -6.389  11.581  1.00  0.00     0.167 HD
ATOM     59  C   UNL     1      -8.933  -5.795  14.361  1.00  0.00     0.074 A 
ATOM     60  C   UNL     1      -9.054  -5.050  15.597  1.00  0.00     0.031 C 
ATOM     61  C   UNL     1      -8.899  -7.149  14.283  1.00  0.00     0.034 A 
BRANCH  48  62
ATOM     62  C   UNL     1      -8.418  -9.403   8.552  1.00  0.00     0.023 A 
ATOM     63  C   UNL     1      -9.499 -10.307   8.511  1.00  0.00     0.031 A 
ATOM     64  C   UNL     1      -7.229  -9.760   7.893  1.00  0.00     0.131 A 
ATOM     65  C   UNL     1      -9.354 -11.539   7.861  1.00  0.00     0.055 A 
ATOM     66  C   UNL     1      -7.104 -10.972   7.212  1.00  0.00     0.041 A 
ATOM     67  F   UNL     1      -6.172  -8.933   7.901  1.00  0.00    -0.206 F 
ATOM     68  C   UNL     1      -8.165 -11.873   7.205  1.00  0.00     0.022 A 
BRANCH  65  69
ATOM     69  S   UNL     1     -10.677 -12.780   7.896  1.00  0.00     0.124 S 
ATOM     70  O   UNL     1     -10.942 -12.976   6.472  1.00  0.00    -0.237 OA
ATOM     71  O   UNL     1     -10.027 -13.900   8.569  1.00  0.00    -0.237 OA
ATOM     72  O   UNL     1     -11.749 -12.130   8.642  1.00  0.00    -0.744 OA
ENDBRANCH  65  69
ENDBRANCH  48  62
BRANCH  49  73
ATOM     73  C   UNL     1      -8.988  -1.069  14.094  1.00  0.00     0.023 A 
ATOM     74  C   UNL     1      -9.993  -0.098  13.934  1.00  0.00     0.031 A 
ATOM     75  C   UNL     1      -7.917  -0.772  14.955  1.00  0.00     0.131 A 
ATOM     76  C   UNL     1      -9.861   1.153  14.550  1.00  0.00     0.055 A 
ATOM     77  C   UNL     1      -7.832   0.445  15.633  1.00  0.00     0.041 A 
ATOM     78  F   UNL     1      -6.926  -1.660  15.133  1.00  0.00    -0.206 F 
ATOM     79  C   UNL     1      -8.796   1.424  15.414  1.00  0.00     0.022 A 
BRANCH  76  80
ATOM     80  S   UNL     1     -10.971   2.521  14.113  1.00  0.00     0.124 S 
ATOM     81  O   UNL     1     -11.655   2.772  15.377  1.00  0.00    -0.237 OA
ATOM     82  O   UNL     1     -10.026   3.552  13.689  1.00  0.00    -0.237 OA
ATOM     83  O   UNL     1     -11.795   1.965  13.045  1.00  0.00    -0.744 OA
ENDBRANCH  76  80
ENDBRANCH  49  73
BRANCH  61  84
ATOM     84  C   UNL     1      -8.982  -7.945  15.562  1.00  0.00     0.023 A 
ATOM     85  C   UNL     1      -7.905  -8.764  15.950  1.00  0.00     0.031 A 
ATOM     86  C   UNL     1     -10.172  -8.011  16.306  1.00  0.00     0.131 A 
ATOM     87  C   UNL     1      -8.052  -9.640  17.032  1.00  0.00     0.055 A 
ATOM     88  C   UNL     1     -10.299  -8.854  17.410  1.00  0.00     0.041 A 
ATOM     89  F   UNL     1     -11.231  -7.258  15.967  1.00  0.00    -0.206 F 
ATOM     90  C   UNL     1      -9.240  -9.685  17.768  1.00  0.00     0.022 A 
BRANCH  87  91
ATOM     91  S   UNL     1      -6.742 -10.818  17.466  1.00  0.00     0.124 S 
ATOM     92  O   UNL     1      -6.381 -10.383  18.814  1.00  0.00    -0.237 OA
ATOM     93  O   UNL     1      -7.440 -12.098  17.390  1.00  0.00    -0.237 OA
ATOM     94  O   UNL     1      -5.720 -10.600  16.448  1.00  0.00    -0.744 OA
ENDBRANCH  87  91
ENDBRANCH  61  84
ENDBRANCH  35  36
ENDBRANCH  27  30
ENDBRANCH  25  26
ENDBRANCH  24  25
ENDBRANCH   1  24
TORSDOF 18
