REMARK SMILES CC[C@@H](NS(=O)(=O)c1ccc(CC#N)cc1)C(=O)NCCCCNC(=O)c1ccc(-c2c3nc(c(-c4cc(S(=O)(=O)[O-])ccc4F)c4ccc([nH]4)c(-c4cc(S(=O)(=O)[O-])ccc4F)c4nc(c(-c5cc(S(=O)(=O)[O-])ccc5F)c5ccc2[nH]5)C=C4)C=C3)cc1
REMARK SMILES IDX 20 1 19 2 17 3 18 4 3 6 2 7 1 8 4 9 5 11 6 12 7 13 8 14 9 15
REMARK SMILES IDX 16 16 10 17 15 18 11 19 12 20 13 21 14 22 21 23 22 24 23 25
REMARK SMILES IDX 24 26 25 27 26 29 27 30 28 31 89 32 29 33 88 34 30 35 31 36
REMARK SMILES IDX 32 37 82 38 33 39 87 40 81 41 83 42 34 43 86 44 80 45 79 46
REMARK SMILES IDX 35 48 67 49 47 50 66 51 48 52 51 53 65 54 84 55 49 56 50 57
REMARK SMILES IDX 64 59 85 60 52 61 36 62 37 63 45 64 38 65 44 66 46 67 43 68
REMARK SMILES IDX 39 69 40 70 41 71 42 72 68 73 69 74 77 75 70 76 76 77 78 78
REMARK SMILES IDX 75 79 71 80 72 81 73 82 74 83 53 84 54 85 62 86 55 87 61 88
REMARK SMILES IDX 63 89 60 90 56 91 57 92 58 93 59 94
REMARK H PARENT 19 5 4 10 24 28 83 47 51 58
REMARK Flexibility Score: inf
ROOT
ATOM      1  C   UNL     1      -1.805  -2.699   1.533  1.00  0.00     0.116 C 
ENDROOT
BRANCH   1   2
ATOM      2  N   UNL     1      -0.719  -3.657   1.406  1.00  0.00    -0.355 N 
ATOM      3  C   UNL     1       0.616  -3.441   1.206  1.00  0.00     0.238 C 
ATOM      4  O   UNL     1       1.331  -4.404   0.918  1.00  0.00    -0.273 OA
ATOM      5  H   UNL     1      -0.985  -4.603   1.474  1.00  0.00     0.163 HD
BRANCH   3   6
ATOM      6  C   UNL     1       1.202  -2.031   1.339  1.00  0.00     0.158 C 
BRANCH   6   7
ATOM      7  C   UNL     1       0.831  -1.230   0.081  1.00  0.00     0.027 C 
ATOM      8  C   UNL     1       1.415   0.170   0.028  1.00  0.00     0.006 C 
ENDBRANCH   6   7
BRANCH   6   9
ATOM      9  N   UNL     1       0.735  -1.401   2.591  1.00  0.00    -0.199 NA
ATOM     10  H   UNL     1      -0.271  -1.562   2.645  1.00  0.00     0.142 HD
BRANCH   9  11
ATOM     11  S   UNL     1       1.383  -1.880   4.069  1.00  0.00     0.241 S 
ATOM     12  O   UNL     1       2.818  -1.940   3.914  1.00  0.00    -0.207 OA
ATOM     13  O   UNL     1       0.776  -1.000   5.048  1.00  0.00    -0.207 OA
BRANCH  11  14
ATOM     14  C   UNL     1       0.763  -3.521   4.358  1.00  0.00     0.082 A 
ATOM     15  C   UNL     1      -0.469  -3.725   4.983  1.00  0.00     0.022 A 
ATOM     16  C   UNL     1       1.549  -4.617   3.991  1.00  0.00     0.022 A 
ATOM     17  C   UNL     1      -0.942  -5.034   5.171  1.00  0.00     0.006 A 
ATOM     18  C   UNL     1       1.067  -5.918   4.163  1.00  0.00     0.006 A 
ATOM     19  C   UNL     1      -0.188  -6.143   4.743  1.00  0.00    -0.034 A 
BRANCH  19  20
ATOM     20  C   UNL     1      -0.692  -7.563   4.942  1.00  0.00     0.155 C 
BRANCH  20  21
ATOM     21  C   UNL     1      -0.641  -7.952   6.411  1.00  0.00     0.067 C 
ATOM     22  N   UNL     1      -0.599  -8.275   7.629  1.00  0.00    -0.198 NA
ENDBRANCH  20  21
ENDBRANCH  19  20
ENDBRANCH  11  14
ENDBRANCH   9  11
ENDBRANCH   6   9
ENDBRANCH   3   6
ENDBRANCH   1   2
BRANCH   1  23
ATOM     23  C   UNL     1      -2.707  -2.762   0.304  1.00  0.00     0.023 C 
BRANCH  23  24
ATOM     24  C   UNL     1      -3.538  -4.042   0.225  1.00  0.00     0.023 C 
BRANCH  24  25
ATOM     25  C   UNL     1      -4.479  -4.253   1.405  1.00  0.00     0.116 C 
BRANCH  25  26
ATOM     26  N   UNL     1      -5.447  -3.176   1.541  1.00  0.00    -0.352 N 
ATOM     27  C   UNL     1      -6.807  -3.265   1.711  1.00  0.00     0.251 C 
ATOM     28  H   UNL     1      -5.079  -2.263   1.507  1.00  0.00     0.163 HD
ATOM     29  O   UNL     1      -7.504  -2.261   1.616  1.00  0.00    -0.269 OA
BRANCH  27  30
ATOM     30  C   UNL     1      -7.412  -4.587   1.975  1.00  0.00     0.039 A 
ATOM     31  C   UNL     1      -8.537  -4.976   1.247  1.00  0.00     0.014 A 
ATOM     32  C   UNL     1      -6.840  -5.452   2.912  1.00  0.00     0.014 A 
ATOM     33  C   UNL     1      -9.051  -6.263   1.415  1.00  0.00     0.010 A 
ATOM     34  C   UNL     1      -7.301  -6.760   3.014  1.00  0.00     0.010 A 
ATOM     35  C   UNL     1      -8.415  -7.178   2.272  1.00  0.00    -0.014 A 
BRANCH  35  36
ATOM     36  C   UNL     1      -8.911  -8.571   2.416  1.00  0.00     0.031 A 
ATOM     37  C   UNL     1      -9.405  -9.057   3.752  1.00  0.00     0.074 A 
ATOM     38  C   UNL     1      -8.864  -9.412   1.364  1.00  0.00     0.049 A 
ATOM     39  N   UNL     1      -9.814 -10.250   4.099  1.00  0.00    -0.248 NA
ATOM     40  C   UNL     1      -9.406  -8.078   4.848  1.00  0.00     0.031 C 
ATOM     41  C   UNL     1      -8.371  -9.068   0.029  1.00  0.00     0.029 A 
ATOM     42  N   UNL     1      -9.231 -10.729   1.251  1.00  0.00    -0.354 N 
ATOM     43  C   UNL     1     -10.111 -10.167   5.456  1.00  0.00     0.074 A 
ATOM     44  C   UNL     1      -9.759  -8.829   5.879  1.00  0.00     0.031 C 
ATOM     45  C   UNL     1      -8.500 -10.134  -0.776  1.00  0.00     0.029 A 
ATOM     46  C   UNL     1      -9.033 -11.253  -0.005  1.00  0.00     0.049 A 
ATOM     47  H   UNL     1      -9.601 -11.251   2.000  1.00  0.00     0.167 HD
ATOM     48  C   UNL     1     -10.652 -11.111   6.266  1.00  0.00     0.034 A 
ATOM     49  C   UNL     1      -9.246 -12.497  -0.480  1.00  0.00     0.034 A 
ATOM     50  C   UNL     1     -11.000 -12.439   5.824  1.00  0.00     0.049 A 
ATOM     51  C   UNL     1      -9.806 -13.544   0.449  1.00  0.00     0.074 A 
ATOM     52  C   UNL     1     -11.598 -13.458   6.544  1.00  0.00     0.029 A 
ATOM     53  N   UNL     1     -10.769 -12.940   4.548  1.00  0.00    -0.354 N 
ATOM     54  N   UNL     1     -10.129 -13.437   1.717  1.00  0.00    -0.248 NA
ATOM     55  C   UNL     1     -10.040 -14.877  -0.122  1.00  0.00     0.031 C 
ATOM     56  C   UNL     1     -11.652 -14.596   5.733  1.00  0.00     0.029 A 
ATOM     57  C   UNL     1     -11.175 -14.264   4.474  1.00  0.00     0.049 A 
ATOM     58  H   UNL     1     -10.374 -12.430   3.805  1.00  0.00     0.167 HD
ATOM     59  C   UNL     1     -10.637 -14.680   2.086  1.00  0.00     0.074 A 
ATOM     60  C   UNL     1     -10.588 -15.514   0.902  1.00  0.00     0.031 C 
ATOM     61  C   UNL     1     -11.108 -15.092   3.291  1.00  0.00     0.034 A 
BRANCH  48  62
ATOM     62  C   UNL     1     -10.867 -10.738   7.716  1.00  0.00     0.023 A 
ATOM     63  C   UNL     1     -11.704  -9.671   8.089  1.00  0.00     0.031 A 
ATOM     64  C   UNL     1     -10.190 -11.425   8.739  1.00  0.00     0.131 A 
ATOM     65  C   UNL     1     -11.766  -9.262   9.429  1.00  0.00     0.055 A 
ATOM     66  C   UNL     1     -10.333 -11.075  10.083  1.00  0.00     0.041 A 
ATOM     67  F   UNL     1      -9.359 -12.439   8.448  1.00  0.00    -0.206 F 
ATOM     68  C   UNL     1     -11.109  -9.974  10.433  1.00  0.00     0.022 A 
BRANCH  65  69
ATOM     69  S   UNL     1     -12.569  -7.681   9.811  1.00  0.00     0.124 S 
ATOM     70  O   UNL     1     -11.809  -6.754   8.975  1.00  0.00    -0.237 OA
ATOM     71  O   UNL     1     -13.949  -7.922   9.405  1.00  0.00    -0.237 OA
ATOM     72  O   UNL     1     -12.357  -7.527  11.249  1.00  0.00    -0.744 OA
ENDBRANCH  65  69
ENDBRANCH  48  62
BRANCH  49  73
ATOM     73  C   UNL     1      -8.927 -12.826  -1.900  1.00  0.00     0.023 A 
ATOM     74  C   UNL     1      -9.938 -13.197  -2.801  1.00  0.00     0.031 A 
ATOM     75  C   UNL     1      -7.602 -12.804  -2.369  1.00  0.00     0.131 A 
ATOM     76  C   UNL     1      -9.604 -13.573  -4.111  1.00  0.00     0.055 A 
ATOM     77  C   UNL     1      -7.280 -13.125  -3.689  1.00  0.00     0.041 A 
ATOM     78  F   UNL     1      -6.597 -12.453  -1.551  1.00  0.00    -0.206 F 
ATOM     79  C   UNL     1      -8.284 -13.524  -4.566  1.00  0.00     0.022 A 
BRANCH  76  80
ATOM     80  S   UNL     1     -10.914 -14.206  -5.194  1.00  0.00     0.124 S 
ATOM     81  O   UNL     1     -11.391 -15.358  -4.439  1.00  0.00    -0.237 OA
ATOM     82  O   UNL     1     -11.821 -13.066  -5.271  1.00  0.00    -0.237 OA
ATOM     83  O   UNL     1     -10.206 -14.521  -6.434  1.00  0.00    -0.744 OA
ENDBRANCH  76  80
ENDBRANCH  49  73
BRANCH  61  84
ATOM     84  C   UNL     1     -11.655 -16.498   3.374  1.00  0.00     0.023 A 
ATOM     85  C   UNL     1     -10.836 -17.628   3.197  1.00  0.00     0.031 A 
ATOM     86  C   UNL     1     -13.023 -16.709   3.627  1.00  0.00     0.131 A 
ATOM     87  C   UNL     1     -11.402 -18.912   3.217  1.00  0.00     0.055 A 
ATOM     88  C   UNL     1     -13.567 -17.991   3.715  1.00  0.00     0.041 A 
ATOM     89  F   UNL     1     -13.855 -15.669   3.798  1.00  0.00    -0.206 F 
ATOM     90  C   UNL     1     -12.758 -19.101   3.495  1.00  0.00     0.022 A 
BRANCH  87  91
ATOM     91  S   UNL     1     -10.363 -20.328   2.767  1.00  0.00     0.124 S 
ATOM     92  O   UNL     1      -9.915 -19.962   1.428  1.00  0.00    -0.237 OA
ATOM     93  O   UNL     1      -9.341 -20.309   3.809  1.00  0.00    -0.237 OA
ATOM     94  O   UNL     1     -11.284 -21.462   2.825  1.00  0.00    -0.744 OA
ENDBRANCH  87  91
ENDBRANCH  61  84
ENDBRANCH  35  36
ENDBRANCH  27  30
ENDBRANCH  25  26
ENDBRANCH  24  25
ENDBRANCH  23  24
ENDBRANCH   1  23
TORSDOF 20
