REMARK SMILES [NH3+]C1(CC(=O)N[C@@H]2CCCC[C@H]2C(=O)NCCCCNC(=O)c2ccc(-c3c4nc(c(-c5cc(S(=O)(=O)[O-])ccc5F)c5ccc([nH]5)c(-c5cc(S(=O)(=O)[O-])ccc5F)c5nc(c(-c6cc(S(=O)(=O)[O-])ccc6F)c6ccc3[nH]6)C=C5)C=C4)cc2)CCC1
REMARK SMILES IDX 17 1 16 2 15 3 13 4 14 5 12 7 7 8 8 9 9 10 11 11 10 12 6 13
REMARK SMILES IDX 4 14 5 15 3 17 2 18 86 19 88 20 87 21 1 22 18 26 19 27 20 28
REMARK SMILES IDX 21 29 22 31 23 32 24 33 85 34 25 35 84 36 26 37 27 38 28 39
REMARK SMILES IDX 78 40 29 41 83 42 77 43 79 44 30 45 82 46 76 47 75 48 31 50
REMARK SMILES IDX 63 51 43 52 62 53 44 54 47 55 61 56 80 57 45 58 46 59 60 61
REMARK SMILES IDX 81 62 48 63 32 64 33 65 41 66 34 67 40 68 42 69 39 70 35 71
REMARK SMILES IDX 36 72 37 73 38 74 64 75 65 76 73 77 66 78 72 79 74 80 71 81
REMARK SMILES IDX 67 82 68 83 69 84 70 85 49 86 50 87 58 88 51 89 57 90 59 91
REMARK SMILES IDX 56 92 52 93 53 94 54 95 55 96
REMARK H PARENT 15 6 6 16 1 23 1 24 1 25 20 30 79 49 47 60
REMARK Flexibility Score: inf
ROOT
ATOM      1  C   UNL     1      -2.200   0.758  -6.557  1.00  0.00     0.023 C 
ENDROOT
BRANCH   1   2
ATOM      2  C   UNL     1      -2.466  -0.535  -5.795  1.00  0.00     0.116 C 
BRANCH   2   3
ATOM      3  N   UNL     1      -1.248  -1.121  -5.283  1.00  0.00    -0.356 N 
ATOM      4  C   UNL     1      -0.856  -1.389  -4.016  1.00  0.00     0.225 C 
ATOM      5  O   UNL     1       0.176  -2.050  -3.878  1.00  0.00    -0.275 OA
ATOM      6  H   UNL     1      -0.592  -1.368  -5.974  1.00  0.00     0.163 HD
BRANCH   4   7
ATOM      7  C   UNL     1      -1.685  -0.983  -2.808  1.00  0.00     0.101 C 
ATOM      8  C   UNL     1      -1.937   0.529  -2.657  1.00  0.00     0.094 C 
ATOM      9  C   UNL     1      -3.046   0.848  -1.636  1.00  0.00     0.026 C 
ATOM     10  C   UNL     1      -4.282  -0.023  -1.802  1.00  0.00     0.002 C 
ATOM     11  C   UNL     1      -2.922  -1.899  -2.733  1.00  0.00     0.015 C 
ATOM     12  C   UNL     1      -3.915  -1.488  -1.658  1.00  0.00     0.001 C 
BRANCH   8  13
ATOM     13  N   UNL     1      -0.793   1.411  -2.342  1.00  0.00    -0.352 N 
ATOM     14  C   UNL     1       0.301   1.333  -1.534  1.00  0.00     0.226 C 
ATOM     15  O   UNL     1       0.710   2.398  -1.060  1.00  0.00    -0.275 OA
ATOM     16  H   UNL     1      -0.831   2.262  -2.837  1.00  0.00     0.163 HD
BRANCH  14  17
ATOM     17  C   UNL     1       1.091   0.061  -1.368  1.00  0.00     0.168 C 
BRANCH  17  18
ATOM     18  C   UNL     1       1.025  -0.685  -0.042  1.00  0.00     0.103 C 
ATOM     19  C   UNL     1       1.676  -2.104  -0.097  1.00  0.00     0.069 C 
ATOM     20  C   UNL     1      -0.253  -1.384   0.509  1.00  0.00     0.069 C 
ATOM     21  C   UNL     1       0.258  -2.705  -0.106  1.00  0.00     0.013 C 
BRANCH  18  22
ATOM     22  N   UNL     1       1.639   0.036   1.080  1.00  0.00    -0.352 N 
ATOM     23  H   UNL     1       2.483   0.509   0.758  1.00  0.00     0.344 HD
ATOM     24  H   UNL     1       1.880  -0.624   1.818  1.00  0.00     0.344 HD
ATOM     25  H   UNL     1       0.980   0.726   1.442  1.00  0.00     0.344 HD
ENDBRANCH  18  22
ENDBRANCH  17  18
ENDBRANCH  14  17
ENDBRANCH   8  13
ENDBRANCH   4   7
ENDBRANCH   2   3
ENDBRANCH   1   2
BRANCH   1  26
ATOM     26  C   UNL     1      -1.250   0.622  -7.745  1.00  0.00     0.023 C 
BRANCH  26  27
ATOM     27  C   UNL     1      -1.495  -0.582  -8.645  1.00  0.00     0.116 C 
BRANCH  27  28
ATOM     28  N   UNL     1      -2.882  -0.727  -9.057  1.00  0.00    -0.352 N 
ATOM     29  C   UNL     1      -3.368  -1.198 -10.253  1.00  0.00     0.251 C 
ATOM     30  H   UNL     1      -3.559  -0.454  -8.396  1.00  0.00     0.163 HD
ATOM     31  O   UNL     1      -4.572  -1.240 -10.462  1.00  0.00    -0.269 OA
BRANCH  29  32
ATOM     32  C   UNL     1      -2.396  -1.581 -11.292  1.00  0.00     0.039 A 
ATOM     33  C   UNL     1      -2.439  -0.908 -12.513  1.00  0.00     0.014 A 
ATOM     34  C   UNL     1      -1.386  -2.505 -11.011  1.00  0.00     0.014 A 
ATOM     35  C   UNL     1      -1.419  -1.113 -13.438  1.00  0.00     0.010 A 
ATOM     36  C   UNL     1      -0.333  -2.652 -11.905  1.00  0.00     0.010 A 
ATOM     37  C   UNL     1      -0.340  -1.957 -13.125  1.00  0.00    -0.014 A 
BRANCH  37  38
ATOM     38  C   UNL     1       0.784  -2.133 -14.076  1.00  0.00     0.031 A 
ATOM     39  C   UNL     1       1.017  -3.478 -14.703  1.00  0.00     0.074 A 
ATOM     40  C   UNL     1       1.614  -1.102 -14.327  1.00  0.00     0.049 A 
ATOM     41  N   UNL     1       1.971  -3.861 -15.509  1.00  0.00    -0.248 NA
ATOM     42  C   UNL     1       0.066  -4.542 -14.345  1.00  0.00     0.031 C 
ATOM     43  C   UNL     1       1.506   0.234 -13.736  1.00  0.00     0.029 A 
ATOM     44  N   UNL     1       2.715  -1.016 -15.140  1.00  0.00    -0.354 N 
ATOM     45  C   UNL     1       1.745  -5.212 -15.745  1.00  0.00     0.074 A 
ATOM     46  C   UNL     1       0.604  -5.594 -14.941  1.00  0.00     0.031 C 
ATOM     47  C   UNL     1       2.485   1.012 -14.226  1.00  0.00     0.029 A 
ATOM     48  C   UNL     1       3.312   0.223 -15.133  1.00  0.00     0.049 A 
ATOM     49  H   UNL     1       3.047  -1.770 -15.679  1.00  0.00     0.167 HD
ATOM     50  C   UNL     1       2.412  -6.050 -16.576  1.00  0.00     0.034 A 
ATOM     51  C   UNL     1       4.407   0.667 -15.782  1.00  0.00     0.034 A 
ATOM     52  C   UNL     1       3.537  -5.641 -17.380  1.00  0.00     0.049 A 
ATOM     53  C   UNL     1       5.139  -0.284 -16.695  1.00  0.00     0.074 A 
ATOM     54  C   UNL     1       4.257  -6.384 -18.299  1.00  0.00     0.029 A 
ATOM     55  N   UNL     1       4.110  -4.375 -17.356  1.00  0.00    -0.354 N 
ATOM     56  N   UNL     1       4.880  -1.546 -16.951  1.00  0.00    -0.248 NA
ATOM     57  C   UNL     1       6.300   0.252 -17.416  1.00  0.00     0.031 C 
ATOM     58  C   UNL     1       5.300  -5.587 -18.785  1.00  0.00     0.029 A 
ATOM     59  C   UNL     1       5.190  -4.324 -18.224  1.00  0.00     0.049 A 
ATOM     60  H   UNL     1       3.795  -3.623 -16.804  1.00  0.00     0.167 HD
ATOM     61  C   UNL     1       5.831  -1.946 -17.886  1.00  0.00     0.074 A 
ATOM     62  C   UNL     1       6.657  -0.786 -18.157  1.00  0.00     0.031 C 
ATOM     63  C   UNL     1       6.006  -3.158 -18.471  1.00  0.00     0.034 A 
BRANCH  50  64
ATOM     64  C   UNL     1       1.949  -7.485 -16.627  1.00  0.00     0.023 A 
ATOM     65  C   UNL     1       0.657  -7.829 -17.065  1.00  0.00     0.031 A 
ATOM     66  C   UNL     1       2.791  -8.522 -16.189  1.00  0.00     0.131 A 
ATOM     67  C   UNL     1       0.216  -9.157 -16.974  1.00  0.00     0.055 A 
ATOM     68  C   UNL     1       2.375  -9.855 -16.183  1.00  0.00     0.041 A 
ATOM     69  F   UNL     1       4.027  -8.256 -15.740  1.00  0.00    -0.206 F 
ATOM     70  C   UNL     1       1.074 -10.177 -16.560  1.00  0.00     0.022 A 
BRANCH  67  71
ATOM     71  S   UNL     1      -1.542  -9.505 -17.259  1.00  0.00     0.124 S 
ATOM     72  O   UNL     1      -2.175  -8.684 -16.229  1.00  0.00    -0.237 OA
ATOM     73  O   UNL     1      -1.732  -9.063 -18.635  1.00  0.00    -0.237 OA
ATOM     74  O   UNL     1      -1.644 -10.947 -17.046  1.00  0.00    -0.744 OA
ENDBRANCH  67  71
ENDBRANCH  50  64
BRANCH  51  75
ATOM     75  C   UNL     1       4.883   2.067 -15.595  1.00  0.00     0.023 A 
ATOM     76  C   UNL     1       4.871   2.983 -16.659  1.00  0.00     0.031 A 
ATOM     77  C   UNL     1       5.394   2.500 -14.358  1.00  0.00     0.131 A 
ATOM     78  C   UNL     1       5.402   4.271 -16.480  1.00  0.00     0.055 A 
ATOM     79  C   UNL     1       5.876   3.797 -14.172  1.00  0.00     0.041 A 
ATOM     80  F   UNL     1       5.421   1.666 -13.306  1.00  0.00    -0.206 F 
ATOM     81  C   UNL     1       5.894   4.687 -15.241  1.00  0.00     0.022 A 
BRANCH  78  82
ATOM     82  S   UNL     1       5.511   5.372 -17.918  1.00  0.00     0.124 S 
ATOM     83  O   UNL     1       6.323   4.582 -18.837  1.00  0.00    -0.237 OA
ATOM     84  O   UNL     1       4.107   5.537 -18.279  1.00  0.00    -0.237 OA
ATOM     85  O   UNL     1       6.159   6.568 -17.381  1.00  0.00    -0.744 OA
ENDBRANCH  78  82
ENDBRANCH  51  75
BRANCH  63  86
ATOM     86  C   UNL     1       7.108  -3.269 -19.493  1.00  0.00     0.023 A 
ATOM     87  C   UNL     1       8.463  -3.182 -19.131  1.00  0.00     0.031 A 
ATOM     88  C   UNL     1       6.794  -3.457 -20.851  1.00  0.00     0.131 A 
ATOM     89  C   UNL     1       9.454  -3.231 -20.122  1.00  0.00     0.055 A 
ATOM     90  C   UNL     1       7.787  -3.563 -21.825  1.00  0.00     0.041 A 
ATOM     91  F   UNL     1       5.515  -3.545 -21.250  1.00  0.00    -0.206 F 
ATOM     92  C   UNL     1       9.125  -3.437 -21.465  1.00  0.00     0.022 A 
BRANCH  89  93
ATOM     93  S   UNL     1      11.179  -2.938 -19.644  1.00  0.00     0.124 S 
ATOM     94  O   UNL     1      11.109  -1.599 -19.066  1.00  0.00    -0.237 OA
ATOM     95  O   UNL     1      11.432  -4.025 -18.704  1.00  0.00    -0.237 OA
ATOM     96  O   UNL     1      11.906  -3.030 -20.909  1.00  0.00    -0.744 OA
ENDBRANCH  89  93
ENDBRANCH  63  86
ENDBRANCH  37  38
ENDBRANCH  29  32
ENDBRANCH  27  28
ENDBRANCH  26  27
ENDBRANCH   1  26
TORSDOF 18
