REMARK SMILES CC[C@@]1(C(=O)NCCCCNC(=O)c2ccc(-c3c4nc(c(-c5cc(S(=O)(=O)[O-])ccc5F)c5ccc([nH]5)c(-c5cc(S(=O)(=O)[O-])ccc5F)c5nc(c(-c6cc(S(=O)(=O)[O-])ccc6F)c6ccc3[nH]6)C=C5)C=C4)cc2)CCC[N@@H+](Cc2ccc(C3CC3)cc2)C1
REMARK SMILES IDX 8 1 7 2 6 3 4 4 5 5 3 7 77 8 91 9 78 10 80 11 79 12 2 14
REMARK SMILES IDX 1 15 81 16 82 17 83 18 90 19 84 20 89 21 85 22 86 23 87 24
REMARK SMILES IDX 88 25 9 26 10 27 11 28 12 29 13 31 14 32 15 33 76 34 16 35
REMARK SMILES IDX 75 36 17 37 18 38 19 39 69 40 20 41 74 42 68 43 70 44 21 45
REMARK SMILES IDX 73 46 67 47 66 48 22 50 54 51 34 52 53 53 35 54 38 55 52 56
REMARK SMILES IDX 71 57 36 58 37 59 51 61 72 62 39 63 23 64 24 65 32 66 25 67
REMARK SMILES IDX 31 68 33 69 30 70 26 71 27 72 28 73 29 74 55 75 56 76 64 77
REMARK SMILES IDX 57 78 63 79 65 80 62 81 58 82 59 83 60 84 61 85 40 86 41 87
REMARK SMILES IDX 49 88 42 89 48 90 50 91 47 92 43 93 44 94 45 95 46 96
REMARK H PARENT 6 6 80 13 11 30 70 49 38 60
REMARK Flexibility Score: inf
ROOT
ATOM      1  C   UNL     1      -1.460   0.771   1.648  1.00  0.00     0.023 C 
ENDROOT
BRANCH   1   2
ATOM      2  C   UNL     1      -1.501  -0.546   0.887  1.00  0.00     0.116 C 
BRANCH   2   3
ATOM      3  N   UNL     1      -0.490  -0.645  -0.142  1.00  0.00    -0.355 N 
ATOM      4  C   UNL     1       0.464  -1.572  -0.417  1.00  0.00     0.231 C 
ATOM      5  O   UNL     1       0.950  -1.480  -1.555  1.00  0.00    -0.274 OA
ATOM      6  H   UNL     1      -0.494   0.112  -0.771  1.00  0.00     0.163 HD
BRANCH   4   7
ATOM      7  C   UNL     1       1.100  -2.560   0.601  1.00  0.00     0.098 C 
ATOM      8  C   UNL     1       1.480  -3.856  -0.176  1.00  0.00     0.028 C 
ATOM      9  C   UNL     1       0.252  -3.036   1.791  1.00  0.00     0.279 C 
ATOM     10  C   UNL     1       0.230  -4.663  -0.555  1.00  0.00     0.063 C 
ATOM     11  N   UNL     1      -0.972  -3.742   1.393  1.00  0.00    -0.330 N 
ATOM     12  C   UNL     1      -0.657  -4.968   0.658  1.00  0.00     0.262 C 
ATOM     13  H   UNL     1      -1.465  -3.124   0.749  1.00  0.00     0.348 HD
BRANCH   7  14
ATOM     14  C   UNL     1       2.404  -1.830   1.076  1.00  0.00     0.019 C 
ATOM     15  C   UNL     1       2.922  -2.162   2.472  1.00  0.00     0.005 C 
ENDBRANCH   7  14
BRANCH  11  16
ATOM     16  C   UNL     1      -1.942  -3.938   2.487  1.00  0.00     0.299 C 
BRANCH  16  17
ATOM     17  C   UNL     1      -1.456  -4.668   3.719  1.00  0.00     0.006 A 
ATOM     18  C   UNL     1      -1.843  -5.986   3.971  1.00  0.00     0.010 A 
ATOM     19  C   UNL     1      -0.626  -4.034   4.651  1.00  0.00     0.010 A 
ATOM     20  C   UNL     1      -1.361  -6.663   5.099  1.00  0.00     0.004 A 
ATOM     21  C   UNL     1      -0.125  -4.726   5.755  1.00  0.00     0.004 A 
ATOM     22  C   UNL     1      -0.467  -6.063   6.004  1.00  0.00    -0.045 A 
BRANCH  22  23
ATOM     23  C   UNL     1       0.085  -6.857   7.172  1.00  0.00     0.019 C 
ATOM     24  C   UNL     1       1.518  -6.673   7.616  1.00  0.00     0.009 C 
ATOM     25  C   UNL     1       0.397  -6.200   8.495  1.00  0.00     0.009 C 
ENDBRANCH  22  23
ENDBRANCH  16  17
ENDBRANCH  11  16
ENDBRANCH   4   7
ENDBRANCH   2   3
ENDBRANCH   1   2
BRANCH   1  26
ATOM     26  C   UNL     1      -2.090   1.948   0.910  1.00  0.00     0.023 C 
BRANCH  26  27
ATOM     27  C   UNL     1      -3.515   1.723   0.414  1.00  0.00     0.116 C 
BRANCH  27  28
ATOM     28  N   UNL     1      -4.436   1.273   1.449  1.00  0.00    -0.352 N 
ATOM     29  C   UNL     1      -5.759   1.613   1.618  1.00  0.00     0.251 C 
ATOM     30  H   UNL     1      -4.066   0.645   2.111  1.00  0.00     0.163 HD
ATOM     31  O   UNL     1      -6.381   1.213   2.598  1.00  0.00    -0.269 OA
BRANCH  29  32
ATOM     32  C   UNL     1      -6.398   2.505   0.630  1.00  0.00     0.039 A 
ATOM     33  C   UNL     1      -7.052   3.654   1.077  1.00  0.00     0.014 A 
ATOM     34  C   UNL     1      -6.282   2.241  -0.738  1.00  0.00     0.014 A 
ATOM     35  C   UNL     1      -7.522   4.583   0.147  1.00  0.00     0.010 A 
ATOM     36  C   UNL     1      -6.681   3.203  -1.659  1.00  0.00     0.010 A 
ATOM     37  C   UNL     1      -7.303   4.385  -1.226  1.00  0.00    -0.014 A 
BRANCH  37  38
ATOM     38  C   UNL     1      -7.723   5.396  -2.231  1.00  0.00     0.031 A 
ATOM     39  C   UNL     1      -8.764   5.041  -3.256  1.00  0.00     0.074 A 
ATOM     40  C   UNL     1      -7.115   6.598  -2.267  1.00  0.00     0.049 A 
ATOM     41  N   UNL     1      -9.203   5.741  -4.270  1.00  0.00    -0.248 NA
ATOM     42  C   UNL     1      -9.362   3.702  -3.144  1.00  0.00     0.031 C 
ATOM     43  C   UNL     1      -6.053   7.038  -1.359  1.00  0.00     0.029 A 
ATOM     44  N   UNL     1      -7.294   7.667  -3.108  1.00  0.00    -0.354 N 
ATOM     45  C   UNL     1     -10.114   4.921  -4.928  1.00  0.00     0.074 A 
ATOM     46  C   UNL     1     -10.108   3.650  -4.236  1.00  0.00     0.031 C 
ATOM     47  C   UNL     1      -5.695   8.293  -1.677  1.00  0.00     0.029 A 
ATOM     48  C   UNL     1      -6.470   8.733  -2.833  1.00  0.00     0.049 A 
ATOM     49  H   UNL     1      -7.952   7.670  -3.841  1.00  0.00     0.167 HD
ATOM     50  C   UNL     1     -10.900   5.210  -5.995  1.00  0.00     0.034 A 
ATOM     51  C   UNL     1      -6.349   9.926  -3.446  1.00  0.00     0.034 A 
ATOM     52  C   UNL     1     -10.904   6.489  -6.662  1.00  0.00     0.049 A 
ATOM     53  C   UNL     1      -7.234  10.230  -4.627  1.00  0.00     0.074 A 
ATOM     54  C   UNL     1     -11.693   6.912  -7.717  1.00  0.00     0.029 A 
ATOM     55  N   UNL     1     -10.072   7.555  -6.338  1.00  0.00    -0.354 N 
ATOM     56  N   UNL     1      -8.126   9.462  -5.210  1.00  0.00    -0.248 NA
ATOM     57  C   UNL     1      -7.106  11.566  -5.223  1.00  0.00     0.031 C 
ATOM     58  C   UNL     1     -11.302   8.210  -8.067  1.00  0.00     0.029 A 
ATOM     59  C   UNL     1     -10.316   8.625  -7.186  1.00  0.00     0.049 A 
ATOM     60  H   UNL     1      -9.407   7.551  -5.613  1.00  0.00     0.167 HD
ATOM     61  C   UNL     1      -8.688  10.236  -6.222  1.00  0.00     0.074 A 
ATOM     62  C   UNL     1      -8.042  11.531  -6.161  1.00  0.00     0.031 C 
ATOM     63  C   UNL     1      -9.656   9.908  -7.116  1.00  0.00     0.034 A 
BRANCH  50  64
ATOM     64  C   UNL     1     -11.798   4.108  -6.506  1.00  0.00     0.023 A 
ATOM     65  C   UNL     1     -12.803   3.543  -5.701  1.00  0.00     0.031 A 
ATOM     66  C   UNL     1     -11.612   3.574  -7.794  1.00  0.00     0.131 A 
ATOM     67  C   UNL     1     -13.515   2.421  -6.150  1.00  0.00     0.055 A 
ATOM     68  C   UNL     1     -12.388   2.514  -8.270  1.00  0.00     0.041 A 
ATOM     69  F   UNL     1     -10.657   4.057  -8.604  1.00  0.00    -0.206 F 
ATOM     70  C   UNL     1     -13.333   1.919  -7.440  1.00  0.00     0.022 A 
BRANCH  67  71
ATOM     71  S   UNL     1     -14.559   1.530  -4.964  1.00  0.00     0.124 S 
ATOM     72  O   UNL     1     -13.588   1.162  -3.936  1.00  0.00    -0.237 OA
ATOM     73  O   UNL     1     -15.540   2.540  -4.585  1.00  0.00    -0.237 OA
ATOM     74  O   UNL     1     -15.084   0.410  -5.744  1.00  0.00    -0.744 OA
ENDBRANCH  67  71
ENDBRANCH  50  64
BRANCH  51  75
ATOM     75  C   UNL     1      -5.360  10.929  -2.958  1.00  0.00     0.023 A 
ATOM     76  C   UNL     1      -5.784  12.138  -2.384  1.00  0.00     0.031 A 
ATOM     77  C   UNL     1      -3.978  10.706  -3.086  1.00  0.00     0.131 A 
ATOM     78  C   UNL     1      -4.836  13.099  -1.999  1.00  0.00     0.055 A 
ATOM     79  C   UNL     1      -3.038  11.646  -2.659  1.00  0.00     0.041 A 
ATOM     80  F   UNL     1      -3.522   9.562  -3.619  1.00  0.00    -0.206 F 
ATOM     81  C   UNL     1      -3.466  12.857  -2.122  1.00  0.00     0.022 A 
BRANCH  78  82
ATOM     82  S   UNL     1      -5.425  14.704  -1.393  1.00  0.00     0.124 S 
ATOM     83  O   UNL     1      -6.201  15.185  -2.530  1.00  0.00    -0.237 OA
ATOM     84  O   UNL     1      -6.189  14.320  -0.210  1.00  0.00    -0.237 OA
ATOM     85  O   UNL     1      -4.191  15.439  -1.122  1.00  0.00    -0.744 OA
ENDBRANCH  78  82
ENDBRANCH  51  75
BRANCH  63  86
ATOM     86  C   UNL     1     -10.104  10.993  -8.064  1.00  0.00     0.023 A 
ATOM     87  C   UNL     1      -9.259  11.495  -9.069  1.00  0.00     0.031 A 
ATOM     88  C   UNL     1     -11.393  11.541  -7.946  1.00  0.00     0.131 A 
ATOM     89  C   UNL     1      -9.695  12.553  -9.882  1.00  0.00     0.055 A 
ATOM     90  C   UNL     1     -11.841  12.554  -8.794  1.00  0.00     0.041 A 
ATOM     91  F   UNL     1     -12.240  11.099  -7.002  1.00  0.00    -0.206 F 
ATOM     92  C   UNL     1     -10.985  13.075  -9.761  1.00  0.00     0.022 A 
BRANCH  89  93
ATOM     93  S   UNL     1      -8.519  13.300 -11.043  1.00  0.00     0.124 S 
ATOM     94  O   UNL     1      -7.444  13.728 -10.154  1.00  0.00    -0.237 OA
ATOM     95  O   UNL     1      -8.207  12.186 -11.932  1.00  0.00    -0.237 OA
ATOM     96  O   UNL     1      -9.284  14.385 -11.656  1.00  0.00    -0.744 OA
ENDBRANCH  89  93
ENDBRANCH  63  86
ENDBRANCH  37  38
ENDBRANCH  29  32
ENDBRANCH  27  28
ENDBRANCH  26  27
ENDBRANCH   1  26
TORSDOF 18
