REMARK SMILES C[C@H]1CC[C@@H](C2(C(=O)NCCCCNC(=O)c3ccc(-c4c5nc(c(-c6cc(S(=O)(=O)[O-])ccc6F)c6ccc([nH]6)c(-c6cc(S(=O)(=O)[O-])ccc6F)c6nc(c(-c7cc(S(=O)(=O)[O-])ccc7F)c7ccc4[nH]7)C=C6)C=C5)cc3)CCCCC2)C[C@@H]1C
REMARK SMILES IDX 12 1 11 2 10 3 9 4 7 5 8 6 6 8 80 9 84 10 81 11 83 12 82 13
REMARK SMILES IDX 5 14 1 15 2 16 3 17 86 18 4 19 85 20 87 21 13 22 14 23 15 24
REMARK SMILES IDX 16 26 17 27 18 28 79 29 19 30 78 31 20 32 21 33 22 34 72 35
REMARK SMILES IDX 23 36 77 37 71 38 73 39 24 40 76 41 70 42 69 43 25 45 57 46
REMARK SMILES IDX 37 47 56 48 38 49 41 50 55 51 74 52 39 53 40 54 54 56 75 57
REMARK SMILES IDX 42 58 26 59 27 60 35 61 28 62 34 63 36 64 33 65 29 66 30 67
REMARK SMILES IDX 31 68 32 69 58 70 59 71 67 72 60 73 66 74 68 75 65 76 61 77
REMARK SMILES IDX 62 78 63 79 64 80 43 81 44 82 52 83 45 84 51 85 53 86 50 87
REMARK SMILES IDX 46 88 47 89 48 90 49 91
REMARK H PARENT 9 7 14 25 73 44 41 55
REMARK Flexibility Score: inf
ROOT
ATOM      1  C   UNL     1      -1.883  -4.264   6.652  1.00  0.00     0.023 C 
ENDROOT
BRANCH   1   2
ATOM      2  C   UNL     1      -2.870  -4.400   5.489  1.00  0.00     0.023 C 
BRANCH   2   3
ATOM      3  C   UNL     1      -3.435  -3.072   4.981  1.00  0.00     0.116 C 
BRANCH   3   4
ATOM      4  N   UNL     1      -2.360  -2.212   4.534  1.00  0.00    -0.356 N 
ATOM      5  C   UNL     1      -1.816  -1.979   3.314  1.00  0.00     0.226 C 
ATOM      6  O   UNL     1      -0.635  -1.646   3.376  1.00  0.00    -0.274 OA
ATOM      7  H   UNL     1      -1.940  -1.694   5.259  1.00  0.00     0.163 HD
BRANCH   5   8
ATOM      8  C   UNL     1      -2.598  -2.124   1.982  1.00  0.00     0.052 C 
ATOM      9  C   UNL     1      -3.956  -1.360   2.160  1.00  0.00     0.017 C 
ATOM     10  C   UNL     1      -2.866  -3.643   1.743  1.00  0.00     0.017 C 
ATOM     11  C   UNL     1      -5.017  -1.700   1.118  1.00  0.00     0.001 C 
ATOM     12  C   UNL     1      -3.966  -3.947   0.728  1.00  0.00     0.001 C 
ATOM     13  C   UNL     1      -5.254  -3.201   1.051  1.00  0.00     0.000 C 
BRANCH   8  14
ATOM     14  C   UNL     1      -1.835  -1.519   0.699  1.00  0.00     0.005 C 
ATOM     15  C   UNL     1       1.948   0.063   2.190  1.00  0.00     0.008 C 
ATOM     16  C   UNL     1       0.879  -0.193   1.114  1.00  0.00    -0.011 C 
ATOM     17  C   UNL     1       0.751  -1.718   0.911  1.00  0.00     0.004 C 
ATOM     18  C   UNL     1      -0.445   0.538   1.458  1.00  0.00    -0.011 C 
ATOM     19  C   UNL     1      -0.525  -2.183   0.224  1.00  0.00     0.005 C 
ATOM     20  C   UNL     1      -1.624   0.009   0.635  1.00  0.00     0.008 C 
ATOM     21  C   UNL     1      -0.336   2.058   1.256  1.00  0.00     0.008 C 
ENDBRANCH   8  14
ENDBRANCH   5   8
ENDBRANCH   3   4
ENDBRANCH   2   3
ENDBRANCH   1   2
BRANCH   1  22
ATOM     22  C   UNL     1      -2.362  -3.386   7.802  1.00  0.00     0.116 C 
BRANCH  22  23
ATOM     23  N   UNL     1      -3.663  -3.795   8.304  1.00  0.00    -0.352 N 
ATOM     24  C   UNL     1      -4.064  -4.005   9.598  1.00  0.00     0.251 C 
ATOM     25  H   UNL     1      -4.354  -3.943   7.619  1.00  0.00     0.163 HD
ATOM     26  O   UNL     1      -5.163  -4.507   9.822  1.00  0.00    -0.269 OA
BRANCH  24  27
ATOM     27  C   UNL     1      -3.154  -3.657  10.706  1.00  0.00     0.039 A 
ATOM     28  C   UNL     1      -2.947  -4.590  11.722  1.00  0.00     0.014 A 
ATOM     29  C   UNL     1      -2.485  -2.429  10.724  1.00  0.00     0.014 A 
ATOM     30  C   UNL     1      -2.021  -4.316  12.729  1.00  0.00     0.010 A 
ATOM     31  C   UNL     1      -1.506  -2.192  11.684  1.00  0.00     0.010 A 
ATOM     32  C   UNL     1      -1.265  -3.132  12.697  1.00  0.00    -0.014 A 
BRANCH  32  33
ATOM     33  C   UNL     1      -0.216  -2.869  13.717  1.00  0.00     0.031 A 
ATOM     34  C   UNL     1      -0.353  -1.698  14.653  1.00  0.00     0.074 A 
ATOM     35  C   UNL     1       0.878  -3.656  13.763  1.00  0.00     0.049 A 
ATOM     36  N   UNL     1       0.474  -1.278  15.575  1.00  0.00    -0.248 NA
ATOM     37  C   UNL     1      -1.567  -0.876  14.519  1.00  0.00     0.031 C 
ATOM     38  C   UNL     1       1.135  -4.798  12.880  1.00  0.00     0.029 A 
ATOM     39  N   UNL     1       1.981  -3.619  14.579  1.00  0.00    -0.354 N 
ATOM     40  C   UNL     1      -0.107  -0.137  16.117  1.00  0.00     0.074 A 
ATOM     41  C   UNL     1      -1.335   0.097  15.389  1.00  0.00     0.031 C 
ATOM     42  C   UNL     1       2.301  -5.368  13.223  1.00  0.00     0.029 A 
ATOM     43  C   UNL     1       2.904  -4.605  14.311  1.00  0.00     0.049 A 
ATOM     44  H   UNL     1       2.100  -2.950  15.291  1.00  0.00     0.167 HD
ATOM     45  C   UNL     1       0.338   0.634  17.139  1.00  0.00     0.034 A 
ATOM     46  C   UNL     1       4.106  -4.855  14.869  1.00  0.00     0.034 A 
ATOM     47  C   UNL     1       1.552   0.370  17.870  1.00  0.00     0.049 A 
ATOM     48  C   UNL     1       4.583  -3.961  15.989  1.00  0.00     0.074 A 
ATOM     49  C   UNL     1       2.051   1.040  18.974  1.00  0.00     0.029 A 
ATOM     50  N   UNL     1       2.465  -0.631  17.567  1.00  0.00    -0.354 N 
ATOM     51  N   UNL     1       3.980  -2.933  16.541  1.00  0.00    -0.248 NA
ATOM     52  C   UNL     1       5.897  -4.269  16.570  1.00  0.00     0.031 C 
ATOM     53  C   UNL     1       3.302   0.501  19.285  1.00  0.00     0.029 A 
ATOM     54  C   UNL     1       3.544  -0.567  18.435  1.00  0.00     0.049 A 
ATOM     55  H   UNL     1       2.361  -1.289  16.843  1.00  0.00     0.167 HD
ATOM     56  C   UNL     1       4.826  -2.501  17.561  1.00  0.00     0.074 A 
ATOM     57  C   UNL     1       5.967  -3.392  17.559  1.00  0.00     0.031 C 
ATOM     58  C   UNL     1       4.674  -1.464  18.423  1.00  0.00     0.034 A 
BRANCH  45  59
ATOM     59  C   UNL     1      -0.470   1.854  17.511  1.00  0.00     0.023 A 
ATOM     60  C   UNL     1      -1.769   1.757  18.038  1.00  0.00     0.031 A 
ATOM     61  C   UNL     1       0.087   3.137  17.361  1.00  0.00     0.131 A 
ATOM     62  C   UNL     1      -2.484   2.923  18.353  1.00  0.00     0.055 A 
ATOM     63  C   UNL     1      -0.601   4.288  17.745  1.00  0.00     0.041 A 
ATOM     64  F   UNL     1       1.315   3.292  16.841  1.00  0.00    -0.206 F 
ATOM     65  C   UNL     1      -1.898   4.186  18.237  1.00  0.00     0.022 A 
BRANCH  62  66
ATOM     66  S   UNL     1      -4.230   2.773  18.820  1.00  0.00     0.124 S 
ATOM     67  O   UNL     1      -4.802   2.151  17.628  1.00  0.00    -0.237 OA
ATOM     68  O   UNL     1      -4.168   1.935  20.011  1.00  0.00    -0.237 OA
ATOM     69  O   UNL     1      -4.643   4.156  19.052  1.00  0.00    -0.744 OA
ENDBRANCH  62  66
ENDBRANCH  45  59
BRANCH  46  70
ATOM     70  C   UNL     1       4.965  -5.976  14.382  1.00  0.00     0.023 A 
ATOM     71  C   UNL     1       5.362  -7.009  15.247  1.00  0.00     0.031 A 
ATOM     72  C   UNL     1       5.482  -5.984  13.074  1.00  0.00     0.131 A 
ATOM     73  C   UNL     1       6.309  -7.955  14.823  1.00  0.00     0.055 A 
ATOM     74  C   UNL     1       6.367  -6.970  12.633  1.00  0.00     0.041 A 
ATOM     75  F   UNL     1       5.140  -5.022  12.201  1.00  0.00    -0.206 F 
ATOM     76  C   UNL     1       6.803  -7.952  13.518  1.00  0.00     0.022 A 
BRANCH  73  77
ATOM     77  S   UNL     1       6.997  -9.100  16.052  1.00  0.00     0.124 S 
ATOM     78  O   UNL     1       7.487  -8.179  17.071  1.00  0.00    -0.237 OA
ATOM     79  O   UNL     1       5.827  -9.894  16.412  1.00  0.00    -0.237 OA
ATOM     80  O   UNL     1       8.030  -9.816  15.307  1.00  0.00    -0.744 OA
ENDBRANCH  73  77
ENDBRANCH  46  70
BRANCH  58  81
ATOM     81  C   UNL     1       5.744  -1.279  19.473  1.00  0.00     0.023 A 
ATOM     82  C   UNL     1       7.065  -0.939  19.136  1.00  0.00     0.031 A 
ATOM     83  C   UNL     1       5.434  -1.460  20.833  1.00  0.00     0.131 A 
ATOM     84  C   UNL     1       8.042  -0.854  20.140  1.00  0.00     0.055 A 
ATOM     85  C   UNL     1       6.394  -1.304  21.833  1.00  0.00     0.041 A 
ATOM     86  F   UNL     1       4.189  -1.789  21.213  1.00  0.00    -0.206 F 
ATOM     87  C   UNL     1       7.710  -1.014  21.488  1.00  0.00     0.022 A 
BRANCH  84  88
ATOM     88  S   UNL     1       9.774  -0.634  19.652  1.00  0.00     0.124 S 
ATOM     89  O   UNL     1       9.998  -1.793  18.794  1.00  0.00    -0.237 OA
ATOM     90  O   UNL     1       9.747   0.661  18.979  1.00  0.00    -0.237 OA
ATOM     91  O   UNL     1      10.495  -0.655  20.924  1.00  0.00    -0.744 OA
ENDBRANCH  84  88
ENDBRANCH  58  81
ENDBRANCH  32  33
ENDBRANCH  24  27
ENDBRANCH  22  23
ENDBRANCH   1  22
TORSDOF 15
