REMARK SMILES O=C(NCCCCNC(=O)[C@H]1c2[nH]cnc2CC[N@H+]1Cc1ccoc1)c1ccc(-c2c3nc(c(-c4cc(S(=O)(=O)[O-])ccc4F)c4ccc([nH]4)c(-c4cc(S(=O)(=O)[O-])ccc4F)c4nc(c(-c5cc(S(=O)(=O)[O-])ccc5F)c5ccc2[nH]5)C=C4)C=C3)cc1
REMARK SMILES IDX 5 1 4 2 3 3 1 4 2 5 26 7 27 8 88 9 28 10 87 11 29 12 30 13
REMARK SMILES IDX 31 14 81 15 32 16 86 17 80 18 82 19 33 20 85 21 79 22 78 23
REMARK SMILES IDX 34 25 66 26 46 27 65 28 47 29 50 30 64 31 83 32 48 33 49 34
REMARK SMILES IDX 63 36 84 37 51 38 35 39 36 40 44 41 37 42 43 43 45 44 42 45
REMARK SMILES IDX 38 46 39 47 40 48 41 49 67 50 68 51 76 52 69 53 75 54 77 55
REMARK SMILES IDX 74 56 70 57 71 58 72 59 73 60 52 61 53 62 61 63 54 64 60 65
REMARK SMILES IDX 62 66 59 67 55 68 56 69 57 70 58 71 6 72 7 73 8 74 9 75
REMARK SMILES IDX 10 77 11 78 12 79 19 80 13 81 16 82 18 83 14 85 15 87 17 88
REMARK SMILES IDX 20 89 21 90 22 91 25 92 23 93 24 94
REMARK H PARENT 3 6 82 24 50 35 8 76 19 84 13 86
REMARK Flexibility Score: inf
ROOT
ATOM      1  C   UNL     1       4.996  -0.619  -1.891  1.00  0.00     0.023 C 
ENDROOT
BRANCH   1   2
ATOM      2  C   UNL     1       4.831   0.517  -0.878  1.00  0.00     0.116 C 
BRANCH   2   3
ATOM      3  N   UNL     1       3.467   0.977  -0.723  1.00  0.00    -0.352 N 
ATOM      4  O   UNL     1       1.401   1.247   0.036  1.00  0.00    -0.269 OA
ATOM      5  C   UNL     1       2.410   0.539   0.025  1.00  0.00     0.251 C 
ATOM      6  H   UNL     1       3.258   1.770  -1.269  1.00  0.00     0.163 HD
BRANCH   5   7
ATOM      7  C   UNL     1       2.389  -0.770   0.722  1.00  0.00     0.039 A 
ATOM      8  C   UNL     1       3.518  -1.518   1.063  1.00  0.00     0.014 A 
ATOM      9  C   UNL     1       1.116  -1.297   0.991  1.00  0.00     0.014 A 
ATOM     10  C   UNL     1       3.393  -2.824   1.499  1.00  0.00     0.010 A 
ATOM     11  C   UNL     1       0.981  -2.584   1.480  1.00  0.00     0.010 A 
ATOM     12  C   UNL     1       2.123  -3.362   1.671  1.00  0.00    -0.014 A 
BRANCH  12  13
ATOM     13  C   UNL     1       2.026  -4.706   2.225  1.00  0.00     0.031 A 
ATOM     14  C   UNL     1       2.540  -4.830   3.626  1.00  0.00     0.074 A 
ATOM     15  C   UNL     1       1.349  -5.667   1.565  1.00  0.00     0.049 A 
ATOM     16  N   UNL     1       3.348  -5.707   4.128  1.00  0.00    -0.248 NA
ATOM     17  C   UNL     1       2.196  -3.746   4.570  1.00  0.00     0.031 C 
ATOM     18  C   UNL     1       0.605  -5.532   0.307  1.00  0.00     0.029 A 
ATOM     19  N   UNL     1       1.044  -6.931   1.957  1.00  0.00    -0.354 N 
ATOM     20  C   UNL     1       3.446  -5.410   5.489  1.00  0.00     0.074 A 
ATOM     21  C   UNL     1       2.858  -4.113   5.665  1.00  0.00     0.031 C 
ATOM     22  C   UNL     1      -0.275  -6.551   0.201  1.00  0.00     0.029 A 
ATOM     23  C   UNL     1      -0.069  -7.466   1.312  1.00  0.00     0.049 A 
ATOM     24  H   UNL     1       1.562  -7.424   2.634  1.00  0.00     0.167 HD
ATOM     25  C   UNL     1       3.806  -6.346   6.410  1.00  0.00     0.034 A 
ATOM     26  C   UNL     1      -0.837  -8.508   1.732  1.00  0.00     0.034 A 
ATOM     27  C   UNL     1       4.554  -7.417   5.803  1.00  0.00     0.049 A 
ATOM     28  C   UNL     1      -0.025  -9.262   2.723  1.00  0.00     0.074 A 
ATOM     29  C   UNL     1       5.754  -7.487   5.122  1.00  0.00     0.029 A 
ATOM     30  N   UNL     1       3.905  -8.596   5.518  1.00  0.00    -0.354 N 
ATOM     31  N   UNL     1       1.089  -9.872   2.417  1.00  0.00    -0.248 NA
ATOM     32  C   UNL     1      -0.168  -8.908   4.129  1.00  0.00     0.031 C 
ATOM     33  C   UNL     1       5.518  -8.418   4.068  1.00  0.00     0.029 A 
ATOM     34  C   UNL     1       4.221  -8.914   4.219  1.00  0.00     0.049 A 
ATOM     35  H   UNL     1       3.326  -9.111   6.125  1.00  0.00     0.167 HD
ATOM     36  C   UNL     1       1.951  -9.602   3.470  1.00  0.00     0.074 A 
ATOM     37  C   UNL     1       1.095  -9.075   4.534  1.00  0.00     0.031 C 
ATOM     38  C   UNL     1       3.305  -9.552   3.294  1.00  0.00     0.034 A 
BRANCH  25  39
ATOM     39  C   UNL     1       3.175  -6.470   7.782  1.00  0.00     0.023 A 
ATOM     40  C   UNL     1       3.627  -7.512   8.614  1.00  0.00     0.031 A 
ATOM     41  C   UNL     1       1.976  -5.839   8.188  1.00  0.00     0.131 A 
ATOM     42  C   UNL     1       2.856  -7.954   9.704  1.00  0.00     0.055 A 
ATOM     43  C   UNL     1       1.246  -6.239   9.311  1.00  0.00     0.041 A 
ATOM     44  F   UNL     1       1.388  -4.869   7.479  1.00  0.00    -0.206 F 
ATOM     45  C   UNL     1       1.665  -7.325  10.056  1.00  0.00     0.022 A 
BRANCH  42  46
ATOM     46  S   UNL     1       3.335  -9.493  10.532  1.00  0.00     0.124 S 
ATOM     47  O   UNL     1       3.499 -10.400   9.402  1.00  0.00    -0.237 OA
ATOM     48  O   UNL     1       4.558  -9.092  11.220  1.00  0.00    -0.237 OA
ATOM     49  O   UNL     1       2.195  -9.779  11.400  1.00  0.00    -0.744 OA
ENDBRANCH  42  46
ENDBRANCH  25  39
BRANCH  26  50
ATOM     50  C   UNL     1      -2.327  -8.583   1.638  1.00  0.00     0.023 A 
ATOM     51  C   UNL     1      -3.052  -9.794   1.673  1.00  0.00     0.031 A 
ATOM     52  C   UNL     1      -3.088  -7.392   1.715  1.00  0.00     0.131 A 
ATOM     53  C   UNL     1      -4.468  -9.775   1.756  1.00  0.00     0.055 A 
ATOM     54  C   UNL     1      -4.483  -7.380   1.788  1.00  0.00     0.041 A 
ATOM     55  F   UNL     1      -2.494  -6.191   1.801  1.00  0.00    -0.206 F 
ATOM     56  C   UNL     1      -5.180  -8.574   1.814  1.00  0.00     0.022 A 
BRANCH  53  57
ATOM     57  S   UNL     1      -5.416 -11.330   1.862  1.00  0.00     0.124 S 
ATOM     58  O   UNL     1      -5.165 -11.935   0.555  1.00  0.00    -0.237 OA
ATOM     59  O   UNL     1      -4.811 -11.990   3.008  1.00  0.00    -0.237 OA
ATOM     60  O   UNL     1      -6.794 -10.879   2.070  1.00  0.00    -0.744 OA
ENDBRANCH  53  57
ENDBRANCH  26  50
BRANCH  38  61
ATOM     61  C   UNL     1       3.880  -9.985   1.958  1.00  0.00     0.023 A 
ATOM     62  C   UNL     1       3.594  -9.362   0.720  1.00  0.00     0.031 A 
ATOM     63  C   UNL     1       4.882 -10.969   1.975  1.00  0.00     0.131 A 
ATOM     64  C   UNL     1       4.300  -9.739  -0.442  1.00  0.00     0.055 A 
ATOM     65  C   UNL     1       5.590 -11.327   0.829  1.00  0.00     0.041 A 
ATOM     66  F   UNL     1       5.226 -11.569   3.127  1.00  0.00    -0.206 F 
ATOM     67  C   UNL     1       5.299 -10.716  -0.386  1.00  0.00     0.022 A 
BRANCH  64  68
ATOM     68  S   UNL     1       3.936  -8.961  -2.051  1.00  0.00     0.124 S 
ATOM     69  O   UNL     1       2.490  -9.101  -2.179  1.00  0.00    -0.237 OA
ATOM     70  O   UNL     1       4.436  -7.600  -1.871  1.00  0.00    -0.237 OA
ATOM     71  O   UNL     1       4.708  -9.765  -3.002  1.00  0.00    -0.744 OA
ENDBRANCH  64  68
ENDBRANCH  38  61
ENDBRANCH  12  13
ENDBRANCH   5   7
ENDBRANCH   2   3
ENDBRANCH   1   2
BRANCH   1  72
ATOM     72  C   UNL     1       4.560  -0.222  -3.302  1.00  0.00     0.023 C 
BRANCH  72  73
ATOM     73  C   UNL     1       5.370   0.948  -3.852  1.00  0.00     0.116 C 
BRANCH  73  74
ATOM     74  N   UNL     1       6.550   0.458  -4.532  1.00  0.00    -0.351 N 
ATOM     75  C   UNL     1       6.935   0.547  -5.834  1.00  0.00     0.284 C 
ATOM     76  H   UNL     1       7.183  -0.023  -3.952  1.00  0.00     0.163 HD
ATOM     77  O   UNL     1       7.893  -0.162  -6.174  1.00  0.00    -0.268 OA
BRANCH  75  78
ATOM     78  C   UNL     1       6.306   1.514  -6.859  1.00  0.00     0.324 C 
ATOM     79  C   UNL     1       4.820   1.459  -6.876  1.00  0.00     0.106 A 
ATOM     80  N   UNL     1       6.778   2.917  -6.719  1.00  0.00    -0.315 N 
ATOM     81  N   UNL     1       4.013   0.357  -6.966  1.00  0.00    -0.343 N 
ATOM     82  C   UNL     1       3.972   2.514  -6.637  1.00  0.00     0.074 A 
ATOM     83  C   UNL     1       5.957   3.824  -5.905  1.00  0.00     0.270 C 
ATOM     84  H   UNL     1       6.550   3.286  -7.642  1.00  0.00     0.349 HD
ATOM     85  C   UNL     1       2.734   0.787  -6.714  1.00  0.00     0.197 A 
ATOM     86  H   UNL     1       4.295  -0.563  -7.171  1.00  0.00     0.167 HD
ATOM     87  N   UNL     1       2.677   2.092  -6.535  1.00  0.00    -0.241 NA
ATOM     88  C   UNL     1       4.465   3.880  -6.342  1.00  0.00     0.120 C 
BRANCH  80  89
ATOM     89  C   UNL     1       8.225   3.123  -6.710  1.00  0.00     0.303 C 
BRANCH  89  90
ATOM     90  C   UNL     1       8.855   3.217  -5.354  1.00  0.00     0.044 A 
ATOM     91  C   UNL     1       9.409   2.173  -4.554  1.00  0.00     0.051 A 
ATOM     92  C   UNL     1       9.136   4.375  -4.650  1.00  0.00     0.204 A 
ATOM     93  C   UNL     1       9.904   2.756  -3.413  1.00  0.00     0.195 A 
ATOM     94  O   UNL     1       9.752   4.102  -3.472  1.00  0.00    -0.472 OA
ENDBRANCH  89  90
ENDBRANCH  80  89
ENDBRANCH  75  78
ENDBRANCH  73  74
ENDBRANCH  72  73
ENDBRANCH   1  72
TORSDOF 16
