REMARK SMILES CC(C)Cc1ccc([C@H](CF)C(=O)NCCCCNC(=O)c2ccc(-c3c4nc(c(-c5cc(S(=O)(=O)[O-])ccc5F)c5ccc([nH]5)c(-c5cc(S(=O)(=O)[O-])ccc5F)c5nc(c(-c6cc(S(=O)(=O)[O-])ccc6F)c6ccc3[nH]6)C=C5)C=C4)cc2)cc1
REMARK SMILES IDX 16 1 15 2 14 3 12 4 13 5 9 7 8 8 5 9 6 10 86 11 7 12 85 13
REMARK SMILES IDX 4 14 2 15 1 16 3 17 10 18 11 19 17 20 18 21 19 22 20 23
REMARK SMILES IDX 21 25 22 26 23 27 84 28 24 29 83 30 25 31 26 32 27 33 77 34
REMARK SMILES IDX 28 35 82 36 76 37 78 38 29 39 81 40 75 41 74 42 30 44 62 45
REMARK SMILES IDX 42 46 61 47 43 48 46 49 60 50 79 51 44 52 45 53 59 55 80 56
REMARK SMILES IDX 47 57 31 58 32 59 40 60 33 61 39 62 41 63 38 64 34 65 35 66
REMARK SMILES IDX 36 67 37 68 63 69 64 70 72 71 65 72 71 73 73 74 70 75 66 76
REMARK SMILES IDX 67 77 68 78 69 79 48 80 49 81 57 82 50 83 56 84 58 85 55 86
REMARK SMILES IDX 51 87 52 88 53 89 54 90
REMARK H PARENT 14 6 19 24 78 43 46 54
REMARK Flexibility Score: inf
ROOT
ATOM      1  C   UNL     1      -0.655   3.805  -3.624  1.00  0.00     0.023 C 
ENDROOT
BRANCH   1   2
ATOM      2  C   UNL     1      -1.009   4.764  -2.494  1.00  0.00     0.116 C 
BRANCH   2   3
ATOM      3  N   UNL     1      -2.429   5.074  -2.455  1.00  0.00    -0.355 N 
ATOM      4  C   UNL     1      -3.256   5.214  -1.374  1.00  0.00     0.230 C 
ATOM      5  O   UNL     1      -4.401   5.624  -1.577  1.00  0.00    -0.274 OA
ATOM      6  H   UNL     1      -2.857   5.202  -3.332  1.00  0.00     0.163 HD
BRANCH   4   7
ATOM      7  C   UNL     1      -2.783   4.863   0.036  1.00  0.00     0.139 C 
BRANCH   7   8
ATOM      8  C   UNL     1      -1.648   5.737   0.574  1.00  0.00    -0.033 A 
ATOM      9  C   UNL     1       0.473   7.340   1.578  1.00  0.00    -0.048 A 
ATOM     10  C   UNL     1      -0.189   7.685   0.398  1.00  0.00     0.004 A 
ATOM     11  C   UNL     1       0.063   6.187   2.257  1.00  0.00     0.004 A 
ATOM     12  C   UNL     1      -1.260   6.922  -0.069  1.00  0.00     0.005 A 
ATOM     13  C   UNL     1      -0.989   5.403   1.767  1.00  0.00     0.005 A 
BRANCH   9  14
ATOM     14  C   UNL     1       1.617   8.174   2.111  1.00  0.00     0.038 C 
BRANCH  14  15
ATOM     15  C   UNL     1       1.413   9.704   2.042  1.00  0.00    -0.013 C 
ATOM     16  C   UNL     1       0.171  10.156   2.815  1.00  0.00     0.008 C 
ATOM     17  C   UNL     1       2.650  10.424   2.582  1.00  0.00     0.008 C 
ENDBRANCH  14  15
ENDBRANCH   9  14
ENDBRANCH   7   8
BRANCH   7  18
ATOM     18  C   UNL     1      -2.536   3.349   0.087  1.00  0.00     0.232 C 
ATOM     19  F   UNL     1      -3.522   2.764   0.828  1.00  0.00    -0.250 F 
ENDBRANCH   7  18
ENDBRANCH   4   7
ENDBRANCH   2   3
ENDBRANCH   1   2
BRANCH   1  20
ATOM     20  C   UNL     1      -0.853   4.369  -5.031  1.00  0.00     0.023 C 
BRANCH  20  21
ATOM     21  C   UNL     1      -0.105   5.667  -5.328  1.00  0.00     0.116 C 
BRANCH  21  22
ATOM     22  N   UNL     1       1.338   5.536  -5.182  1.00  0.00    -0.352 N 
ATOM     23  C   UNL     1       2.329   5.783  -6.104  1.00  0.00     0.251 C 
ATOM     24  H   UNL     1       1.648   5.227  -4.300  1.00  0.00     0.163 HD
ATOM     25  O   UNL     1       3.491   5.476  -5.855  1.00  0.00    -0.269 OA
BRANCH  23  26
ATOM     26  C   UNL     1       1.975   6.384  -7.407  1.00  0.00     0.039 A 
ATOM     27  C   UNL     1       2.399   5.759  -8.582  1.00  0.00     0.014 A 
ATOM     28  C   UNL     1       1.177   7.530  -7.463  1.00  0.00     0.014 A 
ATOM     29  C   UNL     1       1.940   6.227  -9.816  1.00  0.00     0.010 A 
ATOM     30  C   UNL     1       0.668   7.953  -8.688  1.00  0.00     0.010 A 
ATOM     31  C   UNL     1       1.028   7.293  -9.874  1.00  0.00    -0.014 A 
BRANCH  31  32
ATOM     32  C   UNL     1       0.404   7.715 -11.156  1.00  0.00     0.031 A 
ATOM     33  C   UNL     1       0.654   9.093 -11.700  1.00  0.00     0.074 A 
ATOM     34  C   UNL     1      -0.461   6.888 -11.778  1.00  0.00     0.049 A 
ATOM     35  N   UNL     1       0.105   9.691 -12.725  1.00  0.00    -0.248 NA
ATOM     36  C   UNL     1       1.631   9.917 -10.972  1.00  0.00     0.031 C 
ATOM     37  C   UNL     1      -0.814   5.539 -11.327  1.00  0.00     0.029 A 
ATOM     38  N   UNL     1      -1.217   7.065 -12.910  1.00  0.00    -0.354 N 
ATOM     39  C   UNL     1       0.657  10.967 -12.759  1.00  0.00     0.074 A 
ATOM     40  C   UNL     1       1.543  11.070 -11.618  1.00  0.00     0.031 C 
ATOM     41  C   UNL     1      -1.705   5.009 -12.180  1.00  0.00     0.029 A 
ATOM     42  C   UNL     1      -2.027   5.993 -13.208  1.00  0.00     0.049 A 
ATOM     43  H   UNL     1      -1.183   7.883 -13.457  1.00  0.00     0.167 HD
ATOM     44  C   UNL     1       0.458  11.953 -13.670  1.00  0.00     0.034 A 
ATOM     45  C   UNL     1      -2.942   5.829 -14.184  1.00  0.00     0.034 A 
ATOM     46  C   UNL     1      -0.420  11.830 -14.808  1.00  0.00     0.049 A 
ATOM     47  C   UNL     1      -3.176   6.953 -15.161  1.00  0.00     0.074 A 
ATOM     48  C   UNL     1      -0.647  12.741 -15.825  1.00  0.00     0.029 A 
ATOM     49  N   UNL     1      -1.228  10.731 -15.074  1.00  0.00    -0.354 N 
ATOM     50  N   UNL     1      -2.610   8.137 -15.207  1.00  0.00    -0.248 NA
ATOM     51  C   UNL     1      -4.169   6.718 -16.217  1.00  0.00     0.031 C 
ATOM     52  C   UNL     1      -1.635  12.221 -16.669  1.00  0.00     0.029 A 
ATOM     53  C   UNL     1      -1.977  10.956 -16.219  1.00  0.00     0.049 A 
ATOM     54  H   UNL     1      -1.263   9.912 -14.530  1.00  0.00     0.167 HD
ATOM     55  C   UNL     1      -3.162   8.777 -16.313  1.00  0.00     0.074 A 
ATOM     56  C   UNL     1      -4.095   7.845 -16.911  1.00  0.00     0.031 C 
ATOM     57  C   UNL     1      -2.916  10.022 -16.794  1.00  0.00     0.034 A 
BRANCH  44  58
ATOM     58  C   UNL     1       1.188  13.256 -13.450  1.00  0.00     0.023 A 
ATOM     59  C   UNL     1       2.591  13.327 -13.476  1.00  0.00     0.031 A 
ATOM     60  C   UNL     1       0.473  14.437 -13.182  1.00  0.00     0.131 A 
ATOM     61  C   UNL     1       3.237  14.532 -13.162  1.00  0.00     0.055 A 
ATOM     62  C   UNL     1       1.121  15.652 -12.950  1.00  0.00     0.041 A 
ATOM     63  F   UNL     1      -0.868  14.427 -13.125  1.00  0.00    -0.206 F 
ATOM     64  C   UNL     1       2.512  15.701 -12.923  1.00  0.00     0.022 A 
BRANCH  61  65
ATOM     65  S   UNL     1       5.036  14.514 -12.929  1.00  0.00     0.124 S 
ATOM     66  O   UNL     1       5.182  13.545 -11.845  1.00  0.00    -0.237 OA
ATOM     67  O   UNL     1       5.519  14.086 -14.237  1.00  0.00    -0.237 OA
ATOM     68  O   UNL     1       5.349  15.895 -12.568  1.00  0.00    -0.744 OA
ENDBRANCH  61  65
ENDBRANCH  44  58
BRANCH  45  69
ATOM     69  C   UNL     1      -3.726   4.566 -14.280  1.00  0.00     0.023 A 
ATOM     70  C   UNL     1      -3.576   3.705 -15.378  1.00  0.00     0.031 A 
ATOM     71  C   UNL     1      -4.666   4.220 -13.293  1.00  0.00     0.131 A 
ATOM     72  C   UNL     1      -4.383   2.562 -15.486  1.00  0.00     0.055 A 
ATOM     73  C   UNL     1      -5.432   3.056 -13.381  1.00  0.00     0.041 A 
ATOM     74  F   UNL     1      -4.844   5.006 -12.219  1.00  0.00    -0.206 F 
ATOM     75  C   UNL     1      -5.301   2.225 -14.489  1.00  0.00     0.022 A 
BRANCH  72  76
ATOM     76  S   UNL     1      -4.267   1.557 -16.992  1.00  0.00     0.124 S 
ATOM     77  O   UNL     1      -4.600   2.530 -18.025  1.00  0.00    -0.237 OA
ATOM     78  O   UNL     1      -2.878   1.111 -16.951  1.00  0.00    -0.237 OA
ATOM     79  O   UNL     1      -5.262   0.508 -16.778  1.00  0.00    -0.744 OA
ENDBRANCH  72  76
ENDBRANCH  45  69
BRANCH  57  80
ATOM     80  C   UNL     1      -3.644  10.425 -18.051  1.00  0.00     0.023 A 
ATOM     81  C   UNL     1      -5.030  10.656 -18.060  1.00  0.00     0.031 A 
ATOM     82  C   UNL     1      -2.938  10.577 -19.258  1.00  0.00     0.131 A 
ATOM     83  C   UNL     1      -5.675  10.983 -19.263  1.00  0.00     0.055 A 
ATOM     84  C   UNL     1      -3.576  10.954 -20.440  1.00  0.00     0.041 A 
ATOM     85  F   UNL     1      -1.612  10.366 -19.304  1.00  0.00    -0.206 F 
ATOM     86  C   UNL     1      -4.954  11.150 -20.448  1.00  0.00     0.022 A 
BRANCH  83  87
ATOM     87  S   UNL     1      -7.483  11.125 -19.273  1.00  0.00     0.124 S 
ATOM     88  O   UNL     1      -7.894   9.782 -18.877  1.00  0.00    -0.237 OA
ATOM     89  O   UNL     1      -7.721  12.179 -18.292  1.00  0.00    -0.237 OA
ATOM     90  O   UNL     1      -7.791  11.486 -20.655  1.00  0.00    -0.744 OA
ENDBRANCH  83  87
ENDBRANCH  57  80
ENDBRANCH  31  32
ENDBRANCH  23  26
ENDBRANCH  21  22
ENDBRANCH  20  21
ENDBRANCH   1  20
TORSDOF 18
