REMARK SMILES O=C(NCCCCNC(=O)c1cc(-c2ccn(C(F)F)c(=O)c2)ccc1O)c1ccc(-c2c3nc(c(-c4cc(S(=O)(=O)[O-])ccc4F)c4ccc([nH]4)c(-c4cc(S(=O)(=O)[O-])ccc4F)c4nc(c(-c5cc(S(=O)(=O)[O-])ccc5F)c5ccc2[nH]5)C=C4)C=C3)cc1
REMARK SMILES IDX 5 1 4 2 3 3 1 4 2 5 28 7 29 8 90 9 30 10 89 11 31 12 32 13
REMARK SMILES IDX 33 14 83 15 34 16 88 17 82 18 84 19 35 20 87 21 81 22 80 23
REMARK SMILES IDX 36 25 68 26 48 27 67 28 49 29 52 30 66 31 85 32 50 33 51 34
REMARK SMILES IDX 65 36 86 37 53 38 37 39 38 40 46 41 39 42 45 43 47 44 44 45
REMARK SMILES IDX 40 46 41 47 42 48 43 49 69 50 70 51 78 52 71 53 77 54 79 55
REMARK SMILES IDX 76 56 72 57 73 58 74 59 75 60 54 61 55 62 63 63 56 64 62 65
REMARK SMILES IDX 64 66 61 67 57 68 58 69 59 70 60 71 6 72 7 73 8 74 9 75
REMARK SMILES IDX 10 77 11 78 12 79 26 80 13 81 25 82 24 83 27 84 14 86 15 87
REMARK SMILES IDX 23 88 16 89 21 90 17 91 22 92 18 93 19 94 20 95
REMARK H PARENT 3 6 84 24 52 35 8 76 27 85
REMARK Flexibility Score: inf
ROOT
ATOM      1  C   UNL     1       5.000  -1.740  -2.022  1.00  0.00     0.023 C 
ENDROOT
BRANCH   1   2
ATOM      2  C   UNL     1       4.647  -0.497  -1.213  1.00  0.00     0.116 C 
BRANCH   2   3
ATOM      3  N   UNL     1       3.213  -0.266  -1.133  1.00  0.00    -0.352 N 
ATOM      4  O   UNL     1       1.190  -0.060  -0.182  1.00  0.00    -0.269 OA
ATOM      5  C   UNL     1       2.409  -0.094  -0.033  1.00  0.00     0.251 C 
ATOM      6  H   UNL     1       2.748  -0.228  -1.999  1.00  0.00     0.163 HD
BRANCH   5   7
ATOM      7  C   UNL     1       2.993   0.043   1.322  1.00  0.00     0.039 A 
ATOM      8  C   UNL     1       2.352  -0.584   2.395  1.00  0.00     0.014 A 
ATOM      9  C   UNL     1       4.130   0.822   1.552  1.00  0.00     0.014 A 
ATOM     10  C   UNL     1       2.865  -0.451   3.689  1.00  0.00     0.010 A 
ATOM     11  C   UNL     1       4.686   0.888   2.828  1.00  0.00     0.010 A 
ATOM     12  C   UNL     1       4.043   0.278   3.915  1.00  0.00    -0.014 A 
BRANCH  12  13
ATOM     13  C   UNL     1       4.579   0.470   5.288  1.00  0.00     0.031 A 
ATOM     14  C   UNL     1       4.619   1.851   5.888  1.00  0.00     0.074 A 
ATOM     15  C   UNL     1       5.059  -0.581   5.982  1.00  0.00     0.049 A 
ATOM     16  N   UNL     1       5.082   2.233   7.050  1.00  0.00    -0.248 NA
ATOM     17  C   UNL     1       4.091   2.951   5.064  1.00  0.00     0.031 C 
ATOM     18  C   UNL     1       5.108  -1.958   5.492  1.00  0.00     0.029 A 
ATOM     19  N   UNL     1       5.600  -0.656   7.242  1.00  0.00    -0.354 N 
ATOM     20  C   UNL     1       4.914   3.613   7.088  1.00  0.00     0.074 A 
ATOM     21  C   UNL     1       4.369   4.009   5.810  1.00  0.00     0.031 C 
ATOM     22  C   UNL     1       5.621  -2.745   6.449  1.00  0.00     0.029 A 
ATOM     23  C   UNL     1       5.975  -1.928   7.609  1.00  0.00     0.049 A 
ATOM     24  H   UNL     1       5.709   0.128   7.829  1.00  0.00     0.167 HD
ATOM     25  C   UNL     1       5.159   4.469   8.109  1.00  0.00     0.034 A 
ATOM     26  C   UNL     1       6.537  -2.385   8.748  1.00  0.00     0.034 A 
ATOM     27  C   UNL     1       5.669   4.057   9.390  1.00  0.00     0.049 A 
ATOM     28  C   UNL     1       6.794  -1.416   9.876  1.00  0.00     0.074 A 
ATOM     29  C   UNL     1       5.905   4.840  10.506  1.00  0.00     0.029 A 
ATOM     30  N   UNL     1       6.011   2.757   9.734  1.00  0.00    -0.354 N 
ATOM     31  N   UNL     1       6.555  -0.126   9.926  1.00  0.00    -0.248 NA
ATOM     32  C   UNL     1       7.381  -1.960  11.109  1.00  0.00     0.031 C 
ATOM     33  C   UNL     1       6.438   4.025  11.505  1.00  0.00     0.029 A 
ATOM     34  C   UNL     1       6.472   2.720  11.039  1.00  0.00     0.049 A 
ATOM     35  H   UNL     1       5.937   1.977   9.138  1.00  0.00     0.167 HD
ATOM     36  C   UNL     1       6.934   0.288  11.201  1.00  0.00     0.074 A 
ATOM     37  C   UNL     1       7.396  -0.893  11.898  1.00  0.00     0.031 C 
ATOM     38  C   UNL     1       6.905   1.534  11.739  1.00  0.00     0.034 A 
BRANCH  25  39
ATOM     39  C   UNL     1       4.848   5.932   7.912  1.00  0.00     0.023 A 
ATOM     40  C   UNL     1       5.875   6.891   7.989  1.00  0.00     0.031 A 
ATOM     41  C   UNL     1       3.525   6.386   7.761  1.00  0.00     0.131 A 
ATOM     42  C   UNL     1       5.558   8.254   7.945  1.00  0.00     0.055 A 
ATOM     43  C   UNL     1       3.219   7.744   7.672  1.00  0.00     0.041 A 
ATOM     44  F   UNL     1       2.508   5.511   7.683  1.00  0.00    -0.206 F 
ATOM     45  C   UNL     1       4.238   8.685   7.777  1.00  0.00     0.022 A 
BRANCH  42  46
ATOM     46  S   UNL     1       6.835   9.523   8.165  1.00  0.00     0.124 S 
ATOM     47  O   UNL     1       6.725  10.278   6.918  1.00  0.00    -0.237 OA
ATOM     48  O   UNL     1       6.368  10.222   9.360  1.00  0.00    -0.237 OA
ATOM     49  O   UNL     1       8.067   8.759   8.321  1.00  0.00    -0.744 OA
ENDBRANCH  42  46
ENDBRANCH  25  39
BRANCH  26  50
ATOM     50  C   UNL     1       6.810  -3.847   8.889  1.00  0.00     0.023 A 
ATOM     51  C   UNL     1       7.714  -4.505   8.036  1.00  0.00     0.031 A 
ATOM     52  C   UNL     1       6.088  -4.624   9.811  1.00  0.00     0.131 A 
ATOM     53  C   UNL     1       7.824  -5.902   8.080  1.00  0.00     0.055 A 
ATOM     54  C   UNL     1       6.253  -6.007   9.899  1.00  0.00     0.041 A 
ATOM     55  F   UNL     1       5.203  -4.044  10.637  1.00  0.00    -0.206 F 
ATOM     56  C   UNL     1       7.112  -6.655   9.018  1.00  0.00     0.022 A 
BRANCH  53  57
ATOM     57  S   UNL     1       8.794  -6.800   6.836  1.00  0.00     0.124 S 
ATOM     58  O   UNL     1       9.782  -7.489   7.660  1.00  0.00    -0.237 OA
ATOM     59  O   UNL     1       7.777  -7.652   6.224  1.00  0.00    -0.237 OA
ATOM     60  O   UNL     1       9.315  -5.742   5.977  1.00  0.00    -0.744 OA
ENDBRANCH  53  57
ENDBRANCH  26  50
BRANCH  38  61
ATOM     61  C   UNL     1       7.368   1.722  13.165  1.00  0.00     0.023 A 
ATOM     62  C   UNL     1       6.469   2.205  14.136  1.00  0.00     0.031 A 
ATOM     63  C   UNL     1       8.722   1.591  13.519  1.00  0.00     0.131 A 
ATOM     64  C   UNL     1       6.942   2.583  15.399  1.00  0.00     0.055 A 
ATOM     65  C   UNL     1       9.180   1.923  14.795  1.00  0.00     0.041 A 
ATOM     66  F   UNL     1       9.620   1.149  12.625  1.00  0.00    -0.206 F 
ATOM     67  C   UNL     1       8.291   2.436  15.736  1.00  0.00     0.022 A 
BRANCH  64  68
ATOM     68  S   UNL     1       5.848   3.371  16.613  1.00  0.00     0.124 S 
ATOM     69  O   UNL     1       5.884   2.414  17.716  1.00  0.00    -0.237 OA
ATOM     70  O   UNL     1       6.529   4.638  16.864  1.00  0.00    -0.237 OA
ATOM     71  O   UNL     1       4.568   3.474  15.920  1.00  0.00    -0.744 OA
ENDBRANCH  64  68
ENDBRANCH  38  61
ENDBRANCH  12  13
ENDBRANCH   5   7
ENDBRANCH   2   3
ENDBRANCH   1   2
BRANCH   1  72
ATOM     72  C   UNL     1       4.509  -1.746  -3.469  1.00  0.00     0.023 C 
BRANCH  72  73
ATOM     73  C   UNL     1       4.896  -0.526  -4.298  1.00  0.00     0.116 C 
BRANCH  73  74
ATOM     74  N   UNL     1       6.334  -0.376  -4.439  1.00  0.00    -0.352 N 
ATOM     75  C   UNL     1       7.059  -0.169  -5.586  1.00  0.00     0.255 C 
ATOM     76  H   UNL     1       6.855  -0.430  -3.606  1.00  0.00     0.163 HD
ATOM     77  O   UNL     1       8.286  -0.113  -5.555  1.00  0.00    -0.269 OA
BRANCH  75  78
ATOM     78  C   UNL     1       6.370  -0.095  -6.889  1.00  0.00     0.082 A 
ATOM     79  C   UNL     1       6.714  -1.056  -7.851  1.00  0.00     0.026 A 
ATOM     80  C   UNL     1       5.418   0.888  -7.181  1.00  0.00     0.128 A 
ATOM     81  C   UNL     1       6.064  -1.066  -9.088  1.00  0.00    -0.017 A 
ATOM     82  C   UNL     1       4.761   0.878  -8.408  1.00  0.00     0.047 A 
ATOM     83  C   UNL     1       5.078  -0.101  -9.352  1.00  0.00     0.012 A 
BRANCH  80  84
ATOM     84  O   UNL     1       5.117   1.856  -6.265  1.00  0.00    -0.507 OA
ATOM     85  H   UNL     1       5.556   1.869  -5.437  1.00  0.00     0.293 HD
ENDBRANCH  80  84
BRANCH  81  86
ATOM     86  C   UNL     1       6.384  -2.058 -10.130  1.00  0.00    -0.011 A 
ATOM     87  C   UNL     1       6.950  -1.672 -11.408  1.00  0.00     0.027 A 
ATOM     88  C   UNL     1       6.067  -3.346  -9.916  1.00  0.00     0.080 A 
ATOM     89  C   UNL     1       7.084  -2.569 -12.391  1.00  0.00     0.095 A 
ATOM     90  C   UNL     1       6.231  -4.362 -10.996  1.00  0.00     0.255 A 
ATOM     91  N   UNL     1       6.715  -3.887 -12.205  1.00  0.00    -0.258 N 
ATOM     92  O   UNL     1       5.905  -5.522 -10.766  1.00  0.00    -0.269 OA
BRANCH  91  93
ATOM     93  C   UNL     1       6.790  -4.826 -13.294  1.00  0.00     0.451 C 
ATOM     94  F   UNL     1       7.582  -5.881 -12.990  1.00  0.00    -0.185 F 
ATOM     95  F   UNL     1       5.559  -5.300 -13.609  1.00  0.00    -0.185 F 
ENDBRANCH  91  93
ENDBRANCH  81  86
ENDBRANCH  75  78
ENDBRANCH  73  74
ENDBRANCH  72  73
ENDBRANCH   1  72
TORSDOF 17
