REMARK SMILES C[C@@H](C(=O)NCCCCNC(=O)c1ccc(-c2c3nc(c(-c4cc(S(=O)(=O)[O-])ccc4F)c4ccc([nH]4)c(-c4cc(S(=O)(=O)[O-])ccc4F)c4nc(c(-c5cc(S(=O)(=O)[O-])ccc5F)c5ccc2[nH]5)C=C4)C=C3)cc1)c1ccc(N[C@H]2CCC[C@@H]2O)cc1F
REMARK SMILES IDX 7 1 6 2 5 3 3 4 4 5 2 7 1 8 76 9 77 10 88 11 78 12 87 13
REMARK SMILES IDX 89 14 79 15 80 16 81 18 82 19 85 20 83 21 84 22 86 23 8 25
REMARK SMILES IDX 9 26 10 27 11 28 12 30 13 31 14 32 75 33 15 34 74 35 16 36
REMARK SMILES IDX 17 37 18 38 68 39 19 40 73 41 67 42 69 43 20 44 72 45 66 46
REMARK SMILES IDX 65 47 21 49 53 50 33 51 52 52 34 53 37 54 51 55 70 56 35 57
REMARK SMILES IDX 36 58 50 60 71 61 38 62 22 63 23 64 31 65 24 66 30 67 32 68
REMARK SMILES IDX 29 69 25 70 26 71 27 72 28 73 54 74 55 75 63 76 56 77 62 78
REMARK SMILES IDX 64 79 61 80 57 81 58 82 59 83 60 84 39 85 40 86 48 87 41 88
REMARK SMILES IDX 47 89 49 90 46 91 42 92 43 93 44 94 45 95
REMARK H PARENT 5 6 80 17 86 24 10 29 69 48 37 59
REMARK Flexibility Score: inf
ROOT
ATOM      1  C   UNL     1       4.303   0.058  -1.173  1.00  0.00     0.023 C 
ENDROOT
BRANCH   1   2
ATOM      2  C   UNL     1       3.498   1.357  -1.209  1.00  0.00     0.116 C 
BRANCH   2   3
ATOM      3  N   UNL     1       2.409   1.268  -2.159  1.00  0.00    -0.356 N 
ATOM      4  C   UNL     1       1.090   0.979  -1.949  1.00  0.00     0.227 C 
ATOM      5  O   UNL     1       0.374   0.867  -2.946  1.00  0.00    -0.274 OA
ATOM      6  H   UNL     1       2.655   1.442  -3.096  1.00  0.00     0.163 HD
BRANCH   4   7
ATOM      7  C   UNL     1       0.552   0.868  -0.514  1.00  0.00     0.108 C 
ATOM      8  C   UNL     1       1.055  -0.387   0.206  1.00  0.00     0.023 C 
BRANCH   7   9
ATOM      9  C   UNL     1      -0.965   0.983  -0.487  1.00  0.00     0.000 A 
ATOM     10  C   UNL     1      -1.560   2.242  -0.354  1.00  0.00     0.009 A 
ATOM     11  C   UNL     1      -1.810  -0.116  -0.640  1.00  0.00     0.129 A 
ATOM     12  C   UNL     1      -2.954   2.377  -0.335  1.00  0.00     0.026 A 
ATOM     13  C   UNL     1      -3.197   0.023  -0.614  1.00  0.00     0.065 A 
ATOM     14  F   UNL     1      -1.307  -1.347  -0.806  1.00  0.00    -0.207 F 
ATOM     15  C   UNL     1      -3.803   1.274  -0.452  1.00  0.00     0.037 A 
BRANCH  15  16
ATOM     16  N   UNL     1      -5.179   1.339  -0.437  1.00  0.00    -0.380 N 
ATOM     17  H   UNL     1      -5.641   0.470  -0.478  1.00  0.00     0.160 HD
BRANCH  16  18
ATOM     18  C   UNL     1      -6.052   2.504  -0.370  1.00  0.00     0.107 C 
ATOM     19  C   UNL     1      -5.899   3.351   0.896  1.00  0.00     0.027 C 
ATOM     20  C   UNL     1      -5.907   3.468  -1.557  1.00  0.00     0.136 C 
ATOM     21  C   UNL     1      -5.918   4.806   0.420  1.00  0.00     0.005 C 
ATOM     22  C   UNL     1      -6.474   4.764  -0.998  1.00  0.00     0.034 C 
BRANCH  20  23
ATOM     23  O   UNL     1      -6.649   3.028  -2.686  1.00  0.00    -0.391 OA
ATOM     24  H   UNL     1      -7.582   2.925  -2.440  1.00  0.00     0.211 HD
ENDBRANCH  20  23
ENDBRANCH  16  18
ENDBRANCH  15  16
ENDBRANCH   7   9
ENDBRANCH   4   7
ENDBRANCH   2   3
ENDBRANCH   1   2
BRANCH   1  25
ATOM     25  C   UNL     1       5.094  -0.234  -2.449  1.00  0.00     0.023 C 
BRANCH  25  26
ATOM     26  C   UNL     1       6.101   0.838  -2.847  1.00  0.00     0.116 C 
BRANCH  26  27
ATOM     27  N   UNL     1       7.078   1.109  -1.804  1.00  0.00    -0.352 N 
ATOM     28  C   UNL     1       8.429   1.326  -1.928  1.00  0.00     0.251 C 
ATOM     29  H   UNL     1       6.724   1.141  -0.886  1.00  0.00     0.163 HD
ATOM     30  O   UNL     1       9.130   1.403  -0.923  1.00  0.00    -0.269 OA
BRANCH  28  31
ATOM     31  C   UNL     1       9.030   1.426  -3.275  1.00  0.00     0.039 A 
ATOM     32  C   UNL     1      10.183   0.689  -3.556  1.00  0.00     0.014 A 
ATOM     33  C   UNL     1       8.441   2.220  -4.264  1.00  0.00     0.014 A 
ATOM     34  C   UNL     1      10.706   0.695  -4.851  1.00  0.00     0.010 A 
ATOM     35  C   UNL     1       8.923   2.168  -5.569  1.00  0.00     0.010 A 
ATOM     36  C   UNL     1      10.059   1.403  -5.876  1.00  0.00    -0.014 A 
BRANCH  36  37
ATOM     37  C   UNL     1      10.555   1.358  -7.276  1.00  0.00     0.031 A 
ATOM     38  C   UNL     1      11.060   2.612  -7.936  1.00  0.00     0.074 A 
ATOM     39  C   UNL     1      10.492   0.204  -7.970  1.00  0.00     0.049 A 
ATOM     40  N   UNL     1      11.456   2.797  -9.169  1.00  0.00    -0.248 NA
ATOM     41  C   UNL     1      11.094   3.824  -7.104  1.00  0.00     0.031 C 
ATOM     42  C   UNL     1       9.988  -1.069  -7.449  1.00  0.00     0.029 A 
ATOM     43  N   UNL     1      10.845  -0.086  -9.264  1.00  0.00    -0.354 N 
ATOM     44  C   UNL     1      11.776   4.147  -9.265  1.00  0.00     0.074 A 
ATOM     45  C   UNL     1      11.465   4.743  -7.982  1.00  0.00     0.031 C 
ATOM     46  C   UNL     1      10.089  -2.006  -8.405  1.00  0.00     0.029 A 
ATOM     47  C   UNL     1      10.618  -1.395  -9.620  1.00  0.00     0.049 A 
ATOM     48  H   UNL     1      11.225   0.581  -9.880  1.00  0.00     0.167 HD
ATOM     49  C   UNL     1      12.303   4.822 -10.318  1.00  0.00     0.034 A 
ATOM     50  C   UNL     1      10.805  -2.029 -10.795  1.00  0.00     0.034 A 
ATOM     51  C   UNL     1      12.615   4.210 -11.586  1.00  0.00     0.049 A 
ATOM     52  C   UNL     1      11.364  -1.251 -11.960  1.00  0.00     0.074 A 
ATOM     53  C   UNL     1      13.194   4.788 -12.703  1.00  0.00     0.029 A 
ATOM     54  N   UNL     1      12.370   2.882 -11.911  1.00  0.00    -0.354 N 
ATOM     55  N   UNL     1      11.701   0.017 -12.022  1.00  0.00    -0.248 NA
ATOM     56  C   UNL     1      11.575  -1.993 -13.209  1.00  0.00     0.031 C 
ATOM     57  C   UNL     1      13.238   3.829 -13.722  1.00  0.00     0.029 A 
ATOM     58  C   UNL     1      12.759   2.630 -13.219  1.00  0.00     0.049 A 
ATOM     59  H   UNL     1      11.977   2.216 -11.302  1.00  0.00     0.167 HD
ATOM     60  C   UNL     1      12.196   0.214 -13.308  1.00  0.00     0.074 A 
ATOM     61  C   UNL     1      12.125  -1.067 -13.981  1.00  0.00     0.031 C 
ATOM     62  C   UNL     1      12.672   1.349 -13.880  1.00  0.00     0.034 A 
BRANCH  49  63
ATOM     63  C   UNL     1      12.548   6.302 -10.139  1.00  0.00     0.023 A 
ATOM     64  C   UNL     1      13.454   6.789  -9.181  1.00  0.00     0.031 A 
ATOM     65  C   UNL     1      11.845   7.241 -10.916  1.00  0.00     0.131 A 
ATOM     66  C   UNL     1      13.576   8.171  -8.969  1.00  0.00     0.055 A 
ATOM     67  C   UNL     1      12.034   8.616 -10.758  1.00  0.00     0.041 A 
ATOM     68  F   UNL     1      10.951   6.838 -11.832  1.00  0.00    -0.206 F 
ATOM     69  C   UNL     1      12.892   9.088  -9.769  1.00  0.00     0.022 A 
BRANCH  66  70
ATOM     70  S   UNL     1      14.527   8.745  -7.536  1.00  0.00     0.124 S 
ATOM     71  O   UNL     1      13.809   8.112  -6.433  1.00  0.00    -0.237 OA
ATOM     72  O   UNL     1      15.861   8.225  -7.812  1.00  0.00    -0.237 OA
ATOM     73  O   UNL     1      14.399  10.200  -7.600  1.00  0.00    -0.744 OA
ENDBRANCH  66  70
ENDBRANCH  49  63
BRANCH  50  74
ATOM     74  C   UNL     1      10.460  -3.472 -10.940  1.00  0.00     0.023 A 
ATOM     75  C   UNL     1      11.454  -4.429 -11.200  1.00  0.00     0.031 A 
ATOM     76  C   UNL     1       9.126  -3.910 -10.867  1.00  0.00     0.131 A 
ATOM     77  C   UNL     1      11.095  -5.767 -11.424  1.00  0.00     0.055 A 
ATOM     78  C   UNL     1       8.779  -5.252 -11.038  1.00  0.00     0.041 A 
ATOM     79  F   UNL     1       8.137  -3.037 -10.615  1.00  0.00    -0.206 F 
ATOM     80  C   UNL     1       9.766  -6.187 -11.333  1.00  0.00     0.022 A 
BRANCH  77  81
ATOM     81  S   UNL     1      12.386  -6.939 -11.924  1.00  0.00     0.124 S 
ATOM     82  O   UNL     1      12.898  -6.316 -13.140  1.00  0.00    -0.237 OA
ATOM     83  O   UNL     1      13.277  -6.918 -10.769  1.00  0.00    -0.237 OA
ATOM     84  O   UNL     1      11.654  -8.188 -12.121  1.00  0.00    -0.744 OA
ENDBRANCH  77  81
ENDBRANCH  50  74
BRANCH  62  85
ATOM     85  C   UNL     1      13.198   1.237 -15.290  1.00  0.00     0.023 A 
ATOM     86  C   UNL     1      12.353   0.958 -16.378  1.00  0.00     0.031 A 
ATOM     87  C   UNL     1      14.572   1.402 -15.545  1.00  0.00     0.131 A 
ATOM     88  C   UNL     1      12.896   0.796 -17.661  1.00  0.00     0.055 A 
ATOM     89  C   UNL     1      15.098   1.300 -16.834  1.00  0.00     0.041 A 
ATOM     90  F   UNL     1      15.426   1.668 -14.544  1.00  0.00    -0.206 F 
ATOM     91  C   UNL     1      14.260   0.982 -17.899  1.00  0.00     0.022 A 
BRANCH  88  92
ATOM     92  S   UNL     1      11.807   0.249 -19.005  1.00  0.00     0.124 S 
ATOM     93  O   UNL     1      11.307  -1.023 -18.493  1.00  0.00    -0.237 OA
ATOM     94  O   UNL     1      10.834   1.333 -19.080  1.00  0.00    -0.237 OA
ATOM     95  O   UNL     1      12.706   0.144 -20.154  1.00  0.00    -0.744 OA
ENDBRANCH  88  92
ENDBRANCH  62  85
ENDBRANCH  36  37
ENDBRANCH  28  31
ENDBRANCH  26  27
ENDBRANCH  25  26
ENDBRANCH   1  25
TORSDOF 18
