REMARK SMILES COCC[C@H](NC(=O)N1CCN2C(=O)NC[C@H]2C1)C(=O)NCCCCNC(=O)c1ccc(-c2c3nc(c(-c4cc(S(=O)(=O)[O-])ccc4F)c4ccc([nH]4)c(-c4cc(S(=O)(=O)[O-])ccc4F)c4nc(c(-c5cc(S(=O)(=O)[O-])ccc5F)c5ccc2[nH]5)C=C4)C=C3)cc1
REMARK SMILES IDX 23 1 22 2 21 3 19 4 20 5 5 7 4 8 3 9 2 10 1 11 6 12 7 13
REMARK SMILES IDX 8 15 9 16 10 17 18 18 11 19 17 20 12 21 16 22 13 23 15 24
REMARK SMILES IDX 14 25 24 27 25 28 26 29 27 30 28 32 29 33 30 34 91 35 31 36
REMARK SMILES IDX 90 37 32 38 33 39 34 40 84 41 35 42 89 43 83 44 85 45 36 46
REMARK SMILES IDX 88 47 82 48 81 49 37 51 69 52 49 53 68 54 50 55 53 56 67 57
REMARK SMILES IDX 86 58 51 59 52 60 66 62 87 63 54 64 38 65 39 66 47 67 40 68
REMARK SMILES IDX 46 69 48 70 45 71 41 72 42 73 43 74 44 75 70 76 71 77 79 78
REMARK SMILES IDX 72 79 78 80 80 81 77 82 73 83 74 84 75 85 76 86 55 87 56 88
REMARK SMILES IDX 64 89 57 90 63 91 65 92 62 93 58 94 59 95 60 96 61 97
REMARK H PARENT 21 6 6 14 15 26 26 31 85 50 53 61
REMARK Flexibility Score: inf
ROOT
ATOM      1  C   UNL     1       0.680   2.489  -5.913  1.00  0.00     0.023 C 
ENDROOT
BRANCH   1   2
ATOM      2  C   UNL     1       1.386   2.686  -4.578  1.00  0.00     0.116 C 
BRANCH   2   3
ATOM      3  N   UNL     1       0.496   3.286  -3.594  1.00  0.00    -0.354 N 
ATOM      4  C   UNL     1       0.220   2.914  -2.308  1.00  0.00     0.242 C 
ATOM      5  O   UNL     1      -0.543   3.623  -1.648  1.00  0.00    -0.273 OA
ATOM      6  H   UNL     1       0.017   4.087  -3.905  1.00  0.00     0.163 HD
BRANCH   4   7
ATOM      7  C   UNL     1       0.970   1.737  -1.657  1.00  0.00     0.175 C 
BRANCH   7   8
ATOM      8  C   UNL     1       2.434   2.167  -1.498  1.00  0.00     0.063 C 
BRANCH   8   9
ATOM      9  C   UNL     1       2.652   3.343  -0.545  1.00  0.00     0.162 C 
BRANCH   9  10
ATOM     10  O   UNL     1       2.413   2.987   0.814  1.00  0.00    -0.385 OA
ATOM     11  C   UNL     1       1.110   3.293   1.290  1.00  0.00     0.194 C 
ENDBRANCH   9  10
ENDBRANCH   8   9
ENDBRANCH   7   8
BRANCH   7  12
ATOM     12  N   UNL     1       0.734   0.523  -2.446  1.00  0.00    -0.326 N 
ATOM     13  C   UNL     1       1.333  -0.682  -2.490  1.00  0.00     0.318 C 
ATOM     14  H   UNL     1      -0.018   0.608  -3.076  1.00  0.00     0.166 HD
ATOM     15  O   UNL     1       1.120  -1.379  -3.483  1.00  0.00    -0.249 OA
BRANCH  13  16
ATOM     16  N   UNL     1       2.241  -1.035  -1.543  1.00  0.00    -0.321 N 
ATOM     17  C   UNL     1       2.083  -0.917  -0.080  1.00  0.00     0.143 C 
ATOM     18  C   UNL     1       3.442  -1.759  -1.974  1.00  0.00     0.148 C 
ATOM     19  C   UNL     1       3.367  -0.467   0.664  1.00  0.00     0.143 C 
ATOM     20  C   UNL     1       4.628  -0.942  -1.490  1.00  0.00     0.125 C 
ATOM     21  N   UNL     1       4.597  -0.801  -0.042  1.00  0.00    -0.317 N 
ATOM     22  C   UNL     1       6.023  -1.483  -1.748  1.00  0.00     0.144 C 
ATOM     23  C   UNL     1       5.885  -0.692   0.455  1.00  0.00     0.317 C 
ATOM     24  N   UNL     1       6.748  -1.032  -0.584  1.00  0.00    -0.336 N 
ATOM     25  O   UNL     1       6.226  -0.369   1.574  1.00  0.00    -0.249 OA
ATOM     26  H   UNL     1       7.729  -0.973  -0.531  1.00  0.00     0.165 HD
ENDBRANCH  13  16
ENDBRANCH   7  12
ENDBRANCH   4   7
ENDBRANCH   2   3
ENDBRANCH   1   2
BRANCH   1  27
ATOM     27  C   UNL     1       0.309   3.794  -6.619  1.00  0.00     0.023 C 
BRANCH  27  28
ATOM     28  C   UNL     1       1.476   4.747  -6.861  1.00  0.00     0.116 C 
BRANCH  28  29
ATOM     29  N   UNL     1       2.534   4.141  -7.656  1.00  0.00    -0.352 N 
ATOM     30  C   UNL     1       3.076   4.567  -8.845  1.00  0.00     0.251 C 
ATOM     31  H   UNL     1       2.914   3.310  -7.291  1.00  0.00     0.163 HD
ATOM     32  O   UNL     1       3.833   3.832  -9.470  1.00  0.00    -0.269 OA
BRANCH  30  33
ATOM     33  C   UNL     1       2.711   5.898  -9.373  1.00  0.00     0.039 A 
ATOM     34  C   UNL     1       2.305   6.008 -10.704  1.00  0.00     0.014 A 
ATOM     35  C   UNL     1       2.722   7.022  -8.542  1.00  0.00     0.014 A 
ATOM     36  C   UNL     1       1.827   7.232 -11.177  1.00  0.00     0.010 A 
ATOM     37  C   UNL     1       2.171   8.218  -8.992  1.00  0.00     0.010 A 
ATOM     38  C   UNL     1       1.704   8.331 -10.310  1.00  0.00    -0.014 A 
BRANCH  38  39
ATOM     39  C   UNL     1       1.048   9.589 -10.755  1.00  0.00     0.031 A 
ATOM     40  C   UNL     1       1.818  10.879 -10.792  1.00  0.00     0.074 A 
ATOM     41  C   UNL     1      -0.265   9.574 -11.065  1.00  0.00     0.049 A 
ATOM     42  N   UNL     1       1.399  12.083 -11.088  1.00  0.00    -0.248 NA
ATOM     43  C   UNL     1       3.239  10.810 -10.423  1.00  0.00     0.031 C 
ATOM     44  C   UNL     1      -1.127   8.389 -11.030  1.00  0.00     0.029 A 
ATOM     45  N   UNL     1      -1.108  10.581 -11.464  1.00  0.00    -0.354 N 
ATOM     46  C   UNL     1       2.502  12.916 -10.938  1.00  0.00     0.074 A 
ATOM     47  C   UNL     1       3.590  12.087 -10.464  1.00  0.00     0.031 C 
ATOM     48  C   UNL     1      -2.364   8.732 -11.421  1.00  0.00     0.029 A 
ATOM     49  C   UNL     1      -2.404  10.167 -11.678  1.00  0.00     0.049 A 
ATOM     50  H   UNL     1      -0.814  11.512 -11.587  1.00  0.00     0.167 HD
ATOM     51  C   UNL     1       2.601  14.245 -11.194  1.00  0.00     0.034 A 
ATOM     52  C   UNL     1      -3.504  10.866 -12.021  1.00  0.00     0.034 A 
ATOM     53  C   UNL     1       1.503  15.055 -11.664  1.00  0.00     0.049 A 
ATOM     54  C   UNL     1      -3.380  12.352 -12.244  1.00  0.00     0.074 A 
ATOM     55  C   UNL     1       1.508  16.397 -12.005  1.00  0.00     0.029 A 
ATOM     56  N   UNL     1       0.200  14.608 -11.843  1.00  0.00    -0.354 N 
ATOM     57  N   UNL     1      -2.314  13.114 -12.156  1.00  0.00    -0.248 NA
ATOM     58  C   UNL     1      -4.605  13.069 -12.619  1.00  0.00     0.031 C 
ATOM     59  C   UNL     1       0.197  16.779 -12.306  1.00  0.00     0.029 A 
ATOM     60  C   UNL     1      -0.614  15.658 -12.243  1.00  0.00     0.049 A 
ATOM     61  H   UNL     1      -0.102  13.681 -11.706  1.00  0.00     0.167 HD
ATOM     62  C   UNL     1      -2.738  14.398 -12.490  1.00  0.00     0.074 A 
ATOM     63  C   UNL     1      -4.149  14.299 -12.804  1.00  0.00     0.031 C 
ATOM     64  C   UNL     1      -2.026  15.553 -12.534  1.00  0.00     0.034 A 
BRANCH  51  65
ATOM     65  C   UNL     1       3.935  14.907 -10.939  1.00  0.00     0.023 A 
ATOM     66  C   UNL     1       5.093  14.533 -11.644  1.00  0.00     0.031 A 
ATOM     67  C   UNL     1       4.056  15.918  -9.970  1.00  0.00     0.131 A 
ATOM     68  C   UNL     1       6.330  15.111 -11.320  1.00  0.00     0.055 A 
ATOM     69  C   UNL     1       5.273  16.552  -9.712  1.00  0.00     0.041 A 
ATOM     70  F   UNL     1       2.992  16.303  -9.247  1.00  0.00    -0.206 F 
ATOM     71  C   UNL     1       6.423  16.139 -10.379  1.00  0.00     0.022 A 
BRANCH  68  72
ATOM     72  S   UNL     1       7.834  14.398 -12.039  1.00  0.00     0.124 S 
ATOM     73  O   UNL     1       7.745  13.010 -11.590  1.00  0.00    -0.237 OA
ATOM     74  O   UNL     1       7.638  14.622 -13.466  1.00  0.00    -0.237 OA
ATOM     75  O   UNL     1       8.909  15.175 -11.425  1.00  0.00    -0.744 OA
ENDBRANCH  68  72
ENDBRANCH  51  65
BRANCH  52  76
ATOM     76  C   UNL     1      -4.825  10.183 -12.151  1.00  0.00     0.023 A 
ATOM     77  C   UNL     1      -5.508  10.154 -13.377  1.00  0.00     0.031 A 
ATOM     78  C   UNL     1      -5.447   9.589 -11.038  1.00  0.00     0.131 A 
ATOM     79  C   UNL     1      -6.791   9.591 -13.451  1.00  0.00     0.055 A 
ATOM     80  C   UNL     1      -6.697   8.975 -11.130  1.00  0.00     0.041 A 
ATOM     81  F   UNL     1      -4.841   9.588  -9.840  1.00  0.00    -0.206 F 
ATOM     82  C   UNL     1      -7.383   8.986 -12.340  1.00  0.00     0.022 A 
BRANCH  79  83
ATOM     83  S   UNL     1      -7.721   9.749 -15.000  1.00  0.00     0.124 S 
ATOM     84  O   UNL     1      -7.757  11.197 -15.176  1.00  0.00    -0.237 OA
ATOM     85  O   UNL     1      -6.880   9.009 -15.935  1.00  0.00    -0.237 OA
ATOM     86  O   UNL     1      -9.006   9.125 -14.691  1.00  0.00    -0.744 OA
ENDBRANCH  79  83
ENDBRANCH  52  76
BRANCH  64  87
ATOM     87  C   UNL     1      -2.764  16.798 -12.968  1.00  0.00     0.023 A 
ATOM     88  C   UNL     1      -3.809  17.343 -12.201  1.00  0.00     0.031 A 
ATOM     89  C   UNL     1      -2.426  17.440 -14.172  1.00  0.00     0.131 A 
ATOM     90  C   UNL     1      -4.519  18.455 -12.676  1.00  0.00     0.055 A 
ATOM     91  C   UNL     1      -3.089  18.589 -14.605  1.00  0.00     0.041 A 
ATOM     92  F   UNL     1      -1.441  16.962 -14.950  1.00  0.00    -0.206 F 
ATOM     93  C   UNL     1      -4.152  19.095 -13.863  1.00  0.00     0.022 A 
BRANCH  90  94
ATOM     94  S   UNL     1      -5.998  18.993 -11.775  1.00  0.00     0.124 S 
ATOM     95  O   UNL     1      -6.827  17.792 -11.810  1.00  0.00    -0.237 OA
ATOM     96  O   UNL     1      -5.455  19.355 -10.470  1.00  0.00    -0.237 OA
ATOM     97  O   UNL     1      -6.496  20.114 -12.570  1.00  0.00    -0.744 OA
ENDBRANCH  90  94
ENDBRANCH  64  87
ENDBRANCH  38  39
ENDBRANCH  30  33
ENDBRANCH  28  29
ENDBRANCH  27  28
ENDBRANCH   1  27
TORSDOF 19
