REMARK SMILES N#Cc1ccc(C(F)(F)F)nc1N1CCOC[C@H]1C(=O)NCCCCNC(=O)c1ccc(-c2c3nc(c(-c4cc(S(=O)(=O)[O-])ccc4F)c4ccc([nH]4)c(-c4cc(S(=O)(=O)[O-])ccc4F)c4nc(c(-c5cc(S(=O)(=O)[O-])ccc5F)c5ccc2[nH]5)C=C4)C=C3)cc1
REMARK SMILES IDX 24 1 23 2 22 3 21 4 19 5 20 6 18 8 13 9 14 10 15 11 17 12
REMARK SMILES IDX 16 13 12 14 3 15 4 16 5 17 11 18 6 19 2 20 1 21 7 22 8 23
REMARK SMILES IDX 9 24 10 25 25 26 26 27 27 28 28 30 29 31 30 32 91 33 31 34
REMARK SMILES IDX 90 35 32 36 33 37 34 38 84 39 35 40 89 41 83 42 85 43 36 44
REMARK SMILES IDX 88 45 82 46 81 47 37 49 69 50 49 51 68 52 50 53 53 54 67 55
REMARK SMILES IDX 86 56 51 57 52 58 66 60 87 61 54 62 38 63 39 64 47 65 40 66
REMARK SMILES IDX 46 67 48 68 45 69 41 70 42 71 43 72 44 73 70 74 71 75 79 76
REMARK SMILES IDX 72 77 78 78 80 79 77 80 73 81 74 82 75 83 76 84 55 85 56 86
REMARK SMILES IDX 64 87 57 88 63 89 65 90 62 91 58 92 59 93 60 94 61 95
REMARK H PARENT 21 7 26 29 85 48 53 59
REMARK Flexibility Score: inf
ROOT
ATOM      1  C   UNL     1       0.323  -4.910   4.704  1.00  0.00     0.023 C 
ENDROOT
BRANCH   1   2
ATOM      2  C   UNL     1       0.742  -4.154   3.457  1.00  0.00     0.023 C 
BRANCH   2   3
ATOM      3  C   UNL     1       0.943  -5.033   2.219  1.00  0.00     0.116 C 
BRANCH   3   4
ATOM      4  N   UNL     1      -0.211  -4.998   1.347  1.00  0.00    -0.354 N 
ATOM      5  C   UNL     1      -0.512  -4.331   0.200  1.00  0.00     0.245 C 
ATOM      6  O   UNL     1      -1.619  -4.621  -0.282  1.00  0.00    -0.273 OA
ATOM      7  H   UNL     1      -0.940  -5.587   1.650  1.00  0.00     0.163 HD
BRANCH   5   8
ATOM      8  C   UNL     1       0.413  -3.359  -0.577  1.00  0.00     0.199 C 
ATOM      9  N   UNL     1       0.742  -2.058   0.054  1.00  0.00    -0.339 N 
ATOM     10  C   UNL     1       1.861  -2.052   0.987  1.00  0.00     0.147 C 
ATOM     11  C   UNL     1       3.086  -2.732   0.370  1.00  0.00     0.181 C 
ATOM     12  C   UNL     1       1.707  -4.035  -1.084  1.00  0.00     0.195 C 
ATOM     13  O   UNL     1       2.795  -4.037  -0.146  1.00  0.00    -0.377 OA
BRANCH   9  14
ATOM     14  C   UNL     1      -0.035  -0.932  -0.117  1.00  0.00     0.148 A 
ATOM     15  C   UNL     1       0.518   0.356  -0.238  1.00  0.00     0.095 A 
ATOM     16  C   UNL     1      -0.310   1.479  -0.216  1.00  0.00     0.025 A 
ATOM     17  C   UNL     1      -1.681   1.311  -0.146  1.00  0.00     0.035 A 
ATOM     18  N   UNL     1      -1.381  -1.087  -0.130  1.00  0.00    -0.225 NA
ATOM     19  C   UNL     1      -2.198   0.018  -0.141  1.00  0.00     0.146 A 
BRANCH  15  20
ATOM     20  C   UNL     1       1.921   0.579  -0.447  1.00  0.00     0.103 C 
ATOM     21  N   UNL     1       3.053   0.773  -0.597  1.00  0.00    -0.192 NA
ENDBRANCH  15  20
BRANCH  19  22
ATOM     22  C   UNL     1      -3.717  -0.155  -0.149  1.00  0.00     0.433 C 
ATOM     23  F   UNL     1      -4.180  -0.808  -1.252  1.00  0.00    -0.165 F 
ATOM     24  F   UNL     1      -4.197  -0.824   0.934  1.00  0.00    -0.165 F 
ATOM     25  F   UNL     1      -4.380   1.046  -0.149  1.00  0.00    -0.165 F 
ENDBRANCH  19  22
ENDBRANCH   9  14
ENDBRANCH   5   8
ENDBRANCH   3   4
ENDBRANCH   2   3
ENDBRANCH   1   2
BRANCH   1  26
ATOM     26  C   UNL     1       1.343  -5.936   5.163  1.00  0.00     0.116 C 
BRANCH  26  27
ATOM     27  N   UNL     1       2.648  -5.370   5.487  1.00  0.00    -0.352 N 
ATOM     28  C   UNL     1       3.465  -5.712   6.542  1.00  0.00     0.251 C 
ATOM     29  H   UNL     1       2.981  -4.665   4.886  1.00  0.00     0.163 HD
ATOM     30  O   UNL     1       4.477  -5.067   6.787  1.00  0.00    -0.269 OA
BRANCH  28  31
ATOM     31  C   UNL     1       3.054  -6.850   7.388  1.00  0.00     0.039 A 
ATOM     32  C   UNL     1       2.997  -6.694   8.771  1.00  0.00     0.014 A 
ATOM     33  C   UNL     1       2.610  -8.029   6.782  1.00  0.00     0.014 A 
ATOM     34  C   UNL     1       2.445  -7.715   9.544  1.00  0.00     0.010 A 
ATOM     35  C   UNL     1       1.931  -8.971   7.537  1.00  0.00     0.010 A 
ATOM     36  C   UNL     1       1.881  -8.848   8.932  1.00  0.00    -0.014 A 
BRANCH  36  37
ATOM     37  C   UNL     1       1.319  -9.962   9.737  1.00  0.00     0.031 A 
ATOM     38  C   UNL     1       1.930 -11.335   9.616  1.00  0.00     0.074 A 
ATOM     39  C   UNL     1       0.270  -9.747  10.555  1.00  0.00     0.049 A 
ATOM     40  N   UNL     1       1.587 -12.449  10.209  1.00  0.00    -0.248 NA
ATOM     41  C   UNL     1       3.054 -11.485   8.675  1.00  0.00     0.031 C 
ATOM     42  C   UNL     1      -0.428  -8.470  10.724  1.00  0.00     0.029 A 
ATOM     43  N   UNL     1      -0.384 -10.596  11.411  1.00  0.00    -0.354 N 
ATOM     44  C   UNL     1       2.450 -13.420   9.713  1.00  0.00     0.074 A 
ATOM     45  C   UNL     1       3.257 -12.790   8.694  1.00  0.00     0.031 C 
ATOM     46  C   UNL     1      -1.372  -8.607  11.669  1.00  0.00     0.029 A 
ATOM     47  C   UNL     1      -1.386  -9.990  12.134  1.00  0.00     0.049 A 
ATOM     48  H   UNL     1      -0.158 -11.550  11.499  1.00  0.00     0.167 HD
ATOM     49  C   UNL     1       2.595 -14.709  10.103  1.00  0.00     0.034 A 
ATOM     50  C   UNL     1      -2.217 -10.498  13.066  1.00  0.00     0.034 A 
ATOM     51  C   UNL     1       1.789 -15.322  11.126  1.00  0.00     0.049 A 
ATOM     52  C   UNL     1      -2.074 -11.954  13.442  1.00  0.00     0.074 A 
ATOM     53  C   UNL     1       1.854 -16.613  11.616  1.00  0.00     0.029 A 
ATOM     54  N   UNL     1       0.766 -14.685  11.818  1.00  0.00    -0.354 N 
ATOM     55  N   UNL     1      -1.226 -12.850  12.989  1.00  0.00    -0.248 NA
ATOM     56  C   UNL     1      -2.990 -12.460  14.470  1.00  0.00     0.031 C 
ATOM     57  C   UNL     1       0.821 -16.781  12.542  1.00  0.00     0.029 A 
ATOM     58  C   UNL     1       0.177 -15.565  12.710  1.00  0.00     0.049 A 
ATOM     59  H   UNL     1       0.499 -13.745  11.692  1.00  0.00     0.167 HD
ATOM     60  C   UNL     1      -1.475 -14.010  13.719  1.00  0.00     0.074 A 
ATOM     61  C   UNL     1      -2.536 -13.689  14.651  1.00  0.00     0.031 C 
ATOM     62  C   UNL     1      -0.881 -15.229  13.633  1.00  0.00     0.034 A 
BRANCH  49  63
ATOM     63  C   UNL     1       3.652 -15.531   9.405  1.00  0.00     0.023 A 
ATOM     64  C   UNL     1       5.014 -15.178   9.458  1.00  0.00     0.031 A 
ATOM     65  C   UNL     1       3.297 -16.661   8.649  1.00  0.00     0.131 A 
ATOM     66  C   UNL     1       5.955 -15.898   8.707  1.00  0.00     0.055 A 
ATOM     67  C   UNL     1       4.252 -17.430   7.981  1.00  0.00     0.041 A 
ATOM     68  F   UNL     1       2.011 -17.029   8.534  1.00  0.00    -0.206 F 
ATOM     69  C   UNL     1       5.588 -17.041   7.995  1.00  0.00     0.022 A 
BRANCH  66  70
ATOM     70  S   UNL     1       7.630 -15.222   8.545  1.00  0.00     0.124 S 
ATOM     71  O   UNL     1       7.364 -13.919   7.940  1.00  0.00    -0.237 OA
ATOM     72  O   UNL     1       8.099 -15.202   9.925  1.00  0.00    -0.237 OA
ATOM     73  O   UNL     1       8.302 -16.181   7.670  1.00  0.00    -0.744 OA
ENDBRANCH  66  70
ENDBRANCH  49  63
BRANCH  50  74
ATOM     74  C   UNL     1      -3.254  -9.644  13.720  1.00  0.00     0.023 A 
ATOM     75  C   UNL     1      -3.262  -9.453  15.111  1.00  0.00     0.031 A 
ATOM     76  C   UNL     1      -4.305  -9.079  12.976  1.00  0.00     0.131 A 
ATOM     77  C   UNL     1      -4.336  -8.787  15.722  1.00  0.00     0.055 A 
ATOM     78  C   UNL     1      -5.332  -8.352  13.581  1.00  0.00     0.041 A 
ATOM     79  F   UNL     1      -4.352  -9.229  11.642  1.00  0.00    -0.206 F 
ATOM     80  C   UNL     1      -5.363  -8.221  14.965  1.00  0.00     0.022 A 
BRANCH  77  81
ATOM     81  S   UNL     1      -4.443  -8.797  17.534  1.00  0.00     0.124 S 
ATOM     82  O   UNL     1      -4.428 -10.226  17.822  1.00  0.00    -0.237 OA
ATOM     83  O   UNL     1      -3.247  -8.052  17.912  1.00  0.00    -0.237 OA
ATOM     84  O   UNL     1      -5.710  -8.118  17.802  1.00  0.00    -0.744 OA
ENDBRANCH  77  81
ENDBRANCH  50  74
BRANCH  62  85
ATOM     85  C   UNL     1      -1.319 -16.279  14.629  1.00  0.00     0.023 A 
ATOM     86  C   UNL     1      -2.642 -16.749  14.683  1.00  0.00     0.031 A 
ATOM     87  C   UNL     1      -0.403 -16.782  15.572  1.00  0.00     0.131 A 
ATOM     88  C   UNL     1      -3.035 -17.610  15.718  1.00  0.00     0.055 A 
ATOM     89  C   UNL     1      -0.779 -17.712  16.540  1.00  0.00     0.041 A 
ATOM     90  F   UNL     1       0.875 -16.369  15.573  1.00  0.00    -0.206 F 
ATOM     91  C   UNL     1      -2.108 -18.113  16.633  1.00  0.00     0.022 A 
BRANCH  88  92
ATOM     92  S   UNL     1      -4.806 -17.929  15.950  1.00  0.00     0.124 S 
ATOM     93  O   UNL     1      -5.343 -16.576  16.060  1.00  0.00    -0.237 OA
ATOM     94  O   UNL     1      -5.154 -18.655  14.734  1.00  0.00    -0.237 OA
ATOM     95  O   UNL     1      -4.853 -18.718  17.180  1.00  0.00    -0.744 OA
ENDBRANCH  88  92
ENDBRANCH  62  85
ENDBRANCH  36  37
ENDBRANCH  28  31
ENDBRANCH  26  27
ENDBRANCH   1  26
TORSDOF 17
