REMARK SMILES O=C(NCCCCNC(=O)c1cccnc1Nc1cccc(C(F)(F)F)c1)c1ccc(-c2c3nc(c(-c4cc(S(=O)(=O)[O-])ccc4F)c4ccc([nH]4)c(-c4cc(S(=O)(=O)[O-])ccc4F)c4nc(c(-c5cc(S(=O)(=O)[O-])ccc5F)c5ccc2[nH]5)C=C4)C=C3)cc1
REMARK SMILES IDX 5 1 4 2 3 3 1 4 2 5 28 7 29 8 90 9 30 10 89 11 31 12 32 13
REMARK SMILES IDX 33 14 83 15 34 16 88 17 82 18 84 19 35 20 87 21 81 22 80 23
REMARK SMILES IDX 36 25 68 26 48 27 67 28 49 29 52 30 66 31 85 32 50 33 51 34
REMARK SMILES IDX 65 36 86 37 53 38 37 39 38 40 46 41 39 42 45 43 47 44 44 45
REMARK SMILES IDX 40 46 41 47 42 48 43 49 69 50 70 51 78 52 71 53 77 54 79 55
REMARK SMILES IDX 76 56 72 57 73 58 74 59 75 60 54 61 55 62 63 63 56 64 62 65
REMARK SMILES IDX 64 66 61 67 57 68 58 69 59 70 60 71 6 72 7 73 8 74 9 75
REMARK SMILES IDX 10 77 11 78 12 79 16 80 13 81 15 82 14 83 17 84 18 86 19 87
REMARK SMILES IDX 27 88 20 89 22 90 21 91 23 92 24 93 25 94 26 95
REMARK H PARENT 3 6 84 24 52 35 8 76 17 85
REMARK Flexibility Score: inf
ROOT
ATOM      1  C   UNL     1       4.883   2.281   1.182  1.00  0.00     0.023 C 
ENDROOT
BRANCH   1   2
ATOM      2  C   UNL     1       4.543   0.816   0.939  1.00  0.00     0.116 C 
BRANCH   2   3
ATOM      3  N   UNL     1       3.111   0.570   0.907  1.00  0.00    -0.352 N 
ATOM      4  O   UNL     1       1.141  -0.047   0.004  1.00  0.00    -0.269 OA
ATOM      5  C   UNL     1       2.367  -0.060  -0.062  1.00  0.00     0.251 C 
ATOM      6  H   UNL     1       2.605   0.899   1.684  1.00  0.00     0.163 HD
BRANCH   5   7
ATOM      7  C   UNL     1       3.048  -0.734  -1.187  1.00  0.00     0.039 A 
ATOM      8  C   UNL     1       4.138  -1.579  -0.956  1.00  0.00     0.014 A 
ATOM      9  C   UNL     1       2.582  -0.528  -2.489  1.00  0.00     0.014 A 
ATOM     10  C   UNL     1       4.831  -2.126  -2.030  1.00  0.00     0.010 A 
ATOM     11  C   UNL     1       3.233  -1.141  -3.563  1.00  0.00     0.010 A 
ATOM     12  C   UNL     1       4.371  -1.933  -3.343  1.00  0.00    -0.014 A 
BRANCH  12  13
ATOM     13  C   UNL     1       5.029  -2.653  -4.462  1.00  0.00     0.031 A 
ATOM     14  C   UNL     1       5.763  -1.910  -5.542  1.00  0.00     0.074 A 
ATOM     15  C   UNL     1       4.939  -3.998  -4.495  1.00  0.00     0.049 A 
ATOM     16  N   UNL     1       6.351  -2.384  -6.610  1.00  0.00    -0.248 NA
ATOM     17  C   UNL     1       5.841  -0.447  -5.412  1.00  0.00     0.031 C 
ATOM     18  C   UNL     1       4.241  -4.817  -3.498  1.00  0.00     0.029 A 
ATOM     19  N   UNL     1       5.424  -4.915  -5.391  1.00  0.00    -0.354 N 
ATOM     20  C   UNL     1       6.851  -1.281  -7.294  1.00  0.00     0.074 A 
ATOM     21  C   UNL     1       6.482  -0.111  -6.524  1.00  0.00     0.031 C 
ATOM     22  C   UNL     1       4.357  -6.110  -3.829  1.00  0.00     0.029 A 
ATOM     23  C   UNL     1       5.070  -6.211  -5.096  1.00  0.00     0.049 A 
ATOM     24  H   UNL     1       5.972  -4.669  -6.171  1.00  0.00     0.167 HD
ATOM     25  C   UNL     1       7.550  -1.257  -8.456  1.00  0.00     0.034 A 
ATOM     26  C   UNL     1       5.257  -7.352  -5.788  1.00  0.00     0.034 A 
ATOM     27  C   UNL     1       7.916  -2.441  -9.197  1.00  0.00     0.049 A 
ATOM     28  C   UNL     1       5.990  -7.284  -7.100  1.00  0.00     0.074 A 
ATOM     29  C   UNL     1       8.701  -2.535 -10.334  1.00  0.00     0.029 A 
ATOM     30  N   UNL     1       7.505  -3.732  -8.892  1.00  0.00    -0.354 N 
ATOM     31  N   UNL     1       6.510  -6.238  -7.699  1.00  0.00    -0.248 NA
ATOM     32  C   UNL     1       6.158  -8.546  -7.831  1.00  0.00     0.031 C 
ATOM     33  C   UNL     1       8.699  -3.868 -10.759  1.00  0.00     0.029 A 
ATOM     34  C   UNL     1       7.974  -4.620  -9.848  1.00  0.00     0.049 A 
ATOM     35  H   UNL     1       6.961  -3.981  -8.110  1.00  0.00     0.167 HD
ATOM     36  C   UNL     1       7.078  -6.720  -8.874  1.00  0.00     0.074 A 
ATOM     37  C   UNL     1       6.858  -8.152  -8.885  1.00  0.00     0.031 C 
ATOM     38  C   UNL     1       7.722  -6.041  -9.856  1.00  0.00     0.034 A 
BRANCH  25  39
ATOM     39  C   UNL     1       7.924   0.086  -9.031  1.00  0.00     0.023 A 
ATOM     40  C   UNL     1       8.852   0.936  -8.407  1.00  0.00     0.031 A 
ATOM     41  C   UNL     1       7.359   0.508 -10.249  1.00  0.00     0.131 A 
ATOM     42  C   UNL     1       9.156   2.182  -8.980  1.00  0.00     0.055 A 
ATOM     43  C   UNL     1       7.711   1.720 -10.846  1.00  0.00     0.041 A 
ATOM     44  F   UNL     1       6.454  -0.255 -10.881  1.00  0.00    -0.206 F 
ATOM     45  C   UNL     1       8.609   2.569 -10.207  1.00  0.00     0.022 A 
BRANCH  42  46
ATOM     46  S   UNL     1      10.205   3.336  -8.053  1.00  0.00     0.124 S 
ATOM     47  O   UNL     1       9.437   3.512  -6.823  1.00  0.00    -0.237 OA
ATOM     48  O   UNL     1      11.453   2.593  -7.925  1.00  0.00    -0.237 OA
ATOM     49  O   UNL     1      10.266   4.514  -8.916  1.00  0.00    -0.744 OA
ENDBRANCH  42  46
ENDBRANCH  25  39
BRANCH  26  50
ATOM     50  C   UNL     1       4.683  -8.634  -5.292  1.00  0.00     0.023 A 
ATOM     51  C   UNL     1       5.507  -9.718  -4.956  1.00  0.00     0.031 A 
ATOM     52  C   UNL     1       3.290  -8.807  -5.185  1.00  0.00     0.131 A 
ATOM     53  C   UNL     1       4.932 -10.940  -4.572  1.00  0.00     0.055 A 
ATOM     54  C   UNL     1       2.725 -10.004  -4.746  1.00  0.00     0.041 A 
ATOM     55  F   UNL     1       2.455  -7.801  -5.494  1.00  0.00    -0.206 F 
ATOM     56  C   UNL     1       3.547 -11.085  -4.451  1.00  0.00     0.022 A 
BRANCH  53  57
ATOM     57  S   UNL     1       6.018 -12.371  -4.330  1.00  0.00     0.124 S 
ATOM     58  O   UNL     1       6.727 -12.426  -5.604  1.00  0.00    -0.237 OA
ATOM     59  O   UNL     1       6.807 -11.958  -3.174  1.00  0.00    -0.237 OA
ATOM     60  O   UNL     1       5.085 -13.469  -4.087  1.00  0.00    -0.744 OA
ENDBRANCH  53  57
ENDBRANCH  26  50
BRANCH  38  61
ATOM     61  C   UNL     1       8.246  -6.855 -11.010  1.00  0.00     0.023 A 
ATOM     62  C   UNL     1       7.376  -7.465 -11.931  1.00  0.00     0.031 A 
ATOM     63  C   UNL     1       9.629  -7.035 -11.183  1.00  0.00     0.131 A 
ATOM     64  C   UNL     1       7.897  -8.265 -12.958  1.00  0.00     0.055 A 
ATOM     65  C   UNL     1      10.144  -7.786 -12.240  1.00  0.00     0.041 A 
ATOM     66  F   UNL     1      10.502  -6.477 -10.329  1.00  0.00    -0.206 F 
ATOM     67  C   UNL     1       9.276  -8.415 -13.128  1.00  0.00     0.022 A 
BRANCH  64  68
ATOM     68  S   UNL     1       6.745  -9.166 -14.030  1.00  0.00     0.124 S 
ATOM     69  O   UNL     1       6.074 -10.047 -13.079  1.00  0.00    -0.237 OA
ATOM     70  O   UNL     1       5.930  -8.092 -14.589  1.00  0.00    -0.237 OA
ATOM     71  O   UNL     1       7.622  -9.838 -14.987  1.00  0.00    -0.744 OA
ENDBRANCH  64  68
ENDBRANCH  38  61
ENDBRANCH  12  13
ENDBRANCH   5   7
ENDBRANCH   2   3
ENDBRANCH   1   2
BRANCH   1  72
ATOM     72  C   UNL     1       4.370   2.860   2.500  1.00  0.00     0.023 C 
BRANCH  72  73
ATOM     73  C   UNL     1       4.737   2.058   3.747  1.00  0.00     0.116 C 
BRANCH  73  74
ATOM     74  N   UNL     1       6.176   1.949   3.922  1.00  0.00    -0.352 N 
ATOM     75  C   UNL     1       6.968   2.463   4.916  1.00  0.00     0.255 C 
ATOM     76  H   UNL     1       6.648   1.432   3.229  1.00  0.00     0.163 HD
ATOM     77  O   UNL     1       8.187   2.506   4.772  1.00  0.00    -0.269 OA
BRANCH  75  78
ATOM     78  C   UNL     1       6.370   2.991   6.155  1.00  0.00     0.082 A 
ATOM     79  C   UNL     1       5.429   2.228   6.859  1.00  0.00     0.019 A 
ATOM     80  C   UNL     1       6.799   4.215   6.682  1.00  0.00     0.143 A 
ATOM     81  C   UNL     1       4.858   2.743   8.013  1.00  0.00     0.021 A 
ATOM     82  N   UNL     1       6.229   4.715   7.811  1.00  0.00    -0.238 NA
ATOM     83  C   UNL     1       5.279   3.988   8.438  1.00  0.00     0.113 A 
BRANCH  80  84
ATOM     84  N   UNL     1       7.763   4.997   6.010  1.00  0.00    -0.340 N 
ATOM     85  H   UNL     1       7.940   4.759   5.071  1.00  0.00     0.168 HD
BRANCH  84  86
ATOM     86  C   UNL     1       8.500   6.077   6.527  1.00  0.00     0.040 A 
ATOM     87  C   UNL     1       8.820   7.155   5.696  1.00  0.00     0.026 A 
ATOM     88  C   UNL     1       9.010   6.058   7.830  1.00  0.00     0.039 A 
ATOM     89  C   UNL     1       9.586   8.220   6.175  1.00  0.00     0.003 A 
ATOM     90  C   UNL     1       9.801   7.107   8.320  1.00  0.00     0.058 A 
ATOM     91  C   UNL     1      10.073   8.197   7.482  1.00  0.00     0.013 A 
BRANCH  90  92
ATOM     92  C   UNL     1      10.354   7.064   9.720  1.00  0.00     0.416 C 
ATOM     93  F   UNL     1      11.711   7.204   9.749  1.00  0.00    -0.166 F 
ATOM     94  F   UNL     1       9.866   8.064  10.507  1.00  0.00    -0.166 F 
ATOM     95  F   UNL     1      10.092   5.905  10.388  1.00  0.00    -0.166 F 
ENDBRANCH  90  92
ENDBRANCH  84  86
ENDBRANCH  80  84
ENDBRANCH  75  78
ENDBRANCH  73  74
ENDBRANCH  72  73
ENDBRANCH   1  72
TORSDOF 17
