REMARK SMILES Cc1ccc([C@@H](C(=O)N(CC(=O)NCCCCNC(=O)c2ccc(-c3c4nc(c(-c5cc(S(=O)(=O)[O-])ccc5F)c5ccc([nH]5)c(-c5cc(S(=O)(=O)[O-])ccc5F)c5nc(c(-c6cc(S(=O)(=O)[O-])ccc6F)c6ccc3[nH]6)C=C5)C=C4)cc2)C2CC[NH+](C)CC2)[NH+](C)C)cc1
REMARK SMILES IDX 15 1 14 2 13 3 11 4 12 5 10 7 9 8 7 9 8 10 6 11 5 12 1 13
REMARK SMILES IDX 2 14 3 15 95 16 4 17 94 18 91 19 92 20 93 21 84 23 85 24
REMARK SMILES IDX 90 25 86 26 89 27 87 28 88 29 16 31 17 32 18 33 19 34 20 36
REMARK SMILES IDX 21 37 22 38 83 39 23 40 82 41 24 42 25 43 26 44 76 45 27 46
REMARK SMILES IDX 81 47 75 48 77 49 28 50 80 51 74 52 73 53 29 55 61 56 41 57
REMARK SMILES IDX 60 58 42 59 45 60 59 61 78 62 43 63 44 64 58 66 79 67 46 68
REMARK SMILES IDX 30 69 31 70 39 71 32 72 38 73 40 74 37 75 33 76 34 77 35 78
REMARK SMILES IDX 36 79 62 80 63 81 71 82 64 83 70 84 72 85 69 86 65 87 66 88
REMARK SMILES IDX 67 89 68 90 47 91 48 92 56 93 49 94 55 95 57 96 54 97 50 98
REMARK SMILES IDX 51 99 52 100 53 101
REMARK H PARENT 13 6 91 22 87 30 18 35 77 54 45 65
REMARK Flexibility Score: inf
ROOT
ATOM      1  C   UNL     1      -1.076  -2.992  -2.917  1.00  0.00     0.023 C 
ENDROOT
BRANCH   1   2
ATOM      2  C   UNL     1      -0.683  -1.532  -2.707  1.00  0.00     0.116 C 
BRANCH   2   3
ATOM      3  N   UNL     1      -0.722  -0.659  -3.858  1.00  0.00    -0.355 N 
ATOM      4  C   UNL     1      -1.310   0.581  -3.888  1.00  0.00     0.239 C 
ATOM      5  O   UNL     1      -0.872   1.415  -4.686  1.00  0.00    -0.273 OA
ATOM      6  H   UNL     1      -0.294  -0.979  -4.685  1.00  0.00     0.163 HD
BRANCH   4   7
ATOM      7  C   UNL     1      -2.448   0.957  -2.908  1.00  0.00     0.219 C 
BRANCH   7   8
ATOM      8  N   UNL     1      -3.520  -0.026  -2.662  1.00  0.00    -0.324 N 
BRANCH   8   9
ATOM      9  C   UNL     1      -3.760  -0.572  -1.367  1.00  0.00     0.286 C 
ATOM     10  O   UNL     1      -4.233  -1.713  -1.289  1.00  0.00    -0.267 OA
BRANCH   9  11
ATOM     11  C   UNL     1      -3.547   0.345  -0.068  1.00  0.00     0.305 C 
BRANCH  11  12
ATOM     12  C   UNL     1      -2.074   0.513   0.311  1.00  0.00     0.019 A 
ATOM     13  C   UNL     1       1.965   0.944  -0.862  1.00  0.00     0.044 C 
ATOM     14  C   UNL     1       0.655   0.820  -0.145  1.00  0.00    -0.051 A 
ATOM     15  C   UNL     1       0.142  -0.438   0.176  1.00  0.00     0.004 A 
ATOM     16  C   UNL     1      -0.142   1.947   0.057  1.00  0.00     0.004 A 
ATOM     17  C   UNL     1      -1.222  -0.592   0.400  1.00  0.00     0.011 A 
ATOM     18  C   UNL     1      -1.502   1.796   0.323  1.00  0.00     0.011 A 
ENDBRANCH  11  12
BRANCH  11  19
ATOM     19  N   UNL     1      -4.432   0.003   1.087  1.00  0.00    -0.326 N 
ATOM     20  C   UNL     1      -5.848   0.028   0.750  1.00  0.00     0.333 C 
ATOM     21  C   UNL     1      -4.080  -1.254   1.755  1.00  0.00     0.333 C 
ATOM     22  H   UNL     1      -4.260   0.752   1.758  1.00  0.00     0.348 HD
ENDBRANCH  11  19
ENDBRANCH   9  11
ENDBRANCH   8   9
BRANCH   8  23
ATOM     23  C   UNL     1      -4.168  -0.705  -3.831  1.00  0.00     0.097 C 
ATOM     24  C   UNL     1      -3.935  -0.121  -5.244  1.00  0.00     0.086 C 
ATOM     25  C   UNL     1      -5.699  -0.775  -3.688  1.00  0.00     0.086 C 
ATOM     26  C   UNL     1      -4.601   1.239  -5.452  1.00  0.00     0.264 C 
ATOM     27  C   UNL     1      -6.311   0.616  -3.810  1.00  0.00     0.264 C 
ATOM     28  N   UNL     1      -6.030   1.242  -5.110  1.00  0.00    -0.337 N 
ATOM     29  C   UNL     1      -6.530   2.620  -5.107  1.00  0.00     0.332 C 
ATOM     30  H   UNL     1      -6.507   0.687  -5.820  1.00  0.00     0.347 HD
ENDBRANCH   8  23
ENDBRANCH   7   8
ENDBRANCH   4   7
ENDBRANCH   2   3
ENDBRANCH   1   2
BRANCH   1  31
ATOM     31  C   UNL     1       0.043  -3.903  -3.411  1.00  0.00     0.023 C 
BRANCH  31  32
ATOM     32  C   UNL     1       1.263  -3.989  -2.498  1.00  0.00     0.116 C 
BRANCH  32  33
ATOM     33  N   UNL     1       1.372  -5.156  -1.640  1.00  0.00    -0.352 N 
ATOM     34  C   UNL     1       2.450  -5.563  -0.865  1.00  0.00     0.251 C 
ATOM     35  H   UNL     1       0.577  -5.735  -1.604  1.00  0.00     0.163 HD
ATOM     36  O   UNL     1       2.469  -6.681  -0.358  1.00  0.00    -0.269 OA
BRANCH  34  37
ATOM     37  C   UNL     1       3.538  -4.601  -0.526  1.00  0.00     0.039 A 
ATOM     38  C   UNL     1       4.027  -4.604   0.791  1.00  0.00     0.014 A 
ATOM     39  C   UNL     1       3.926  -3.587  -1.394  1.00  0.00     0.014 A 
ATOM     40  C   UNL     1       4.677  -3.478   1.292  1.00  0.00     0.010 A 
ATOM     41  C   UNL     1       4.441  -2.425  -0.876  1.00  0.00     0.010 A 
ATOM     42  C   UNL     1       4.759  -2.356   0.479  1.00  0.00    -0.014 A 
BRANCH  42  43
ATOM     43  C   UNL     1       5.094  -1.025   0.949  1.00  0.00     0.031 A 
ATOM     44  C   UNL     1       6.424  -0.482   0.670  1.00  0.00     0.074 A 
ATOM     45  C   UNL     1       4.090  -0.259   1.421  1.00  0.00     0.049 A 
ATOM     46  N   UNL     1       6.932   0.541   1.253  1.00  0.00    -0.248 NA
ATOM     47  C   UNL     1       7.319  -1.100  -0.298  1.00  0.00     0.031 C 
ATOM     48  C   UNL     1       4.057   1.185   1.631  1.00  0.00     0.029 A 
ATOM     49  N   UNL     1       2.871  -0.696   1.925  1.00  0.00    -0.354 N 
ATOM     50  C   UNL     1       8.066   0.899   0.558  1.00  0.00     0.074 A 
ATOM     51  C   UNL     1       8.314  -0.211  -0.328  1.00  0.00     0.031 C 
ATOM     52  C   UNL     1       3.023   1.477   2.443  1.00  0.00     0.029 A 
ATOM     53  C   UNL     1       2.497   0.205   2.925  1.00  0.00     0.049 A 
ATOM     54  H   UNL     1       2.366  -1.489   1.632  1.00  0.00     0.167 HD
ATOM     55  C   UNL     1       8.559   2.159   0.730  1.00  0.00     0.034 A 
ATOM     56  C   UNL     1       2.454  -0.177   4.235  1.00  0.00     0.034 A 
ATOM     57  C   UNL     1       7.794   2.863   1.772  1.00  0.00     0.049 A 
ATOM     58  C   UNL     1       3.519   0.584   5.020  1.00  0.00     0.074 A 
ATOM     59  C   UNL     1       6.798   3.826   1.724  1.00  0.00     0.029 A 
ATOM     60  N   UNL     1       7.764   2.343   3.068  1.00  0.00    -0.354 N 
ATOM     61  N   UNL     1       4.599   1.104   4.491  1.00  0.00    -0.248 NA
ATOM     62  C   UNL     1       3.419   0.847   6.450  1.00  0.00     0.031 C 
ATOM     63  C   UNL     1       6.099   3.795   2.966  1.00  0.00     0.029 A 
ATOM     64  C   UNL     1       6.696   2.849   3.787  1.00  0.00     0.049 A 
ATOM     65  H   UNL     1       8.419   1.699   3.423  1.00  0.00     0.167 HD
ATOM     66  C   UNL     1       5.305   1.784   5.447  1.00  0.00     0.074 A 
ATOM     67  C   UNL     1       4.523   1.585   6.660  1.00  0.00     0.031 C 
ATOM     68  C   UNL     1       6.471   2.455   5.177  1.00  0.00     0.034 A 
BRANCH  55  69
ATOM     69  C   UNL     1       9.524   2.856  -0.219  1.00  0.00     0.023 A 
ATOM     70  C   UNL     1       9.603   4.266  -0.198  1.00  0.00     0.031 A 
ATOM     71  C   UNL     1      10.341   2.239  -1.190  1.00  0.00     0.131 A 
ATOM     72  C   UNL     1      10.376   4.981  -1.138  1.00  0.00     0.055 A 
ATOM     73  C   UNL     1      11.076   2.947  -2.152  1.00  0.00     0.041 A 
ATOM     74  F   UNL     1      10.531   0.918  -1.236  1.00  0.00    -0.206 F 
ATOM     75  C   UNL     1      11.092   4.328  -2.135  1.00  0.00     0.022 A 
BRANCH  72  76
ATOM     76  S   UNL     1      10.443   6.790  -1.040  1.00  0.00     0.124 S 
ATOM     77  O   UNL     1       9.053   7.162  -1.280  1.00  0.00    -0.237 OA
ATOM     78  O   UNL     1      10.950   7.009   0.310  1.00  0.00    -0.237 OA
ATOM     79  O   UNL     1      11.372   7.154  -2.111  1.00  0.00    -0.744 OA
ENDBRANCH  72  76
ENDBRANCH  55  69
BRANCH  56  80
ATOM     80  C   UNL     1       2.116  -1.631   4.420  1.00  0.00     0.023 A 
ATOM     81  C   UNL     1       0.863  -2.116   3.957  1.00  0.00     0.031 A 
ATOM     82  C   UNL     1       3.133  -2.575   4.638  1.00  0.00     0.131 A 
ATOM     83  C   UNL     1       0.709  -3.474   3.617  1.00  0.00     0.055 A 
ATOM     84  C   UNL     1       2.964  -3.926   4.311  1.00  0.00     0.041 A 
ATOM     85  F   UNL     1       4.355  -2.183   5.025  1.00  0.00    -0.206 F 
ATOM     86  C   UNL     1       1.766  -4.373   3.762  1.00  0.00     0.022 A 
BRANCH  83  87
ATOM     87  S   UNL     1      -0.809  -4.115   2.846  1.00  0.00     0.124 S 
ATOM     88  O   UNL     1      -1.321  -5.006   3.849  1.00  0.00    -0.237 OA
ATOM     89  O   UNL     1      -1.603  -2.902   2.612  1.00  0.00    -0.237 OA
ATOM     90  O   UNL     1      -0.300  -4.735   1.616  1.00  0.00    -0.744 OA
ENDBRANCH  83  87
ENDBRANCH  56  80
BRANCH  68  91
ATOM     91  C   UNL     1       7.476   2.880   6.229  1.00  0.00     0.023 A 
ATOM     92  C   UNL     1       7.446   2.398   7.544  1.00  0.00     0.031 A 
ATOM     93  C   UNL     1       8.580   3.711   5.914  1.00  0.00     0.131 A 
ATOM     94  C   UNL     1       8.388   2.813   8.498  1.00  0.00     0.055 A 
ATOM     95  C   UNL     1       9.580   4.034   6.836  1.00  0.00     0.041 A 
ATOM     96  F   UNL     1       8.750   4.235   4.691  1.00  0.00    -0.206 F 
ATOM     97  C   UNL     1       9.476   3.603   8.148  1.00  0.00     0.022 A 
BRANCH  94  98
ATOM     98  S   UNL     1       8.088   2.367  10.226  1.00  0.00     0.124 S 
ATOM     99  O   UNL     1       6.817   3.039  10.489  1.00  0.00    -0.237 OA
ATOM    100  O   UNL     1       8.031   0.910  10.170  1.00  0.00    -0.237 OA
ATOM    101  O   UNL     1       9.241   2.920  10.930  1.00  0.00    -0.744 OA
ENDBRANCH  94  98
ENDBRANCH  68  91
ENDBRANCH  42  43
ENDBRANCH  34  37
ENDBRANCH  32  33
ENDBRANCH  31  32
ENDBRANCH   1  31
TORSDOF 20
