REMARK SMILES CC(=O)N1CCC[C@H]1COCC(=O)NCCCCNC(=O)c1ccc(-c2c3nc(c(-c4cc(S(=O)(=O)[O-])ccc4F)c4ccc([nH]4)c(-c4cc(S(=O)(=O)[O-])ccc4F)c4nc(c(-c5cc(S(=O)(=O)[O-])ccc5F)c5ccc2[nH]5)C=C4)C=C3)cc1
REMARK SMILES IDX 16 1 15 2 14 3 12 4 13 5 11 7 10 8 9 9 8 10 4 11 5 12 6 13
REMARK SMILES IDX 7 14 2 15 1 16 3 17 17 18 18 19 19 20 20 21 21 23 22 24
REMARK SMILES IDX 23 25 84 26 24 27 83 28 25 29 26 30 27 31 77 32 28 33 82 34
REMARK SMILES IDX 76 35 78 36 29 37 81 38 75 39 74 40 30 42 62 43 42 44 61 45
REMARK SMILES IDX 43 46 46 47 60 48 79 49 44 50 45 51 59 53 80 54 47 55 31 56
REMARK SMILES IDX 32 57 40 58 33 59 39 60 41 61 38 62 34 63 35 64 36 65 37 66
REMARK SMILES IDX 63 67 64 68 72 69 65 70 71 71 73 72 70 73 66 74 67 75 68 76
REMARK SMILES IDX 69 77 48 78 49 79 57 80 50 81 56 82 58 83 55 84 51 85 52 86
REMARK SMILES IDX 53 87 54 88
REMARK H PARENT 14 6 19 22 78 41 46 52
REMARK Flexibility Score: inf
ROOT
ATOM      1  C   UNL     1      -1.226   6.730   4.682  1.00  0.00     0.023 C 
ENDROOT
BRANCH   1   2
ATOM      2  C   UNL     1      -0.179   6.221   5.669  1.00  0.00     0.116 C 
BRANCH   2   3
ATOM      3  N   UNL     1      -0.631   5.056   6.403  1.00  0.00    -0.354 N 
ATOM      4  C   UNL     1      -0.097   3.801   6.405  1.00  0.00     0.245 C 
ATOM      5  O   UNL     1      -0.608   2.931   7.111  1.00  0.00    -0.272 OA
ATOM      6  H   UNL     1      -1.424   5.187   6.973  1.00  0.00     0.163 HD
BRANCH   4   7
ATOM      7  C   UNL     1       1.118   3.496   5.511  1.00  0.00     0.260 C 
BRANCH   7   8
ATOM      8  O   UNL     1       0.977   3.481   4.100  1.00  0.00    -0.370 OA
BRANCH   8   9
ATOM      9  C   UNL     1      -0.235   2.911   3.592  1.00  0.00     0.185 C 
BRANCH   9  10
ATOM     10  C   UNL     1      -0.218   1.390   3.319  1.00  0.00     0.111 C 
ATOM     11  N   UNL     1       0.680   1.013   2.233  1.00  0.00    -0.338 N 
ATOM     12  C   UNL     1       1.975   0.631   2.752  1.00  0.00     0.120 C 
ATOM     13  C   UNL     1       1.687   0.088   4.143  1.00  0.00     0.024 C 
ATOM     14  C   UNL     1       0.247   0.496   4.466  1.00  0.00     0.029 C 
BRANCH  11  15
ATOM     15  C   UNL     1       0.269   1.023   0.921  1.00  0.00     0.219 C 
ATOM     16  C   UNL     1       1.194   0.384  -0.081  1.00  0.00     0.114 C 
ATOM     17  O   UNL     1      -0.824   1.469   0.572  1.00  0.00    -0.275 OA
ENDBRANCH  11  15
ENDBRANCH   9  10
ENDBRANCH   8   9
ENDBRANCH   7   8
ENDBRANCH   4   7
ENDBRANCH   2   3
ENDBRANCH   1   2
BRANCH   1  18
ATOM     18  C   UNL     1      -2.543   7.199   5.307  1.00  0.00     0.023 C 
BRANCH  18  19
ATOM     19  C   UNL     1      -2.419   8.194   6.457  1.00  0.00     0.116 C 
BRANCH  19  20
ATOM     20  N   UNL     1      -1.686   9.398   6.099  1.00  0.00    -0.352 N 
ATOM     21  C   UNL     1      -1.977  10.708   6.399  1.00  0.00     0.251 C 
ATOM     22  H   UNL     1      -0.868   9.255   5.570  1.00  0.00     0.163 HD
ATOM     23  O   UNL     1      -1.295  11.609   5.917  1.00  0.00    -0.269 OA
BRANCH  21  24
ATOM     24  C   UNL     1      -3.136  11.026   7.262  1.00  0.00     0.039 A 
ATOM     25  C   UNL     1      -4.039  12.007   6.844  1.00  0.00     0.014 A 
ATOM     26  C   UNL     1      -3.350  10.338   8.459  1.00  0.00     0.014 A 
ATOM     27  C   UNL     1      -5.198  12.243   7.588  1.00  0.00     0.010 A 
ATOM     28  C   UNL     1      -4.539  10.524   9.160  1.00  0.00     0.010 A 
ATOM     29  C   UNL     1      -5.479  11.474   8.729  1.00  0.00    -0.014 A 
BRANCH  29  30
ATOM     30  C   UNL     1      -6.752  11.642   9.481  1.00  0.00     0.031 A 
ATOM     31  C   UNL     1      -6.726  12.108  10.911  1.00  0.00     0.074 A 
ATOM     32  C   UNL     1      -7.921  11.305   8.901  1.00  0.00     0.049 A 
ATOM     33  N   UNL     1      -7.713  12.229  11.762  1.00  0.00    -0.248 NA
ATOM     34  C   UNL     1      -5.409  12.454  11.466  1.00  0.00     0.031 C 
ATOM     35  C   UNL     1      -8.072  10.802   7.533  1.00  0.00     0.029 A 
ATOM     36  N   UNL     1      -9.204  11.324   9.388  1.00  0.00    -0.354 N 
ATOM     37  C   UNL     1      -7.136  12.649  12.956  1.00  0.00     0.074 A 
ATOM     38  C   UNL     1      -5.707  12.699  12.732  1.00  0.00     0.031 C 
ATOM     39  C   UNL     1      -9.373  10.581   7.286  1.00  0.00     0.029 A 
ATOM     40  C   UNL     1     -10.146  10.880   8.487  1.00  0.00     0.049 A 
ATOM     41  H   UNL     1      -9.430  11.626  10.297  1.00  0.00     0.167 HD
ATOM     42  C   UNL     1      -7.744  12.983  14.122  1.00  0.00     0.034 A 
ATOM     43  C   UNL     1     -11.478  10.718   8.618  1.00  0.00     0.034 A 
ATOM     44  C   UNL     1      -9.172  12.938  14.323  1.00  0.00     0.049 A 
ATOM     45  C   UNL     1     -12.131  11.075   9.930  1.00  0.00     0.074 A 
ATOM     46  C   UNL     1      -9.898  13.305  15.443  1.00  0.00     0.029 A 
ATOM     47  N   UNL     1     -10.095  12.490  13.384  1.00  0.00    -0.354 N 
ATOM     48  N   UNL     1     -11.576  11.517  11.035  1.00  0.00    -0.248 NA
ATOM     49  C   UNL     1     -13.589  10.922  10.008  1.00  0.00     0.031 C 
ATOM     50  C   UNL     1     -11.247  13.017  15.208  1.00  0.00     0.029 A 
ATOM     51  C   UNL     1     -11.377  12.545  13.911  1.00  0.00     0.049 A 
ATOM     52  H   UNL     1      -9.871  12.180  12.477  1.00  0.00     0.167 HD
ATOM     53  C   UNL     1     -12.624  11.729  11.927  1.00  0.00     0.074 A 
ATOM     54  C   UNL     1     -13.842  11.374  11.227  1.00  0.00     0.031 C 
ATOM     55  C   UNL     1     -12.584  12.183  13.205  1.00  0.00     0.034 A 
BRANCH  42  56
ATOM     56  C   UNL     1      -6.857  13.399  15.272  1.00  0.00     0.023 A 
ATOM     57  C   UNL     1      -6.030  14.534  15.193  1.00  0.00     0.031 A 
ATOM     58  C   UNL     1      -6.811  12.635  16.451  1.00  0.00     0.131 A 
ATOM     59  C   UNL     1      -5.133  14.823  16.233  1.00  0.00     0.055 A 
ATOM     60  C   UNL     1      -5.980  12.978  17.520  1.00  0.00     0.041 A 
ATOM     61  F   UNL     1      -7.561  11.529  16.580  1.00  0.00    -0.206 F 
ATOM     62  C   UNL     1      -5.121  14.068  17.408  1.00  0.00     0.022 A 
BRANCH  59  63
ATOM     63  S   UNL     1      -3.877  16.102  15.961  1.00  0.00     0.124 S 
ATOM     64  O   UNL     1      -3.182  15.586  14.784  1.00  0.00    -0.237 OA
ATOM     65  O   UNL     1      -4.684  17.298  15.754  1.00  0.00    -0.237 OA
ATOM     66  O   UNL     1      -3.094  16.081  17.195  1.00  0.00    -0.744 OA
ENDBRANCH  59  63
ENDBRANCH  42  56
BRANCH  43  67
ATOM     67  C   UNL     1     -12.288  10.188   7.484  1.00  0.00     0.023 A 
ATOM     68  C   UNL     1     -13.263  10.981   6.858  1.00  0.00     0.031 A 
ATOM     69  C   UNL     1     -12.125   8.866   7.032  1.00  0.00     0.131 A 
ATOM     70  C   UNL     1     -14.068  10.433   5.847  1.00  0.00     0.055 A 
ATOM     71  C   UNL     1     -12.893   8.341   5.991  1.00  0.00     0.041 A 
ATOM     72  F   UNL     1     -11.204   8.066   7.592  1.00  0.00    -0.206 F 
ATOM     73  C   UNL     1     -13.881   9.123   5.400  1.00  0.00     0.022 A 
BRANCH  70  74
ATOM     74  S   UNL     1     -15.425  11.435   5.179  1.00  0.00     0.124 S 
ATOM     75  O   UNL     1     -16.206  11.715   6.378  1.00  0.00    -0.237 OA
ATOM     76  O   UNL     1     -14.708  12.567   4.601  1.00  0.00    -0.237 OA
ATOM     77  O   UNL     1     -16.061  10.544   4.212  1.00  0.00    -0.744 OA
ENDBRANCH  70  74
ENDBRANCH  43  67
BRANCH  55  78
ATOM     78  C   UNL     1     -13.905  12.375  13.909  1.00  0.00     0.023 A 
ATOM     79  C   UNL     1     -14.729  11.290  14.255  1.00  0.00     0.031 A 
ATOM     80  C   UNL     1     -14.344  13.671  14.236  1.00  0.00     0.131 A 
ATOM     81  C   UNL     1     -15.973  11.524  14.861  1.00  0.00     0.055 A 
ATOM     82  C   UNL     1     -15.555  13.893  14.893  1.00  0.00     0.041 A 
ATOM     83  F   UNL     1     -13.598  14.743  13.928  1.00  0.00    -0.206 F 
ATOM     84  C   UNL     1     -16.383  12.816  15.198  1.00  0.00     0.022 A 
BRANCH  81  85
ATOM     85  S   UNL     1     -17.090  10.120  15.130  1.00  0.00     0.124 S 
ATOM     86  O   UNL     1     -17.272   9.612  13.774  1.00  0.00    -0.237 OA
ATOM     87  O   UNL     1     -16.316   9.272  16.031  1.00  0.00    -0.237 OA
ATOM     88  O   UNL     1     -18.276  10.734  15.726  1.00  0.00    -0.744 OA
ENDBRANCH  81  85
ENDBRANCH  55  78
ENDBRANCH  29  30
ENDBRANCH  21  24
ENDBRANCH  19  20
ENDBRANCH  18  19
ENDBRANCH   1  18
TORSDOF 18
