REMARK SMILES O=C(NCCCCNC(=O)c1ccc(-c2c3nc(c(-c4cc(S(=O)(=O)[O-])ccc4F)c4ccc([nH]4)c(-c4cc(S(=O)(=O)[O-])ccc4F)c4nc(c(-c5cc(S(=O)(=O)[O-])ccc5F)c5ccc2[nH]5)C=C4)C=C3)cc1)c1ccc(NC(=O)[C@@H]2CC=CC[C@H]2C(=O)Nc2cccc([N+](=O)[O-])c2)cc1
REMARK SMILES IDX 4 1 3 2 1 3 2 4 74 6 75 7 100 8 76 9 99 10 77 11 78 12 79 13
REMARK SMILES IDX 80 15 81 16 82 17 86 18 83 19 85 20 84 21 87 22 88 23 89 24
REMARK SMILES IDX 90 26 91 27 98 28 92 29 94 30 93 31 95 32 96 33 97 34 5 35
REMARK SMILES IDX 6 36 7 37 8 38 9 39 10 41 11 42 12 43 73 44 13 45 72 46
REMARK SMILES IDX 14 47 15 48 16 49 66 50 17 51 71 52 65 53 67 54 18 55 70 56
REMARK SMILES IDX 64 57 63 58 19 60 51 61 31 62 50 63 32 64 35 65 49 66 68 67
REMARK SMILES IDX 33 68 34 69 48 71 69 72 36 73 20 74 21 75 29 76 22 77 28 78
REMARK SMILES IDX 30 79 27 80 23 81 24 82 25 83 26 84 52 85 53 86 61 87 54 88
REMARK SMILES IDX 60 89 62 90 59 91 55 92 56 93 57 94 58 95 37 96 38 97 46 98
REMARK SMILES IDX 39 99 45 100 47 101 44 102 40 103 41 104 42 105 43 106
REMARK H PARENT 3 5 78 14 89 25 8 40 67 59 35 70
REMARK Flexibility Score: inf
ROOT
ATOM      1  C   UNL     1      12.963  -3.038   1.042  1.00  0.00     0.116 C 
ENDROOT
BRANCH   1   2
ATOM      2  N   UNL     1      14.069  -2.283   1.621  1.00  0.00    -0.352 N 
ATOM      3  O   UNL     1      14.982  -0.589   2.845  1.00  0.00    -0.269 OA
ATOM      4  C   UNL     1      13.989  -1.196   2.465  1.00  0.00     0.251 C 
ATOM      5  H   UNL     1      14.976  -2.584   1.382  1.00  0.00     0.163 HD
BRANCH   4   6
ATOM      6  C   UNL     1      12.646  -0.751   2.873  1.00  0.00     0.039 A 
ATOM      7  C   UNL     1      11.785  -1.659   3.482  1.00  0.00     0.016 A 
ATOM      8  C   UNL     1      12.188   0.502   2.479  1.00  0.00     0.016 A 
ATOM      9  C   UNL     1      10.422  -1.379   3.539  1.00  0.00     0.027 A 
ATOM     10  C   UNL     1      10.827   0.796   2.607  1.00  0.00     0.027 A 
ATOM     11  C   UNL     1       9.918  -0.162   3.091  1.00  0.00     0.041 A 
BRANCH  11  12
ATOM     12  N   UNL     1       8.564   0.205   3.065  1.00  0.00    -0.326 N 
ATOM     13  C   UNL     1       7.367  -0.398   3.264  1.00  0.00     0.228 C 
ATOM     14  H   UNL     1       8.454   1.157   2.841  1.00  0.00     0.169 HD
ATOM     15  O   UNL     1       6.373   0.337   3.149  1.00  0.00    -0.274 OA
BRANCH  13  16
ATOM     16  C   UNL     1       7.128  -1.876   3.525  1.00  0.00     0.095 C 
ATOM     17  C   UNL     1       7.593  -2.371   4.901  1.00  0.00     0.041 C 
ATOM     18  C   UNL     1       7.443  -2.736   2.294  1.00  0.00     0.095 C 
ATOM     19  C   UNL     1       7.899  -3.839   4.952  1.00  0.00    -0.030 C 
ATOM     20  C   UNL     1       7.334  -4.247   2.544  1.00  0.00     0.041 C 
ATOM     21  C   UNL     1       7.778  -4.672   3.910  1.00  0.00    -0.030 C 
BRANCH  18  22
ATOM     22  C   UNL     1       6.713  -2.338   0.989  1.00  0.00     0.228 C 
ATOM     23  O   UNL     1       7.367  -1.810   0.080  1.00  0.00    -0.274 OA
ATOM     24  N   UNL     1       5.413  -2.666   0.702  1.00  0.00    -0.326 N 
ATOM     25  H   UNL     1       5.187  -2.618  -0.255  1.00  0.00     0.169 HD
BRANCH  24  26
ATOM     26  C   UNL     1       4.352  -3.057   1.525  1.00  0.00     0.048 A 
ATOM     27  C   UNL     1       3.591  -4.171   1.164  1.00  0.00     0.026 A 
ATOM     28  C   UNL     1       4.001  -2.338   2.661  1.00  0.00     0.111 A 
ATOM     29  C   UNL     1       2.603  -4.660   2.028  1.00  0.00     0.009 A 
ATOM     30  C   UNL     1       3.063  -2.859   3.558  1.00  0.00     0.271 A 
ATOM     31  C   UNL     1       2.363  -4.028   3.249  1.00  0.00     0.086 A 
BRANCH  30  32
ATOM     32  N   UNL     1       2.862  -2.202   4.854  1.00  0.00     0.062 N 
ATOM     33  O   UNL     1       1.919  -2.592   5.556  1.00  0.00    -0.258 OA
ATOM     34  O   UNL     1       3.664  -1.317   5.184  1.00  0.00    -0.258 OA
ENDBRANCH  30  32
ENDBRANCH  24  26
ENDBRANCH  18  22
ENDBRANCH  13  16
ENDBRANCH  11  12
ENDBRANCH   4   6
ENDBRANCH   1   2
BRANCH   1  35
ATOM     35  C   UNL     1      13.154  -3.386  -0.427  1.00  0.00     0.023 C 
BRANCH  35  36
ATOM     36  C   UNL     1      14.334  -4.301  -0.728  1.00  0.00     0.023 C 
BRANCH  36  37
ATOM     37  C   UNL     1      14.358  -5.609   0.054  1.00  0.00     0.116 C 
BRANCH  37  38
ATOM     38  N   UNL     1      13.224  -6.475  -0.243  1.00  0.00    -0.352 N 
ATOM     39  C   UNL     1      13.218  -7.755  -0.751  1.00  0.00     0.251 C 
ATOM     40  H   UNL     1      12.338  -6.091  -0.054  1.00  0.00     0.163 HD
ATOM     41  O   UNL     1      12.157  -8.290  -1.058  1.00  0.00    -0.269 OA
BRANCH  39  42
ATOM     42  C   UNL     1      14.502  -8.457  -0.965  1.00  0.00     0.039 A 
ATOM     43  C   UNL     1      14.772  -9.009  -2.220  1.00  0.00     0.014 A 
ATOM     44  C   UNL     1      15.463  -8.502   0.048  1.00  0.00     0.014 A 
ATOM     45  C   UNL     1      16.050  -9.505  -2.493  1.00  0.00     0.010 A 
ATOM     46  C   UNL     1      16.754  -8.926  -0.249  1.00  0.00     0.010 A 
ATOM     47  C   UNL     1      17.067  -9.410  -1.529  1.00  0.00    -0.014 A 
BRANCH  47  48
ATOM     48  C   UNL     1      18.477  -9.755  -1.849  1.00  0.00     0.031 A 
ATOM     49  C   UNL     1      19.169 -10.869  -1.118  1.00  0.00     0.074 A 
ATOM     50  C   UNL     1      19.165  -8.986  -2.716  1.00  0.00     0.049 A 
ATOM     51  N   UNL     1      20.425 -11.232  -1.160  1.00  0.00    -0.248 NA
ATOM     52  C   UNL     1      18.343 -11.652  -0.190  1.00  0.00     0.031 C 
ATOM     53  C   UNL     1      18.621  -7.835  -3.442  1.00  0.00     0.029 A 
ATOM     54  N   UNL     1      20.479  -9.035  -3.111  1.00  0.00    -0.354 N 
ATOM     55  C   UNL     1      20.545 -12.281  -0.255  1.00  0.00     0.074 A 
ATOM     56  C   UNL     1      19.245 -12.447   0.364  1.00  0.00     0.031 C 
ATOM     57  C   UNL     1      19.593  -7.287  -4.190  1.00  0.00     0.029 A 
ATOM     58  C   UNL     1      20.835  -8.018  -3.966  1.00  0.00     0.049 A 
ATOM     59  H   UNL     1      21.106  -9.732  -2.811  1.00  0.00     0.167 HD
ATOM     60  C   UNL     1      21.631 -13.048   0.017  1.00  0.00     0.034 A 
ATOM     61  C   UNL     1      22.033  -7.689  -4.489  1.00  0.00     0.034 A 
ATOM     62  C   UNL     1      22.918 -12.868  -0.611  1.00  0.00     0.049 A 
ATOM     63  C   UNL     1      23.234  -8.531  -4.154  1.00  0.00     0.074 A 
ATOM     64  C   UNL     1      24.060 -13.639  -0.477  1.00  0.00     0.029 A 
ATOM     65  N   UNL     1      23.242 -11.831  -1.478  1.00  0.00    -0.354 N 
ATOM     66  N   UNL     1      23.316  -9.566  -3.352  1.00  0.00    -0.248 NA
ATOM     67  C   UNL     1      24.500  -8.162  -4.799  1.00  0.00     0.031 C 
ATOM     68  C   UNL     1      25.089 -13.033  -1.209  1.00  0.00     0.029 A 
ATOM     69  C   UNL     1      24.575 -11.919  -1.853  1.00  0.00     0.049 A 
ATOM     70  H   UNL     1      22.616 -11.135  -1.782  1.00  0.00     0.167 HD
ATOM     71  C   UNL     1      24.644  -9.978  -3.401  1.00  0.00     0.074 A 
ATOM     72  C   UNL     1      25.320  -9.090  -4.326  1.00  0.00     0.031 C 
ATOM     73  C   UNL     1      25.247 -11.002  -2.745  1.00  0.00     0.034 A 
BRANCH  60  74
ATOM     74  C   UNL     1      21.464 -14.129   1.059  1.00  0.00     0.023 A 
ATOM     75  C   UNL     1      20.547 -15.181   0.885  1.00  0.00     0.031 A 
ATOM     76  C   UNL     1      22.183 -14.079   2.265  1.00  0.00     0.131 A 
ATOM     77  C   UNL     1      20.301 -16.079   1.934  1.00  0.00     0.055 A 
ATOM     78  C   UNL     1      21.998 -15.028   3.273  1.00  0.00     0.041 A 
ATOM     79  F   UNL     1      23.061 -13.089   2.497  1.00  0.00    -0.206 F 
ATOM     80  C   UNL     1      21.037 -16.024   3.119  1.00  0.00     0.022 A 
BRANCH  77  81
ATOM     81  S   UNL     1      18.886 -17.205   1.792  1.00  0.00     0.124 S 
ATOM     82  O   UNL     1      17.786 -16.270   1.561  1.00  0.00    -0.237 OA
ATOM     83  O   UNL     1      19.262 -18.042   0.659  1.00  0.00    -0.237 OA
ATOM     84  O   UNL     1      18.854 -17.881   3.087  1.00  0.00    -0.744 OA
ENDBRANCH  77  81
ENDBRANCH  60  74
BRANCH  61  85
ATOM     85  C   UNL     1      22.159  -6.482  -5.351  1.00  0.00     0.023 A 
ATOM     86  C   UNL     1      22.400  -6.595  -6.728  1.00  0.00     0.031 A 
ATOM     87  C   UNL     1      22.035  -5.194  -4.800  1.00  0.00     0.131 A 
ATOM     88  C   UNL     1      22.534  -5.436  -7.508  1.00  0.00     0.055 A 
ATOM     89  C   UNL     1      22.132  -4.046  -5.586  1.00  0.00     0.041 A 
ATOM     90  F   UNL     1      21.791  -5.038  -3.489  1.00  0.00    -0.206 F 
ATOM     91  C   UNL     1      22.391  -4.163  -6.948  1.00  0.00     0.022 A 
BRANCH  88  92
ATOM     92  S   UNL     1      22.932  -5.613  -9.268  1.00  0.00     0.124 S 
ATOM     93  O   UNL     1      24.231  -6.274  -9.215  1.00  0.00    -0.237 OA
ATOM     94  O   UNL     1      21.819  -6.423  -9.751  1.00  0.00    -0.237 OA
ATOM     95  O   UNL     1      22.951  -4.235  -9.753  1.00  0.00    -0.744 OA
ENDBRANCH  88  92
ENDBRANCH  61  85
BRANCH  73  96
ATOM     96  C   UNL     1      26.714 -11.214  -3.020  1.00  0.00     0.023 A 
ATOM     97  C   UNL     1      27.685 -10.303  -2.568  1.00  0.00     0.031 A 
ATOM     98  C   UNL     1      27.144 -12.333  -3.755  1.00  0.00     0.131 A 
ATOM     99  C   UNL     1      29.035 -10.504  -2.892  1.00  0.00     0.055 A 
ATOM    100  C   UNL     1      28.494 -12.554  -4.032  1.00  0.00     0.041 A 
ATOM    101  F   UNL     1      26.257 -13.231  -4.213  1.00  0.00    -0.206 F 
ATOM    102  C   UNL     1      29.447 -11.631  -3.608  1.00  0.00     0.022 A 
BRANCH  99 103
ATOM    103  S   UNL     1      30.244  -9.235  -2.425  1.00  0.00     0.124 S 
ATOM    104  O   UNL     1      29.763  -8.073  -3.166  1.00  0.00    -0.237 OA
ATOM    105  O   UNL     1      30.092  -9.175  -0.975  1.00  0.00    -0.237 OA
ATOM    106  O   UNL     1      31.516  -9.784  -2.891  1.00  0.00    -0.744 OA
ENDBRANCH  99 103
ENDBRANCH  73  96
ENDBRANCH  47  48
ENDBRANCH  39  42
ENDBRANCH  37  38
ENDBRANCH  36  37
ENDBRANCH  35  36
ENDBRANCH   1  35
TORSDOF 19
