REMARK SMILES COc1ccc(-c2ccc(C(=O)NCc3ccc(C(=O)NCCCCNC(=O)c4ccc(-c5c6nc(c(-c7cc(S(=O)(=O)[O-])ccc7F)c7ccc([nH]7)c(-c7cc(S(=O)(=O)[O-])ccc7F)c7nc(c(-c8cc(S(=O)(=O)[O-])ccc8F)c8ccc5[nH]8)C=C7)C=C6)cc4)cc3)o2)c([N+](=O)[O-])c1
REMARK SMILES IDX 22 1 21 2 19 3 20 4 18 6 15 7 16 8 93 9 17 10 92 11 14 12
REMARK SMILES IDX 13 13 11 14 12 15 10 17 7 18 8 19 94 20 9 21 6 22 3 23 4 24
REMARK SMILES IDX 99 25 5 26 95 27 2 28 1 29 96 30 97 31 98 32 23 33 24 34
REMARK SMILES IDX 25 35 26 36 27 37 28 39 29 40 30 41 91 42 31 43 90 44 32 45
REMARK SMILES IDX 33 46 34 47 84 48 35 49 89 50 83 51 85 52 36 53 88 54 82 55
REMARK SMILES IDX 81 56 37 58 69 59 49 60 68 61 50 62 53 63 67 64 86 65 51 66
REMARK SMILES IDX 52 67 66 69 87 70 54 71 38 72 39 73 47 74 40 75 46 76 48 77
REMARK SMILES IDX 45 78 41 79 42 80 43 81 44 82 70 83 71 84 79 85 72 86 78 87
REMARK SMILES IDX 80 88 77 89 73 90 74 91 75 92 76 93 55 94 56 95 64 96 57 97
REMARK SMILES IDX 63 98 65 99 62 100 58 101 59 102 60 103 61 104
REMARK H PARENT 21 5 13 16 26 38 85 57 53 68
REMARK Flexibility Score: inf
ROOT
ATOM      1  C   UNL     1       2.825  -3.889  16.699  1.00  0.00     0.116 C 
ENDROOT
BRANCH   1   2
ATOM      2  N   UNL     1       3.031  -2.504  16.326  1.00  0.00    -0.352 N 
ATOM      3  C   UNL     1       3.251  -1.929  15.099  1.00  0.00     0.251 C 
ATOM      4  O   UNL     1       3.333  -0.703  15.032  1.00  0.00    -0.269 OA
ATOM      5  H   UNL     1       3.010  -1.869  17.078  1.00  0.00     0.163 HD
BRANCH   3   6
ATOM      6  C   UNL     1       3.344  -2.725  13.844  1.00  0.00     0.039 A 
ATOM      7  C   UNL     1       3.453  -4.107  11.376  1.00  0.00    -0.029 A 
ATOM      8  C   UNL     1       2.899  -2.821  11.457  1.00  0.00     0.006 A 
ATOM      9  C   UNL     1       3.974  -4.678  12.541  1.00  0.00     0.006 A 
ATOM     10  C   UNL     1       2.852  -2.136  12.675  1.00  0.00     0.014 A 
ATOM     11  C   UNL     1       3.934  -3.987  13.755  1.00  0.00     0.014 A 
BRANCH   7  12
ATOM     12  C   UNL     1       3.530  -4.866  10.078  1.00  0.00     0.152 C 
BRANCH  12  13
ATOM     13  N   UNL     1       2.225  -5.069   9.498  1.00  0.00    -0.345 N 
ATOM     14  C   UNL     1       1.628  -4.544   8.381  1.00  0.00     0.287 C 
ATOM     15  O   UNL     1       0.547  -5.052   8.070  1.00  0.00    -0.266 OA
ATOM     16  H   UNL     1       1.659  -5.703   9.995  1.00  0.00     0.164 HD
BRANCH  14  17
ATOM     17  C   UNL     1       2.226  -3.457   7.627  1.00  0.00     0.192 A 
ATOM     18  C   UNL     1       2.311  -2.125   5.858  1.00  0.00     0.142 A 
ATOM     19  C   UNL     1       3.311  -1.702   6.700  1.00  0.00     0.052 A 
ATOM     20  O   UNL     1       1.644  -3.169   6.412  1.00  0.00    -0.451 OA
ATOM     21  C   UNL     1       3.254  -2.550   7.831  1.00  0.00     0.057 A 
BRANCH  18  22
ATOM     22  C   UNL     1       1.825  -1.675   4.567  1.00  0.00     0.095 A 
ATOM     23  C   UNL     1       0.833  -0.545   2.167  1.00  0.00     0.125 A 
ATOM     24  C   UNL     1      -0.001  -0.717   3.275  1.00  0.00     0.047 A 
ATOM     25  C   UNL     1       2.159  -0.960   2.242  1.00  0.00     0.132 A 
ATOM     26  C   UNL     1       0.484  -1.284   4.457  1.00  0.00     0.023 A 
ATOM     27  C   UNL     1       2.641  -1.524   3.437  1.00  0.00     0.284 A 
BRANCH  23  28
ATOM     28  O   UNL     1       0.239   0.054   1.093  1.00  0.00    -0.497 OA
ATOM     29  C   UNL     1       0.966   0.055  -0.130  1.00  0.00     0.278 C 
ENDBRANCH  23  28
BRANCH  27  30
ATOM     30  N   UNL     1       4.032  -1.956   3.452  1.00  0.00     0.063 N 
ATOM     31  O   UNL     1       4.284  -3.095   3.866  1.00  0.00    -0.258 OA
ATOM     32  O   UNL     1       4.870  -1.160   3.003  1.00  0.00    -0.258 OA
ENDBRANCH  27  30
ENDBRANCH  18  22
ENDBRANCH  14  17
ENDBRANCH  12  13
ENDBRANCH   7  12
ENDBRANCH   3   6
ENDBRANCH   1   2
BRANCH   1  33
ATOM     33  C   UNL     1       4.131  -4.519  17.188  1.00  0.00     0.023 C 
BRANCH  33  34
ATOM     34  C   UNL     1       4.479  -4.218  18.645  1.00  0.00     0.023 C 
BRANCH  34  35
ATOM     35  C   UNL     1       3.492  -4.771  19.663  1.00  0.00     0.116 C 
BRANCH  35  36
ATOM     36  N   UNL     1       3.303  -6.208  19.558  1.00  0.00    -0.352 N 
ATOM     37  C   UNL     1       2.971  -7.101  20.553  1.00  0.00     0.251 C 
ATOM     38  H   UNL     1       3.428  -6.593  18.661  1.00  0.00     0.163 HD
ATOM     39  O   UNL     1       2.960  -8.297  20.321  1.00  0.00    -0.269 OA
BRANCH  37  40
ATOM     40  C   UNL     1       2.683  -6.584  21.910  1.00  0.00     0.039 A 
ATOM     41  C   UNL     1       3.315  -7.183  23.000  1.00  0.00     0.014 A 
ATOM     42  C   UNL     1       1.830  -5.493  22.097  1.00  0.00     0.014 A 
ATOM     43  C   UNL     1       3.139  -6.644  24.276  1.00  0.00     0.010 A 
ATOM     44  C   UNL     1       1.720  -4.911  23.355  1.00  0.00     0.010 A 
ATOM     45  C   UNL     1       2.369  -5.484  24.459  1.00  0.00    -0.014 A 
BRANCH  45  46
ATOM     46  C   UNL     1       2.227  -4.869  25.803  1.00  0.00     0.031 A 
ATOM     47  C   UNL     1       0.880  -4.815  26.470  1.00  0.00     0.074 A 
ATOM     48  C   UNL     1       3.305  -4.322  26.398  1.00  0.00     0.049 A 
ATOM     49  N   UNL     1       0.552  -4.311  27.631  1.00  0.00    -0.248 NA
ATOM     50  C   UNL     1      -0.252  -5.373  25.715  1.00  0.00     0.031 C 
ATOM     51  C   UNL     1       4.650  -4.259  25.819  1.00  0.00     0.029 A 
ATOM     52  N   UNL     1       3.444  -3.714  27.620  1.00  0.00    -0.354 N 
ATOM     53  C   UNL     1      -0.824  -4.483  27.744  1.00  0.00     0.074 A 
ATOM     54  C   UNL     1      -1.274  -5.071  26.500  1.00  0.00     0.031 C 
ATOM     55  C   UNL     1       5.481  -3.680  26.700  1.00  0.00     0.029 A 
ATOM     56  C   UNL     1       4.727  -3.300  27.890  1.00  0.00     0.049 A 
ATOM     57  H   UNL     1       2.694  -3.587  28.246  1.00  0.00     0.167 HD
ATOM     58  C   UNL     1      -1.631  -4.204  28.797  1.00  0.00     0.034 A 
ATOM     59  C   UNL     1       5.238  -2.686  28.975  1.00  0.00     0.034 A 
ATOM     60  C   UNL     1      -1.160  -3.628  30.034  1.00  0.00     0.049 A 
ATOM     61  C   UNL     1       4.325  -2.396  30.139  1.00  0.00     0.074 A 
ATOM     62  C   UNL     1      -1.876  -3.348  31.184  1.00  0.00     0.029 A 
ATOM     63  N   UNL     1       0.151  -3.239  30.280  1.00  0.00    -0.354 N 
ATOM     64  N   UNL     1       3.036  -2.623  30.256  1.00  0.00    -0.248 NA
ATOM     65  C   UNL     1       4.940  -1.787  31.324  1.00  0.00     0.031 C 
ATOM     66  C   UNL     1      -1.014  -2.735  32.101  1.00  0.00     0.029 A 
ATOM     67  C   UNL     1       0.259  -2.701  31.554  1.00  0.00     0.049 A 
ATOM     68  H   UNL     1       0.896  -3.331  29.642  1.00  0.00     0.167 HD
ATOM     69  C   UNL     1       2.695  -2.214  31.542  1.00  0.00     0.074 A 
ATOM     70  C   UNL     1       3.917  -1.746  32.164  1.00  0.00     0.031 C 
ATOM     71  C   UNL     1       1.484  -2.228  32.156  1.00  0.00     0.034 A 
BRANCH  58  72
ATOM     72  C   UNL     1      -3.104  -4.504  28.639  1.00  0.00     0.023 A 
ATOM     73  C   UNL     1      -3.570  -5.813  28.419  1.00  0.00     0.031 A 
ATOM     74  C   UNL     1      -4.052  -3.467  28.670  1.00  0.00     0.131 A 
ATOM     75  C   UNL     1      -4.929  -6.039  28.155  1.00  0.00     0.055 A 
ATOM     76  C   UNL     1      -5.417  -3.711  28.493  1.00  0.00     0.041 A 
ATOM     77  F   UNL     1      -3.668  -2.194  28.855  1.00  0.00    -0.206 F 
ATOM     78  C   UNL     1      -5.860  -5.000  28.217  1.00  0.00     0.022 A 
BRANCH  75  79
ATOM     79  S   UNL     1      -5.437  -7.683  27.579  1.00  0.00     0.124 S 
ATOM     80  O   UNL     1      -4.641  -7.826  26.362  1.00  0.00    -0.237 OA
ATOM     81  O   UNL     1      -5.058  -8.540  28.695  1.00  0.00    -0.237 OA
ATOM     82  O   UNL     1      -6.875  -7.540  27.361  1.00  0.00    -0.744 OA
ENDBRANCH  75  79
ENDBRANCH  58  72
BRANCH  59  83
ATOM     83  C   UNL     1       6.682  -2.319  29.027  1.00  0.00     0.023 A 
ATOM     84  C   UNL     1       7.549  -2.921  29.953  1.00  0.00     0.031 A 
ATOM     85  C   UNL     1       7.208  -1.331  28.177  1.00  0.00     0.131 A 
ATOM     86  C   UNL     1       8.883  -2.494  30.042  1.00  0.00     0.055 A 
ATOM     87  C   UNL     1       8.549  -0.946  28.234  1.00  0.00     0.041 A 
ATOM     88  F   UNL     1       6.425  -0.731  27.266  1.00  0.00    -0.206 F 
ATOM     89  C   UNL     1       9.392  -1.520  29.181  1.00  0.00     0.022 A 
BRANCH  86  90
ATOM     90  S   UNL     1       9.926  -3.177  31.360  1.00  0.00     0.124 S 
ATOM     91  O   UNL     1       9.168  -2.820  32.554  1.00  0.00    -0.237 OA
ATOM     92  O   UNL     1       9.955  -4.595  31.018  1.00  0.00    -0.237 OA
ATOM     93  O   UNL     1      11.194  -2.471  31.190  1.00  0.00    -0.744 OA
ENDBRANCH  86  90
ENDBRANCH  59  83
BRANCH  71  94
ATOM     94  C   UNL     1       1.443  -1.763  33.592  1.00  0.00     0.023 A 
ATOM     95  C   UNL     1       1.720  -0.432  33.948  1.00  0.00     0.031 A 
ATOM     96  C   UNL     1       1.150  -2.676  34.621  1.00  0.00     0.131 A 
ATOM     97  C   UNL     1       1.768  -0.067  35.302  1.00  0.00     0.055 A 
ATOM     98  C   UNL     1       1.134  -2.292  35.962  1.00  0.00     0.041 A 
ATOM     99  F   UNL     1       0.878  -3.961  34.338  1.00  0.00    -0.206 F 
ATOM    100  C   UNL     1       1.460  -0.984  36.310  1.00  0.00     0.022 A 
BRANCH  97 101
ATOM    101  S   UNL     1       2.347   1.597  35.733  1.00  0.00     0.124 S 
ATOM    102  O   UNL     1       3.659   1.637  35.096  1.00  0.00    -0.237 OA
ATOM    103  O   UNL     1       1.323   2.448  35.136  1.00  0.00    -0.237 OA
ATOM    104  O   UNL     1       2.367   1.585  37.195  1.00  0.00    -0.744 OA
ENDBRANCH  97 101
ENDBRANCH  71  94
ENDBRANCH  45  46
ENDBRANCH  37  40
ENDBRANCH  35  36
ENDBRANCH  34  35
ENDBRANCH  33  34
ENDBRANCH   1  33
TORSDOF 20
