REMARK SMILES C[N@@H+]1CCC[C@@H](C(=O)N[C@H](C(=O)NCCCCNC(=O)c2ccc(-c3c4nc(c(-c5cc(S(=O)(=O)[O-])ccc5F)c5ccc([nH]5)c(-c5cc(S(=O)(=O)[O-])ccc5F)c5nc(c(-c6cc(S(=O)(=O)[O-])ccc6F)c6ccc3[nH]6)C=C5)C=C4)cc2)c2ccccc2)C1
REMARK SMILES IDX 16 1 15 2 14 3 13 4 11 5 12 6 10 8 9 9 7 10 8 11 6 13 1 14
REMARK SMILES IDX 2 15 3 16 90 17 4 19 5 20 84 21 85 22 89 23 86 24 88 25
REMARK SMILES IDX 87 26 17 27 18 28 19 29 20 31 21 32 22 33 83 34 23 35 82 36
REMARK SMILES IDX 24 37 25 38 26 39 76 40 27 41 81 42 75 43 77 44 28 45 80 46
REMARK SMILES IDX 74 47 73 48 29 50 61 51 41 52 60 53 42 54 45 55 59 56 78 57
REMARK SMILES IDX 43 58 44 59 58 61 79 62 46 63 30 64 31 65 39 66 32 67 38 68
REMARK SMILES IDX 40 69 37 70 33 71 34 72 35 73 36 74 62 75 63 76 71 77 64 78
REMARK SMILES IDX 70 79 72 80 69 81 65 82 66 83 67 84 68 85 47 86 48 87 56 88
REMARK SMILES IDX 49 89 55 90 57 91 54 92 50 93 51 94 52 95 53 96
REMARK H PARENT 13 7 9 12 2 18 18 30 77 49 45 60
REMARK Flexibility Score: inf
ROOT
ATOM      1  C   UNL     1       4.863   0.181   3.759  1.00  0.00     0.023 C 
ENDROOT
BRANCH   1   2
ATOM      2  C   UNL     1       3.943   1.214   3.118  1.00  0.00     0.023 C 
BRANCH   2   3
ATOM      3  C   UNL     1       2.853   0.633   2.213  1.00  0.00     0.116 C 
BRANCH   3   4
ATOM      4  N   UNL     1       1.883  -0.168   2.952  1.00  0.00    -0.354 N 
ATOM      5  C   UNL     1       0.550   0.083   3.190  1.00  0.00     0.247 C 
ATOM      6  O   UNL     1      -0.068  -0.697   3.920  1.00  0.00    -0.272 OA
ATOM      7  H   UNL     1       2.231  -1.005   3.335  1.00  0.00     0.163 HD
BRANCH   5   8
ATOM      8  C   UNL     1      -0.123   1.318   2.535  1.00  0.00     0.202 C 
BRANCH   8   9
ATOM      9  N   UNL     1      -1.567   1.155   2.424  1.00  0.00    -0.340 N 
ATOM     10  C   UNL     1      -2.405   1.078   1.363  1.00  0.00     0.229 C 
ATOM     11  O   UNL     1      -3.609   0.960   1.638  1.00  0.00    -0.275 OA
ATOM     12  H   UNL     1      -2.024   1.088   3.293  1.00  0.00     0.164 HD
BRANCH  10  13
ATOM     13  C   UNL     1      -2.003   1.083  -0.126  1.00  0.00     0.133 C 
ATOM     14  C   UNL     1       1.000   3.277  -0.935  1.00  0.00     0.332 C 
ATOM     15  N   UNL     1       0.247   2.101  -0.518  1.00  0.00    -0.337 N 
ATOM     16  C   UNL     1       0.744   0.875  -1.150  1.00  0.00     0.262 C 
ATOM     17  C   UNL     1      -1.198   2.266  -0.674  1.00  0.00     0.275 C 
ATOM     18  H   UNL     1       0.408   1.999   0.484  1.00  0.00     0.347 HD
ATOM     19  C   UNL     1       0.039  -0.374  -0.610  1.00  0.00     0.062 C 
ATOM     20  C   UNL     1      -1.479  -0.259  -0.641  1.00  0.00     0.025 C 
ENDBRANCH  10  13
ENDBRANCH   8   9
BRANCH   8  21
ATOM     21  C   UNL     1       0.260   2.670   3.133  1.00  0.00    -0.016 A 
ATOM     22  C   UNL     1       1.154   2.808   4.200  1.00  0.00     0.006 A 
ATOM     23  C   UNL     1      -0.141   3.842   2.472  1.00  0.00     0.006 A 
ATOM     24  C   UNL     1       1.781   4.033   4.452  1.00  0.00     0.000 A 
ATOM     25  C   UNL     1       0.463   5.071   2.734  1.00  0.00     0.000 A 
ATOM     26  C   UNL     1       1.462   5.155   3.695  1.00  0.00     0.000 A 
ENDBRANCH   8  21
ENDBRANCH   5   8
ENDBRANCH   3   4
ENDBRANCH   2   3
ENDBRANCH   1   2
BRANCH   1  27
ATOM     27  C   UNL     1       5.748  -0.555   2.768  1.00  0.00     0.116 C 
BRANCH  27  28
ATOM     28  N   UNL     1       6.681   0.339   2.095  1.00  0.00    -0.352 N 
ATOM     29  C   UNL     1       8.058   0.341   2.111  1.00  0.00     0.251 C 
ATOM     30  H   UNL     1       6.266   1.045   1.550  1.00  0.00     0.163 HD
ATOM     31  O   UNL     1       8.668   1.299   1.657  1.00  0.00    -0.269 OA
BRANCH  29  32
ATOM     32  C   UNL     1       8.782  -0.805   2.703  1.00  0.00     0.039 A 
ATOM     33  C   UNL     1       9.883  -0.564   3.527  1.00  0.00     0.014 A 
ATOM     34  C   UNL     1       8.357  -2.114   2.464  1.00  0.00     0.014 A 
ATOM     35  C   UNL     1      10.506  -1.635   4.173  1.00  0.00     0.010 A 
ATOM     36  C   UNL     1       8.909  -3.163   3.190  1.00  0.00     0.010 A 
ATOM     37  C   UNL     1       9.996  -2.938   4.047  1.00  0.00    -0.014 A 
BRANCH  37  38
ATOM     38  C   UNL     1      10.591  -4.083   4.785  1.00  0.00     0.031 A 
ATOM     39  C   UNL     1      11.164  -5.248   4.021  1.00  0.00     0.074 A 
ATOM     40  C   UNL     1      10.556  -4.104   6.133  1.00  0.00     0.049 A 
ATOM     41  N   UNL     1      11.643  -6.378   4.472  1.00  0.00    -0.248 NA
ATOM     42  C   UNL     1      11.165  -5.140   2.554  1.00  0.00     0.031 C 
ATOM     43  C   UNL     1       9.989  -3.052   6.982  1.00  0.00     0.029 A 
ATOM     44  N   UNL     1      11.001  -5.044   7.029  1.00  0.00    -0.354 N 
ATOM     45  C   UNL     1      11.990  -7.118   3.347  1.00  0.00     0.074 A 
ATOM     46  C   UNL     1      11.597  -6.339   2.194  1.00  0.00     0.031 C 
ATOM     47  C   UNL     1      10.151  -3.391   8.271  1.00  0.00     0.029 A 
ATOM     48  C   UNL     1      10.779  -4.706   8.345  1.00  0.00     0.049 A 
ATOM     49  H   UNL     1      11.437  -5.883   6.755  1.00  0.00     0.167 HD
ATOM     50  C   UNL     1      12.607  -8.324   3.281  1.00  0.00     0.034 A 
ATOM     51  C   UNL     1      11.039  -5.384   9.481  1.00  0.00     0.034 A 
ATOM     52  C   UNL     1      13.006  -9.080   4.442  1.00  0.00     0.049 A 
ATOM     53  C   UNL     1      11.694  -6.741   9.379  1.00  0.00     0.074 A 
ATOM     54  C   UNL     1      13.681 -10.287   4.492  1.00  0.00     0.029 A 
ATOM     55  N   UNL     1      12.764  -8.706   5.758  1.00  0.00    -0.354 N 
ATOM     56  N   UNL     1      12.062  -7.404   8.306  1.00  0.00    -0.248 NA
ATOM     57  C   UNL     1      11.980  -7.435  10.641  1.00  0.00     0.031 C 
ATOM     58  C   UNL     1      13.778 -10.680   5.831  1.00  0.00     0.029 A 
ATOM     59  C   UNL     1      13.246  -9.675   6.624  1.00  0.00     0.049 A 
ATOM     60  H   UNL     1      12.315  -7.875   6.035  1.00  0.00     0.167 HD
ATOM     61  C   UNL     1      12.656  -8.575   8.770  1.00  0.00     0.074 A 
ATOM     62  C   UNL     1      12.613  -8.518  10.216  1.00  0.00     0.031 C 
ATOM     63  C   UNL     1      13.192  -9.604   8.065  1.00  0.00     0.034 A 
BRANCH  50  64
ATOM     64  C   UNL     1      12.867  -8.901   1.910  1.00  0.00     0.023 A 
ATOM     65  C   UNL     1      13.704  -8.255   0.983  1.00  0.00     0.031 A 
ATOM     66  C   UNL     1      12.260 -10.107   1.517  1.00  0.00     0.131 A 
ATOM     67  C   UNL     1      13.853  -8.777  -0.311  1.00  0.00     0.055 A 
ATOM     68  C   UNL     1      12.482 -10.667   0.257  1.00  0.00     0.041 A 
ATOM     69  F   UNL     1      11.432 -10.758   2.348  1.00  0.00    -0.206 F 
ATOM     70  C   UNL     1      13.271  -9.995  -0.671  1.00  0.00     0.022 A 
BRANCH  67  71
ATOM     71  S   UNL     1      14.701  -7.770  -1.558  1.00  0.00     0.124 S 
ATOM     72  O   UNL     1      13.872  -6.567  -1.578  1.00  0.00    -0.237 OA
ATOM     73  O   UNL     1      16.035  -7.618  -0.989  1.00  0.00    -0.237 OA
ATOM     74  O   UNL     1      14.627  -8.588  -2.767  1.00  0.00    -0.744 OA
ENDBRANCH  67  71
ENDBRANCH  50  64
BRANCH  51  75
ATOM     75  C   UNL     1      10.676  -4.814  10.812  1.00  0.00     0.023 A 
ATOM     76  C   UNL     1      11.661  -4.542  11.775  1.00  0.00     0.031 A 
ATOM     77  C   UNL     1       9.333  -4.592  11.166  1.00  0.00     0.131 A 
ATOM     78  C   UNL     1      11.286  -4.127  13.063  1.00  0.00     0.055 A 
ATOM     79  C   UNL     1       8.970  -4.115  12.427  1.00  0.00     0.041 A 
ATOM     80  F   UNL     1       8.349  -4.833  10.285  1.00  0.00    -0.206 F 
ATOM     81  C   UNL     1       9.949  -3.896  13.390  1.00  0.00     0.022 A 
BRANCH  78  82
ATOM     82  S   UNL     1      12.568  -4.004  14.341  1.00  0.00     0.124 S 
ATOM     83  O   UNL     1      13.130  -5.349  14.326  1.00  0.00    -0.237 OA
ATOM     84  O   UNL     1      13.422  -2.946  13.811  1.00  0.00    -0.237 OA
ATOM     85  O   UNL     1      11.816  -3.653  15.543  1.00  0.00    -0.744 OA
ENDBRANCH  78  82
ENDBRANCH  51  75
BRANCH  63  86
ATOM     86  C   UNL     1      13.826 -10.724   8.856  1.00  0.00     0.023 A 
ATOM     87  C   UNL     1      13.070 -11.565   9.691  1.00  0.00     0.031 A 
ATOM     88  C   UNL     1      15.213 -10.946   8.775  1.00  0.00     0.131 A 
ATOM     89  C   UNL     1      13.713 -12.548  10.458  1.00  0.00     0.055 A 
ATOM     90  C   UNL     1      15.836 -11.971   9.486  1.00  0.00     0.041 A 
ATOM     91  F   UNL     1      15.985 -10.172   7.996  1.00  0.00    -0.206 F 
ATOM     92  C   UNL     1      15.088 -12.770  10.345  1.00  0.00     0.022 A 
BRANCH  89  93
ATOM     93  S   UNL     1      12.742 -13.468  11.683  1.00  0.00     0.124 S 
ATOM     94  O   UNL     1      12.223 -12.396  12.526  1.00  0.00    -0.237 OA
ATOM     95  O   UNL     1      11.760 -14.156  10.851  1.00  0.00    -0.237 OA
ATOM     96  O   UNL     1      13.730 -14.336  12.321  1.00  0.00    -0.744 OA
ENDBRANCH  89  93
ENDBRANCH  63  86
ENDBRANCH  37  38
ENDBRANCH  29  32
ENDBRANCH  27  28
ENDBRANCH   1  27
TORSDOF 17
