REMARK SMILES COc1cc2c(c(OC)c1)[C@H](C)C[C@H](CC(=O)NCCCCNC(=O)c1ccc(-c3c4nc(c(-c5cc(S(=O)(=O)[O-])ccc5F)c5ccc([nH]5)c(-c5cc(S(=O)(=O)[O-])ccc5F)c5nc(c(-c6cc(S(=O)(=O)[O-])ccc6F)c6ccc3[nH]6)C=C5)C=C4)cc1)C2
REMARK SMILES IDX 21 1 20 2 19 3 18 4 16 5 17 6 15 8 14 9 3 10 4 11 10 12 5 13
REMARK SMILES IDX 7 14 6 15 89 16 11 17 12 18 13 19 2 20 1 21 8 22 9 23 22 24
REMARK SMILES IDX 23 25 24 26 25 28 26 29 27 30 88 31 28 32 87 33 29 34 30 35
REMARK SMILES IDX 31 36 81 37 32 38 86 39 80 40 82 41 33 42 85 43 79 44 78 45
REMARK SMILES IDX 34 47 66 48 46 49 65 50 47 51 50 52 64 53 83 54 48 55 49 56
REMARK SMILES IDX 63 58 84 59 51 60 35 61 36 62 44 63 37 64 43 65 45 66 42 67
REMARK SMILES IDX 38 68 39 69 40 70 41 71 67 72 68 73 76 74 69 75 75 76 77 77
REMARK SMILES IDX 74 78 70 79 71 80 72 81 73 82 52 83 53 84 61 85 54 86 60 87
REMARK SMILES IDX 62 88 59 89 55 90 56 91 57 92 58 93
REMARK H PARENT 18 7 23 27 82 46 50 57
REMARK Flexibility Score: inf
ROOT
ATOM      1  C   UNL     1       3.733   6.029   9.023  1.00  0.00     0.023 C 
ENDROOT
BRANCH   1   2
ATOM      2  C   UNL     1       2.623   5.433   8.178  1.00  0.00     0.023 C 
BRANCH   2   3
ATOM      3  C   UNL     1       1.184   5.796   8.590  1.00  0.00     0.116 C 
BRANCH   3   4
ATOM      4  N   UNL     1       0.643   6.836   7.725  1.00  0.00    -0.356 N 
ATOM      5  C   UNL     1      -0.148   6.793   6.615  1.00  0.00     0.220 C 
ATOM      6  O   UNL     1      -0.380   7.865   6.047  1.00  0.00    -0.275 OA
ATOM      7  H   UNL     1       0.898   7.748   7.995  1.00  0.00     0.163 HD
BRANCH   5   8
ATOM      8  C   UNL     1      -0.757   5.500   6.072  1.00  0.00     0.104 C 
BRANCH   8   9
ATOM      9  C   UNL     1       0.191   4.706   5.151  1.00  0.00     0.003 C 
ATOM     10  C   UNL     1       0.960   1.720   1.281  1.00  0.00     0.122 A 
ATOM     11  C   UNL     1       0.092   2.521   2.023  1.00  0.00     0.050 A 
ATOM     12  C   UNL     1       2.257   1.502   1.736  1.00  0.00     0.093 A 
ATOM     13  C   UNL     1       0.475   3.024   3.276  1.00  0.00    -0.037 A 
ATOM     14  C   UNL     1       2.659   1.991   2.978  1.00  0.00     0.126 A 
ATOM     15  C   UNL     1       1.744   2.670   3.806  1.00  0.00     0.000 A 
ATOM     16  C   UNL     1      -0.514   3.892   4.050  1.00  0.00     0.040 C 
ATOM     17  C   UNL     1       2.094   3.025   5.234  1.00  0.00     0.020 C 
ATOM     18  C   UNL     1       2.542   1.831   6.094  1.00  0.00     0.013 C 
ATOM     19  C   UNL     1       0.924   3.662   5.970  1.00  0.00     0.012 C 
BRANCH  10  20
ATOM     20  O   UNL     1       0.471   1.216   0.105  1.00  0.00    -0.497 OA
ATOM     21  C   UNL     1       0.941  -0.099  -0.191  1.00  0.00     0.278 C 
ENDBRANCH  10  20
BRANCH  14  22
ATOM     22  O   UNL     1       3.943   1.655   3.325  1.00  0.00    -0.496 OA
ATOM     23  C   UNL     1       4.781   2.755   3.678  1.00  0.00     0.278 C 
ENDBRANCH  14  22
ENDBRANCH   8   9
ENDBRANCH   5   8
ENDBRANCH   3   4
ENDBRANCH   2   3
ENDBRANCH   1   2
BRANCH   1  24
ATOM     24  C   UNL     1       3.817   5.444  10.423  1.00  0.00     0.116 C 
BRANCH  24  25
ATOM     25  N   UNL     1       4.080   4.009  10.469  1.00  0.00    -0.352 N 
ATOM     26  C   UNL     1       4.894   3.309  11.343  1.00  0.00     0.251 C 
ATOM     27  H   UNL     1       3.618   3.468   9.789  1.00  0.00     0.163 HD
ATOM     28  O   UNL     1       5.060   2.113  11.208  1.00  0.00    -0.269 OA
BRANCH  26  29
ATOM     29  C   UNL     1       5.596   4.066  12.405  1.00  0.00     0.039 A 
ATOM     30  C   UNL     1       6.961   3.854  12.610  1.00  0.00     0.014 A 
ATOM     31  C   UNL     1       4.920   5.053  13.121  1.00  0.00     0.014 A 
ATOM     32  C   UNL     1       7.661   4.697  13.477  1.00  0.00     0.010 A 
ATOM     33  C   UNL     1       5.641   5.974  13.863  1.00  0.00     0.010 A 
ATOM     34  C   UNL     1       7.014   5.789  14.078  1.00  0.00    -0.014 A 
BRANCH  34  35
ATOM     35  C   UNL     1       7.721   6.713  15.001  1.00  0.00     0.031 A 
ATOM     36  C   UNL     1       7.219   6.856  16.415  1.00  0.00     0.074 A 
ATOM     37  C   UNL     1       8.743   7.469  14.556  1.00  0.00     0.049 A 
ATOM     38  N   UNL     1       7.606   7.678  17.357  1.00  0.00    -0.248 NA
ATOM     39  C   UNL     1       6.082   6.003  16.799  1.00  0.00     0.031 C 
ATOM     40  C   UNL     1       9.267   7.474  13.188  1.00  0.00     0.029 A 
ATOM     41  N   UNL     1       9.526   8.385  15.211  1.00  0.00    -0.354 N 
ATOM     42  C   UNL     1       6.735   7.464  18.421  1.00  0.00     0.074 A 
ATOM     43  C   UNL     1       5.744   6.514  17.970  1.00  0.00     0.031 C 
ATOM     44  C   UNL     1      10.309   8.319  13.118  1.00  0.00     0.029 A 
ATOM     45  C   UNL     1      10.506   8.941  14.423  1.00  0.00     0.049 A 
ATOM     46  H   UNL     1       9.397   8.624  16.158  1.00  0.00     0.167 HD
ATOM     47  C   UNL     1       6.782   7.976  19.676  1.00  0.00     0.034 A 
ATOM     48  C   UNL     1      11.460   9.843  14.727  1.00  0.00     0.034 A 
ATOM     49  C   UNL     1       7.813   8.880  20.117  1.00  0.00     0.049 A 
ATOM     50  C   UNL     1      11.538  10.355  16.143  1.00  0.00     0.074 A 
ATOM     51  C   UNL     1       8.011   9.422  21.373  1.00  0.00     0.029 A 
ATOM     52  N   UNL     1       8.834   9.368  19.308  1.00  0.00    -0.354 N 
ATOM     53  N   UNL     1      10.744  10.102  17.160  1.00  0.00    -0.248 NA
ATOM     54  C   UNL     1      12.657  11.250  16.460  1.00  0.00     0.031 C 
ATOM     55  C   UNL     1       9.121  10.274  21.312  1.00  0.00     0.029 A 
ATOM     56  C   UNL     1       9.658  10.210  20.036  1.00  0.00     0.049 A 
ATOM     57  H   UNL     1       8.952   9.147  18.356  1.00  0.00     0.167 HD
ATOM     58  C   UNL     1      11.290  10.779  18.246  1.00  0.00     0.074 A 
ATOM     59  C   UNL     1      12.488  11.436  17.761  1.00  0.00     0.031 C 
ATOM     60  C   UNL     1      10.848  10.852  19.528  1.00  0.00     0.034 A 
BRANCH  47  61
ATOM     61  C   UNL     1       5.684   7.566  20.631  1.00  0.00     0.023 A 
ATOM     62  C   UNL     1       5.465   6.217  20.970  1.00  0.00     0.031 A 
ATOM     63  C   UNL     1       4.795   8.522  21.151  1.00  0.00     0.131 A 
ATOM     64  C   UNL     1       4.327   5.852  21.704  1.00  0.00     0.055 A 
ATOM     65  C   UNL     1       3.720   8.161  21.968  1.00  0.00     0.041 A 
ATOM     66  F   UNL     1       4.935   9.822  20.851  1.00  0.00    -0.206 F 
ATOM     67  C   UNL     1       3.467   6.817  22.230  1.00  0.00     0.022 A 
BRANCH  64  68
ATOM     68  S   UNL     1       3.888   4.094  21.798  1.00  0.00     0.124 S 
ATOM     69  O   UNL     1       3.722   3.758  20.385  1.00  0.00    -0.237 OA
ATOM     70  O   UNL     1       5.050   3.513  22.460  1.00  0.00    -0.237 OA
ATOM     71  O   UNL     1       2.654   4.090  22.581  1.00  0.00    -0.744 OA
ENDBRANCH  64  68
ENDBRANCH  47  61
BRANCH  48  72
ATOM     72  C   UNL     1      12.435  10.294  13.693  1.00  0.00     0.023 A 
ATOM     73  C   UNL     1      13.799   9.971  13.797  1.00  0.00     0.031 A 
ATOM     74  C   UNL     1      12.026  11.078  12.601  1.00  0.00     0.131 A 
ATOM     75  C   UNL     1      14.711  10.469  12.854  1.00  0.00     0.055 A 
ATOM     76  C   UNL     1      12.930  11.532  11.638  1.00  0.00     0.041 A 
ATOM     77  F   UNL     1      10.732  11.403  12.446  1.00  0.00    -0.206 F 
ATOM     78  C   UNL     1      14.284  11.239  11.769  1.00  0.00     0.022 A 
BRANCH  75  79
ATOM     79  S   UNL     1      16.480  10.155  13.105  1.00  0.00     0.124 S 
ATOM     80  O   UNL     1      16.705  10.754  14.416  1.00  0.00    -0.237 OA
ATOM     81  O   UNL     1      16.540   8.699  13.046  1.00  0.00    -0.237 OA
ATOM     82  O   UNL     1      17.111  10.849  11.984  1.00  0.00    -0.744 OA
ENDBRANCH  75  79
ENDBRANCH  48  72
BRANCH  60  83
ATOM     83  C   UNL     1      11.705  11.622  20.501  1.00  0.00     0.023 A 
ATOM     84  C   UNL     1      11.887  13.011  20.389  1.00  0.00     0.031 A 
ATOM     85  C   UNL     1      12.367  10.948  21.543  1.00  0.00     0.131 A 
ATOM     86  C   UNL     1      12.765  13.671  21.261  1.00  0.00     0.055 A 
ATOM     87  C   UNL     1      13.188  11.620  22.447  1.00  0.00     0.041 A 
ATOM     88  F   UNL     1      12.226   9.621  21.696  1.00  0.00    -0.206 F 
ATOM     89  C   UNL     1      13.405  12.987  22.299  1.00  0.00     0.022 A 
BRANCH  86  90
ATOM     90  S   UNL     1      13.151  15.415  20.948  1.00  0.00     0.124 S 
ATOM     91  O   UNL     1      13.626  15.378  19.568  1.00  0.00    -0.237 OA
ATOM     92  O   UNL     1      11.861  16.061  21.161  1.00  0.00    -0.237 OA
ATOM     93  O   UNL     1      14.173  15.724  21.946  1.00  0.00    -0.744 OA
ENDBRANCH  86  90
ENDBRANCH  60  83
ENDBRANCH  34  35
ENDBRANCH  26  29
ENDBRANCH  24  25
ENDBRANCH   1  24
TORSDOF 17
