REMARK SMILES CC[C@@](C)(NC(=O)N(C)CCO)C(=O)NCCCCNC(=O)c1ccc(-c2c3nc(c(-c4cc(S(=O)(=O)[O-])ccc4F)c4ccc([nH]4)c(-c4cc(S(=O)(=O)[O-])ccc4F)c4nc(c(-c5cc(S(=O)(=O)[O-])ccc5F)c5ccc2[nH]5)C=C4)C=C3)cc1
REMARK SMILES IDX 16 1 15 2 13 3 14 4 3 6 4 7 2 8 1 9 5 10 6 11 7 13 8 14 9 15
REMARK SMILES IDX 10 16 11 17 12 18 17 20 18 21 19 22 20 23 21 24 22 26 23 27
REMARK SMILES IDX 24 28 85 29 25 30 84 31 26 32 27 33 28 34 78 35 29 36 83 37
REMARK SMILES IDX 77 38 79 39 30 40 82 41 76 42 75 43 31 45 63 46 43 47 62 48
REMARK SMILES IDX 44 49 47 50 61 51 80 52 45 53 46 54 60 56 81 57 48 58 32 59
REMARK SMILES IDX 33 60 41 61 34 62 40 63 42 64 39 65 35 66 36 67 37 68 38 69
REMARK SMILES IDX 64 70 65 71 73 72 66 73 72 74 74 75 71 76 67 77 68 78 69 79
REMARK SMILES IDX 70 80 49 81 50 82 58 83 51 84 57 85 59 86 56 87 52 88 53 89
REMARK SMILES IDX 54 90 55 91
REMARK H PARENT 15 5 5 12 12 19 20 25 79 44 47 55
REMARK Flexibility Score: inf
ROOT
ATOM      1  C   UNL     1       2.166  -0.061  -5.186  1.00  0.00     0.116 C 
ENDROOT
BRANCH   1   2
ATOM      2  N   UNL     1       2.794  -0.243  -3.889  1.00  0.00    -0.354 N 
ATOM      3  C   UNL     1       2.387   0.050  -2.619  1.00  0.00     0.245 C 
ATOM      4  O   UNL     1       3.126  -0.348  -1.713  1.00  0.00    -0.272 OA
ATOM      5  H   UNL     1       3.686  -0.659  -3.934  1.00  0.00     0.163 HD
BRANCH   3   6
ATOM      6  C   UNL     1       1.021   0.736  -2.318  1.00  0.00     0.117 C 
ATOM      7  C   UNL     1      -0.071  -0.317  -2.677  1.00  0.00     0.045 C 
BRANCH   6   8
ATOM      8  C   UNL     1       0.757   1.120  -0.829  1.00  0.00     0.035 C 
ATOM      9  C   UNL     1       0.903   0.016   0.216  1.00  0.00     0.007 C 
ENDBRANCH   6   8
BRANCH   6  10
ATOM     10  N   UNL     1       0.804   1.944  -3.161  1.00  0.00    -0.324 N 
ATOM     11  C   UNL     1       1.413   3.110  -3.459  1.00  0.00     0.318 C 
ATOM     12  H   UNL     1      -0.046   1.869  -3.652  1.00  0.00     0.166 HD
ATOM     13  O   UNL     1       0.689   3.900  -4.077  1.00  0.00    -0.249 OA
BRANCH  11  14
ATOM     14  N   UNL     1       2.735   3.380  -3.248  1.00  0.00    -0.326 N 
ATOM     15  C   UNL     1       3.595   2.773  -2.246  1.00  0.00     0.148 C 
BRANCH  14  16
ATOM     16  C   UNL     1       3.371   4.551  -3.912  1.00  0.00     0.149 C 
BRANCH  16  17
ATOM     17  C   UNL     1       3.148   4.782  -5.419  1.00  0.00     0.177 C 
BRANCH  17  18
ATOM     18  O   UNL     1       1.916   5.430  -5.706  1.00  0.00    -0.395 OA
ATOM     19  H   UNL     1       1.180   4.875  -5.405  1.00  0.00     0.210 HD
ENDBRANCH  17  18
ENDBRANCH  16  17
ENDBRANCH  14  16
ENDBRANCH  11  14
ENDBRANCH   6  10
ENDBRANCH   3   6
ENDBRANCH   1   2
BRANCH   1  20
ATOM     20  C   UNL     1       2.686   1.135  -5.967  1.00  0.00     0.023 C 
BRANCH  20  21
ATOM     21  C   UNL     1       4.200   1.214  -6.106  1.00  0.00     0.023 C 
BRANCH  21  22
ATOM     22  C   UNL     1       4.807   0.003  -6.788  1.00  0.00     0.116 C 
BRANCH  22  23
ATOM     23  N   UNL     1       4.229  -0.219  -8.107  1.00  0.00    -0.352 N 
ATOM     24  C   UNL     1       4.826  -0.190  -9.340  1.00  0.00     0.251 C 
ATOM     25  H   UNL     1       3.265  -0.419  -8.113  1.00  0.00     0.163 HD
ATOM     26  O   UNL     1       4.126  -0.148 -10.352  1.00  0.00    -0.269 OA
BRANCH  24  27
ATOM     27  C   UNL     1       6.298  -0.194  -9.443  1.00  0.00     0.039 A 
ATOM     28  C   UNL     1       6.921   0.583 -10.421  1.00  0.00     0.014 A 
ATOM     29  C   UNL     1       7.063  -0.961  -8.563  1.00  0.00     0.014 A 
ATOM     30  C   UNL     1       8.315   0.634 -10.472  1.00  0.00     0.010 A 
ATOM     31  C   UNL     1       8.441  -0.809  -8.533  1.00  0.00     0.010 A 
ATOM     32  C   UNL     1       9.085  -0.030  -9.503  1.00  0.00    -0.014 A 
BRANCH  32  33
ATOM     33  C   UNL     1      10.568   0.036  -9.501  1.00  0.00     0.031 A 
ATOM     34  C   UNL     1      11.367  -1.236  -9.625  1.00  0.00     0.074 A 
ATOM     35  C   UNL     1      11.185   1.218  -9.314  1.00  0.00     0.049 A 
ATOM     36  N   UNL     1      12.659  -1.415  -9.535  1.00  0.00    -0.248 NA
ATOM     37  C   UNL     1      10.604  -2.478  -9.835  1.00  0.00     0.031 C 
ATOM     38  C   UNL     1      10.511   2.507  -9.134  1.00  0.00     0.029 A 
ATOM     39  N   UNL     1      12.518   1.531  -9.237  1.00  0.00    -0.354 N 
ATOM     40  C   UNL     1      12.859  -2.786  -9.653  1.00  0.00     0.074 A 
ATOM     41  C   UNL     1      11.551  -3.397  -9.739  1.00  0.00     0.031 C 
ATOM     42  C   UNL     1      11.435   3.473  -9.006  1.00  0.00     0.029 A 
ATOM     43  C   UNL     1      12.763   2.870  -9.036  1.00  0.00     0.049 A 
ATOM     44  H   UNL     1      13.234   0.859  -9.318  1.00  0.00     0.167 HD
ATOM     45  C   UNL     1      14.027  -3.470  -9.717  1.00  0.00     0.034 A 
ATOM     46  C   UNL     1      13.926   3.532  -8.881  1.00  0.00     0.034 A 
ATOM     47  C   UNL     1      15.320  -2.836  -9.655  1.00  0.00     0.049 A 
ATOM     48  C   UNL     1      15.213   2.749  -8.939  1.00  0.00     0.074 A 
ATOM     49  C   UNL     1      16.571  -3.416  -9.768  1.00  0.00     0.029 A 
ATOM     50  N   UNL     1      15.529  -1.476  -9.460  1.00  0.00    -0.354 N 
ATOM     51  N   UNL     1      15.389   1.457  -9.102  1.00  0.00    -0.248 NA
ATOM     52  C   UNL     1      16.459   3.513  -8.802  1.00  0.00     0.031 C 
ATOM     53  C   UNL     1      17.533  -2.421  -9.567  1.00  0.00     0.029 A 
ATOM     54  C   UNL     1      16.887  -1.204  -9.416  1.00  0.00     0.049 A 
ATOM     55  H   UNL     1      14.816  -0.803  -9.366  1.00  0.00     0.167 HD
ATOM     56  C   UNL     1      16.767   1.261  -9.122  1.00  0.00     0.074 A 
ATOM     57  C   UNL     1      17.372   2.569  -8.971  1.00  0.00     0.031 C 
ATOM     58  C   UNL     1      17.471   0.107  -9.256  1.00  0.00     0.034 A 
BRANCH  45  59
ATOM     59  C   UNL     1      13.950  -4.974  -9.842  1.00  0.00     0.023 A 
ATOM     60  C   UNL     1      13.329  -5.596 -10.940  1.00  0.00     0.031 A 
ATOM     61  C   UNL     1      14.473  -5.801  -8.832  1.00  0.00     0.131 A 
ATOM     62  C   UNL     1      13.171  -6.990 -10.963  1.00  0.00     0.055 A 
ATOM     63  C   UNL     1      14.395  -7.194  -8.906  1.00  0.00     0.041 A 
ATOM     64  F   UNL     1      15.056  -5.270  -7.747  1.00  0.00    -0.206 F 
ATOM     65  C   UNL     1      13.726  -7.796  -9.967  1.00  0.00     0.022 A 
BRANCH  62  66
ATOM     66  S   UNL     1      12.095  -7.718 -12.228  1.00  0.00     0.124 S 
ATOM     67  O   UNL     1      10.825  -7.048 -11.955  1.00  0.00    -0.237 OA
ATOM     68  O   UNL     1      12.763  -7.340 -13.467  1.00  0.00    -0.237 OA
ATOM     69  O   UNL     1      12.116  -9.146 -11.916  1.00  0.00    -0.744 OA
ENDBRANCH  62  66
ENDBRANCH  45  59
BRANCH  46  70
ATOM     70  C   UNL     1      13.934   5.006  -8.655  1.00  0.00     0.023 A 
ATOM     71  C   UNL     1      14.530   5.876  -9.582  1.00  0.00     0.031 A 
ATOM     72  C   UNL     1      13.383   5.566  -7.488  1.00  0.00     0.131 A 
ATOM     73  C   UNL     1      14.609   7.250  -9.304  1.00  0.00     0.055 A 
ATOM     74  C   UNL     1      13.410   6.941  -7.244  1.00  0.00     0.041 A 
ATOM     75  F   UNL     1      12.797   4.782  -6.569  1.00  0.00    -0.206 F 
ATOM     76  C   UNL     1      14.040   7.790  -8.149  1.00  0.00     0.022 A 
BRANCH  73  77
ATOM     77  S   UNL     1      15.555   8.310 -10.431  1.00  0.00     0.124 S 
ATOM     78  O   UNL     1      16.867   7.672 -10.405  1.00  0.00    -0.237 OA
ATOM     79  O   UNL     1      14.802   8.179 -11.674  1.00  0.00    -0.237 OA
ATOM     80  O   UNL     1      15.487   9.625  -9.798  1.00  0.00    -0.744 OA
ENDBRANCH  73  77
ENDBRANCH  46  70
BRANCH  58  81
ATOM     81  C   UNL     1      18.975   0.223  -9.296  1.00  0.00     0.023 A 
ATOM     82  C   UNL     1      19.715   0.653  -8.181  1.00  0.00     0.031 A 
ATOM     83  C   UNL     1      19.676  -0.099 -10.472  1.00  0.00     0.131 A 
ATOM     84  C   UNL     1      21.105   0.807  -8.285  1.00  0.00     0.055 A 
ATOM     85  C   UNL     1      21.066  -0.009 -10.547  1.00  0.00     0.041 A 
ATOM     86  F   UNL     1      19.019  -0.512 -11.568  1.00  0.00    -0.206 F 
ATOM     87  C   UNL     1      21.787   0.460  -9.454  1.00  0.00     0.022 A 
BRANCH  84  88
ATOM     88  S   UNL     1      22.001   1.566  -6.902  1.00  0.00     0.124 S 
ATOM     89  O   UNL     1      21.333   2.858  -6.782  1.00  0.00    -0.237 OA
ATOM     90  O   UNL     1      21.759   0.621  -5.817  1.00  0.00    -0.237 OA
ATOM     91  O   UNL     1      23.382   1.623  -7.378  1.00  0.00    -0.744 OA
ENDBRANCH  84  88
ENDBRANCH  58  81
ENDBRANCH  32  33
ENDBRANCH  24  27
ENDBRANCH  22  23
ENDBRANCH  21  22
ENDBRANCH  20  21
ENDBRANCH   1  20
TORSDOF 20
