REMARK SMILES Cn1cc(-c2ccn(Cc3ccc(C(=O)NCCCCNC(=O)c4ccc(-c5c6nc(c(-c7cc(S(=O)(=O)[O-])ccc7F)c7ccc([nH]7)c(-c7cc(S(=O)(=O)[O-])ccc7F)c7nc(c(-c8cc(S(=O)(=O)[O-])ccc8F)c8ccc5[nH]8)C=C7)C=C6)cc4)cc3)n2)cn1
REMARK SMILES IDX 18 1 17 2 16 3 14 4 15 5 13 7 10 8 11 9 88 10 12 11 87 12
REMARK SMILES IDX 9 13 8 14 5 15 6 16 89 17 7 18 4 19 1 20 2 21 3 22 91 23
REMARK SMILES IDX 90 24 19 25 20 26 21 27 22 28 23 30 24 31 25 32 86 33 26 34
REMARK SMILES IDX 85 35 27 36 28 37 29 38 79 39 30 40 84 41 78 42 80 43 31 44
REMARK SMILES IDX 83 45 77 46 76 47 32 49 64 50 44 51 63 52 45 53 48 54 62 55
REMARK SMILES IDX 81 56 46 57 47 58 61 60 82 61 49 62 33 63 34 64 42 65 35 66
REMARK SMILES IDX 41 67 43 68 40 69 36 70 37 71 38 72 39 73 65 74 66 75 74 76
REMARK SMILES IDX 67 77 73 78 75 79 72 80 68 81 69 82 70 83 71 84 50 85 51 86
REMARK SMILES IDX 59 87 52 88 58 89 60 90 57 91 53 92 54 93 55 94 56 95
REMARK H PARENT 16 6 21 29 80 48 48 59
REMARK Flexibility Score: inf
ROOT
ATOM      1  C   UNL     1       6.444   3.194   4.992  1.00  0.00     0.023 C 
ENDROOT
BRANCH   1   2
ATOM      2  C   UNL     1       6.822   3.328   3.510  1.00  0.00     0.116 C 
BRANCH   2   3
ATOM      3  N   UNL     1       8.198   2.929   3.274  1.00  0.00    -0.352 N 
ATOM      4  C   UNL     1       8.759   1.760   2.819  1.00  0.00     0.251 C 
ATOM      5  O   UNL     1       9.983   1.725   2.687  1.00  0.00    -0.269 OA
ATOM      6  H   UNL     1       8.856   3.632   3.479  1.00  0.00     0.163 HD
BRANCH   4   7
ATOM      7  C   UNL     1       7.964   0.557   2.442  1.00  0.00     0.039 A 
ATOM      8  C   UNL     1       6.530  -1.712   1.541  1.00  0.00    -0.026 A 
ATOM      9  C   UNL     1       7.796  -1.422   1.020  1.00  0.00     0.006 A 
ATOM     10  C   UNL     1       6.026  -0.896   2.561  1.00  0.00     0.006 A 
ATOM     11  C   UNL     1       8.504  -0.298   1.467  1.00  0.00     0.014 A 
ATOM     12  C   UNL     1       6.743   0.212   3.018  1.00  0.00     0.014 A 
BRANCH   8  13
ATOM     13  C   UNL     1       5.720  -2.885   1.045  1.00  0.00     0.179 C 
BRANCH  13  14
ATOM     14  N   UNL     1       4.549  -2.501   0.256  1.00  0.00    -0.268 N 
ATOM     15  C   UNL     1       2.654  -1.657  -0.173  1.00  0.00     0.095 A 
ATOM     16  C   UNL     1       2.973  -2.475  -1.274  1.00  0.00     0.050 A 
ATOM     17  N   UNL     1       3.587  -1.707   0.781  1.00  0.00    -0.172 NA
ATOM     18  C   UNL     1       4.205  -3.007  -0.971  1.00  0.00     0.110 A 
BRANCH  15  19
ATOM     19  C   UNL     1       1.442  -0.867  -0.069  1.00  0.00     0.040 A 
ATOM     20  C   UNL     1      -2.053  -0.034  -0.036  1.00  0.00     0.173 C 
ATOM     21  N   UNL     1      -0.615  -0.139  -0.011  1.00  0.00    -0.275 N 
ATOM     22  C   UNL     1       0.130  -1.276  -0.132  1.00  0.00     0.118 A 
ATOM     23  N   UNL     1       0.124   0.977   0.128  1.00  0.00    -0.181 NA
ATOM     24  C   UNL     1       1.385   0.528   0.094  1.00  0.00     0.145 A 
ENDBRANCH  15  19
ENDBRANCH  13  14
ENDBRANCH   8  13
ENDBRANCH   4   7
ENDBRANCH   2   3
ENDBRANCH   1   2
BRANCH   1  25
ATOM     25  C   UNL     1       7.037   4.259   5.925  1.00  0.00     0.023 C 
BRANCH  25  26
ATOM     26  C   UNL     1       6.497   5.669   5.720  1.00  0.00     0.116 C 
BRANCH  26  27
ATOM     27  N   UNL     1       5.060   5.774   5.973  1.00  0.00    -0.352 N 
ATOM     28  C   UNL     1       4.209   6.812   5.625  1.00  0.00     0.251 C 
ATOM     29  H   UNL     1       4.647   5.016   6.447  1.00  0.00     0.163 HD
ATOM     30  O   UNL     1       3.175   7.007   6.240  1.00  0.00    -0.269 OA
BRANCH  28  31
ATOM     31  C   UNL     1       4.589   7.665   4.482  1.00  0.00     0.039 A 
ATOM     32  C   UNL     1       4.452   9.054   4.517  1.00  0.00     0.014 A 
ATOM     33  C   UNL     1       5.147   7.030   3.377  1.00  0.00     0.014 A 
ATOM     34  C   UNL     1       4.974   9.802   3.461  1.00  0.00     0.010 A 
ATOM     35  C   UNL     1       5.799   7.770   2.424  1.00  0.00     0.010 A 
ATOM     36  C   UNL     1       5.672   9.153   2.427  1.00  0.00    -0.014 A 
BRANCH  36  37
ATOM     37  C   UNL     1       6.394   9.912   1.408  1.00  0.00     0.031 A 
ATOM     38  C   UNL     1       7.339  10.924   1.952  1.00  0.00     0.074 A 
ATOM     39  C   UNL     1       6.395   9.585   0.096  1.00  0.00     0.049 A 
ATOM     40  N   UNL     1       7.216  12.208   1.917  1.00  0.00    -0.248 NA
ATOM     41  C   UNL     1       8.469  10.466   2.777  1.00  0.00     0.031 C 
ATOM     42  C   UNL     1       5.765   8.433  -0.560  1.00  0.00     0.029 A 
ATOM     43  N   UNL     1       7.072  10.167  -0.930  1.00  0.00    -0.354 N 
ATOM     44  C   UNL     1       8.379  12.725   2.478  1.00  0.00     0.074 A 
ATOM     45  C   UNL     1       8.988  11.628   3.182  1.00  0.00     0.031 C 
ATOM     46  C   UNL     1       6.293   8.267  -1.794  1.00  0.00     0.029 A 
ATOM     47  C   UNL     1       7.163   9.392  -2.084  1.00  0.00     0.049 A 
ATOM     48  H   UNL     1       7.468  11.066  -0.862  1.00  0.00     0.167 HD
ATOM     49  C   UNL     1       8.859  13.943   2.097  1.00  0.00     0.034 A 
ATOM     50  C   UNL     1       7.920   9.640  -3.189  1.00  0.00     0.034 A 
ATOM     51  C   UNL     1       7.848  14.690   1.376  1.00  0.00     0.049 A 
ATOM     52  C   UNL     1       8.181  11.104  -3.190  1.00  0.00     0.074 A 
ATOM     53  C   UNL     1       6.553  15.083   1.665  1.00  0.00     0.029 A 
ATOM     54  N   UNL     1       7.951  14.770   0.002  1.00  0.00    -0.354 N 
ATOM     55  N   UNL     1       7.233  11.995  -3.316  1.00  0.00    -0.248 NA
ATOM     56  C   UNL     1       9.387  11.578  -2.525  1.00  0.00     0.031 C 
ATOM     57  C   UNL     1       5.824  14.830   0.464  1.00  0.00     0.029 A 
ATOM     58  C   UNL     1       6.728  14.412  -0.515  1.00  0.00     0.049 A 
ATOM     59  H   UNL     1       8.749  15.033  -0.510  1.00  0.00     0.167 HD
ATOM     60  C   UNL     1       7.528  12.971  -2.375  1.00  0.00     0.074 A 
ATOM     61  C   UNL     1       8.913  12.704  -1.980  1.00  0.00     0.031 C 
ATOM     62  C   UNL     1       6.550  13.720  -1.780  1.00  0.00     0.034 A 
BRANCH  49  63
ATOM     63  C   UNL     1      10.325  14.321   2.030  1.00  0.00     0.023 A 
ATOM     64  C   UNL     1      10.628  15.623   1.583  1.00  0.00     0.031 A 
ATOM     65  C   UNL     1      11.416  13.426   2.085  1.00  0.00     0.131 A 
ATOM     66  C   UNL     1      11.909  15.945   1.103  1.00  0.00     0.055 A 
ATOM     67  C   UNL     1      12.707  13.774   1.674  1.00  0.00     0.041 A 
ATOM     68  F   UNL     1      11.291  12.146   2.448  1.00  0.00    -0.206 F 
ATOM     69  C   UNL     1      12.953  15.027   1.143  1.00  0.00     0.022 A 
BRANCH  66  70
ATOM     70  S   UNL     1      12.126  17.523   0.242  1.00  0.00     0.124 S 
ATOM     71  O   UNL     1      11.085  17.445  -0.777  1.00  0.00    -0.237 OA
ATOM     72  O   UNL     1      11.904  18.483   1.318  1.00  0.00    -0.237 OA
ATOM     73  O   UNL     1      13.497  17.451  -0.256  1.00  0.00    -0.744 OA
ENDBRANCH  66  70
ENDBRANCH  49  63
BRANCH  50  74
ATOM     74  C   UNL     1       8.694   8.640  -3.990  1.00  0.00     0.023 A 
ATOM     75  C   UNL     1       9.201   8.896  -5.285  1.00  0.00     0.031 A 
ATOM     76  C   UNL     1       9.148   7.454  -3.366  1.00  0.00     0.131 A 
ATOM     77  C   UNL     1      10.108   7.988  -5.894  1.00  0.00     0.055 A 
ATOM     78  C   UNL     1      10.039   6.563  -3.971  1.00  0.00     0.041 A 
ATOM     79  F   UNL     1       8.804   7.156  -2.103  1.00  0.00    -0.206 F 
ATOM     80  C   UNL     1      10.530   6.831  -5.236  1.00  0.00     0.022 A 
BRANCH  77  81
ATOM     81  S   UNL     1      10.827   8.335  -7.537  1.00  0.00     0.124 S 
ATOM     82  O   UNL     1       9.669   8.218  -8.415  1.00  0.00    -0.237 OA
ATOM     83  O   UNL     1      11.379   9.674  -7.363  1.00  0.00    -0.237 OA
ATOM     84  O   UNL     1      11.829   7.280  -7.703  1.00  0.00    -0.744 OA
ENDBRANCH  77  81
ENDBRANCH  50  74
BRANCH  62  85
ATOM     85  C   UNL     1       5.137  13.678  -2.338  1.00  0.00     0.023 A 
ATOM     86  C   UNL     1       4.353  12.512  -2.499  1.00  0.00     0.031 A 
ATOM     87  C   UNL     1       4.511  14.916  -2.579  1.00  0.00     0.131 A 
ATOM     88  C   UNL     1       3.000  12.618  -2.892  1.00  0.00     0.055 A 
ATOM     89  C   UNL     1       3.169  15.018  -2.941  1.00  0.00     0.041 A 
ATOM     90  F   UNL     1       5.191  16.064  -2.423  1.00  0.00    -0.206 F 
ATOM     91  C   UNL     1       2.409  13.868  -3.103  1.00  0.00     0.022 A 
BRANCH  88  92
ATOM     92  S   UNL     1       1.978  11.130  -3.154  1.00  0.00     0.124 S 
ATOM     93  O   UNL     1       2.825  10.275  -3.977  1.00  0.00    -0.237 OA
ATOM     94  O   UNL     1       1.734  10.669  -1.790  1.00  0.00    -0.237 OA
ATOM     95  O   UNL     1       0.791  11.649  -3.839  1.00  0.00    -0.744 OA
ENDBRANCH  88  92
ENDBRANCH  62  85
ENDBRANCH  36  37
ENDBRANCH  28  31
ENDBRANCH  26  27
ENDBRANCH  25  26
ENDBRANCH   1  25
TORSDOF 17
