REMARK SMILES O=C(NCCCCNC(=O)[C@H]1C[N@H+](Cc2ccc(Cl)c(Cl)c2)CC12CCCCC2)c1ccc(-c2c3nc(c(-c4cc(S(=O)(=O)[O-])ccc4F)c4ccc([nH]4)c(-c4cc(S(=O)(=O)[O-])ccc4F)c4nc(c(-c5cc(S(=O)(=O)[O-])ccc5F)c5ccc2[nH]5)C=C4)C=C3)cc1
REMARK SMILES IDX 5 1 4 2 3 3 1 4 2 5 30 7 31 8 92 9 32 10 91 11 33 12 34 13
REMARK SMILES IDX 35 14 85 15 36 16 90 17 84 18 86 19 37 20 89 21 83 22 82 23
REMARK SMILES IDX 38 25 70 26 50 27 69 28 51 29 54 30 68 31 87 32 52 33 53 34
REMARK SMILES IDX 67 36 88 37 55 38 39 39 40 40 48 41 41 42 47 43 49 44 46 45
REMARK SMILES IDX 42 46 43 47 44 48 45 49 71 50 72 51 80 52 73 53 79 54 81 55
REMARK SMILES IDX 78 56 74 57 75 58 76 59 77 60 56 61 57 62 65 63 58 64 64 65
REMARK SMILES IDX 66 66 63 67 59 68 60 69 61 70 62 71 6 72 7 73 8 74 9 75
REMARK SMILES IDX 10 77 11 78 12 79 24 80 13 81 23 82 25 83 29 84 26 86 28 87
REMARK SMILES IDX 27 88 14 89 15 90 16 91 22 92 17 93 20 94 18 95 21 96 19 97
REMARK H PARENT 3 6 86 24 54 35 8 76 13 85
REMARK Flexibility Score: inf
ROOT
ATOM      1  C   UNL     1       4.729  -0.016   2.581  1.00  0.00     0.023 C 
ENDROOT
BRANCH   1   2
ATOM      2  C   UNL     1       4.426  -0.187   1.097  1.00  0.00     0.116 C 
BRANCH   2   3
ATOM      3  N   UNL     1       3.027  -0.501   0.843  1.00  0.00    -0.352 N 
ATOM      4  O   UNL     1       1.009  -0.246  -0.141  1.00  0.00    -0.269 OA
ATOM      5  C   UNL     1       2.207   0.017  -0.127  1.00  0.00     0.251 C 
ATOM      6  H   UNL     1       2.619  -1.168   1.441  1.00  0.00     0.163 HD
BRANCH   5   7
ATOM      7  C   UNL     1       2.795   0.916  -1.135  1.00  0.00     0.039 A 
ATOM      8  C   UNL     1       3.922   0.513  -1.859  1.00  0.00     0.014 A 
ATOM      9  C   UNL     1       2.243   2.185  -1.312  1.00  0.00     0.014 A 
ATOM     10  C   UNL     1       4.564   1.423  -2.690  1.00  0.00     0.010 A 
ATOM     11  C   UNL     1       2.853   3.075  -2.194  1.00  0.00     0.010 A 
ATOM     12  C   UNL     1       4.029   2.707  -2.872  1.00  0.00    -0.014 A 
BRANCH  12  13
ATOM     13  C   UNL     1       4.671   3.656  -3.812  1.00  0.00     0.031 A 
ATOM     14  C   UNL     1       5.289   4.926  -3.310  1.00  0.00     0.074 A 
ATOM     15  C   UNL     1       4.646   3.377  -5.128  1.00  0.00     0.049 A 
ATOM     16  N   UNL     1       5.776   5.933  -3.987  1.00  0.00    -0.248 NA
ATOM     17  C   UNL     1       5.353   5.091  -1.851  1.00  0.00     0.031 C 
ATOM     18  C   UNL     1       4.074   2.166  -5.719  1.00  0.00     0.029 A 
ATOM     19  N   UNL     1       5.091   4.098  -6.205  1.00  0.00    -0.354 N 
ATOM     20  C   UNL     1       6.185   6.866  -3.040  1.00  0.00     0.074 A 
ATOM     21  C   UNL     1       5.857   6.312  -1.742  1.00  0.00     0.031 C 
ATOM     22  C   UNL     1       4.196   2.229  -7.052  1.00  0.00     0.029 A 
ATOM     23  C   UNL     1       4.789   3.512  -7.411  1.00  0.00     0.049 A 
ATOM     24  H   UNL     1       5.577   4.950  -6.123  1.00  0.00     0.167 HD
ATOM     25  C   UNL     1       6.781   8.069  -3.244  1.00  0.00     0.034 A 
ATOM     26  C   UNL     1       4.925   3.977  -8.667  1.00  0.00     0.034 A 
ATOM     27  C   UNL     1       7.085   8.596  -4.554  1.00  0.00     0.049 A 
ATOM     28  C   UNL     1       5.529   5.336  -8.875  1.00  0.00     0.074 A 
ATOM     29  C   UNL     1       7.720   9.781  -4.884  1.00  0.00     0.029 A 
ATOM     30  N   UNL     1       6.758   7.977  -5.756  1.00  0.00    -0.354 N 
ATOM     31  N   UNL     1       5.928   6.204  -7.975  1.00  0.00    -0.248 NA
ATOM     32  C   UNL     1       5.708   5.776 -10.263  1.00  0.00     0.031 C 
ATOM     33  C   UNL     1       7.711   9.912  -6.277  1.00  0.00     0.029 A 
ATOM     34  C   UNL     1       7.144   8.772  -6.825  1.00  0.00     0.049 A 
ATOM     35  H   UNL     1       6.316   7.101  -5.837  1.00  0.00     0.167 HD
ATOM     36  C   UNL     1       6.430   7.287  -8.688  1.00  0.00     0.074 A 
ATOM     37  C   UNL     1       6.282   6.960 -10.094  1.00  0.00     0.031 C 
ATOM     38  C   UNL     1       6.976   8.438  -8.222  1.00  0.00     0.034 A 
BRANCH  25  39
ATOM     39  C   UNL     1       7.079   8.910  -2.023  1.00  0.00     0.023 A 
ATOM     40  C   UNL     1       7.948   8.467  -1.010  1.00  0.00     0.031 A 
ATOM     41  C   UNL     1       6.440  10.149  -1.840  1.00  0.00     0.131 A 
ATOM     42  C   UNL     1       8.079   9.206   0.176  1.00  0.00     0.055 A 
ATOM     43  C   UNL     1       6.645  10.925  -0.696  1.00  0.00     0.041 A 
ATOM     44  F   UNL     1       5.583  10.620  -2.760  1.00  0.00    -0.206 F 
ATOM     45  C   UNL     1       7.452  10.444   0.330  1.00  0.00     0.022 A 
BRANCH  42  46
ATOM     46  S   UNL     1       8.928   8.438   1.584  1.00  0.00     0.124 S 
ATOM     47  O   UNL     1       8.196   7.181   1.723  1.00  0.00    -0.237 OA
ATOM     48  O   UNL     1      10.300   8.328   1.102  1.00  0.00    -0.237 OA
ATOM     49  O   UNL     1       8.721   9.391   2.672  1.00  0.00    -0.744 OA
ENDBRANCH  42  46
ENDBRANCH  25  39
BRANCH  26  50
ATOM     50  C   UNL     1       4.424   3.158  -9.803  1.00  0.00     0.023 A 
ATOM     51  C   UNL     1       5.305   2.557 -10.712  1.00  0.00     0.031 A 
ATOM     52  C   UNL     1       3.044   2.929  -9.963  1.00  0.00     0.131 A 
ATOM     53  C   UNL     1       4.795   1.766 -11.754  1.00  0.00     0.055 A 
ATOM     54  C   UNL     1       2.546   2.108 -10.974  1.00  0.00     0.041 A 
ATOM     55  F   UNL     1       2.163   3.471  -9.107  1.00  0.00    -0.206 F 
ATOM     56  C   UNL     1       3.424   1.525 -11.881  1.00  0.00     0.022 A 
BRANCH  53  57
ATOM     57  S   UNL     1       5.953   1.074 -12.965  1.00  0.00     0.124 S 
ATOM     58  O   UNL     1       6.537   2.280 -13.541  1.00  0.00    -0.237 OA
ATOM     59  O   UNL     1       6.834   0.274 -12.120  1.00  0.00    -0.237 OA
ATOM     60  O   UNL     1       5.090   0.307 -13.861  1.00  0.00    -0.744 OA
ENDBRANCH  53  57
ENDBRANCH  26  50
BRANCH  38  61
ATOM     61  C   UNL     1       7.507   9.408  -9.246  1.00  0.00     0.023 A 
ATOM     62  C   UNL     1       6.654  10.151 -10.080  1.00  0.00     0.031 A 
ATOM     63  C   UNL     1       8.895   9.602  -9.370  1.00  0.00     0.131 A 
ATOM     64  C   UNL     1       7.201  11.032 -11.025  1.00  0.00     0.055 A 
ATOM     65  C   UNL     1       9.430  10.516 -10.277  1.00  0.00     0.041 A 
ATOM     66  F   UNL     1       9.751   8.914  -8.598  1.00  0.00    -0.206 F 
ATOM     67  C   UNL     1       8.582  11.232 -11.117  1.00  0.00     0.022 A 
BRANCH  64  68
ATOM     68  S   UNL     1       6.087  11.884 -12.176  1.00  0.00     0.124 S 
ATOM     69  O   UNL     1       5.498  10.768 -12.909  1.00  0.00    -0.237 OA
ATOM     70  O   UNL     1       5.190  12.599 -11.274  1.00  0.00    -0.237 OA
ATOM     71  O   UNL     1       6.984  12.734 -12.956  1.00  0.00    -0.744 OA
ENDBRANCH  64  68
ENDBRANCH  38  61
ENDBRANCH  12  13
ENDBRANCH   5   7
ENDBRANCH   2   3
ENDBRANCH   1   2
BRANCH   1  72
ATOM     72  C   UNL     1       4.314  -1.195   3.461  1.00  0.00     0.023 C 
BRANCH  72  73
ATOM     73  C   UNL     1       4.827  -2.545   2.972  1.00  0.00     0.116 C 
BRANCH  73  74
ATOM     74  N   UNL     1       6.269  -2.643   3.086  1.00  0.00    -0.356 N 
ATOM     75  C   UNL     1       7.057  -3.465   3.823  1.00  0.00     0.229 C 
ATOM     76  H   UNL     1       6.765  -2.000   2.529  1.00  0.00     0.163 HD
ATOM     77  O   UNL     1       8.279  -3.334   3.704  1.00  0.00    -0.275 OA
BRANCH  75  78
ATOM     78  C   UNL     1       6.505  -4.542   4.741  1.00  0.00     0.145 C 
ATOM     79  C   UNL     1       5.519  -4.033   5.789  1.00  0.00     0.276 C 
ATOM     80  C   UNL     1       5.899  -5.826   4.096  1.00  0.00     0.037 C 
ATOM     81  N   UNL     1       4.605  -5.133   6.060  1.00  0.00    -0.330 N 
ATOM     82  C   UNL     1       4.572  -6.001   4.882  1.00  0.00     0.270 C 
ATOM     83  C   UNL     1       5.666  -5.759   2.564  1.00  0.00     0.014 C 
ATOM     84  C   UNL     1       6.885  -7.006   4.320  1.00  0.00     0.014 C 
ATOM     85  H   UNL     1       3.663  -4.763   6.185  1.00  0.00     0.348 HD
ATOM     86  C   UNL     1       5.212  -7.080   1.938  1.00  0.00     0.001 C 
ATOM     87  C   UNL     1       6.401  -8.339   3.753  1.00  0.00     0.001 C 
ATOM     88  C   UNL     1       6.159  -8.228   2.257  1.00  0.00     0.000 C 
BRANCH  81  89
ATOM     89  C   UNL     1       4.694  -5.754   7.382  1.00  0.00     0.299 C 
BRANCH  89  90
ATOM     90  C   UNL     1       5.952  -6.536   7.692  1.00  0.00     0.008 A 
ATOM     91  C   UNL     1       7.156  -5.885   7.998  1.00  0.00     0.011 A 
ATOM     92  C   UNL     1       5.948  -7.939   7.623  1.00  0.00     0.031 A 
ATOM     93  C   UNL     1       8.348  -6.603   8.117  1.00  0.00     0.022 A 
ATOM     94  C   UNL     1       7.138  -8.665   7.762  1.00  0.00     0.060 A 
ATOM     95  C   UNL     1       8.345  -7.992   7.982  1.00  0.00     0.059 A 
ATOM     96  Cl  UNL     1       7.054 -10.382   7.592  1.00  0.00    -0.083 Cl
ATOM     97  Cl  UNL     1       9.864  -8.810   8.063  1.00  0.00    -0.083 Cl
ENDBRANCH  89  90
ENDBRANCH  81  89
ENDBRANCH  75  78
ENDBRANCH  73  74
ENDBRANCH  72  73
ENDBRANCH   1  72
TORSDOF 16
