REMARK SMILES C[N@@H+](CC(=O)NCCCCNC(=O)c1ccc(-c2c3nc(c(-c4cc(S(=O)(=O)[O-])ccc4F)c4ccc([nH]4)c(-c4cc(S(=O)(=O)[O-])ccc4F)c4nc(c(-c5cc(S(=O)(=O)[O-])ccc5F)c5ccc2[nH]5)C=C4)C=C3)cc1)Cc1noc(-c2ccccc2Cl)n1
REMARK SMILES IDX 8 1 7 2 6 3 4 4 5 5 3 7 2 8 1 9 77 11 78 12 79 13 89 14
REMARK SMILES IDX 80 15 81 16 82 17 83 18 87 19 84 20 86 21 88 22 85 23 9 24
REMARK SMILES IDX 10 25 11 26 12 27 13 29 14 30 15 31 76 32 16 33 75 34 17 35
REMARK SMILES IDX 18 36 19 37 69 38 20 39 74 40 68 41 70 42 21 43 73 44 67 45
REMARK SMILES IDX 66 46 22 48 54 49 34 50 53 51 35 52 38 53 52 54 71 55 36 56
REMARK SMILES IDX 37 57 51 59 72 60 39 61 23 62 24 63 32 64 25 65 31 66 33 67
REMARK SMILES IDX 30 68 26 69 27 70 28 71 29 72 55 73 56 74 64 75 57 76 63 77
REMARK SMILES IDX 65 78 62 79 58 80 59 81 60 82 61 83 40 84 41 85 49 86 42 87
REMARK SMILES IDX 48 88 50 89 47 90 43 91 44 92 45 93 46 94
REMARK H PARENT 6 6 2 10 11 28 70 47 38 58
REMARK Flexibility Score: inf
ROOT
ATOM      1  C   UNL     1       0.758   1.745  -1.413  1.00  0.00     0.023 C 
ENDROOT
BRANCH   1   2
ATOM      2  C   UNL     1      -0.512   1.453  -0.611  1.00  0.00     0.116 C 
BRANCH   2   3
ATOM      3  N   UNL     1      -1.292   0.362  -1.159  1.00  0.00    -0.351 N 
ATOM      4  C   UNL     1      -1.456  -0.918  -0.726  1.00  0.00     0.275 C 
ATOM      5  O   UNL     1      -2.231  -1.637  -1.367  1.00  0.00    -0.269 OA
ATOM      6  H   UNL     1      -1.786   0.584  -1.981  1.00  0.00     0.163 HD
BRANCH   4   7
ATOM      7  C   UNL     1      -0.774  -1.435   0.541  1.00  0.00     0.363 C 
BRANCH   7   8
ATOM      8  N   UNL     1       0.593  -1.943   0.405  1.00  0.00    -0.323 N 
ATOM      9  C   UNL     1       1.688  -1.023   0.592  1.00  0.00     0.333 C 
ATOM     10  H   UNL     1       0.575  -2.440   1.295  1.00  0.00     0.348 HD
BRANCH   8  11
ATOM     11  C   UNL     1       0.860  -3.059  -0.512  1.00  0.00     0.345 C 
BRANCH  11  12
ATOM     12  C   UNL     1       0.559  -2.834  -1.965  1.00  0.00     0.226 A 
ATOM     13  N   UNL     1      -0.022  -3.792  -2.704  1.00  0.00    -0.056 NA
ATOM     14  N   UNL     1       0.796  -1.656  -2.638  1.00  0.00    -0.186 NA
ATOM     15  O   UNL     1      -0.289  -3.147  -3.913  1.00  0.00    -0.334 OA
ATOM     16  C   UNL     1       0.208  -1.881  -3.796  1.00  0.00     0.259 A 
BRANCH  16  17
ATOM     17  C   UNL     1      -0.126  -0.961  -4.870  1.00  0.00     0.058 A 
ATOM     18  C   UNL     1      -1.485  -0.687  -5.121  1.00  0.00     0.015 A 
ATOM     19  C   UNL     1       0.846  -0.249  -5.589  1.00  0.00     0.053 A 
ATOM     20  C   UNL     1      -1.861   0.293  -6.044  1.00  0.00     0.001 A 
ATOM     21  C   UNL     1       0.464   0.731  -6.516  1.00  0.00     0.021 A 
ATOM     22  Cl  UNL     1       2.538  -0.515  -5.354  1.00  0.00    -0.083 Cl
ATOM     23  C   UNL     1      -0.886   1.006  -6.736  1.00  0.00     0.002 A 
ENDBRANCH  16  17
ENDBRANCH  11  12
ENDBRANCH   8  11
ENDBRANCH   7   8
ENDBRANCH   4   7
ENDBRANCH   2   3
ENDBRANCH   1   2
BRANCH   1  24
ATOM     24  C   UNL     1       0.535   2.043  -2.889  1.00  0.00     0.023 C 
BRANCH  24  25
ATOM     25  C   UNL     1      -0.243   3.308  -3.190  1.00  0.00     0.116 C 
BRANCH  25  26
ATOM     26  N   UNL     1       0.526   4.504  -2.896  1.00  0.00    -0.352 N 
ATOM     27  C   UNL     1       0.975   5.490  -3.743  1.00  0.00     0.251 C 
ATOM     28  H   UNL     1       0.761   4.628  -1.948  1.00  0.00     0.163 HD
ATOM     29  O   UNL     1       1.791   6.309  -3.329  1.00  0.00    -0.269 OA
BRANCH  27  30
ATOM     30  C   UNL     1       0.503   5.552  -5.148  1.00  0.00     0.039 A 
ATOM     31  C   UNL     1       1.405   5.921  -6.150  1.00  0.00     0.014 A 
ATOM     32  C   UNL     1      -0.824   5.273  -5.485  1.00  0.00     0.014 A 
ATOM     33  C   UNL     1       0.990   5.954  -7.485  1.00  0.00     0.010 A 
ATOM     34  C   UNL     1      -1.206   5.201  -6.821  1.00  0.00     0.010 A 
ATOM     35  C   UNL     1      -0.311   5.562  -7.838  1.00  0.00    -0.014 A 
BRANCH  35  36
ATOM     36  C   UNL     1      -0.773   5.572  -9.253  1.00  0.00     0.031 A 
ATOM     37  C   UNL     1      -1.937   6.444  -9.656  1.00  0.00     0.074 A 
ATOM     38  C   UNL     1      -0.192   4.763 -10.161  1.00  0.00     0.049 A 
ATOM     39  N   UNL     1      -2.554   6.527 -10.806  1.00  0.00    -0.248 NA
ATOM     40  C   UNL     1      -2.506   7.306  -8.609  1.00  0.00     0.031 C 
ATOM     41  C   UNL     1       0.917   3.845  -9.890  1.00  0.00     0.029 A 
ATOM     42  N   UNL     1      -0.452   4.581 -11.496  1.00  0.00    -0.354 N 
ATOM     43  C   UNL     1      -3.595   7.430 -10.614  1.00  0.00     0.074 A 
ATOM     44  C   UNL     1      -3.570   7.804  -9.217  1.00  0.00     0.031 C 
ATOM     45  C   UNL     1       1.265   3.227 -11.031  1.00  0.00     0.029 A 
ATOM     46  C   UNL     1       0.376   3.664 -12.103  1.00  0.00     0.049 A 
ATOM     47  H   UNL     1      -1.166   5.061 -11.975  1.00  0.00     0.167 HD
ATOM     48  C   UNL     1      -4.471   7.929 -11.523  1.00  0.00     0.034 A 
ATOM     49  C   UNL     1       0.412   3.224 -13.377  1.00  0.00     0.034 A 
ATOM     50  C   UNL     1      -4.462   7.571 -12.920  1.00  0.00     0.049 A 
ATOM     51  C   UNL     1      -0.579   3.781 -14.369  1.00  0.00     0.074 A 
ATOM     52  C   UNL     1      -5.265   8.053 -13.940  1.00  0.00     0.029 A 
ATOM     53  N   UNL     1      -3.605   6.642 -13.497  1.00  0.00    -0.354 N 
ATOM     54  N   UNL     1      -1.532   4.663 -14.178  1.00  0.00    -0.248 NA
ATOM     55  C   UNL     1      -0.481   3.288 -15.749  1.00  0.00     0.031 C 
ATOM     56  C   UNL     1      -4.937   7.371 -15.117  1.00  0.00     0.029 A 
ATOM     57  C   UNL     1      -3.878   6.518 -14.851  1.00  0.00     0.049 A 
ATOM     58  H   UNL     1      -2.906   6.145 -13.015  1.00  0.00     0.167 HD
ATOM     59  C   UNL     1      -2.126   4.855 -15.424  1.00  0.00     0.074 A 
ATOM     60  C   UNL     1      -1.413   4.007 -16.357  1.00  0.00     0.031 C 
ATOM     61  C   UNL     1      -3.163   5.661 -15.767  1.00  0.00     0.034 A 
BRANCH  48  62
ATOM     62  C   UNL     1      -5.516   8.899 -11.020  1.00  0.00     0.023 A 
ATOM     63  C   UNL     1      -5.162  10.127 -10.434  1.00  0.00     0.031 A 
ATOM     64  C   UNL     1      -6.883   8.575 -11.086  1.00  0.00     0.131 A 
ATOM     65  C   UNL     1      -6.148  10.939  -9.855  1.00  0.00     0.055 A 
ATOM     66  C   UNL     1      -7.868   9.433 -10.591  1.00  0.00     0.041 A 
ATOM     67  F   UNL     1      -7.285   7.409 -11.615  1.00  0.00    -0.206 F 
ATOM     68  C   UNL     1      -7.502  10.614  -9.953  1.00  0.00     0.022 A 
BRANCH  65  69
ATOM     69  S   UNL     1      -5.620  12.337  -8.826  1.00  0.00     0.124 S 
ATOM     70  O   UNL     1      -4.819  11.664  -7.806  1.00  0.00    -0.237 OA
ATOM     71  O   UNL     1      -4.882  13.165  -9.774  1.00  0.00    -0.237 OA
ATOM     72  O   UNL     1      -6.878  12.905  -8.347  1.00  0.00    -0.744 OA
ENDBRANCH  65  69
ENDBRANCH  48  62
BRANCH  49  73
ATOM     73  C   UNL     1       1.415   2.203 -13.797  1.00  0.00     0.023 A 
ATOM     74  C   UNL     1       2.408   2.514 -14.739  1.00  0.00     0.031 A 
ATOM     75  C   UNL     1       1.371   0.891 -13.295  1.00  0.00     0.131 A 
ATOM     76  C   UNL     1       3.286   1.515 -15.188  1.00  0.00     0.055 A 
ATOM     77  C   UNL     1       2.281  -0.086 -13.704  1.00  0.00     0.041 A 
ATOM     78  F   UNL     1       0.446   0.542 -12.386  1.00  0.00    -0.206 F 
ATOM     79  C   UNL     1       3.237   0.220 -14.667  1.00  0.00     0.022 A 
BRANCH  76  80
ATOM     80  S   UNL     1       4.440   1.913 -16.530  1.00  0.00     0.124 S 
ATOM     81  O   UNL     1       3.530   2.334 -17.589  1.00  0.00    -0.237 OA
ATOM     82  O   UNL     1       5.254   2.963 -15.927  1.00  0.00    -0.237 OA
ATOM     83  O   UNL     1       5.134   0.649 -16.767  1.00  0.00    -0.744 OA
ENDBRANCH  76  80
ENDBRANCH  49  73
BRANCH  61  84
ATOM     84  C   UNL     1      -3.551   5.695 -17.224  1.00  0.00     0.023 A 
ATOM     85  C   UNL     1      -4.113   4.579 -17.868  1.00  0.00     0.031 A 
ATOM     86  C   UNL     1      -3.348   6.863 -17.982  1.00  0.00     0.131 A 
ATOM     87  C   UNL     1      -4.402   4.636 -19.240  1.00  0.00     0.055 A 
ATOM     88  C   UNL     1      -3.693   6.933 -19.332  1.00  0.00     0.041 A 
ATOM     89  F   UNL     1      -2.814   7.958 -17.418  1.00  0.00    -0.206 F 
ATOM     90  C   UNL     1      -4.211   5.811 -19.971  1.00  0.00     0.022 A 
BRANCH  87  91
ATOM     91  S   UNL     1      -4.948   3.123 -20.078  1.00  0.00     0.124 S 
ATOM     92  O   UNL     1      -3.833   2.216 -19.823  1.00  0.00    -0.237 OA
ATOM     93  O   UNL     1      -6.193   2.813 -19.383  1.00  0.00    -0.237 OA
ATOM     94  O   UNL     1      -5.103   3.539 -21.470  1.00  0.00    -0.744 OA
ENDBRANCH  87  91
ENDBRANCH  61  84
ENDBRANCH  35  36
ENDBRANCH  27  30
ENDBRANCH  25  26
ENDBRANCH  24  25
ENDBRANCH   1  24
TORSDOF 18
