REMARK SMILES CC(C)CN(C)S(=O)(=O)c1ccc(C(=O)NCCCCNC(=O)c2ccc(-c3c4nc(c(-c5cc(S(=O)(=O)[O-])ccc5F)c5ccc([nH]5)c(-c5cc(S(=O)(=O)[O-])ccc5F)c5nc(c(-c6cc(S(=O)(=O)[O-])ccc6F)c6ccc3[nH]6)C=C5)C=C4)cc2)cc1
REMARK SMILES IDX 18 1 17 2 16 3 14 4 15 5 13 7 10 8 11 9 88 10 12 11 87 12
REMARK SMILES IDX 7 13 8 14 9 15 5 16 6 17 4 18 2 19 1 20 3 21 19 22 20 23
REMARK SMILES IDX 21 24 22 25 23 27 24 28 25 29 86 30 26 31 85 32 27 33 28 34
REMARK SMILES IDX 29 35 79 36 30 37 84 38 78 39 80 40 31 41 83 42 77 43 76 44
REMARK SMILES IDX 32 46 64 47 44 48 63 49 45 50 48 51 62 52 81 53 46 54 47 55
REMARK SMILES IDX 61 57 82 58 49 59 33 60 34 61 42 62 35 63 41 64 43 65 40 66
REMARK SMILES IDX 36 67 37 68 38 69 39 70 65 71 66 72 74 73 67 74 73 75 75 76
REMARK SMILES IDX 72 77 68 78 69 79 70 80 71 81 50 82 51 83 59 84 52 85 58 86
REMARK SMILES IDX 60 87 57 88 53 89 54 90 55 91 56 92
REMARK H PARENT 16 6 21 26 80 45 48 56
REMARK Flexibility Score: inf
ROOT
ATOM      1  C   UNL     1      -2.395   4.154   7.608  1.00  0.00     0.023 C 
ENDROOT
BRANCH   1   2
ATOM      2  C   UNL     1      -3.374   4.746   6.588  1.00  0.00     0.116 C 
BRANCH   2   3
ATOM      3  N   UNL     1      -2.744   5.767   5.769  1.00  0.00    -0.352 N 
ATOM      4  C   UNL     1      -2.156   5.715   4.527  1.00  0.00     0.251 C 
ATOM      5  O   UNL     1      -1.815   6.781   4.011  1.00  0.00    -0.269 OA
ATOM      6  H   UNL     1      -2.737   6.662   6.179  1.00  0.00     0.163 HD
BRANCH   4   7
ATOM      7  C   UNL     1      -1.926   4.449   3.766  1.00  0.00     0.039 A 
ATOM      8  C   UNL     1      -1.426   2.155   2.209  1.00  0.00     0.082 A 
ATOM      9  C   UNL     1      -1.471   3.404   1.593  1.00  0.00     0.022 A 
ATOM     10  C   UNL     1      -1.582   2.051   3.591  1.00  0.00     0.022 A 
ATOM     11  C   UNL     1      -1.742   4.542   2.372  1.00  0.00     0.015 A 
ATOM     12  C   UNL     1      -1.801   3.192   4.359  1.00  0.00     0.015 A 
BRANCH   8  13
ATOM     13  S   UNL     1      -1.127   0.630   1.357  1.00  0.00     0.242 S 
ATOM     14  O   UNL     1      -2.217  -0.263   1.696  1.00  0.00    -0.207 OA
ATOM     15  O   UNL     1       0.239   0.276   1.665  1.00  0.00    -0.207 OA
BRANCH  13  16
ATOM     16  N   UNL     1      -1.256   0.933  -0.339  1.00  0.00    -0.201 NA
ATOM     17  C   UNL     1      -2.644   1.309  -0.751  1.00  0.00     0.124 C 
BRANCH  16  18
ATOM     18  C   UNL     1      -0.801  -0.253  -1.158  1.00  0.00     0.105 C 
BRANCH  18  19
ATOM     19  C   UNL     1       0.601  -0.073  -1.768  1.00  0.00    -0.002 C 
ATOM     20  C   UNL     1       1.733  -0.337  -0.774  1.00  0.00     0.009 C 
ATOM     21  C   UNL     1       0.758  -1.043  -2.947  1.00  0.00     0.009 C 
ENDBRANCH  18  19
ENDBRANCH  16  18
ENDBRANCH  13  16
ENDBRANCH   8  13
ENDBRANCH   4   7
ENDBRANCH   2   3
ENDBRANCH   1   2
BRANCH   1  22
ATOM     22  C   UNL     1      -2.295   4.905   8.936  1.00  0.00     0.023 C 
BRANCH  22  23
ATOM     23  C   UNL     1      -3.575   4.928   9.764  1.00  0.00     0.116 C 
BRANCH  23  24
ATOM     24  N   UNL     1      -4.096   3.605  10.063  1.00  0.00    -0.352 N 
ATOM     25  C   UNL     1      -4.944   3.228  11.077  1.00  0.00     0.251 C 
ATOM     26  H   UNL     1      -3.804   2.884   9.460  1.00  0.00     0.163 HD
ATOM     27  O   UNL     1      -5.206   2.040  11.237  1.00  0.00    -0.269 OA
BRANCH  25  28
ATOM     28  C   UNL     1      -5.484   4.248  12.003  1.00  0.00     0.039 A 
ATOM     29  C   UNL     1      -5.432   3.992  13.376  1.00  0.00     0.014 A 
ATOM     30  C   UNL     1      -6.017   5.452  11.534  1.00  0.00     0.014 A 
ATOM     31  C   UNL     1      -5.852   4.970  14.278  1.00  0.00     0.010 A 
ATOM     32  C   UNL     1      -6.375   6.452  12.436  1.00  0.00     0.010 A 
ATOM     33  C   UNL     1      -6.294   6.220  13.816  1.00  0.00    -0.014 A 
BRANCH  33  34
ATOM     34  C   UNL     1      -6.662   7.291  14.774  1.00  0.00     0.031 A 
ATOM     35  C   UNL     1      -8.088   7.752  14.887  1.00  0.00     0.074 A 
ATOM     36  C   UNL     1      -5.696   7.878  15.506  1.00  0.00     0.049 A 
ATOM     37  N   UNL     1      -8.602   8.664  15.673  1.00  0.00    -0.248 NA
ATOM     38  C   UNL     1      -9.056   7.129  13.974  1.00  0.00     0.031 C 
ATOM     39  C   UNL     1      -4.267   7.566  15.424  1.00  0.00     0.029 A 
ATOM     40  N   UNL     1      -5.768   8.858  16.461  1.00  0.00    -0.354 N 
ATOM     41  C   UNL     1      -9.952   8.730  15.344  1.00  0.00     0.074 A 
ATOM     42  C   UNL     1     -10.159   7.809  14.246  1.00  0.00     0.031 C 
ATOM     43  C   UNL     1      -3.601   8.321  16.313  1.00  0.00     0.029 A 
ATOM     44  C   UNL     1      -4.550   9.179  17.013  1.00  0.00     0.049 A 
ATOM     45  H   UNL     1      -6.611   9.291  16.727  1.00  0.00     0.167 HD
ATOM     46  C   UNL     1     -10.930   9.473  15.921  1.00  0.00     0.034 A 
ATOM     47  C   UNL     1      -4.238  10.057  17.985  1.00  0.00     0.034 A 
ATOM     48  C   UNL     1     -10.706  10.379  17.021  1.00  0.00     0.049 A 
ATOM     49  C   UNL     1      -5.347  10.828  18.649  1.00  0.00     0.074 A 
ATOM     50  C   UNL     1     -11.627  11.146  17.714  1.00  0.00     0.029 A 
ATOM     51  N   UNL     1      -9.466  10.643  17.590  1.00  0.00    -0.354 N 
ATOM     52  N   UNL     1      -6.631  10.831  18.374  1.00  0.00    -0.248 NA
ATOM     53  C   UNL     1      -4.965  11.692  19.772  1.00  0.00     0.031 C 
ATOM     54  C   UNL     1     -10.940  11.905  18.670  1.00  0.00     0.029 A 
ATOM     55  C   UNL     1      -9.596  11.570  18.614  1.00  0.00     0.049 A 
ATOM     56  H   UNL     1      -8.618  10.232  17.308  1.00  0.00     0.167 HD
ATOM     57  C   UNL     1      -7.214  11.683  19.307  1.00  0.00     0.074 A 
ATOM     58  C   UNL     1      -6.143  12.155  20.163  1.00  0.00     0.031 C 
ATOM     59  C   UNL     1      -8.515  12.044  19.445  1.00  0.00     0.034 A 
BRANCH  46  60
ATOM     60  C   UNL     1     -12.320   9.342  15.345  1.00  0.00     0.023 A 
ATOM     61  C   UNL     1     -13.022   8.124  15.388  1.00  0.00     0.031 A 
ATOM     62  C   UNL     1     -12.933  10.432  14.703  1.00  0.00     0.131 A 
ATOM     63  C   UNL     1     -14.254   8.001  14.728  1.00  0.00     0.055 A 
ATOM     64  C   UNL     1     -14.197  10.325  14.117  1.00  0.00     0.041 A 
ATOM     65  F   UNL     1     -12.305  11.614  14.613  1.00  0.00    -0.206 F 
ATOM     66  C   UNL     1     -14.857   9.099  14.113  1.00  0.00     0.022 A 
BRANCH  63  67
ATOM     67  S   UNL     1     -14.984   6.349  14.559  1.00  0.00     0.124 S 
ATOM     68  O   UNL     1     -13.946   5.644  13.810  1.00  0.00    -0.237 OA
ATOM     69  O   UNL     1     -15.162   5.939  15.946  1.00  0.00    -0.237 OA
ATOM     70  O   UNL     1     -16.219   6.595  13.817  1.00  0.00    -0.744 OA
ENDBRANCH  63  67
ENDBRANCH  46  60
BRANCH  47  71
ATOM     71  C   UNL     1      -2.824  10.236  18.410  1.00  0.00     0.023 A 
ATOM     72  C   UNL     1      -2.389   9.800  19.671  1.00  0.00     0.031 A 
ATOM     73  C   UNL     1      -1.893  10.868  17.568  1.00  0.00     0.131 A 
ATOM     74  C   UNL     1      -1.067  10.041  20.075  1.00  0.00     0.055 A 
ATOM     75  C   UNL     1      -0.568  11.070  17.959  1.00  0.00     0.041 A 
ATOM     76  F   UNL     1      -2.258  11.287  16.346  1.00  0.00    -0.206 F 
ATOM     77  C   UNL     1      -0.152  10.666  19.225  1.00  0.00     0.022 A 
BRANCH  74  78
ATOM     78  S   UNL     1      -0.577   9.576  21.758  1.00  0.00     0.124 S 
ATOM     79  O   UNL     1      -1.522  10.338  22.566  1.00  0.00    -0.237 OA
ATOM     80  O   UNL     1      -0.770   8.130  21.740  1.00  0.00    -0.237 OA
ATOM     81  O   UNL     1       0.814  10.016  21.841  1.00  0.00    -0.744 OA
ENDBRANCH  74  78
ENDBRANCH  47  71
BRANCH  59  82
ATOM     82  C   UNL     1      -8.837  12.973  20.587  1.00  0.00     0.023 A 
ATOM     83  C   UNL     1      -8.383  14.303  20.603  1.00  0.00     0.031 A 
ATOM     84  C   UNL     1      -9.566  12.507  21.694  1.00  0.00     0.131 A 
ATOM     85  C   UNL     1      -8.603  15.103  21.734  1.00  0.00     0.055 A 
ATOM     86  C   UNL     1      -9.830  13.324  22.794  1.00  0.00     0.041 A 
ATOM     87  F   UNL     1     -10.023  11.245  21.730  1.00  0.00    -0.206 F 
ATOM     88  C   UNL     1      -9.333  14.625  22.825  1.00  0.00     0.022 A 
BRANCH  85  89
ATOM     89  S   UNL     1      -7.823  16.739  21.808  1.00  0.00     0.124 S 
ATOM     90  O   UNL     1      -6.418  16.419  21.573  1.00  0.00    -0.237 OA
ATOM     91  O   UNL     1      -8.502  17.454  20.733  1.00  0.00    -0.237 OA
ATOM     92  O   UNL     1      -8.134  17.206  23.157  1.00  0.00    -0.744 OA
ENDBRANCH  85  89
ENDBRANCH  59  82
ENDBRANCH  33  34
ENDBRANCH  25  28
ENDBRANCH  23  24
ENDBRANCH  22  23
ENDBRANCH   1  22
TORSDOF 18
