REMARK SMILES COc1cc([C@@H]2[NH2+][C@H](C(=O)NCCCCNC(=O)c3ccc(-c4c5nc(c(-c6cc(S(=O)(=O)[O-])ccc6F)c6ccc([nH]6)c(-c6cc(S(=O)(=O)[O-])ccc6F)c6nc(c(-c7cc(S(=O)(=O)[O-])ccc7F)c7ccc4[nH]7)C=C6)C=C5)cc3)CS2)ccc1OCc1ccc(Cl)cc1
REMARK SMILES IDX 13 1 12 2 11 3 9 4 10 5 8 7 6 8 7 9 83 10 82 13 5 14 3 15
REMARK SMILES IDX 4 16 86 17 85 18 84 19 2 20 1 21 87 22 88 23 89 24 90 25
REMARK SMILES IDX 95 26 91 27 94 28 92 29 93 30 14 31 15 32 16 33 17 34 18 36
REMARK SMILES IDX 19 37 20 38 81 39 21 40 80 41 22 42 23 43 24 44 74 45 25 46
REMARK SMILES IDX 79 47 73 48 75 49 26 50 78 51 72 52 71 53 27 55 59 56 39 57
REMARK SMILES IDX 58 58 40 59 43 60 57 61 76 62 41 63 42 64 56 66 77 67 44 68
REMARK SMILES IDX 28 69 29 70 37 71 30 72 36 73 38 74 35 75 31 76 32 77 33 78
REMARK SMILES IDX 34 79 60 80 61 81 69 82 62 83 68 84 70 85 67 86 63 87 64 88
REMARK SMILES IDX 65 89 66 90 45 91 46 92 54 93 47 94 53 95 55 96 52 97 48 98
REMARK SMILES IDX 49 99 50 100 51 101
REMARK H PARENT 11 6 7 11 7 12 16 35 75 54 43 65
REMARK Flexibility Score: inf
ROOT
ATOM      1  C   UNL     1      -0.198   3.674   4.050  1.00  0.00     0.023 C 
ENDROOT
BRANCH   1   2
ATOM      2  C   UNL     1       0.827   4.464   4.852  1.00  0.00     0.116 C 
BRANCH   2   3
ATOM      3  N   UNL     1       2.059   4.726   4.133  1.00  0.00    -0.351 N 
ATOM      4  C   UNL     1       2.504   5.740   3.359  1.00  0.00     0.279 C 
ATOM      5  O   UNL     1       3.718   5.693   3.090  1.00  0.00    -0.268 OA
ATOM      6  H   UNL     1       2.719   4.002   4.230  1.00  0.00     0.163 HD
BRANCH   4   7
ATOM      7  C   UNL     1       1.682   6.897   2.736  1.00  0.00     0.283 C 
ATOM      8  C   UNL     1       0.799   6.039   0.653  1.00  0.00     0.274 C 
ATOM      9  N   UNL     1       1.836   6.880   1.256  1.00  0.00    -0.321 N 
ATOM     10  S   UNL     1      -0.687   6.301   1.678  1.00  0.00    -0.088 SA
ATOM     11  H   UNL     1       1.752   7.830   0.897  1.00  0.00     0.348 HD
ATOM     12  H   UNL     1       2.753   6.500   1.020  1.00  0.00     0.348 HD
ATOM     13  C   UNL     1       0.213   7.146   3.002  1.00  0.00     0.151 C 
BRANCH   8  14
ATOM     14  C   UNL     1       1.142   4.569   0.399  1.00  0.00     0.024 A 
ATOM     15  C   UNL     1       0.470   2.389  -0.579  1.00  0.00     0.161 A 
ATOM     16  C   UNL     1       0.188   3.722  -0.202  1.00  0.00     0.061 A 
ATOM     17  C   UNL     1       1.736   1.856  -0.304  1.00  0.00     0.161 A 
ATOM     18  C   UNL     1       2.704   2.688   0.261  1.00  0.00     0.051 A 
ATOM     19  C   UNL     1       2.414   4.018   0.595  1.00  0.00     0.015 A 
BRANCH  15  20
ATOM     20  O   UNL     1      -0.598   1.799  -1.202  1.00  0.00    -0.493 OA
ATOM     21  C   UNL     1      -0.502   0.457  -1.654  1.00  0.00     0.278 C 
ENDBRANCH  15  20
BRANCH  17  22
ATOM     22  O   UNL     1       2.070   0.579  -0.672  1.00  0.00    -0.485 OA
BRANCH  22  23
ATOM     23  C   UNL     1       2.660  -0.249   0.350  1.00  0.00     0.265 C 
BRANCH  23  24
ATOM     24  C   UNL     1       1.596  -1.146   0.937  1.00  0.00    -0.011 A 
ATOM     25  C   UNL     1       0.530  -0.567   1.637  1.00  0.00     0.009 A 
ATOM     26  C   UNL     1       1.594  -2.530   0.739  1.00  0.00     0.009 A 
ATOM     27  C   UNL     1      -0.569  -1.320   2.040  1.00  0.00     0.021 A 
ATOM     28  C   UNL     1       0.494  -3.295   1.147  1.00  0.00     0.021 A 
ATOM     29  C   UNL     1      -0.599  -2.678   1.756  1.00  0.00     0.041 A 
ATOM     30  Cl  UNL     1      -2.035  -3.566   2.087  1.00  0.00    -0.084 Cl
ENDBRANCH  23  24
ENDBRANCH  22  23
ENDBRANCH  17  22
ENDBRANCH   8  14
ENDBRANCH   4   7
ENDBRANCH   2   3
ENDBRANCH   1   2
BRANCH   1  31
ATOM     31  C   UNL     1       0.135   2.204   3.828  1.00  0.00     0.023 C 
BRANCH  31  32
ATOM     32  C   UNL     1      -0.019   1.296   5.040  1.00  0.00     0.116 C 
BRANCH  32  33
ATOM     33  N   UNL     1      -1.404   1.158   5.458  1.00  0.00    -0.352 N 
ATOM     34  C   UNL     1      -2.102   0.057   5.893  1.00  0.00     0.251 C 
ATOM     35  H   UNL     1      -1.928   1.991   5.423  1.00  0.00     0.163 HD
ATOM     36  O   UNL     1      -3.314   0.172   6.072  1.00  0.00    -0.269 OA
BRANCH  34  37
ATOM     37  C   UNL     1      -1.442  -1.256   6.115  1.00  0.00     0.039 A 
ATOM     38  C   UNL     1      -2.186  -2.421   5.888  1.00  0.00     0.014 A 
ATOM     39  C   UNL     1      -0.130  -1.367   6.579  1.00  0.00     0.014 A 
ATOM     40  C   UNL     1      -1.604  -3.679   6.078  1.00  0.00     0.010 A 
ATOM     41  C   UNL     1       0.476  -2.619   6.686  1.00  0.00     0.010 A 
ATOM     42  C   UNL     1      -0.258  -3.791   6.452  1.00  0.00    -0.014 A 
BRANCH  42  43
ATOM     43  C   UNL     1       0.397  -5.115   6.638  1.00  0.00     0.031 A 
ATOM     44  C   UNL     1       0.913  -5.513   7.992  1.00  0.00     0.074 A 
ATOM     45  C   UNL     1       0.594  -5.926   5.582  1.00  0.00     0.049 A 
ATOM     46  N   UNL     1       1.597  -6.573   8.338  1.00  0.00    -0.248 NA
ATOM     47  C   UNL     1       0.656  -4.575   9.093  1.00  0.00     0.031 C 
ATOM     48  C   UNL     1       0.176  -5.627   4.217  1.00  0.00     0.029 A 
ATOM     49  N   UNL     1       1.203  -7.151   5.476  1.00  0.00    -0.354 N 
ATOM     50  C   UNL     1       1.862  -6.424   9.694  1.00  0.00     0.074 A 
ATOM     51  C   UNL     1       1.331  -5.134  10.084  1.00  0.00     0.031 C 
ATOM     52  C   UNL     1       0.522  -6.640   3.409  1.00  0.00     0.029 A 
ATOM     53  C   UNL     1       1.232  -7.643   4.191  1.00  0.00     0.049 A 
ATOM     54  H   UNL     1       1.583  -7.632   6.247  1.00  0.00     0.167 HD
ATOM     55  C   UNL     1       2.465  -7.296  10.541  1.00  0.00     0.034 A 
ATOM     56  C   UNL     1       1.781  -8.768   3.693  1.00  0.00     0.034 A 
ATOM     57  C   UNL     1       2.978  -8.581  10.132  1.00  0.00     0.049 A 
ATOM     58  C   UNL     1       2.466  -9.713   4.642  1.00  0.00     0.074 A 
ATOM     59  C   UNL     1       3.557  -9.569  10.909  1.00  0.00     0.029 A 
ATOM     60  N   UNL     1       2.981  -9.056   8.824  1.00  0.00    -0.354 N 
ATOM     61  N   UNL     1       2.664  -9.582   5.934  1.00  0.00    -0.248 NA
ATOM     62  C   UNL     1       2.984 -10.962   4.073  1.00  0.00     0.031 C 
ATOM     63  C   UNL     1       3.962 -10.611  10.067  1.00  0.00     0.029 A 
ATOM     64  C   UNL     1       3.576 -10.308   8.771  1.00  0.00     0.049 A 
ATOM     65  H   UNL     1       2.613  -8.573   8.049  1.00  0.00     0.167 HD
ATOM     66  C   UNL     1       3.307 -10.747   6.338  1.00  0.00     0.074 A 
ATOM     67  C   UNL     1       3.452 -11.571   5.153  1.00  0.00     0.031 C 
ATOM     68  C   UNL     1       3.731 -11.107   7.576  1.00  0.00     0.034 A 
BRANCH  55  69
ATOM     69  C   UNL     1       2.613  -6.860  11.980  1.00  0.00     0.023 A 
ATOM     70  C   UNL     1       1.492  -6.571  12.779  1.00  0.00     0.031 A 
ATOM     71  C   UNL     1       3.886  -6.661  12.541  1.00  0.00     0.131 A 
ATOM     72  C   UNL     1       1.663  -6.005  14.051  1.00  0.00     0.055 A 
ATOM     73  C   UNL     1       4.050  -6.184  13.844  1.00  0.00     0.041 A 
ATOM     74  F   UNL     1       4.995  -6.899  11.823  1.00  0.00    -0.206 F 
ATOM     75  C   UNL     1       2.935  -5.832  14.599  1.00  0.00     0.022 A 
BRANCH  72  76
ATOM     76  S   UNL     1       0.208  -5.331  14.899  1.00  0.00     0.124 S 
ATOM     77  O   UNL     1      -0.266  -4.344  13.932  1.00  0.00    -0.237 OA
ATOM     78  O   UNL     1      -0.632  -6.513  15.070  1.00  0.00    -0.237 OA
ATOM     79  O   UNL     1       0.757  -4.771  16.131  1.00  0.00    -0.744 OA
ENDBRANCH  72  76
ENDBRANCH  55  69
BRANCH  56  80
ATOM     80  C   UNL     1       1.712  -9.054   2.233  1.00  0.00     0.023 A 
ATOM     81  C   UNL     1       0.949 -10.123   1.738  1.00  0.00     0.031 A 
ATOM     82  C   UNL     1       2.421  -8.264   1.309  1.00  0.00     0.131 A 
ATOM     83  C   UNL     1       0.939 -10.396   0.361  1.00  0.00     0.055 A 
ATOM     84  C   UNL     1       2.374  -8.515  -0.064  1.00  0.00     0.041 A 
ATOM     85  F   UNL     1       3.153  -7.220   1.728  1.00  0.00    -0.206 F 
ATOM     86  C   UNL     1       1.638  -9.593  -0.544  1.00  0.00     0.022 A 
BRANCH  83  87
ATOM     87  S   UNL     1       0.039 -11.856  -0.230  1.00  0.00     0.124 S 
ATOM     88  O   UNL     1       0.704 -12.930   0.499  1.00  0.00    -0.237 OA
ATOM     89  O   UNL     1      -1.329 -11.554   0.177  1.00  0.00    -0.237 OA
ATOM     90  O   UNL     1       0.275 -11.840  -1.672  1.00  0.00    -0.744 OA
ENDBRANCH  83  87
ENDBRANCH  56  80
BRANCH  68  91
ATOM     91  C   UNL     1       4.358 -12.472   7.706  1.00  0.00     0.023 A 
ATOM     92  C   UNL     1       5.601 -12.770   7.121  1.00  0.00     0.031 A 
ATOM     93  C   UNL     1       3.690 -13.493   8.403  1.00  0.00     0.131 A 
ATOM     94  C   UNL     1       6.112 -14.075   7.197  1.00  0.00     0.055 A 
ATOM     95  C   UNL     1       4.230 -14.773   8.525  1.00  0.00     0.041 A 
ATOM     96  F   UNL     1       2.498 -13.261   8.977  1.00  0.00    -0.206 F 
ATOM     97  C   UNL     1       5.441 -15.074   7.908  1.00  0.00     0.022 A 
BRANCH  94  98
ATOM     98  S   UNL     1       7.622 -14.472   6.276  1.00  0.00     0.124 S 
ATOM     99  O   UNL     1       7.231 -14.161   4.904  1.00  0.00    -0.237 OA
ATOM    100  O   UNL     1       8.601 -13.574   6.878  1.00  0.00    -0.237 OA
ATOM    101  O   UNL     1       7.830 -15.892   6.554  1.00  0.00    -0.744 OA
ENDBRANCH  94  98
ENDBRANCH  68  91
ENDBRANCH  42  43
ENDBRANCH  34  37
ENDBRANCH  32  33
ENDBRANCH  31  32
ENDBRANCH   1  31
TORSDOF 19
