REMARK SMILES CC(C)N(CCCC(=O)NCCCCNC(=O)c1ccc(-c2c3nc(c(-c4cc(S(=O)(=O)[O-])ccc4F)c4ccc([nH]4)c(-c4cc(S(=O)(=O)[O-])ccc4F)c4nc(c(-c5cc(S(=O)(=O)[O-])ccc5F)c5ccc2[nH]5)C=C4)C=C3)cc1)c1cc(Cl)c(Cl)cc1[N+](=O)[O-]
REMARK SMILES IDX 11 1 10 2 8 3 9 4 7 6 6 7 5 8 4 9 2 10 1 11 3 12 81 13 82 14
REMARK SMILES IDX 88 15 83 16 87 17 84 18 85 19 86 20 89 21 90 22 91 23 12 24
REMARK SMILES IDX 13 25 14 26 15 27 16 28 17 30 18 31 19 32 80 33 20 34 79 35
REMARK SMILES IDX 21 36 22 37 23 38 73 39 24 40 78 41 72 42 74 43 25 44 77 45
REMARK SMILES IDX 71 46 70 47 26 49 58 50 38 51 57 52 39 53 42 54 56 55 75 56
REMARK SMILES IDX 40 57 41 58 55 60 76 61 43 62 27 63 28 64 36 65 29 66 35 67
REMARK SMILES IDX 37 68 34 69 30 70 31 71 32 72 33 73 59 74 60 75 68 76 61 77
REMARK SMILES IDX 67 78 69 79 66 80 62 81 63 82 64 83 65 84 44 85 45 86 53 87
REMARK SMILES IDX 46 88 52 89 54 90 51 91 47 92 48 93 49 94 50 95
REMARK H PARENT 10 5 15 29 74 48 42 59
REMARK Flexibility Score: inf
ROOT
ATOM      1  C   UNL     1      -3.379   0.258  -1.436  1.00  0.00     0.116 C 
ENDROOT
BRANCH   1   2
ATOM      2  N   UNL     1      -4.445  -0.682  -1.716  1.00  0.00    -0.356 N 
ATOM      3  C   UNL     1      -4.641  -1.928  -1.205  1.00  0.00     0.220 C 
ATOM      4  O   UNL     1      -5.475  -2.667  -1.728  1.00  0.00    -0.275 OA
ATOM      5  H   UNL     1      -5.120  -0.378  -2.365  1.00  0.00     0.163 HD
BRANCH   3   6
ATOM      6  C   UNL     1      -3.869  -2.367   0.023  1.00  0.00     0.102 C 
BRANCH   6   7
ATOM      7  C   UNL     1      -2.583  -3.151  -0.259  1.00  0.00     0.031 C 
BRANCH   7   8
ATOM      8  C   UNL     1      -1.288  -2.361  -0.489  1.00  0.00     0.117 C 
BRANCH   8   9
ATOM      9  N   UNL     1      -0.552  -1.829   0.695  1.00  0.00    -0.364 N 
BRANCH   9  10
ATOM     10  C   UNL     1       0.925  -2.019   0.666  1.00  0.00     0.076 C 
ATOM     11  C   UNL     1       1.695  -0.845   0.070  1.00  0.00     0.030 C 
ATOM     12  C   UNL     1       1.479  -2.430   2.025  1.00  0.00     0.030 C 
ENDBRANCH   9  10
BRANCH   9  13
ATOM     13  C   UNL     1      -1.207  -1.099   1.677  1.00  0.00     0.117 A 
ATOM     14  C   UNL     1      -2.011  -1.820   2.584  1.00  0.00     0.055 A 
ATOM     15  C   UNL     1      -1.209   0.298   1.870  1.00  0.00     0.294 A 
ATOM     16  C   UNL     1      -2.865  -1.198   3.511  1.00  0.00     0.062 A 
ATOM     17  C   UNL     1      -2.039   0.942   2.811  1.00  0.00     0.110 A 
ATOM     18  Cl  UNL     1      -3.896  -2.212   4.455  1.00  0.00    -0.083 Cl
ATOM     19  C   UNL     1      -2.891   0.191   3.610  1.00  0.00     0.066 A 
ATOM     20  Cl  UNL     1      -3.949   1.033   4.681  1.00  0.00    -0.082 Cl
BRANCH  15  21
ATOM     21  N   UNL     1      -0.384   1.202   1.104  1.00  0.00     0.065 N 
ATOM     22  O   UNL     1       0.485   1.822   1.733  1.00  0.00    -0.258 OA
ATOM     23  O   UNL     1      -0.664   1.362  -0.089  1.00  0.00    -0.258 OA
ENDBRANCH  15  21
ENDBRANCH   9  13
ENDBRANCH   8   9
ENDBRANCH   7   8
ENDBRANCH   6   7
ENDBRANCH   3   6
ENDBRANCH   1   2
BRANCH   1  24
ATOM     24  C   UNL     1      -2.369   0.255  -2.587  1.00  0.00     0.023 C 
BRANCH  24  25
ATOM     25  C   UNL     1      -2.558   1.404  -3.562  1.00  0.00     0.023 C 
BRANCH  25  26
ATOM     26  C   UNL     1      -2.242   2.771  -2.968  1.00  0.00     0.116 C 
BRANCH  26  27
ATOM     27  N   UNL     1      -0.851   2.931  -2.561  1.00  0.00    -0.352 N 
ATOM     28  C   UNL     1      -0.036   4.029  -2.748  1.00  0.00     0.251 C 
ATOM     29  H   UNL     1      -0.444   2.164  -2.096  1.00  0.00     0.163 HD
ATOM     30  O   UNL     1       1.147   4.012  -2.450  1.00  0.00    -0.269 OA
BRANCH  28  31
ATOM     31  C   UNL     1      -0.650   5.226  -3.359  1.00  0.00     0.039 A 
ATOM     32  C   UNL     1      -0.146   5.709  -4.566  1.00  0.00     0.014 A 
ATOM     33  C   UNL     1      -1.826   5.743  -2.809  1.00  0.00     0.014 A 
ATOM     34  C   UNL     1      -0.893   6.642  -5.285  1.00  0.00     0.010 A 
ATOM     35  C   UNL     1      -2.608   6.601  -3.568  1.00  0.00     0.010 A 
ATOM     36  C   UNL     1      -2.159   7.041  -4.824  1.00  0.00    -0.014 A 
BRANCH  36  37
ATOM     37  C   UNL     1      -3.056   7.884  -5.654  1.00  0.00     0.031 A 
ATOM     38  C   UNL     1      -3.491   9.230  -5.153  1.00  0.00     0.074 A 
ATOM     39  C   UNL     1      -3.556   7.388  -6.804  1.00  0.00     0.049 A 
ATOM     40  N   UNL     1      -4.353  10.067  -5.668  1.00  0.00    -0.248 NA
ATOM     41  C   UNL     1      -2.907   9.674  -3.878  1.00  0.00     0.031 C 
ATOM     42  C   UNL     1      -3.260   6.062  -7.356  1.00  0.00     0.029 A 
ATOM     43  N   UNL     1      -4.433   7.931  -7.709  1.00  0.00    -0.354 N 
ATOM     44  C   UNL     1      -4.423  11.131  -4.777  1.00  0.00     0.074 A 
ATOM     45  C   UNL     1      -3.575  10.794  -3.654  1.00  0.00     0.031 C 
ATOM     46  C   UNL     1      -3.927   5.906  -8.510  1.00  0.00     0.029 A 
ATOM     47  C   UNL     1      -4.731   7.096  -8.761  1.00  0.00     0.049 A 
ATOM     48  H   UNL     1      -4.813   8.835  -7.614  1.00  0.00     0.167 HD
ATOM     49  C   UNL     1      -5.107  12.296  -4.900  1.00  0.00     0.034 A 
ATOM     50  C   UNL     1      -5.571   7.265  -9.802  1.00  0.00     0.034 A 
ATOM     51  C   UNL     1      -5.942  12.614  -6.032  1.00  0.00     0.049 A 
ATOM     52  C   UNL     1      -6.334   8.558  -9.913  1.00  0.00     0.074 A 
ATOM     53  C   UNL     1      -6.630  13.785  -6.296  1.00  0.00     0.029 A 
ATOM     54  N   UNL     1      -6.210  11.751  -7.088  1.00  0.00    -0.354 N 
ATOM     55  N   UNL     1      -6.340   9.585  -9.094  1.00  0.00    -0.248 NA
ATOM     56  C   UNL     1      -7.198   8.719 -11.089  1.00  0.00     0.031 C 
ATOM     57  C   UNL     1      -7.360  13.608  -7.478  1.00  0.00     0.029 A 
ATOM     58  C   UNL     1      -7.077  12.351  -7.988  1.00  0.00     0.049 A 
ATOM     59  H   UNL     1      -5.837  10.844  -7.183  1.00  0.00     0.167 HD
ATOM     60  C   UNL     1      -7.197  10.520  -9.665  1.00  0.00     0.074 A 
ATOM     61  C   UNL     1      -7.672   9.943 -10.907  1.00  0.00     0.031 C 
ATOM     62  C   UNL     1      -7.559  11.746  -9.207  1.00  0.00     0.034 A 
BRANCH  49  63
ATOM     63  C   UNL     1      -4.983  13.287  -3.768  1.00  0.00     0.023 A 
ATOM     64  C   UNL     1      -3.741  13.850  -3.420  1.00  0.00     0.031 A 
ATOM     65  C   UNL     1      -6.102  13.634  -2.992  1.00  0.00     0.131 A 
ATOM     66  C   UNL     1      -3.630  14.650  -2.274  1.00  0.00     0.055 A 
ATOM     67  C   UNL     1      -6.000  14.503  -1.903  1.00  0.00     0.041 A 
ATOM     68  F   UNL     1      -7.310  13.115  -3.262  1.00  0.00    -0.206 F 
ATOM     69  C   UNL     1      -4.755  15.001  -1.526  1.00  0.00     0.022 A 
BRANCH  66  70
ATOM     70  S   UNL     1      -1.971  15.086  -1.685  1.00  0.00     0.124 S 
ATOM     71  O   UNL     1      -1.379  13.768  -1.469  1.00  0.00    -0.237 OA
ATOM     72  O   UNL     1      -1.432  15.854  -2.801  1.00  0.00    -0.237 OA
ATOM     73  O   UNL     1      -2.230  15.852  -0.468  1.00  0.00    -0.744 OA
ENDBRANCH  66  70
ENDBRANCH  49  63
BRANCH  50  74
ATOM     74  C   UNL     1      -5.750   6.180 -10.807  1.00  0.00     0.023 A 
ATOM     75  C   UNL     1      -5.320   6.342 -12.133  1.00  0.00     0.031 A 
ATOM     76  C   UNL     1      -6.377   4.970 -10.459  1.00  0.00     0.131 A 
ATOM     77  C   UNL     1      -5.554   5.325 -13.073  1.00  0.00     0.055 A 
ATOM     78  C   UNL     1      -6.568   3.945 -11.387  1.00  0.00     0.041 A 
ATOM     79  F   UNL     1      -6.798   4.762  -9.201  1.00  0.00    -0.206 F 
ATOM     80  C   UNL     1      -6.165   4.124 -12.706  1.00  0.00     0.022 A 
BRANCH  77  81
ATOM     81  S   UNL     1      -5.103   5.622 -14.805  1.00  0.00     0.124 S 
ATOM     82  O   UNL     1      -5.895   6.804 -15.122  1.00  0.00    -0.237 OA
ATOM     83  O   UNL     1      -3.660   5.821 -14.712  1.00  0.00    -0.237 OA
ATOM     84  O   UNL     1      -5.516   4.393 -15.480  1.00  0.00    -0.744 OA
ENDBRANCH  77  81
ENDBRANCH  50  74
BRANCH  62  85
ATOM     85  C   UNL     1      -8.502  12.542 -10.072  1.00  0.00     0.023 A 
ATOM     86  C   UNL     1      -9.843  12.156 -10.246  1.00  0.00     0.031 A 
ATOM     87  C   UNL     1      -8.052  13.696 -10.737  1.00  0.00     0.131 A 
ATOM     88  C   UNL     1     -10.675  12.891 -11.102  1.00  0.00     0.055 A 
ATOM     89  C   UNL     1      -8.899  14.454 -11.545  1.00  0.00     0.041 A 
ATOM     90  F   UNL     1      -6.780  14.107 -10.606  1.00  0.00    -0.206 F 
ATOM     91  C   UNL     1     -10.216  14.047 -11.740  1.00  0.00     0.022 A 
BRANCH  88  92
ATOM     92  S   UNL     1     -12.349  12.276 -11.430  1.00  0.00     0.124 S 
ATOM     93  O   UNL     1     -12.080  10.976 -12.036  1.00  0.00    -0.237 OA
ATOM     94  O   UNL     1     -12.940  12.248 -10.096  1.00  0.00    -0.237 OA
ATOM     95  O   UNL     1     -12.911  13.277 -12.335  1.00  0.00    -0.744 OA
ENDBRANCH  88  92
ENDBRANCH  62  85
ENDBRANCH  36  37
ENDBRANCH  28  31
ENDBRANCH  26  27
ENDBRANCH  25  26
ENDBRANCH  24  25
ENDBRANCH   1  24
TORSDOF 20
