REMARK SMILES Cc1ncc(CO)c([C@H]2[NH2+][C@@H](C(=O)NCCCCNC(=O)c3ccc(-c4c5nc(c(-c6cc(S(=O)(=O)[O-])ccc6F)c6ccc([nH]6)c(-c6cc(S(=O)(=O)[O-])ccc6F)c6nc(c(-c7cc(S(=O)(=O)[O-])ccc7F)c7ccc4[nH]7)C=C6)C=C5)cc3)Cc3[nH]cnc32)c1O
REMARK SMILES IDX 16 1 15 2 14 3 12 4 13 5 11 7 9 8 10 9 90 10 86 13 89 14
REMARK SMILES IDX 85 15 87 16 88 17 8 19 1 20 2 21 3 22 91 23 4 24 5 25 92 26
REMARK SMILES IDX 6 28 7 29 17 31 18 32 19 33 20 34 21 36 22 37 23 38 84 39
REMARK SMILES IDX 24 40 83 41 25 42 26 43 27 44 77 45 28 46 82 47 76 48 78 49
REMARK SMILES IDX 29 50 81 51 75 52 74 53 30 55 62 56 42 57 61 58 43 59 46 60
REMARK SMILES IDX 60 61 79 62 44 63 45 64 59 66 80 67 47 68 31 69 32 70 40 71
REMARK SMILES IDX 33 72 39 73 41 74 38 75 34 76 35 77 36 78 37 79 63 80 64 81
REMARK SMILES IDX 72 82 65 83 71 84 73 85 70 86 66 87 67 88 68 89 69 90 48 91
REMARK SMILES IDX 49 92 57 93 50 94 56 95 58 96 55 97 51 98 52 99 53 100
REMARK SMILES IDX 54 101
REMARK H PARENT 14 6 10 11 10 12 87 18 92 27 7 30 19 35 78 54 46 65
REMARK Flexibility Score: inf
ROOT
ATOM      1  C   UNL     1      -5.390   2.387   0.356  1.00  0.00     0.023 C 
ENDROOT
BRANCH   1   2
ATOM      2  C   UNL     1      -4.865   3.747   0.828  1.00  0.00     0.116 C 
BRANCH   2   3
ATOM      3  N   UNL     1      -4.179   3.681   2.111  1.00  0.00    -0.351 N 
ATOM      4  C   UNL     1      -2.854   3.858   2.421  1.00  0.00     0.278 C 
ATOM      5  O   UNL     1      -2.518   3.798   3.604  1.00  0.00    -0.268 OA
ATOM      6  H   UNL     1      -4.760   3.476   2.879  1.00  0.00     0.163 HD
BRANCH   4   7
ATOM      7  C   UNL     1      -1.848   4.029   1.280  1.00  0.00     0.279 C 
ATOM      8  C   UNL     1      -0.183   2.864   0.021  1.00  0.00     0.270 C 
ATOM      9  N   UNL     1      -0.797   2.976   1.365  1.00  0.00    -0.324 N 
ATOM     10  C   UNL     1       0.483   4.172  -0.296  1.00  0.00     0.124 A 
ATOM     11  H   UNL     1      -0.091   3.240   2.051  1.00  0.00     0.347 HD
ATOM     12  H   UNL     1      -1.200   2.084   1.655  1.00  0.00     0.347 HD
ATOM     13  C   UNL     1      -0.066   5.351   0.205  1.00  0.00     0.051 A 
ATOM     14  N   UNL     1       1.340   4.466  -1.329  1.00  0.00    -0.235 NA
ATOM     15  C   UNL     1      -1.198   5.432   1.196  1.00  0.00     0.131 C 
ATOM     16  N   UNL     1       0.515   6.369  -0.484  1.00  0.00    -0.348 N 
ATOM     17  C   UNL     1       1.356   5.785  -1.398  1.00  0.00     0.197 A 
ATOM     18  H   UNL     1       0.364   7.333  -0.353  1.00  0.00     0.167 HD
BRANCH   8  19
ATOM     19  C   UNL     1       0.444   1.505  -0.153  1.00  0.00     0.066 A 
ATOM     20  C   UNL     1      -1.164  -1.996  -0.119  1.00  0.00     0.071 C 
ATOM     21  C   UNL     1      -0.142  -0.897  -0.190  1.00  0.00     0.079 A 
ATOM     22  N   UNL     1       1.153  -1.260  -0.180  1.00  0.00    -0.257 NA
ATOM     23  C   UNL     1      -0.515   0.443  -0.219  1.00  0.00     0.146 A 
ATOM     24  C   UNL     1       2.066  -0.257  -0.127  1.00  0.00     0.118 A 
ATOM     25  C   UNL     1       1.789   1.123  -0.079  1.00  0.00     0.009 A 
BRANCH  23  26
ATOM     26  O   UNL     1      -1.869   0.709  -0.204  1.00  0.00    -0.505 OA
ATOM     27  H   UNL     1      -2.486   0.005  -0.248  1.00  0.00     0.293 HD
ENDBRANCH  23  26
BRANCH  25  28
ATOM     28  C   UNL     1       2.969   2.037   0.077  1.00  0.00     0.194 C 
BRANCH  28  29
ATOM     29  O   UNL     1       3.720   1.646   1.227  1.00  0.00    -0.392 OA
ATOM     30  H   UNL     1       3.157   1.704   2.015  1.00  0.00     0.211 HD
ENDBRANCH  28  29
ENDBRANCH  25  28
ENDBRANCH   8  19
ENDBRANCH   4   7
ENDBRANCH   2   3
ENDBRANCH   1   2
BRANCH   1  31
ATOM     31  C   UNL     1      -6.497   1.765   1.220  1.00  0.00     0.023 C 
BRANCH  31  32
ATOM     32  C   UNL     1      -7.735   2.635   1.400  1.00  0.00     0.116 C 
BRANCH  32  33
ATOM     33  N   UNL     1      -8.456   2.876   0.152  1.00  0.00    -0.352 N 
ATOM     34  C   UNL     1      -9.575   3.679  -0.029  1.00  0.00     0.251 C 
ATOM     35  H   UNL     1      -8.111   2.418  -0.648  1.00  0.00     0.163 HD
ATOM     36  O   UNL     1     -10.335   3.486  -0.961  1.00  0.00    -0.269 OA
BRANCH  34  37
ATOM     37  C   UNL     1      -9.803   4.780   0.928  1.00  0.00     0.039 A 
ATOM     38  C   UNL     1     -11.070   5.068   1.441  1.00  0.00     0.014 A 
ATOM     39  C   UNL     1      -8.688   5.506   1.338  1.00  0.00     0.014 A 
ATOM     40  C   UNL     1     -11.185   6.040   2.437  1.00  0.00     0.010 A 
ATOM     41  C   UNL     1      -8.778   6.349   2.415  1.00  0.00     0.010 A 
ATOM     42  C   UNL     1     -10.028   6.662   2.935  1.00  0.00    -0.014 A 
BRANCH  42  43
ATOM     43  C   UNL     1     -10.071   7.533   4.110  1.00  0.00     0.031 A 
ATOM     44  C   UNL     1     -10.656   6.885   5.316  1.00  0.00     0.074 A 
ATOM     45  C   UNL     1      -9.406   8.710   4.176  1.00  0.00     0.049 A 
ATOM     46  N   UNL     1     -11.782   7.155   5.887  1.00  0.00    -0.248 NA
ATOM     47  C   UNL     1     -10.007   5.673   5.848  1.00  0.00     0.031 C 
ATOM     48  C   UNL     1      -8.535   9.314   3.159  1.00  0.00     0.029 A 
ATOM     49  N   UNL     1      -9.268   9.573   5.220  1.00  0.00    -0.354 N 
ATOM     50  C   UNL     1     -11.848   6.336   7.011  1.00  0.00     0.074 A 
ATOM     51  C   UNL     1     -10.873   5.303   6.794  1.00  0.00     0.031 C 
ATOM     52  C   UNL     1      -7.784  10.289   3.718  1.00  0.00     0.029 A 
ATOM     53  C   UNL     1      -8.233  10.501   5.083  1.00  0.00     0.049 A 
ATOM     54  H   UNL     1      -9.853   9.545   6.011  1.00  0.00     0.167 HD
ATOM     55  C   UNL     1     -12.502   6.743   8.136  1.00  0.00     0.034 A 
ATOM     56  C   UNL     1      -7.761  11.369   6.023  1.00  0.00     0.034 A 
ATOM     57  C   UNL     1     -13.351   7.881   7.844  1.00  0.00     0.049 A 
ATOM     58  C   UNL     1      -8.845  11.524   7.027  1.00  0.00     0.074 A 
ATOM     59  C   UNL     1     -14.389   8.111   6.961  1.00  0.00     0.029 A 
ATOM     60  N   UNL     1     -12.904   9.130   8.218  1.00  0.00    -0.354 N 
ATOM     61  N   UNL     1     -10.000  12.064   6.746  1.00  0.00    -0.248 NA
ATOM     62  C   UNL     1      -8.845  10.622   8.169  1.00  0.00     0.031 C 
ATOM     63  C   UNL     1     -14.154   9.425   6.460  1.00  0.00     0.029 A 
ATOM     64  C   UNL     1     -13.061   9.966   7.140  1.00  0.00     0.049 A 
ATOM     65  H   UNL     1     -12.538   9.378   9.098  1.00  0.00     0.167 HD
ATOM     66  C   UNL     1     -10.936  11.246   7.362  1.00  0.00     0.074 A 
ATOM     67  C   UNL     1     -10.162  10.430   8.300  1.00  0.00     0.031 C 
ATOM     68  C   UNL     1     -12.195  11.096   6.851  1.00  0.00     0.034 A 
BRANCH  55  69
ATOM     69  C   UNL     1     -12.098   6.401   9.557  1.00  0.00     0.023 A 
ATOM     70  C   UNL     1     -12.867   6.972  10.591  1.00  0.00     0.031 A 
ATOM     71  C   UNL     1     -10.873   5.822   9.961  1.00  0.00     0.131 A 
ATOM     72  C   UNL     1     -12.366   7.074  11.899  1.00  0.00     0.055 A 
ATOM     73  C   UNL     1     -10.409   5.864  11.280  1.00  0.00     0.041 A 
ATOM     74  F   UNL     1     -10.013   5.264   9.104  1.00  0.00    -0.206 F 
ATOM     75  C   UNL     1     -11.137   6.526  12.252  1.00  0.00     0.022 A 
BRANCH  72  76
ATOM     76  S   UNL     1     -13.264   8.111  13.080  1.00  0.00     0.124 S 
ATOM     77  O   UNL     1     -13.345   9.374  12.353  1.00  0.00    -0.237 OA
ATOM     78  O   UNL     1     -14.514   7.374  13.235  1.00  0.00    -0.237 OA
ATOM     79  O   UNL     1     -12.394   8.119  14.253  1.00  0.00    -0.744 OA
ENDBRANCH  72  76
ENDBRANCH  55  69
BRANCH  56  80
ATOM     80  C   UNL     1      -6.342  11.774   6.265  1.00  0.00     0.023 A 
ATOM     81  C   UNL     1      -5.964  12.932   6.987  1.00  0.00     0.031 A 
ATOM     82  C   UNL     1      -5.309  10.852   5.977  1.00  0.00     0.131 A 
ATOM     83  C   UNL     1      -4.613  13.123   7.382  1.00  0.00     0.055 A 
ATOM     84  C   UNL     1      -3.982  11.044   6.374  1.00  0.00     0.041 A 
ATOM     85  F   UNL     1      -5.571   9.685   5.367  1.00  0.00    -0.206 F 
ATOM     86  C   UNL     1      -3.630  12.177   7.086  1.00  0.00     0.022 A 
BRANCH  83  87
ATOM     87  S   UNL     1      -4.112  14.586   8.357  1.00  0.00     0.124 S 
ATOM     88  O   UNL     1      -4.360  15.681   7.427  1.00  0.00    -0.237 OA
ATOM     89  O   UNL     1      -4.991  14.505   9.518  1.00  0.00    -0.237 OA
ATOM     90  O   UNL     1      -2.698  14.338   8.645  1.00  0.00    -0.744 OA
ENDBRANCH  83  87
ENDBRANCH  56  80
BRANCH  68  91
ATOM     91  C   UNL     1     -12.666  12.055   5.774  1.00  0.00     0.023 A 
ATOM     92  C   UNL     1     -12.050  12.247   4.515  1.00  0.00     0.031 A 
ATOM     93  C   UNL     1     -13.892  12.707   6.004  1.00  0.00     0.131 A 
ATOM     94  C   UNL     1     -12.665  13.071   3.548  1.00  0.00     0.055 A 
ATOM     95  C   UNL     1     -14.507  13.499   5.038  1.00  0.00     0.041 A 
ATOM     96  F   UNL     1     -14.538  12.547   7.171  1.00  0.00    -0.206 F 
ATOM     97  C   UNL     1     -13.894  13.688   3.807  1.00  0.00     0.022 A 
BRANCH  94  98
ATOM     98  S   UNL     1     -11.873  13.377   1.933  1.00  0.00     0.124 S 
ATOM     99  O   UNL     1     -10.499  13.714   2.284  1.00  0.00    -0.237 OA
ATOM    100  O   UNL     1     -12.062  12.105   1.240  1.00  0.00    -0.237 OA
ATOM    101  O   UNL     1     -12.649  14.489   1.379  1.00  0.00    -0.744 OA
ENDBRANCH  94  98
ENDBRANCH  68  91
ENDBRANCH  42  43
ENDBRANCH  34  37
ENDBRANCH  32  33
ENDBRANCH  31  32
ENDBRANCH   1  31
TORSDOF 18
