REMARK SMILES CN1N[C@H](C(=O)N[C@@H](CC2=c3ccccc3=NC2)C(=O)NCCCCNC(=O)c2ccc(-c3c4nc(c(-c5cc(S(=O)(=O)[O-])ccc5F)c5ccc([nH]5)c(-c5cc(S(=O)(=O)[O-])ccc5F)c5nc(c(-c6cc(S(=O)(=O)[O-])ccc6F)c6ccc3[nH]6)C=C5)C=C4)cc2)c2ccccc2C1=O
REMARK SMILES IDX 24 1 23 2 22 3 21 4 19 5 20 6 8 8 7 9 5 10 6 11 4 13 1 14
REMARK SMILES IDX 2 15 3 16 98 17 97 19 99 20 92 21 96 22 93 23 95 24 94 25
REMARK SMILES IDX 9 26 10 27 11 28 18 29 12 30 16 31 17 32 13 33 15 34 14 35
REMARK SMILES IDX 25 36 26 37 27 38 28 40 29 41 30 42 91 43 31 44 90 45 32 46
REMARK SMILES IDX 33 47 34 48 84 49 35 50 89 51 83 52 85 53 36 54 88 55 82 56
REMARK SMILES IDX 81 57 37 59 69 60 49 61 68 62 50 63 53 64 67 65 86 66 51 67
REMARK SMILES IDX 52 68 66 70 87 71 54 72 38 73 39 74 47 75 40 76 46 77 48 78
REMARK SMILES IDX 45 79 41 80 42 81 43 82 44 83 70 84 71 85 79 86 72 87 78 88
REMARK SMILES IDX 80 89 77 90 73 91 74 92 75 93 76 94 55 95 56 96 64 97 57 98
REMARK SMILES IDX 63 99 65 100 62 101 58 102 59 103 60 104 61 105
REMARK H PARENT 21 7 7 12 3 18 26 39 85 58 53 69
REMARK Flexibility Score: inf
ROOT
ATOM      1  C   UNL     1      -2.837   6.053  -8.304  1.00  0.00     0.023 C 
ENDROOT
BRANCH   1   2
ATOM      2  C   UNL     1      -2.454   6.044  -6.830  1.00  0.00     0.023 C 
BRANCH   2   3
ATOM      3  C   UNL     1      -2.611   4.711  -6.116  1.00  0.00     0.116 C 
BRANCH   3   4
ATOM      4  N   UNL     1      -1.642   3.695  -6.423  1.00  0.00    -0.354 N 
ATOM      5  C   UNL     1      -1.446   2.517  -5.750  1.00  0.00     0.242 C 
ATOM      6  O   UNL     1      -0.937   1.590  -6.390  1.00  0.00    -0.273 OA
ATOM      7  H   UNL     1      -1.057   3.863  -7.197  1.00  0.00     0.163 HD
BRANCH   5   8
ATOM      8  C   UNL     1      -1.994   2.264  -4.311  1.00  0.00     0.175 C 
BRANCH   8   9
ATOM      9  N   UNL     1      -1.795   3.385  -3.375  1.00  0.00    -0.342 N 
ATOM     10  C   UNL     1      -0.755   3.688  -2.543  1.00  0.00     0.244 C 
ATOM     11  O   UNL     1      -0.795   4.786  -1.973  1.00  0.00    -0.273 OA
ATOM     12  H   UNL     1      -2.541   4.027  -3.344  1.00  0.00     0.164 HD
BRANCH  10  13
ATOM     13  C   UNL     1       0.387   2.695  -2.227  1.00  0.00     0.195 C 
ATOM     14  C   UNL     1       0.549  -0.295  -0.096  1.00  0.00     0.169 C 
ATOM     15  N   UNL     1       0.686   0.492  -1.307  1.00  0.00    -0.276 N 
ATOM     16  N   UNL     1      -0.235   1.540  -1.542  1.00  0.00    -0.215 NA
ATOM     17  C   UNL     1       1.509   0.034  -2.341  1.00  0.00     0.268 C 
ATOM     18  H   UNL     1      -0.611   1.853  -0.647  1.00  0.00     0.149 HD
ATOM     19  C   UNL     1       1.708   0.968  -3.487  1.00  0.00     0.046 A 
ATOM     20  O   UNL     1       2.104  -1.041  -2.307  1.00  0.00    -0.268 OA
ATOM     21  C   UNL     1       1.227   2.287  -3.411  1.00  0.00    -0.007 A 
ATOM     22  C   UNL     1       2.462   0.550  -4.589  1.00  0.00     0.014 A 
ATOM     23  C   UNL     1       1.618   3.206  -4.397  1.00  0.00     0.007 A 
ATOM     24  C   UNL     1       2.787   1.458  -5.594  1.00  0.00     0.001 A 
ATOM     25  C   UNL     1       2.387   2.789  -5.485  1.00  0.00     0.000 A 
ENDBRANCH  10  13
ENDBRANCH   8   9
BRANCH   8  26
ATOM     26  C   UNL     1      -3.466   1.709  -4.381  1.00  0.00     0.068 C 
BRANCH  26  27
ATOM     27  C   UNL     1      -4.496   2.356  -3.492  1.00  0.00    -0.037 C 
ATOM     28  C   UNL     1      -5.064   3.562  -3.515  1.00  0.00     0.001 A 
ATOM     29  C   UNL     1      -4.982   1.643  -2.261  1.00  0.00     0.174 C 
ATOM     30  C   UNL     1      -5.257   4.638  -4.426  1.00  0.00     0.010 A 
ATOM     31  C   UNL     1      -5.274   3.768  -2.066  1.00  0.00     0.065 A 
ATOM     32  N   UNL     1      -5.279   2.723  -1.296  1.00  0.00    -0.280 NA
ATOM     33  C   UNL     1      -5.399   5.886  -3.952  1.00  0.00     0.001 A 
ATOM     34  C   UNL     1      -5.279   5.178  -1.612  1.00  0.00     0.028 A 
ATOM     35  C   UNL     1      -5.275   6.157  -2.532  1.00  0.00     0.002 A 
ENDBRANCH  26  27
ENDBRANCH   8  26
ENDBRANCH   5   8
ENDBRANCH   3   4
ENDBRANCH   2   3
ENDBRANCH   1   2
BRANCH   1  36
ATOM     36  C   UNL     1      -4.203   5.468  -8.652  1.00  0.00     0.116 C 
BRANCH  36  37
ATOM     37  N   UNL     1      -5.332   6.113  -7.984  1.00  0.00    -0.352 N 
ATOM     38  C   UNL     1      -6.473   6.671  -8.522  1.00  0.00     0.251 C 
ATOM     39  H   UNL     1      -5.268   6.155  -7.003  1.00  0.00     0.163 HD
ATOM     40  O   UNL     1      -7.318   7.176  -7.786  1.00  0.00    -0.269 OA
BRANCH  38  41
ATOM     41  C   UNL     1      -6.614   6.732  -9.991  1.00  0.00     0.039 A 
ATOM     42  C   UNL     1      -6.402   5.589 -10.758  1.00  0.00     0.014 A 
ATOM     43  C   UNL     1      -6.766   7.980 -10.600  1.00  0.00     0.014 A 
ATOM     44  C   UNL     1      -6.057   5.737 -12.095  1.00  0.00     0.010 A 
ATOM     45  C   UNL     1      -6.533   8.105 -11.971  1.00  0.00     0.010 A 
ATOM     46  C   UNL     1      -6.078   7.003 -12.709  1.00  0.00    -0.014 A 
BRANCH  46  47
ATOM     47  C   UNL     1      -5.556   7.154 -14.095  1.00  0.00     0.031 A 
ATOM     48  C   UNL     1      -4.361   8.030 -14.383  1.00  0.00     0.074 A 
ATOM     49  C   UNL     1      -6.111   6.434 -15.089  1.00  0.00     0.049 A 
ATOM     50  N   UNL     1      -3.766   8.261 -15.526  1.00  0.00    -0.248 NA
ATOM     51  C   UNL     1      -3.755   8.745 -13.247  1.00  0.00     0.031 C 
ATOM     52  C   UNL     1      -7.257   5.540 -14.926  1.00  0.00     0.029 A 
ATOM     53  N   UNL     1      -5.776   6.310 -16.414  1.00  0.00    -0.354 N 
ATOM     54  C   UNL     1      -2.748   9.170 -15.255  1.00  0.00     0.074 A 
ATOM     55  C   UNL     1      -2.816   9.469 -13.843  1.00  0.00     0.031 C 
ATOM     56  C   UNL     1      -7.487   4.908 -16.084  1.00  0.00     0.029 A 
ATOM     57  C   UNL     1      -6.566   5.415 -17.097  1.00  0.00     0.049 A 
ATOM     58  H   UNL     1      -5.042   6.814 -16.834  1.00  0.00     0.167 HD
ATOM     59  C   UNL     1      -1.833   9.697 -16.105  1.00  0.00     0.034 A 
ATOM     60  C   UNL     1      -6.569   5.053 -18.396  1.00  0.00     0.034 A 
ATOM     61  C   UNL     1      -1.745   9.355 -17.502  1.00  0.00     0.049 A 
ATOM     62  C   UNL     1      -5.549   5.657 -19.322  1.00  0.00     0.074 A 
ATOM     63  C   UNL     1      -0.827   9.806 -18.434  1.00  0.00     0.029 A 
ATOM     64  N   UNL     1      -2.588   8.476 -18.166  1.00  0.00    -0.354 N 
ATOM     65  N   UNL     1      -4.583   6.500 -19.042  1.00  0.00    -0.248 NA
ATOM     66  C   UNL     1      -5.618   5.273 -20.738  1.00  0.00     0.031 C 
ATOM     67  C   UNL     1      -1.145   9.241 -19.670  1.00  0.00     0.029 A 
ATOM     68  C   UNL     1      -2.226   8.390 -19.500  1.00  0.00     0.049 A 
ATOM     69  H   UNL     1      -3.333   7.986 -17.750  1.00  0.00     0.167 HD
ATOM     70  C   UNL     1      -3.928   6.746 -20.244  1.00  0.00     0.074 A 
ATOM     71  C   UNL     1      -4.586   5.934 -21.248  1.00  0.00     0.031 C 
ATOM     72  C   UNL     1      -2.885   7.577 -20.494  1.00  0.00     0.034 A 
BRANCH  59  73
ATOM     73  C   UNL     1      -0.835  10.697 -15.572  1.00  0.00     0.023 A 
ATOM     74  C   UNL     1      -0.850  12.023 -16.045  1.00  0.00     0.031 A 
ATOM     75  C   UNL     1       0.203  10.311 -14.706  1.00  0.00     0.131 A 
ATOM     76  C   UNL     1       0.170  12.908 -15.671  1.00  0.00     0.055 A 
ATOM     77  C   UNL     1       1.198  11.207 -14.310  1.00  0.00     0.041 A 
ATOM     78  F   UNL     1       0.260   9.058 -14.226  1.00  0.00    -0.206 F 
ATOM     79  C   UNL     1       1.190  12.509 -14.803  1.00  0.00     0.022 A 
BRANCH  76  80
ATOM     80  S   UNL     1       0.246  14.592 -16.342  1.00  0.00     0.124 S 
ATOM     81  O   UNL     1       0.162  15.400 -15.127  1.00  0.00    -0.237 OA
ATOM     82  O   UNL     1       1.546  14.598 -17.006  1.00  0.00    -0.237 OA
ATOM     83  O   UNL     1      -0.914  14.673 -17.222  1.00  0.00    -0.744 OA
ENDBRANCH  76  80
ENDBRANCH  59  73
BRANCH  60  84
ATOM     84  C   UNL     1      -7.564   4.041 -18.855  1.00  0.00     0.023 A 
ATOM     85  C   UNL     1      -8.944   4.285 -18.731  1.00  0.00     0.031 A 
ATOM     86  C   UNL     1      -7.152   2.767 -19.278  1.00  0.00     0.131 A 
ATOM     87  C   UNL     1      -9.857   3.243 -18.930  1.00  0.00     0.055 A 
ATOM     88  C   UNL     1      -8.072   1.753 -19.555  1.00  0.00     0.041 A 
ATOM     89  F   UNL     1      -5.846   2.483 -19.400  1.00  0.00    -0.206 F 
ATOM     90  C   UNL     1      -9.431   1.982 -19.357  1.00  0.00     0.022 A 
BRANCH  87  91
ATOM     91  S   UNL     1     -11.601   3.441 -18.470  1.00  0.00     0.124 S 
ATOM     92  O   UNL     1     -12.276   3.265 -19.752  1.00  0.00    -0.237 OA
ATOM     93  O   UNL     1     -11.781   2.358 -17.506  1.00  0.00    -0.237 OA
ATOM     94  O   UNL     1     -11.657   4.785 -17.905  1.00  0.00    -0.744 OA
ENDBRANCH  87  91
ENDBRANCH  60  84
BRANCH  72  95
ATOM     95  C   UNL     1      -2.376   7.683 -21.909  1.00  0.00     0.023 A 
ATOM     96  C   UNL     1      -1.069   7.263 -22.223  1.00  0.00     0.031 A 
ATOM     97  C   UNL     1      -3.125   8.336 -22.902  1.00  0.00     0.131 A 
ATOM     98  C   UNL     1      -0.537   7.537 -23.489  1.00  0.00     0.055 A 
ATOM     99  C   UNL     1      -2.605   8.569 -24.176  1.00  0.00     0.041 A 
ATOM    100  F   UNL     1      -4.372   8.762 -22.645  1.00  0.00    -0.206 F 
ATOM    101  C   UNL     1      -1.300   8.182 -24.469  1.00  0.00     0.022 A 
BRANCH  98 102
ATOM    102  S   UNL     1       1.189   7.144 -23.884  1.00  0.00     0.124 S 
ATOM    103  O   UNL     1       1.038   6.204 -24.993  1.00  0.00    -0.237 OA
ATOM    104  O   UNL     1       1.728   8.452 -24.245  1.00  0.00    -0.237 OA
ATOM    105  O   UNL     1       1.711   6.569 -22.649  1.00  0.00    -0.744 OA
ENDBRANCH  98 102
ENDBRANCH  72  95
ENDBRANCH  46  47
ENDBRANCH  38  41
ENDBRANCH  36  37
ENDBRANCH   1  36
TORSDOF 18
