REMARK SMILES O=C(NCCCCNC(=O)c1ccc(N2C(=O)[C@@H]3N=NC(c4ccccc4)=C3[C@H]2c2cccc(Br)c2)cc1)c1ccc(-c2c3nc(c(-c4cc(S(=O)(=O)[O-])ccc4F)c4ccc([nH]4)c(-c4cc(S(=O)(=O)[O-])ccc4F)c4nc(c(-c5cc(S(=O)(=O)[O-])ccc5F)c5ccc2[nH]5)C=C4)C=C3)cc1
REMARK SMILES IDX 5 1 4 2 3 3 1 4 2 5 39 7 40 8 101 9 41 10 100 11 42 12 43 13
REMARK SMILES IDX 44 14 94 15 45 16 99 17 93 18 95 19 46 20 98 21 92 22 91 23
REMARK SMILES IDX 47 25 79 26 59 27 78 28 60 29 63 30 77 31 96 32 61 33 62 34
REMARK SMILES IDX 76 36 97 37 64 38 48 39 49 40 57 41 50 42 56 43 58 44 55 45
REMARK SMILES IDX 51 46 52 47 53 48 54 49 80 50 81 51 89 52 82 53 88 54 90 55
REMARK SMILES IDX 87 56 83 57 84 58 85 59 86 60 65 61 66 62 74 63 67 64 73 65
REMARK SMILES IDX 75 66 72 67 68 68 69 69 70 70 71 71 6 72 7 73 8 74 9 75
REMARK SMILES IDX 10 77 11 78 12 79 38 80 13 81 37 82 14 83 15 84 16 85 29 86
REMARK SMILES IDX 18 87 17 88 28 89 19 90 21 91 20 92 30 93 31 94 36 95 32 96
REMARK SMILES IDX 34 97 33 98 35 99 22 100 23 101 27 102 24 103 26 104 25 105
REMARK H PARENT 3 6 95 24 63 35 8 76
REMARK Flexibility Score: inf
ROOT
ATOM      1  C   UNL     1       4.962  -0.268  -2.324  1.00  0.00     0.023 C 
ENDROOT
BRANCH   1   2
ATOM      2  C   UNL     1       4.765   0.765  -1.215  1.00  0.00     0.116 C 
BRANCH   2   3
ATOM      3  N   UNL     1       3.394   1.159  -0.964  1.00  0.00    -0.352 N 
ATOM      4  O   UNL     1       1.356   1.318  -0.127  1.00  0.00    -0.269 OA
ATOM      5  C   UNL     1       2.350   0.602  -0.275  1.00  0.00     0.251 C 
ATOM      6  H   UNL     1       3.161   2.019  -1.383  1.00  0.00     0.163 HD
BRANCH   5   7
ATOM      7  C   UNL     1       2.317  -0.795   0.236  1.00  0.00     0.039 A 
ATOM      8  C   UNL     1       3.429  -1.622   0.408  1.00  0.00     0.014 A 
ATOM      9  C   UNL     1       1.044  -1.310   0.540  1.00  0.00     0.014 A 
ATOM     10  C   UNL     1       3.272  -2.960   0.759  1.00  0.00     0.010 A 
ATOM     11  C   UNL     1       0.885  -2.636   0.928  1.00  0.00     0.010 A 
ATOM     12  C   UNL     1       1.998  -3.474   0.993  1.00  0.00    -0.014 A 
BRANCH  12  13
ATOM     13  C   UNL     1       1.878  -4.874   1.407  1.00  0.00     0.031 A 
ATOM     14  C   UNL     1       2.428  -5.218   2.756  1.00  0.00     0.074 A 
ATOM     15  C   UNL     1       1.135  -5.757   0.711  1.00  0.00     0.049 A 
ATOM     16  N   UNL     1       3.171  -6.219   3.108  1.00  0.00    -0.248 NA
ATOM     17  C   UNL     1       2.147  -4.280   3.857  1.00  0.00     0.031 C 
ATOM     18  C   UNL     1       0.301  -5.478  -0.463  1.00  0.00     0.029 A 
ATOM     19  N   UNL     1       0.844  -7.060   0.998  1.00  0.00    -0.354 N 
ATOM     20  C   UNL     1       3.298  -6.146   4.497  1.00  0.00     0.074 A 
ATOM     21  C   UNL     1       2.753  -4.873   4.884  1.00  0.00     0.031 C 
ATOM     22  C   UNL     1      -0.581  -6.486  -0.626  1.00  0.00     0.029 A 
ATOM     23  C   UNL     1      -0.294  -7.526   0.349  1.00  0.00     0.049 A 
ATOM     24  H   UNL     1       1.387  -7.614   1.604  1.00  0.00     0.167 HD
ATOM     25  C   UNL     1       3.688  -7.208   5.258  1.00  0.00     0.034 A 
ATOM     26  C   UNL     1      -1.026  -8.626   0.657  1.00  0.00     0.034 A 
ATOM     27  C   UNL     1       4.433  -8.169   4.487  1.00  0.00     0.049 A 
ATOM     28  C   UNL     1      -0.168  -9.527   1.461  1.00  0.00     0.074 A 
ATOM     29  C   UNL     1       5.604  -8.123   3.754  1.00  0.00     0.029 A 
ATOM     30  N   UNL     1       3.832  -9.352   4.128  1.00  0.00    -0.354 N 
ATOM     31  N   UNL     1       0.904 -10.110   0.999  1.00  0.00    -0.248 NA
ATOM     32  C   UNL     1      -0.253  -9.452   2.911  1.00  0.00     0.031 C 
ATOM     33  C   UNL     1       5.378  -8.988   2.644  1.00  0.00     0.029 A 
ATOM     34  C   UNL     1       4.103  -9.535   2.795  1.00  0.00     0.049 A 
ATOM     35  H   UNL     1       3.310  -9.949   4.711  1.00  0.00     0.167 HD
ATOM     36  C   UNL     1       1.804 -10.095   2.052  1.00  0.00     0.074 A 
ATOM     37  C   UNL     1       1.000  -9.785   3.231  1.00  0.00     0.031 C 
ATOM     38  C   UNL     1       3.153 -10.060   1.836  1.00  0.00     0.034 A 
BRANCH  25  39
ATOM     39  C   UNL     1       3.147  -7.522   6.639  1.00  0.00     0.023 A 
ATOM     40  C   UNL     1       3.643  -8.668   7.295  1.00  0.00     0.031 A 
ATOM     41  C   UNL     1       1.990  -6.946   7.211  1.00  0.00     0.131 A 
ATOM     42  C   UNL     1       2.955  -9.240   8.381  1.00  0.00     0.055 A 
ATOM     43  C   UNL     1       1.350  -7.477   8.336  1.00  0.00     0.041 A 
ATOM     44  F   UNL     1       1.359  -5.899   6.667  1.00  0.00    -0.206 F 
ATOM     45  C   UNL     1       1.810  -8.650   8.908  1.00  0.00     0.022 A 
BRANCH  42  46
ATOM     46  S   UNL     1       3.462 -10.882   8.960  1.00  0.00     0.124 S 
ATOM     47  O   UNL     1       3.584 -11.617   7.705  1.00  0.00    -0.237 OA
ATOM     48  O   UNL     1       4.708 -10.582   9.655  1.00  0.00    -0.237 OA
ATOM     49  O   UNL     1       2.352 -11.296   9.816  1.00  0.00    -0.744 OA
ENDBRANCH  42  46
ENDBRANCH  25  39
BRANCH  26  50
ATOM     50  C   UNL     1      -2.508  -8.725   0.588  1.00  0.00     0.023 A 
ATOM     51  C   UNL     1      -3.190  -9.951   0.475  1.00  0.00     0.031 A 
ATOM     52  C   UNL     1      -3.299  -7.578   0.837  1.00  0.00     0.131 A 
ATOM     53  C   UNL     1      -4.601  -9.989   0.583  1.00  0.00     0.055 A 
ATOM     54  C   UNL     1      -4.690  -7.617   0.922  1.00  0.00     0.041 A 
ATOM     55  F   UNL     1      -2.735  -6.384   1.083  1.00  0.00    -0.206 F 
ATOM     56  C   UNL     1      -5.349  -8.828   0.798  1.00  0.00     0.022 A 
BRANCH  53  57
ATOM     57  S   UNL     1      -5.481 -11.581   0.534  1.00  0.00     0.124 S 
ATOM     58  O   UNL     1      -5.285 -12.002  -0.848  1.00  0.00    -0.237 OA
ATOM     59  O   UNL     1      -4.783 -12.356   1.554  1.00  0.00    -0.237 OA
ATOM     60  O   UNL     1      -6.858 -11.221   0.877  1.00  0.00    -0.744 OA
ENDBRANCH  53  57
ENDBRANCH  26  50
BRANCH  38  61
ATOM     61  C   UNL     1       3.671 -10.313   0.437  1.00  0.00     0.023 A 
ATOM     62  C   UNL     1       3.338  -9.521  -0.684  1.00  0.00     0.031 A 
ATOM     63  C   UNL     1       4.660 -11.297   0.272  1.00  0.00     0.131 A 
ATOM     64  C   UNL     1       3.983  -9.736  -1.916  1.00  0.00     0.055 A 
ATOM     65  C   UNL     1       5.308 -11.498  -0.947  1.00  0.00     0.041 A 
ATOM     66  F   UNL     1       5.050 -12.054   1.312  1.00  0.00    -0.206 F 
ATOM     67  C   UNL     1       4.969 -10.720  -2.048  1.00  0.00     0.022 A 
BRANCH  64  68
ATOM     68  S   UNL     1       3.558  -8.723  -3.369  1.00  0.00     0.124 S 
ATOM     69  O   UNL     1       2.105  -8.823  -3.439  1.00  0.00    -0.237 OA
ATOM     70  O   UNL     1       4.096  -7.413  -3.012  1.00  0.00    -0.237 OA
ATOM     71  O   UNL     1       4.266  -9.388  -4.466  1.00  0.00    -0.744 OA
ENDBRANCH  64  68
ENDBRANCH  38  61
ENDBRANCH  12  13
ENDBRANCH   5   7
ENDBRANCH   2   3
ENDBRANCH   1   2
BRANCH   1  72
ATOM     72  C   UNL     1       4.411   0.113  -3.702  1.00  0.00     0.023 C 
BRANCH  72  73
ATOM     73  C   UNL     1       4.748   1.513  -4.207  1.00  0.00     0.116 C 
BRANCH  73  74
ATOM     74  N   UNL     1       6.175   1.758  -4.321  1.00  0.00    -0.352 N 
ATOM     75  C   UNL     1       6.866   2.399  -5.324  1.00  0.00     0.251 C 
ATOM     76  H   UNL     1       6.724   1.419  -3.578  1.00  0.00     0.163 HD
ATOM     77  O   UNL     1       8.080   2.490  -5.285  1.00  0.00    -0.269 OA
BRANCH  75  78
ATOM     78  C   UNL     1       6.135   2.940  -6.493  1.00  0.00     0.039 A 
ATOM     79  C   UNL     1       6.455   2.414  -7.742  1.00  0.00     0.016 A 
ATOM     80  C   UNL     1       5.169   3.949  -6.382  1.00  0.00     0.016 A 
ATOM     81  C   UNL     1       5.758   2.848  -8.868  1.00  0.00     0.027 A 
ATOM     82  C   UNL     1       4.476   4.396  -7.523  1.00  0.00     0.027 A 
ATOM     83  C   UNL     1       4.750   3.827  -8.768  1.00  0.00     0.045 A 
BRANCH  83  84
ATOM     84  N   UNL     1       3.953   4.128  -9.919  1.00  0.00    -0.299 N 
ATOM     85  C   UNL     1       3.506   2.976 -10.650  1.00  0.00     0.259 C 
ATOM     86  C   UNL     1       4.380   5.200 -10.848  1.00  0.00     0.152 C 
ATOM     87  C   UNL     1       3.732   3.229 -12.112  1.00  0.00     0.248 C 
ATOM     88  O   UNL     1       3.070   1.939 -10.170  1.00  0.00    -0.271 OA
ATOM     89  C   UNL     1       4.712   4.326 -11.989  1.00  0.00     0.021 C 
ATOM     90  N   UNL     1       4.514   2.219 -12.843  1.00  0.00    -0.170 NA
ATOM     91  C   UNL     1       5.734   4.023 -12.781  1.00  0.00     0.097 C 
ATOM     92  N   UNL     1       5.565   2.760 -13.311  1.00  0.00    -0.154 NA
BRANCH  86  93
ATOM     93  C   UNL     1       3.278   6.205 -11.233  1.00  0.00    -0.020 A 
ATOM     94  C   UNL     1       2.928   6.433 -12.588  1.00  0.00     0.006 A 
ATOM     95  C   UNL     1       2.629   6.989 -10.267  1.00  0.00     0.022 A 
ATOM     96  C   UNL     1       1.960   7.365 -12.964  1.00  0.00     0.002 A 
ATOM     97  C   UNL     1       1.674   7.944 -10.653  1.00  0.00     0.018 A 
ATOM     98  C   UNL     1       1.333   8.130 -11.993  1.00  0.00     0.016 A 
ATOM     99  Br  UNL     1       0.842   9.030  -9.346  1.00  0.00    -0.051 Br
ENDBRANCH  86  93
BRANCH  91 100
ATOM    100  C   UNL     1       6.975   4.761 -12.992  1.00  0.00     0.002 A 
ATOM    101  C   UNL     1       6.987   5.888 -13.826  1.00  0.00     0.010 A 
ATOM    102  C   UNL     1       8.186   4.272 -12.490  1.00  0.00     0.010 A 
ATOM    103  C   UNL     1       8.197   6.476 -14.202  1.00  0.00     0.001 A 
ATOM    104  C   UNL     1       9.395   4.867 -12.859  1.00  0.00     0.001 A 
ATOM    105  C   UNL     1       9.401   5.956 -13.730  1.00  0.00     0.000 A 
ENDBRANCH  91 100
ENDBRANCH  83  84
ENDBRANCH  75  78
ENDBRANCH  73  74
ENDBRANCH  72  73
ENDBRANCH   1  72
TORSDOF 17
