REMARK SMILES Cc1nc(C)c(C(=O)N2CCC([C@H](C)C(=O)NCCCCNC(=O)c3ccc(-c4c5nc(c(-c6cc(S(=O)(=O)[O-])ccc6F)c6ccc([nH]6)c(-c6cc(S(=O)(=O)[O-])ccc6F)c6nc(c(-c7cc(S(=O)(=O)[O-])ccc7F)c7ccc4[nH]7)C=C6)C=C5)cc3)CC2)s1
REMARK SMILES IDX 20 1 19 2 18 3 17 4 15 5 16 6 13 8 14 9 12 10 7 11 8 12 9 13
REMARK SMILES IDX 10 14 89 15 11 16 88 17 6 18 1 19 2 20 3 21 90 22 4 23 5 24
REMARK SMILES IDX 21 25 22 26 23 27 24 29 25 30 26 31 87 32 27 33 86 34 28 35
REMARK SMILES IDX 29 36 30 37 80 38 31 39 85 40 79 41 81 42 32 43 84 44 78 45
REMARK SMILES IDX 77 46 33 48 65 49 45 50 64 51 46 52 49 53 63 54 82 55 47 56
REMARK SMILES IDX 48 57 62 59 83 60 50 61 34 62 35 63 43 64 36 65 42 66 44 67
REMARK SMILES IDX 41 68 37 69 38 70 39 71 40 72 66 73 67 74 75 75 68 76 74 77
REMARK SMILES IDX 76 78 73 79 69 80 70 81 71 82 72 83 51 84 52 85 60 86 53 87
REMARK SMILES IDX 59 88 61 89 58 90 54 91 55 92 56 93 57 94
REMARK H PARENT 17 7 22 28 81 47 49 58
REMARK Flexibility Score: inf
ROOT
ATOM      1  C   UNL     1       4.779  -6.621   2.676  1.00  0.00     0.023 C 
ENDROOT
BRANCH   1   2
ATOM      2  C   UNL     1       3.698  -6.311   1.648  1.00  0.00     0.023 C 
BRANCH   2   3
ATOM      3  C   UNL     1       2.657  -7.402   1.457  1.00  0.00     0.116 C 
BRANCH   3   4
ATOM      4  N   UNL     1       1.812  -7.606   2.612  1.00  0.00    -0.356 N 
ATOM      5  C   UNL     1       0.476  -7.843   2.674  1.00  0.00     0.223 C 
ATOM      6  O   UNL     1      -0.004  -8.125   3.776  1.00  0.00    -0.275 OA
ATOM      7  H   UNL     1       2.273  -7.568   3.481  1.00  0.00     0.163 HD
BRANCH   5   8
ATOM      8  C   UNL     1      -0.436  -7.764   1.443  1.00  0.00     0.078 C 
ATOM      9  C   UNL     1      -0.520  -6.329   0.911  1.00  0.00     0.018 C 
BRANCH   8  10
ATOM     10  C   UNL     1      -0.298  -8.897   0.374  1.00  0.00     0.005 C 
ATOM     11  C   UNL     1       2.317 -11.166  -1.956  1.00  0.00     0.265 C 
ATOM     12  O   UNL     1       3.084 -10.340  -2.454  1.00  0.00    -0.268 OA
ATOM     13  N   UNL     1       1.126 -10.729  -1.369  1.00  0.00    -0.338 N 
ATOM     14  C   UNL     1       0.420  -9.612  -1.963  1.00  0.00     0.120 C 
ATOM     15  C   UNL     1       0.555 -11.269  -0.141  1.00  0.00     0.120 C 
ATOM     16  C   UNL     1       0.277  -8.457  -0.988  1.00  0.00     0.026 C 
ATOM     17  C   UNL     1       0.404 -10.167   0.911  1.00  0.00     0.026 C 
BRANCH  11  18
ATOM     18  C   UNL     1       2.551 -12.599  -2.065  1.00  0.00     0.115 A 
ATOM     19  C   UNL     1       1.818 -16.362  -2.731  1.00  0.00     0.079 C 
ATOM     20  C   UNL     1       2.326 -14.987  -2.481  1.00  0.00     0.091 A 
ATOM     21  N   UNL     1       3.596 -14.656  -2.475  1.00  0.00    -0.246 NA
ATOM     22  S   UNL     1       1.235 -13.701  -2.224  1.00  0.00    -0.113 S 
ATOM     23  C   UNL     1       3.742 -13.287  -2.263  1.00  0.00     0.061 A 
ATOM     24  C   UNL     1       5.127 -12.742  -2.318  1.00  0.00     0.068 C 
ENDBRANCH  11  18
ENDBRANCH   8  10
ENDBRANCH   5   8
ENDBRANCH   3   4
ENDBRANCH   2   3
ENDBRANCH   1   2
BRANCH   1  25
ATOM     25  C   UNL     1       5.496  -7.954   2.490  1.00  0.00     0.116 C 
BRANCH  25  26
ATOM     26  N   UNL     1       6.120  -8.096   1.183  1.00  0.00    -0.352 N 
ATOM     27  C   UNL     1       7.422  -8.418   0.876  1.00  0.00     0.251 C 
ATOM     28  H   UNL     1       5.528  -7.940   0.411  1.00  0.00     0.163 HD
ATOM     29  O   UNL     1       7.814  -8.357  -0.286  1.00  0.00    -0.269 OA
BRANCH  27  30
ATOM     30  C   UNL     1       8.350  -8.797   1.961  1.00  0.00     0.039 A 
ATOM     31  C   UNL     1       9.600  -8.177   2.031  1.00  0.00     0.014 A 
ATOM     32  C   UNL     1       7.967  -9.726   2.932  1.00  0.00     0.014 A 
ATOM     33  C   UNL     1      10.431  -8.428   3.124  1.00  0.00     0.010 A 
ATOM     34  C   UNL     1       8.761  -9.911   4.059  1.00  0.00     0.010 A 
ATOM     35  C   UNL     1      10.000  -9.261   4.170  1.00  0.00    -0.014 A 
BRANCH  35  36
ATOM     36  C   UNL     1      10.831  -9.466   5.385  1.00  0.00     0.031 A 
ATOM     37  C   UNL     1      11.349 -10.839   5.718  1.00  0.00     0.074 A 
ATOM     38  C   UNL     1      11.063  -8.433   6.220  1.00  0.00     0.049 A 
ATOM     39  N   UNL     1      12.020 -11.239   6.768  1.00  0.00    -0.248 NA
ATOM     40  C   UNL     1      11.042 -11.908   4.757  1.00  0.00     0.031 C 
ATOM     41  C   UNL     1      10.570  -7.066   6.031  1.00  0.00     0.029 A 
ATOM     42  N   UNL     1      11.762  -8.370   7.399  1.00  0.00    -0.354 N 
ATOM     43  C   UNL     1      12.209 -12.606   6.597  1.00  0.00     0.074 A 
ATOM     44  C   UNL     1      11.516 -12.975   5.380  1.00  0.00     0.031 C 
ATOM     45  C   UNL     1      11.000  -6.298   7.045  1.00  0.00     0.029 A 
ATOM     46  C   UNL     1      11.762  -7.121   7.978  1.00  0.00     0.049 A 
ATOM     47  H   UNL     1      12.221  -9.146   7.794  1.00  0.00     0.167 HD
ATOM     48  C   UNL     1      12.918 -13.469   7.367  1.00  0.00     0.034 A 
ATOM     49  C   UNL     1      12.304  -6.692   9.135  1.00  0.00     0.034 A 
ATOM     50  C   UNL     1      13.609 -13.084   8.573  1.00  0.00     0.049 A 
ATOM     51  C   UNL     1      13.076  -7.671   9.983  1.00  0.00     0.074 A 
ATOM     52  C   UNL     1      14.387 -13.865   9.410  1.00  0.00     0.029 A 
ATOM     53  N   UNL     1      13.602 -11.806   9.119  1.00  0.00    -0.354 N 
ATOM     54  N   UNL     1      13.285  -8.952   9.782  1.00  0.00    -0.248 NA
ATOM     55  C   UNL     1      13.698  -7.144  11.204  1.00  0.00     0.031 C 
ATOM     56  C   UNL     1      14.801 -13.076  10.489  1.00  0.00     0.029 A 
ATOM     57  C   UNL     1      14.343 -11.783  10.291  1.00  0.00     0.049 A 
ATOM     58  H   UNL     1      13.138 -11.029   8.730  1.00  0.00     0.167 HD
ATOM     59  C   UNL     1      14.088  -9.375  10.838  1.00  0.00     0.074 A 
ATOM     60  C   UNL     1      14.340  -8.209  11.660  1.00  0.00     0.031 C 
ATOM     61  C   UNL     1      14.577 -10.613  11.105  1.00  0.00     0.034 A 
BRANCH  48  62
ATOM     62  C   UNL     1      12.961 -14.913   6.925  1.00  0.00     0.023 A 
ATOM     63  C   UNL     1      13.535 -15.288   5.697  1.00  0.00     0.031 A 
ATOM     64  C   UNL     1      12.394 -15.924   7.720  1.00  0.00     0.131 A 
ATOM     65  C   UNL     1      13.455 -16.619   5.262  1.00  0.00     0.055 A 
ATOM     66  C   UNL     1      12.394 -17.262   7.320  1.00  0.00     0.041 A 
ATOM     67  F   UNL     1      11.814 -15.627   8.894  1.00  0.00    -0.206 F 
ATOM     68  C   UNL     1      12.912 -17.614   6.077  1.00  0.00     0.022 A 
BRANCH  65  69
ATOM     69  S   UNL     1      13.936 -17.001   3.556  1.00  0.00     0.124 S 
ATOM     70  O   UNL     1      13.016 -16.158   2.795  1.00  0.00    -0.237 OA
ATOM     71  O   UNL     1      15.339 -16.605   3.527  1.00  0.00    -0.237 OA
ATOM     72  O   UNL     1      13.690 -18.438   3.444  1.00  0.00    -0.744 OA
ENDBRANCH  65  69
ENDBRANCH  48  62
BRANCH  49  73
ATOM     73  C   UNL     1      12.135  -5.276   9.572  1.00  0.00     0.023 A 
ATOM     74  C   UNL     1      13.238  -4.416   9.691  1.00  0.00     0.031 A 
ATOM     75  C   UNL     1      10.869  -4.774   9.923  1.00  0.00     0.131 A 
ATOM     76  C   UNL     1      13.064  -3.119  10.200  1.00  0.00     0.055 A 
ATOM     77  C   UNL     1      10.693  -3.466  10.377  1.00  0.00     0.041 A 
ATOM     78  F   UNL     1       9.778  -5.551   9.821  1.00  0.00    -0.206 F 
ATOM     79  C   UNL     1      11.797  -2.634  10.532  1.00  0.00     0.022 A 
BRANCH  76  80
ATOM     80  S   UNL     1      14.535  -2.104  10.511  1.00  0.00     0.124 S 
ATOM     81  O   UNL     1      15.297  -2.954  11.418  1.00  0.00    -0.237 OA
ATOM     82  O   UNL     1      15.082  -1.945   9.168  1.00  0.00    -0.237 OA
ATOM     83  O   UNL     1      13.988  -0.887  11.107  1.00  0.00    -0.744 OA
ENDBRANCH  76  80
ENDBRANCH  49  73
BRANCH  61  84
ATOM     84  C   UNL     1      15.470 -10.750  12.313  1.00  0.00     0.023 A 
ATOM     85  C   UNL     1      14.981 -10.575  13.620  1.00  0.00     0.031 A 
ATOM     86  C   UNL     1      16.836 -11.043  12.151  1.00  0.00     0.131 A 
ATOM     87  C   UNL     1      15.863 -10.635  14.709  1.00  0.00     0.055 A 
ATOM     88  C   UNL     1      17.696 -11.163  13.243  1.00  0.00     0.041 A 
ATOM     89  F   UNL     1      17.357 -11.219  10.926  1.00  0.00    -0.206 F 
ATOM     90  C   UNL     1      17.214 -10.944  14.531  1.00  0.00     0.022 A 
BRANCH  87  91
ATOM     91  S   UNL     1      15.239 -10.211  16.359  1.00  0.00     0.124 S 
ATOM     92  O   UNL     1      14.746  -8.852  16.157  1.00  0.00    -0.237 OA
ATOM     93  O   UNL     1      14.221 -11.232  16.580  1.00  0.00    -0.237 OA
ATOM     94  O   UNL     1      16.422 -10.320  17.212  1.00  0.00    -0.744 OA
ENDBRANCH  87  91
ENDBRANCH  61  84
ENDBRANCH  35  36
ENDBRANCH  27  30
ENDBRANCH  25  26
ENDBRANCH   1  25
TORSDOF 16
