REMARK SMILES O=C(NCCCCNC(=O)c1ccc(C[NH2+]Cc2cc(F)ccc2F)nc1)c1ccc(-c2c3nc(c(-c4cc(S(=O)(=O)[O-])ccc4F)c4ccc([nH]4)c(-c4cc(S(=O)(=O)[O-])ccc4F)c4nc(c(-c5cc(S(=O)(=O)[O-])ccc5F)c5ccc2[nH]5)C=C4)C=C3)cc1
REMARK SMILES IDX 6 1 5 2 4 3 3 4 1 5 2 6 28 8 29 9 90 10 30 11 89 12 31 13
REMARK SMILES IDX 32 14 33 15 83 16 34 17 88 18 82 19 84 20 35 21 87 22 81 23
REMARK SMILES IDX 80 24 36 26 68 27 48 28 67 29 49 30 52 31 66 32 85 33 50 34
REMARK SMILES IDX 51 35 65 37 86 38 53 39 37 40 38 41 46 42 39 43 45 44 47 45
REMARK SMILES IDX 44 46 40 47 41 48 42 49 43 50 69 51 70 52 78 53 71 54 77 55
REMARK SMILES IDX 79 56 76 57 72 58 73 59 74 60 75 61 54 62 55 63 63 64 56 65
REMARK SMILES IDX 62 66 64 67 61 68 57 69 58 70 59 71 60 72 7 73 8 74 9 75
REMARK SMILES IDX 10 77 11 78 12 79 27 80 13 81 26 82 14 83 15 84 16 85 17 88
REMARK SMILES IDX 18 89 19 90 24 91 20 92 23 93 25 94 21 95 22 96
REMARK H PARENT 3 7 84 25 52 36 8 76 16 86 16 87
REMARK Flexibility Score: inf
ROOT
ATOM      1  C   UNL     1       4.516   3.838   0.044  1.00  0.00     0.023 C 
ENDROOT
BRANCH   1   2
ATOM      2  C   UNL     1       5.004   2.558  -0.634  1.00  0.00     0.023 C 
BRANCH   2   3
ATOM      3  C   UNL     1       4.661   1.265   0.092  1.00  0.00     0.116 C 
BRANCH   3   4
ATOM      4  N   UNL     1       3.229   1.055   0.240  1.00  0.00    -0.352 N 
ATOM      5  O   UNL     1       1.270  -0.045   0.036  1.00  0.00    -0.269 OA
ATOM      6  C   UNL     1       2.496  -0.077  -0.029  1.00  0.00     0.251 C 
ATOM      7  H   UNL     1       2.717   1.825   0.578  1.00  0.00     0.163 HD
BRANCH   6   8
ATOM      8  C   UNL     1       3.193  -1.321  -0.421  1.00  0.00     0.039 A 
ATOM      9  C   UNL     1       4.308  -1.764   0.296  1.00  0.00     0.014 A 
ATOM     10  C   UNL     1       2.733  -2.046  -1.524  1.00  0.00     0.014 A 
ATOM     11  C   UNL     1       5.036  -2.854  -0.165  1.00  0.00     0.010 A 
ATOM     12  C   UNL     1       3.421  -3.190  -1.938  1.00  0.00     0.010 A 
ATOM     13  C   UNL     1       4.591  -3.591  -1.275  1.00  0.00    -0.014 A 
BRANCH  13  14
ATOM     14  C   UNL     1       5.320  -4.826  -1.663  1.00  0.00     0.031 A 
ATOM     15  C   UNL     1       6.047  -4.926  -2.975  1.00  0.00     0.074 A 
ATOM     16  C   UNL     1       5.333  -5.856  -0.793  1.00  0.00     0.049 A 
ATOM     17  N   UNL     1       6.733  -5.930  -3.459  1.00  0.00    -0.248 NA
ATOM     18  C   UNL     1       5.992  -3.755  -3.862  1.00  0.00     0.031 C 
ATOM     19  C   UNL     1       4.651  -5.867   0.505  1.00  0.00     0.029 A 
ATOM     20  N   UNL     1       5.943  -7.082  -0.854  1.00  0.00    -0.354 N 
ATOM     21  C   UNL     1       7.178  -5.524  -4.712  1.00  0.00     0.074 A 
ATOM     22  C   UNL     1       6.666  -4.185  -4.922  1.00  0.00     0.031 C 
ATOM     23  C   UNL     1       4.912  -7.022   1.131  1.00  0.00     0.029 A 
ATOM     24  C   UNL     1       5.718  -7.864   0.256  1.00  0.00     0.049 A 
ATOM     25  H   UNL     1       6.490  -7.375  -1.618  1.00  0.00     0.167 HD
ATOM     26  C   UNL     1       7.944  -6.207  -5.598  1.00  0.00     0.034 A 
ATOM     27  C   UNL     1       6.093  -9.128   0.529  1.00  0.00     0.034 A 
ATOM     28  C   UNL     1       8.456  -7.538  -5.363  1.00  0.00     0.049 A 
ATOM     29  C   UNL     1       6.918  -9.868  -0.488  1.00  0.00     0.074 A 
ATOM     30  C   UNL     1       9.287  -8.296  -6.170  1.00  0.00     0.029 A 
ATOM     31  N   UNL     1       8.177  -8.314  -4.245  1.00  0.00    -0.354 N 
ATOM     32  N   UNL     1       7.358  -9.452  -1.653  1.00  0.00    -0.248 NA
ATOM     33  C   UNL     1       7.297 -11.246  -0.154  1.00  0.00     0.031 C 
ATOM     34  C   UNL     1       9.455  -9.551  -5.575  1.00  0.00     0.029 A 
ATOM     35  C   UNL     1       8.787  -9.554  -4.361  1.00  0.00     0.049 A 
ATOM     36  H   UNL     1       7.625  -8.026  -3.482  1.00  0.00     0.167 HD
ATOM     37  C   UNL     1       8.079 -10.516  -2.184  1.00  0.00     0.074 A 
ATOM     38  C   UNL     1       8.038 -11.578  -1.200  1.00  0.00     0.031 C 
ATOM     39  C   UNL     1       8.715 -10.610  -3.379  1.00  0.00     0.034 A 
BRANCH  26  40
ATOM     40  C   UNL     1       8.243  -5.554  -6.925  1.00  0.00     0.023 A 
ATOM     41  C   UNL     1       9.068  -4.422  -7.031  1.00  0.00     0.031 A 
ATOM     42  C   UNL     1       7.711  -6.096  -8.110  1.00  0.00     0.131 A 
ATOM     43  C   UNL     1       9.306  -3.845  -8.289  1.00  0.00     0.055 A 
ATOM     44  C   UNL     1       8.000  -5.554  -9.364  1.00  0.00     0.041 A 
ATOM     45  F   UNL     1       6.902  -7.166  -8.067  1.00  0.00    -0.206 F 
ATOM     46  C   UNL     1       8.796  -4.417  -9.458  1.00  0.00     0.022 A 
BRANCH  43  47
ATOM     47  S   UNL     1      10.220  -2.281  -8.373  1.00  0.00     0.124 S 
ATOM     48  O   UNL     1       9.360  -1.393  -7.594  1.00  0.00    -0.237 OA
ATOM     49  O   UNL     1      11.498  -2.629  -7.763  1.00  0.00    -0.237 OA
ATOM     50  O   UNL     1      10.271  -1.989  -9.804  1.00  0.00    -0.744 OA
ENDBRANCH  43  47
ENDBRANCH  26  40
BRANCH  27  51
ATOM     51  C   UNL     1       5.653  -9.788   1.790  1.00  0.00     0.023 A 
ATOM     52  C   UNL     1       6.584 -10.217   2.748  1.00  0.00     0.031 A 
ATOM     53  C   UNL     1       4.290 -10.040   2.035  1.00  0.00     0.131 A 
ATOM     54  C   UNL     1       6.145 -10.916   3.883  1.00  0.00     0.055 A 
ATOM     55  C   UNL     1       3.854 -10.682   3.193  1.00  0.00     0.041 A 
ATOM     56  F   UNL     1       3.358  -9.648   1.152  1.00  0.00    -0.206 F 
ATOM     57  C   UNL     1       4.786 -11.139   4.119  1.00  0.00     0.022 A 
BRANCH  54  58
ATOM     58  S   UNL     1       7.387 -11.621   5.001  1.00  0.00     0.124 S 
ATOM     59  O   UNL     1       8.197 -12.415   4.084  1.00  0.00    -0.237 OA
ATOM     60  O   UNL     1       8.018 -10.423   5.543  1.00  0.00    -0.237 OA
ATOM     61  O   UNL     1       6.589 -12.390   5.954  1.00  0.00    -0.744 OA
ENDBRANCH  54  58
ENDBRANCH  27  51
BRANCH  39  62
ATOM     62  C   UNL     1       9.433 -11.905  -3.659  1.00  0.00     0.023 A 
ATOM     63  C   UNL     1       8.729 -13.107  -3.851  1.00  0.00     0.031 A 
ATOM     64  C   UNL     1      10.838 -11.945  -3.695  1.00  0.00     0.131 A 
ATOM     65  C   UNL     1       9.432 -14.309  -4.009  1.00  0.00     0.055 A 
ATOM     66  C   UNL     1      11.531 -13.136  -3.912  1.00  0.00     0.041 A 
ATOM     67  F   UNL     1      11.558 -10.826  -3.514  1.00  0.00    -0.206 F 
ATOM     68  C   UNL     1      10.829 -14.329  -4.056  1.00  0.00     0.022 A 
BRANCH  65  69
ATOM     69  S   UNL     1       8.498 -15.863  -4.058  1.00  0.00     0.124 S 
ATOM     70  O   UNL     1       7.816 -15.847  -2.768  1.00  0.00    -0.237 OA
ATOM     71  O   UNL     1       7.648 -15.681  -5.230  1.00  0.00    -0.237 OA
ATOM     72  O   UNL     1       9.536 -16.883  -4.198  1.00  0.00    -0.744 OA
ENDBRANCH  65  69
ENDBRANCH  39  62
ENDBRANCH  13  14
ENDBRANCH   6   8
ENDBRANCH   3   4
ENDBRANCH   2   3
ENDBRANCH   1   2
BRANCH   1  73
ATOM     73  C   UNL     1       4.890   3.971   1.518  1.00  0.00     0.116 C 
BRANCH  73  74
ATOM     74  N   UNL     1       6.329   3.965   1.728  1.00  0.00    -0.352 N 
ATOM     75  C   UNL     1       7.154   4.993   2.109  1.00  0.00     0.252 C 
ATOM     76  H   UNL     1       6.774   3.101   1.576  1.00  0.00     0.163 HD
ATOM     77  O   UNL     1       8.373   4.868   2.078  1.00  0.00    -0.269 OA
BRANCH  75  78
ATOM     78  C   UNL     1       6.571   6.263   2.553  1.00  0.00     0.058 A 
ATOM     79  C   UNL     1       5.653   6.324   3.598  1.00  0.00     0.017 A 
ATOM     80  C   UNL     1       6.960   7.440   1.936  1.00  0.00     0.125 A 
ATOM     81  C   UNL     1       5.110   7.557   3.942  1.00  0.00     0.030 A 
ATOM     82  N   UNL     1       6.442   8.653   2.250  1.00  0.00    -0.255 NA
ATOM     83  C   UNL     1       5.518   8.697   3.244  1.00  0.00     0.094 A 
BRANCH  83  84
ATOM     84  C   UNL     1       4.976  10.055   3.653  1.00  0.00     0.318 C 
BRANCH  84  85
ATOM     85  N   UNL     1       5.763  10.636   4.745  1.00  0.00    -0.337 N 
ATOM     86  H   UNL     1       6.654  10.957   4.367  1.00  0.00     0.346 HD
ATOM     87  H   UNL     1       5.883   9.908   5.450  1.00  0.00     0.346 HD
BRANCH  85  88
ATOM     88  C   UNL     1       5.106  11.760   5.397  1.00  0.00     0.300 C 
BRANCH  88  89
ATOM     89  C   UNL     1       3.951  11.428   6.317  1.00  0.00     0.045 A 
ATOM     90  C   UNL     1       3.040  12.447   6.642  1.00  0.00     0.051 A 
ATOM     91  C   UNL     1       3.778  10.181   6.934  1.00  0.00     0.132 A 
ATOM     92  C   UNL     1       1.986  12.199   7.521  1.00  0.00     0.123 A 
ATOM     93  C   UNL     1       2.712   9.930   7.799  1.00  0.00     0.043 A 
ATOM     94  F   UNL     1       4.644   9.183   6.709  1.00  0.00    -0.206 F 
ATOM     95  F   UNL     1       1.137  13.189   7.823  1.00  0.00    -0.207 F 
ATOM     96  C   UNL     1       1.808  10.947   8.094  1.00  0.00     0.042 A 
ENDBRANCH  88  89
ENDBRANCH  85  88
ENDBRANCH  84  85
ENDBRANCH  83  84
ENDBRANCH  75  78
ENDBRANCH  73  74
ENDBRANCH   1  73
TORSDOF 18
