REMARK SMILES CC[C@H](C)CN(CC)C(=O)Nc1ccc(C(=O)NCCCCNC(=O)c2ccc(-c3c4nc(c(-c5cc(S(=O)(=O)[O-])ccc5F)c5ccc([nH]5)c(-c5cc(S(=O)(=O)[O-])ccc5F)c5nc(c(-c6cc(S(=O)(=O)[O-])ccc6F)c6ccc3[nH]6)C=C5)C=C4)cc2)cc1Cl
REMARK SMILES IDX 19 1 18 2 16 3 17 4 15 6 12 7 13 8 90 9 14 10 89 11 91 12
REMARK SMILES IDX 11 13 9 14 10 15 6 17 5 18 3 19 4 20 2 21 1 22 7 23 8 24
REMARK SMILES IDX 20 25 21 26 22 27 23 28 24 29 25 31 26 32 27 33 88 34 28 35
REMARK SMILES IDX 87 36 29 37 30 38 31 39 81 40 32 41 86 42 80 43 82 44 33 45
REMARK SMILES IDX 85 46 79 47 78 48 34 50 66 51 46 52 65 53 47 54 50 55 64 56
REMARK SMILES IDX 83 57 48 58 49 59 63 61 84 62 51 63 35 64 36 65 44 66 37 67
REMARK SMILES IDX 43 68 45 69 42 70 38 71 39 72 40 73 41 74 67 75 68 76 76 77
REMARK SMILES IDX 69 78 75 79 77 80 74 81 70 82 71 83 72 84 73 85 52 86 53 87
REMARK SMILES IDX 61 88 54 89 60 90 62 91 59 92 55 93 56 94 57 95 58 96
REMARK H PARENT 18 5 11 16 23 30 82 49 50 60
REMARK Flexibility Score: inf
ROOT
ATOM      1  C   UNL     1       3.167   9.811   1.008  1.00  0.00     0.116 C 
ENDROOT
BRANCH   1   2
ATOM      2  N   UNL     1       4.141   9.805   2.091  1.00  0.00    -0.352 N 
ATOM      3  C   UNL     1       4.356   8.899   3.099  1.00  0.00     0.251 C 
ATOM      4  O   UNL     1       5.315   9.036   3.852  1.00  0.00    -0.269 OA
ATOM      5  H   UNL     1       4.747  10.581   2.101  1.00  0.00     0.163 HD
BRANCH   3   6
ATOM      6  C   UNL     1       3.497   7.702   3.237  1.00  0.00     0.041 A 
ATOM      7  C   UNL     1       2.020   5.348   3.107  1.00  0.00     0.061 A 
ATOM      8  C   UNL     1       3.380   5.294   3.432  1.00  0.00     0.028 A 
ATOM      9  C   UNL     1       1.368   6.586   3.045  1.00  0.00     0.065 A 
ATOM     10  C   UNL     1       4.125   6.471   3.464  1.00  0.00     0.016 A 
ATOM     11  C   UNL     1       2.107   7.763   3.135  1.00  0.00     0.036 A 
ATOM     12  Cl  UNL     1      -0.352   6.720   2.934  1.00  0.00    -0.082 Cl
BRANCH   7  13
ATOM     13  N   UNL     1       1.397   4.128   2.827  1.00  0.00    -0.306 N 
ATOM     14  C   UNL     1       0.548   3.789   1.818  1.00  0.00     0.321 C 
ATOM     15  O   UNL     1      -0.357   2.998   2.100  1.00  0.00    -0.248 OA
ATOM     16  H   UNL     1       1.604   3.401   3.458  1.00  0.00     0.171 HD
BRANCH  14  17
ATOM     17  N   UNL     1       0.846   4.134   0.505  1.00  0.00    -0.325 N 
BRANCH  17  18
ATOM     18  C   UNL     1       0.135   3.396  -0.550  1.00  0.00     0.124 C 
BRANCH  18  19
ATOM     19  C   UNL     1       0.800   2.038  -0.924  1.00  0.00     0.005 C 
ATOM     20  C   UNL     1       0.566   0.970   0.150  1.00  0.00     0.009 C 
BRANCH  19  21
ATOM     21  C   UNL     1       0.292   1.602  -2.318  1.00  0.00     0.002 C 
ATOM     22  C   UNL     1       0.497   0.134  -2.668  1.00  0.00     0.004 C 
ENDBRANCH  19  21
ENDBRANCH  18  19
ENDBRANCH  17  18
BRANCH  17  23
ATOM     23  C   UNL     1       1.881   5.057   0.015  1.00  0.00     0.118 C 
ATOM     24  C   UNL     1       1.293   6.373  -0.488  1.00  0.00     0.027 C 
ENDBRANCH  17  23
ENDBRANCH  14  17
ENDBRANCH   7  13
ENDBRANCH   3   6
ENDBRANCH   1   2
BRANCH   1  25
ATOM     25  C   UNL     1       2.083  10.864   1.240  1.00  0.00     0.023 C 
BRANCH  25  26
ATOM     26  C   UNL     1       2.570  12.308   1.101  1.00  0.00     0.023 C 
BRANCH  26  27
ATOM     27  C   UNL     1       3.062  12.694  -0.290  1.00  0.00     0.116 C 
BRANCH  27  28
ATOM     28  N   UNL     1       2.028  12.587  -1.305  1.00  0.00    -0.352 N 
ATOM     29  C   UNL     1       1.707  13.466  -2.315  1.00  0.00     0.251 C 
ATOM     30  H   UNL     1       1.479  11.770  -1.265  1.00  0.00     0.163 HD
ATOM     31  O   UNL     1       0.709  13.269  -2.995  1.00  0.00    -0.269 OA
BRANCH  29  32
ATOM     32  C   UNL     1       2.549  14.663  -2.544  1.00  0.00     0.039 A 
ATOM     33  C   UNL     1       1.925  15.900  -2.723  1.00  0.00     0.014 A 
ATOM     34  C   UNL     1       3.944  14.572  -2.569  1.00  0.00     0.014 A 
ATOM     35  C   UNL     1       2.700  17.055  -2.852  1.00  0.00     0.010 A 
ATOM     36  C   UNL     1       4.713  15.732  -2.629  1.00  0.00     0.010 A 
ATOM     37  C   UNL     1       4.101  16.987  -2.765  1.00  0.00    -0.014 A 
BRANCH  37  38
ATOM     38  C   UNL     1       4.939  18.215  -2.808  1.00  0.00     0.031 A 
ATOM     39  C   UNL     1       5.911  18.426  -3.937  1.00  0.00     0.074 A 
ATOM     40  C   UNL     1       4.869  19.108  -1.800  1.00  0.00     0.049 A 
ATOM     41  N   UNL     1       6.792  19.379  -4.104  1.00  0.00    -0.248 NA
ATOM     42  C   UNL     1       5.910  17.415  -5.005  1.00  0.00     0.031 C 
ATOM     43  C   UNL     1       3.989  19.000  -0.633  1.00  0.00     0.029 A 
ATOM     44  N   UNL     1       5.556  20.278  -1.586  1.00  0.00    -0.354 N 
ATOM     45  C   UNL     1       7.454  19.081  -5.290  1.00  0.00     0.074 A 
ATOM     46  C   UNL     1       6.913  17.825  -5.767  1.00  0.00     0.031 C 
ATOM     47  C   UNL     1       4.175  20.067   0.159  1.00  0.00     0.029 A 
ATOM     48  C   UNL     1       5.218  20.913  -0.411  1.00  0.00     0.049 A 
ATOM     49  H   UNL     1       6.227  20.630  -2.214  1.00  0.00     0.167 HD
ATOM     50  C   UNL     1       8.408  19.799  -5.934  1.00  0.00     0.034 A 
ATOM     51  C   UNL     1       5.705  22.038   0.149  1.00  0.00     0.034 A 
ATOM     52  C   UNL     1       8.930  21.056  -5.455  1.00  0.00     0.049 A 
ATOM     53  C   UNL     1       6.791  22.800  -0.571  1.00  0.00     0.074 A 
ATOM     54  C   UNL     1       9.868  21.883  -6.049  1.00  0.00     0.029 A 
ATOM     55  N   UNL     1       8.562  21.668  -4.263  1.00  0.00    -0.354 N 
ATOM     56  N   UNL     1       7.378  22.522  -1.713  1.00  0.00    -0.248 NA
ATOM     57  C   UNL     1       7.272  24.032   0.067  1.00  0.00     0.031 C 
ATOM     58  C   UNL     1      10.112  22.960  -5.191  1.00  0.00     0.029 A 
ATOM     59  C   UNL     1       9.273  22.847  -4.095  1.00  0.00     0.049 A 
ATOM     60  H   UNL     1       7.895  21.317  -3.631  1.00  0.00     0.167 HD
ATOM     61  C   UNL     1       8.270  23.567  -1.943  1.00  0.00     0.074 A 
ATOM     62  C   UNL     1       8.131  24.485  -0.833  1.00  0.00     0.031 C 
ATOM     63  C   UNL     1       9.125  23.753  -2.981  1.00  0.00     0.034 A 
BRANCH  50  64
ATOM     64  C   UNL     1       8.959  19.230  -7.219  1.00  0.00     0.023 A 
ATOM     65  C   UNL     1       8.148  19.057  -8.355  1.00  0.00     0.031 A 
ATOM     66  C   UNL     1      10.309  18.848  -7.311  1.00  0.00     0.131 A 
ATOM     67  C   UNL     1       8.675  18.457  -9.508  1.00  0.00     0.055 A 
ATOM     68  C   UNL     1      10.847  18.323  -8.487  1.00  0.00     0.041 A 
ATOM     69  F   UNL     1      11.127  18.970  -6.253  1.00  0.00    -0.206 F 
ATOM     70  C   UNL     1      10.026  18.113  -9.591  1.00  0.00     0.022 A 
BRANCH  67  71
ATOM     71  S   UNL     1       7.540  18.017 -10.851  1.00  0.00     0.124 S 
ATOM     72  O   UNL     1       6.640  17.081 -10.181  1.00  0.00    -0.237 OA
ATOM     73  O   UNL     1       6.965  19.306 -11.216  1.00  0.00    -0.237 OA
ATOM     74  O   UNL     1       8.415  17.416 -11.857  1.00  0.00    -0.744 OA
ENDBRANCH  67  71
ENDBRANCH  50  64
BRANCH  51  75
ATOM     75  C   UNL     1       5.195  22.518   1.467  1.00  0.00     0.023 A 
ATOM     76  C   UNL     1       4.551  23.760   1.582  1.00  0.00     0.031 A 
ATOM     77  C   UNL     1       5.407  21.775   2.642  1.00  0.00     0.131 A 
ATOM     78  C   UNL     1       4.199  24.252   2.848  1.00  0.00     0.055 A 
ATOM     79  C   UNL     1       5.000  22.242   3.894  1.00  0.00     0.041 A 
ATOM     80  F   UNL     1       6.015  20.579   2.591  1.00  0.00    -0.206 F 
ATOM     81  C   UNL     1       4.407  23.496   4.004  1.00  0.00     0.022 A 
BRANCH  78  82
ATOM     82  S   UNL     1       3.569  25.949   2.974  1.00  0.00     0.124 S 
ATOM     83  O   UNL     1       4.639  26.710   2.340  1.00  0.00    -0.237 OA
ATOM     84  O   UNL     1       2.316  25.860   2.231  1.00  0.00    -0.237 OA
ATOM     85  O   UNL     1       3.426  26.152   4.414  1.00  0.00    -0.744 OA
ENDBRANCH  78  82
ENDBRANCH  51  75
BRANCH  63  86
ATOM     86  C   UNL     1       9.933  25.027  -2.983  1.00  0.00     0.023 A 
ATOM     87  C   UNL     1      10.928  25.276  -2.022  1.00  0.00     0.031 A 
ATOM     88  C   UNL     1       9.691  26.013  -3.957  1.00  0.00     0.131 A 
ATOM     89  C   UNL     1      11.605  26.506  -2.020  1.00  0.00     0.055 A 
ATOM     90  C   UNL     1      10.410  27.209  -3.986  1.00  0.00     0.041 A 
ATOM     91  F   UNL     1       8.752  25.828  -4.898  1.00  0.00    -0.206 F 
ATOM     92  C   UNL     1      11.364  27.466  -3.006  1.00  0.00     0.022 A 
BRANCH  89  93
ATOM     93  S   UNL     1      12.745  26.870  -0.657  1.00  0.00     0.124 S 
ATOM     94  O   UNL     1      11.871  26.763   0.507  1.00  0.00    -0.237 OA
ATOM     95  O   UNL     1      13.748  25.820  -0.799  1.00  0.00    -0.237 OA
ATOM     96  O   UNL     1      13.217  28.221  -0.956  1.00  0.00    -0.744 OA
ENDBRANCH  89  93
ENDBRANCH  63  86
ENDBRANCH  37  38
ENDBRANCH  29  32
ENDBRANCH  27  28
ENDBRANCH  26  27
ENDBRANCH  25  26
ENDBRANCH   1  25
TORSDOF 20
