REMARK SMILES Cc1ccc([C@H]2CC(c3cccs3)=NN2C(=O)CCC(=O)NCCCCNC(=O)c2ccc(-c3c4nc(c(-c5cc(S(=O)(=O)[O-])ccc5F)c5ccc([nH]5)c(-c5cc(S(=O)(=O)[O-])ccc5F)c5nc(c(-c6cc(S(=O)(=O)[O-])ccc6F)c6ccc3[nH]6)C=C5)C=C4)cc2)o1
REMARK SMILES IDX 24 1 23 2 22 3 20 4 21 5 19 7 18 8 16 9 17 10 15 11 6 12
REMARK SMILES IDX 7 13 8 14 14 15 5 16 1 17 2 18 3 19 93 20 4 21 9 22 10 23
REMARK SMILES IDX 13 24 11 25 12 26 25 27 26 28 27 29 28 30 29 32 30 33 31 34
REMARK SMILES IDX 92 35 32 36 91 37 33 38 34 39 35 40 85 41 36 42 90 43 84 44
REMARK SMILES IDX 86 45 37 46 89 47 83 48 82 49 38 51 70 52 50 53 69 54 51 55
REMARK SMILES IDX 54 56 68 57 87 58 52 59 53 60 67 62 88 63 55 64 39 65 40 66
REMARK SMILES IDX 48 67 41 68 47 69 49 70 46 71 42 72 43 73 44 74 45 75 71 76
REMARK SMILES IDX 72 77 80 78 73 79 79 80 81 81 78 82 74 83 75 84 76 85 77 86
REMARK SMILES IDX 56 87 57 88 65 89 58 90 64 91 66 92 63 93 59 94 60 95 61 96
REMARK SMILES IDX 62 97
REMARK H PARENT 22 6 27 31 86 50 54 61
REMARK Flexibility Score: inf
ROOT
ATOM      1  C   UNL     1      -3.619   2.101  -0.606  1.00  0.00     0.023 C 
ENDROOT
BRANCH   1   2
ATOM      2  C   UNL     1      -3.802   1.207   1.426  1.00  0.00     0.116 C 
BRANCH   2   3
ATOM      3  N   UNL     1      -2.942   0.101   2.117  1.00  0.00    -0.356 N 
ATOM      4  C   UNL     1      -2.096   0.153   3.183  1.00  0.00     0.220 C 
ATOM      5  O   UNL     1      -1.635  -0.911   3.598  1.00  0.00    -0.275 OA
ATOM      6  H   UNL     1      -3.028  -0.792   1.711  1.00  0.00     0.163 HD
BRANCH   4   7
ATOM      7  C   UNL     1      -1.771   1.469   3.838  1.00  0.00     0.110 C 
BRANCH   7   8
ATOM      8  C   UNL     1      -1.051   2.469   2.941  1.00  0.00     0.112 C 
BRANCH   8   9
ATOM      9  C   UNL     1      -2.032   3.300   2.155  1.00  0.00     0.243 C 
ATOM     10  O   UNL     1      -2.440   4.368   2.614  1.00  0.00    -0.273 OA
BRANCH   9  11
ATOM     11  N   UNL     1      -2.595   2.676   1.041  1.00  0.00    -0.222 N 
ATOM     12  C   UNL     1      -2.188   1.016   0.167  1.00  0.00     0.183 C 
ATOM     13  C   UNL     1      -4.006   0.250  -0.196  1.00  0.00     0.095 C 
ATOM     14  C   UNL     1      -5.269   1.825   0.259  1.00  0.00     0.081 C 
ATOM     15  N   UNL     1      -4.443   3.002   0.965  1.00  0.00    -0.173 NA
BRANCH  12  16
ATOM     16  C   UNL     1      -0.980   0.150   0.328  1.00  0.00     0.129 A 
ATOM     17  C   UNL     1       2.586   0.378   0.253  1.00  0.00     0.087 C 
ATOM     18  C   UNL     1       1.197  -0.120   0.204  1.00  0.00     0.101 A 
ATOM     19  C   UNL     1       0.638  -1.332  -0.135  1.00  0.00     0.045 A 
ATOM     20  O   UNL     1       0.219   0.787   0.473  1.00  0.00    -0.464 OA
ATOM     21  C   UNL     1      -0.764  -1.164  -0.044  1.00  0.00     0.048 A 
ENDBRANCH  12  16
BRANCH  14  22
ATOM     22  C   UNL     1      -6.595   2.261  -0.252  1.00  0.00     0.050 A 
ATOM     23  C   UNL     1      -7.106   2.386  -1.539  1.00  0.00     0.022 A 
ATOM     24  S   UNL     1      -7.586   3.201   0.814  1.00  0.00    -0.142 S 
ATOM     25  C   UNL     1      -8.213   3.273  -1.669  1.00  0.00     0.012 A 
ATOM     26  C   UNL     1      -8.537   3.834  -0.463  1.00  0.00     0.065 A 
ENDBRANCH  14  22
ENDBRANCH   9  11
ENDBRANCH   8   9
ENDBRANCH   7   8
ENDBRANCH   4   7
ENDBRANCH   2   3
ENDBRANCH   1   2
BRANCH   1  27
ATOM     27  C   UNL     1      -4.131   1.460  -2.226  1.00  0.00     0.023 C 
BRANCH  27  28
ATOM     28  C   UNL     1      -5.116   0.214  -2.634  1.00  0.00     0.116 C 
BRANCH  28  29
ATOM     29  N   UNL     1      -6.045  -0.383  -1.617  1.00  0.00    -0.352 N 
ATOM     30  C   UNL     1      -7.353  -0.781  -1.666  1.00  0.00     0.251 C 
ATOM     31  H   UNL     1      -5.628  -0.514  -0.735  1.00  0.00     0.163 HD
ATOM     32  O   UNL     1      -7.949  -1.119  -0.652  1.00  0.00    -0.269 OA
BRANCH  30  33
ATOM     33  C   UNL     1      -7.942  -0.869  -2.982  1.00  0.00     0.039 A 
ATOM     34  C   UNL     1      -9.028  -0.071  -3.333  1.00  0.00     0.014 A 
ATOM     35  C   UNL     1      -7.222  -1.638  -3.891  1.00  0.00     0.014 A 
ATOM     36  C   UNL     1      -9.343   0.039  -4.678  1.00  0.00     0.010 A 
ATOM     37  C   UNL     1      -7.475  -1.453  -5.221  1.00  0.00     0.010 A 
ATOM     38  C   UNL     1      -8.537  -0.620  -5.616  1.00  0.00    -0.014 A 
BRANCH  38  39
ATOM     39  C   UNL     1      -8.775  -0.578  -7.063  1.00  0.00     0.031 A 
ATOM     40  C   UNL     1      -9.086  -1.886  -7.717  1.00  0.00     0.074 A 
ATOM     41  C   UNL     1      -8.439   0.524  -7.751  1.00  0.00     0.049 A 
ATOM     42  N   UNL     1      -8.904  -2.256  -8.951  1.00  0.00    -0.248 NA
ATOM     43  C   UNL     1      -9.547  -2.956  -6.814  1.00  0.00     0.031 C 
ATOM     44  C   UNL     1      -8.059   1.815  -7.171  1.00  0.00     0.029 A 
ATOM     45  N   UNL     1      -8.300   0.704  -9.098  1.00  0.00    -0.354 N 
ATOM     46  C   UNL     1      -9.177  -3.618  -8.963  1.00  0.00     0.074 A 
ATOM     47  C   UNL     1      -9.441  -4.014  -7.597  1.00  0.00     0.031 C 
ATOM     48  C   UNL     1      -7.718   2.654  -8.165  1.00  0.00     0.029 A 
ATOM     49  C   UNL     1      -7.806   1.941  -9.434  1.00  0.00     0.049 A 
ATOM     50  H   UNL     1      -8.532   0.016  -9.762  1.00  0.00     0.167 HD
ATOM     51  C   UNL     1      -9.225  -4.447 -10.031  1.00  0.00     0.034 A 
ATOM     52  C   UNL     1      -7.442   2.414 -10.639  1.00  0.00     0.034 A 
ATOM     53  C   UNL     1      -8.993  -3.987 -11.374  1.00  0.00     0.049 A 
ATOM     54  C   UNL     1      -7.561   1.492 -11.826  1.00  0.00     0.074 A 
ATOM     55  C   UNL     1      -9.096  -4.685 -12.561  1.00  0.00     0.029 A 
ATOM     56  N   UNL     1      -8.621  -2.687 -11.703  1.00  0.00    -0.354 N 
ATOM     57  N   UNL     1      -7.879   0.216 -11.854  1.00  0.00    -0.248 NA
ATOM     58  C   UNL     1      -7.287   2.076 -13.143  1.00  0.00     0.031 C 
ATOM     59  C   UNL     1      -8.752  -3.817 -13.604  1.00  0.00     0.029 A 
ATOM     60  C   UNL     1      -8.489  -2.562 -13.073  1.00  0.00     0.049 A 
ATOM     61  H   UNL     1      -8.474  -1.962 -11.053  1.00  0.00     0.167 HD
ATOM     62  C   UNL     1      -7.887  -0.143 -13.198  1.00  0.00     0.074 A 
ATOM     63  C   UNL     1      -7.543   1.052 -13.944  1.00  0.00     0.031 C 
ATOM     64  C   UNL     1      -8.157  -1.343 -13.773  1.00  0.00     0.034 A 
BRANCH  51  65
ATOM     65  C   UNL     1      -9.538  -5.897  -9.758  1.00  0.00     0.023 A 
ATOM     66  C   UNL     1     -10.730  -6.276  -9.113  1.00  0.00     0.031 A 
ATOM     67  C   UNL     1      -8.604  -6.903 -10.053  1.00  0.00     0.131 A 
ATOM     68  C   UNL     1     -10.902  -7.596  -8.676  1.00  0.00     0.055 A 
ATOM     69  C   UNL     1      -8.830  -8.238  -9.708  1.00  0.00     0.041 A 
ATOM     70  F   UNL     1      -7.438  -6.603 -10.645  1.00  0.00    -0.206 F 
ATOM     71  C   UNL     1      -9.974  -8.588  -8.994  1.00  0.00     0.022 A 
BRANCH  68  72
ATOM     72  S   UNL     1     -12.260  -7.947  -7.526  1.00  0.00     0.124 S 
ATOM     73  O   UNL     1     -11.894  -7.114  -6.382  1.00  0.00    -0.237 OA
ATOM     74  O   UNL     1     -13.432  -7.516  -8.279  1.00  0.00    -0.237 OA
ATOM     75  O   UNL     1     -12.154  -9.386  -7.301  1.00  0.00    -0.744 OA
ENDBRANCH  68  72
ENDBRANCH  51  65
BRANCH  52  76
ATOM     76  C   UNL     1      -6.963   3.813 -10.792  1.00  0.00     0.023 A 
ATOM     77  C   UNL     1      -7.739   4.750 -11.489  1.00  0.00     0.031 A 
ATOM     78  C   UNL     1      -5.722   4.230 -10.282  1.00  0.00     0.131 A 
ATOM     79  C   UNL     1      -7.244   6.043 -11.712  1.00  0.00     0.055 A 
ATOM     80  C   UNL     1      -5.253   5.532 -10.466  1.00  0.00     0.041 A 
ATOM     81  F   UNL     1      -4.952   3.377  -9.587  1.00  0.00    -0.206 F 
ATOM     82  C   UNL     1      -6.009   6.443 -11.199  1.00  0.00     0.022 A 
BRANCH  79  83
ATOM     83  S   UNL     1      -8.210   7.164 -12.758  1.00  0.00     0.124 S 
ATOM     84  O   UNL     1      -8.317   6.398 -13.995  1.00  0.00    -0.237 OA
ATOM     85  O   UNL     1      -9.440   7.311 -11.986  1.00  0.00    -0.237 OA
ATOM     86  O   UNL     1      -7.376   8.361 -12.833  1.00  0.00    -0.744 OA
ENDBRANCH  79  83
ENDBRANCH  52  76
BRANCH  64  87
ATOM     87  C   UNL     1      -8.162  -1.387 -15.277  1.00  0.00     0.023 A 
ATOM     88  C   UNL     1      -6.980  -1.257 -16.023  1.00  0.00     0.031 A 
ATOM     89  C   UNL     1      -9.373  -1.567 -15.968  1.00  0.00     0.131 A 
ATOM     90  C   UNL     1      -7.041  -1.259 -17.423  1.00  0.00     0.055 A 
ATOM     91  C   UNL     1      -9.420  -1.626 -17.359  1.00  0.00     0.041 A 
ATOM     92  F   UNL     1     -10.529  -1.697 -15.296  1.00  0.00    -0.206 F 
ATOM     93  C   UNL     1      -8.250  -1.460 -18.096  1.00  0.00     0.022 A 
BRANCH  90  94
ATOM     94  S   UNL     1      -5.525  -0.917 -18.357  1.00  0.00     0.124 S 
ATOM     95  O   UNL     1      -5.166   0.413 -17.875  1.00  0.00    -0.237 OA
ATOM     96  O   UNL     1      -4.648  -2.005 -17.936  1.00  0.00    -0.237 OA
ATOM     97  O   UNL     1      -5.961  -0.976 -19.751  1.00  0.00    -0.744 OA
ENDBRANCH  90  94
ENDBRANCH  64  87
ENDBRANCH  38  39
ENDBRANCH  30  33
ENDBRANCH  28  29
ENDBRANCH  27  28
ENDBRANCH   1  27
TORSDOF 19
