REMARK SMILES CC[C@@](O)(C(=O)NCCCCNC(=O)c1ccc(-c2c3nc(c(-c4cc(S(=O)(=O)[O-])ccc4F)c4ccc([nH]4)c(-c4cc(S(=O)(=O)[O-])ccc4F)c4nc(c(-c5cc(S(=O)(=O)[O-])ccc5F)c5ccc2[nH]5)C=C4)C=C3)cc1)[C@H]1CCc2ccc(OC)cc21
REMARK SMILES IDX 10 1 9 2 8 3 7 4 5 5 6 6 3 8 2 9 1 10 4 11 78 13 79 14 88 15
REMARK SMILES IDX 80 16 81 17 87 18 82 19 84 20 83 21 85 22 86 23 11 24 12 25
REMARK SMILES IDX 13 26 14 28 15 29 16 30 77 31 17 32 76 33 18 34 19 35 20 36
REMARK SMILES IDX 70 37 21 38 75 39 69 40 71 41 22 42 74 43 68 44 67 45 23 47
REMARK SMILES IDX 55 48 35 49 54 50 36 51 39 52 53 53 72 54 37 55 38 56 52 58
REMARK SMILES IDX 73 59 40 60 24 61 25 62 33 63 26 64 32 65 34 66 31 67 27 68
REMARK SMILES IDX 28 69 29 70 30 71 56 72 57 73 65 74 58 75 64 76 66 77 63 78
REMARK SMILES IDX 59 79 60 80 61 81 62 82 41 83 42 84 50 85 43 86 49 87 51 88
REMARK SMILES IDX 48 89 44 90 45 91 46 92 47 93
REMARK H PARENT 7 7 4 12 12 27 71 46 39 57
REMARK Flexibility Score: inf
ROOT
ATOM      1  C   UNL     1       5.901   4.116  -6.400  1.00  0.00     0.023 C 
ENDROOT
BRANCH   1   2
ATOM      2  C   UNL     1       5.066   4.758  -5.288  1.00  0.00     0.023 C 
BRANCH   2   3
ATOM      3  C   UNL     1       3.639   4.224  -5.151  1.00  0.00     0.116 C 
BRANCH   3   4
ATOM      4  N   UNL     1       3.619   2.807  -4.862  1.00  0.00    -0.354 N 
ATOM      5  C   UNL     1       3.102   2.117  -3.808  1.00  0.00     0.252 C 
ATOM      6  O   UNL     1       2.983   0.903  -4.004  1.00  0.00    -0.272 OA
ATOM      7  H   UNL     1       4.053   2.245  -5.545  1.00  0.00     0.163 HD
BRANCH   5   8
ATOM      8  C   UNL     1       2.655   2.817  -2.473  1.00  0.00     0.149 C 
BRANCH   8   9
ATOM      9  C   UNL     1       3.739   3.757  -1.875  1.00  0.00     0.043 C 
ATOM     10  C   UNL     1       3.211   4.796  -0.886  1.00  0.00     0.007 C 
ENDBRANCH   8   9
BRANCH   8  11
ATOM     11  O   UNL     1       1.526   3.643  -2.830  1.00  0.00    -0.379 OA
ATOM     12  H   UNL     1       1.797   4.290  -3.499  1.00  0.00     0.212 HD
ENDBRANCH   8  11
BRANCH   8  13
ATOM     13  C   UNL     1       2.235   1.762  -1.388  1.00  0.00     0.061 C 
ATOM     14  C   UNL     1       0.851   1.100  -1.624  1.00  0.00     0.017 C 
ATOM     15  C   UNL     1       3.089   0.525  -1.193  1.00  0.00    -0.035 A 
ATOM     16  C   UNL     1       0.847  -0.171  -0.763  1.00  0.00     0.036 C 
ATOM     17  C   UNL     1       2.283  -0.575  -0.868  1.00  0.00    -0.044 A 
ATOM     18  C   UNL     1       4.455   0.358  -1.383  1.00  0.00     0.050 A 
ATOM     19  C   UNL     1       2.819  -1.844  -0.730  1.00  0.00     0.008 A 
ATOM     20  C   UNL     1       4.999  -0.927  -1.320  1.00  0.00     0.119 A 
ATOM     21  C   UNL     1       4.185  -2.015  -0.972  1.00  0.00     0.047 A 
BRANCH  20  22
ATOM     22  O   UNL     1       6.306  -1.234  -1.595  1.00  0.00    -0.497 OA
ATOM     23  C   UNL     1       7.024  -0.265  -2.357  1.00  0.00     0.278 C 
ENDBRANCH  20  22
ENDBRANCH   8  13
ENDBRANCH   5   8
ENDBRANCH   3   4
ENDBRANCH   2   3
ENDBRANCH   1   2
BRANCH   1  24
ATOM     24  C   UNL     1       5.257   4.106  -7.781  1.00  0.00     0.116 C 
BRANCH  24  25
ATOM     25  N   UNL     1       4.897   5.436  -8.246  1.00  0.00    -0.352 N 
ATOM     26  C   UNL     1       5.075   5.994  -9.489  1.00  0.00     0.251 C 
ATOM     27  H   UNL     1       4.466   6.016  -7.579  1.00  0.00     0.163 HD
ATOM     28  O   UNL     1       4.832   7.186  -9.661  1.00  0.00    -0.269 OA
BRANCH  26  29
ATOM     29  C   UNL     1       5.598   5.167 -10.598  1.00  0.00     0.039 A 
ATOM     30  C   UNL     1       6.627   5.677 -11.393  1.00  0.00     0.014 A 
ATOM     31  C   UNL     1       5.095   3.885 -10.839  1.00  0.00     0.014 A 
ATOM     32  C   UNL     1       7.199   4.875 -12.383  1.00  0.00     0.010 A 
ATOM     33  C   UNL     1       5.716   3.062 -11.774  1.00  0.00     0.010 A 
ATOM     34  C   UNL     1       6.777   3.546 -12.555  1.00  0.00    -0.014 A 
BRANCH  34  35
ATOM     35  C   UNL     1       7.434   2.650 -13.543  1.00  0.00     0.031 A 
ATOM     36  C   UNL     1       6.649   2.098 -14.701  1.00  0.00     0.074 A 
ATOM     37  C   UNL     1       8.720   2.285 -13.361  1.00  0.00     0.049 A 
ATOM     38  N   UNL     1       7.020   1.245 -15.622  1.00  0.00    -0.248 NA
ATOM     39  C   UNL     1       5.253   2.543 -14.822  1.00  0.00     0.031 C 
ATOM     40  C   UNL     1       9.574   2.724 -12.255  1.00  0.00     0.029 A 
ATOM     41  N   UNL     1       9.531   1.456 -14.095  1.00  0.00    -0.354 N 
ATOM     42  C   UNL     1       5.902   1.042 -16.424  1.00  0.00     0.074 A 
ATOM     43  C   UNL     1       4.824   1.813 -15.840  1.00  0.00     0.031 C 
ATOM     44  C   UNL     1      10.793   2.181 -12.399  1.00  0.00     0.029 A 
ATOM     45  C   UNL     1      10.798   1.316 -13.574  1.00  0.00     0.049 A 
ATOM     46  H   UNL     1       9.235   1.003 -14.918  1.00  0.00     0.167 HD
ATOM     47  C   UNL     1       5.791   0.301 -17.555  1.00  0.00     0.034 A 
ATOM     48  C   UNL     1      11.839   0.566 -13.987  1.00  0.00     0.034 A 
ATOM     49  C   UNL     1       6.878  -0.456 -18.127  1.00  0.00     0.049 A 
ATOM     50  C   UNL     1      11.682  -0.277 -15.228  1.00  0.00     0.074 A 
ATOM     51  C   UNL     1       6.891  -1.199 -19.294  1.00  0.00     0.029 A 
ATOM     52  N   UNL     1       8.146  -0.576 -17.569  1.00  0.00    -0.354 N 
ATOM     53  N   UNL     1      10.632  -0.418 -16.004  1.00  0.00    -0.248 NA
ATOM     54  C   UNL     1      12.854  -1.053 -15.654  1.00  0.00     0.031 C 
ATOM     55  C   UNL     1       8.136  -1.826 -19.404  1.00  0.00     0.029 A 
ATOM     56  C   UNL     1       8.934  -1.407 -18.351  1.00  0.00     0.049 A 
ATOM     57  H   UNL     1       8.441  -0.136 -16.739  1.00  0.00     0.167 HD
ATOM     58  C   UNL     1      11.031  -1.271 -17.030  1.00  0.00     0.074 A 
ATOM     59  C   UNL     1      12.419  -1.600 -16.779  1.00  0.00     0.031 C 
ATOM     60  C   UNL     1      10.316  -1.734 -18.087  1.00  0.00     0.034 A 
BRANCH  47  61
ATOM     61  C   UNL     1       4.438   0.256 -18.227  1.00  0.00     0.023 A 
ATOM     62  C   UNL     1       3.829   1.414 -18.742  1.00  0.00     0.031 A 
ATOM     63  C   UNL     1       3.735  -0.957 -18.334  1.00  0.00     0.131 A 
ATOM     64  C   UNL     1       2.530   1.350 -19.267  1.00  0.00     0.055 A 
ATOM     65  C   UNL     1       2.477  -1.030 -18.937  1.00  0.00     0.041 A 
ATOM     66  F   UNL     1       4.253  -2.094 -17.843  1.00  0.00    -0.206 F 
ATOM     67  C   UNL     1       1.860   0.131 -19.393  1.00  0.00     0.022 A 
BRANCH  64  68
ATOM     68  S   UNL     1       1.671   2.902 -19.643  1.00  0.00     0.124 S 
ATOM     69  O   UNL     1       1.690   3.572 -18.344  1.00  0.00    -0.237 OA
ATOM     70  O   UNL     1       2.516   3.489 -20.676  1.00  0.00    -0.237 OA
ATOM     71  O   UNL     1       0.350   2.464 -20.090  1.00  0.00    -0.744 OA
ENDBRANCH  64  68
ENDBRANCH  47  61
BRANCH  48  72
ATOM     72  C   UNL     1      13.120   0.562 -13.221  1.00  0.00     0.023 A 
ATOM     73  C   UNL     1      14.309   1.037 -13.797  1.00  0.00     0.031 A 
ATOM     74  C   UNL     1      13.183   0.042 -11.916  1.00  0.00     0.131 A 
ATOM     75  C   UNL     1      15.518   0.935 -13.092  1.00  0.00     0.055 A 
ATOM     76  C   UNL     1      14.378  -0.004 -11.196  1.00  0.00     0.041 A 
ATOM     77  F   UNL     1      12.075  -0.422 -11.315  1.00  0.00    -0.206 F 
ATOM     78  C   UNL     1      15.559   0.431 -11.790  1.00  0.00     0.022 A 
BRANCH  75  79
ATOM     79  S   UNL     1      17.058   1.387 -13.938  1.00  0.00     0.124 S 
ATOM     80  O   UNL     1      17.036   0.495 -15.091  1.00  0.00    -0.237 OA
ATOM     81  O   UNL     1      16.846   2.803 -14.216  1.00  0.00    -0.237 OA
ATOM     82  O   UNL     1      18.090   1.097 -12.944  1.00  0.00    -0.744 OA
ENDBRANCH  75  79
ENDBRANCH  48  72
BRANCH  60  83
ATOM     83  C   UNL     1      11.045  -2.605 -19.083  1.00  0.00     0.023 A 
ATOM     84  C   UNL     1      11.525  -3.882 -18.745  1.00  0.00     0.031 A 
ATOM     85  C   UNL     1      11.266  -2.142 -20.393  1.00  0.00     0.131 A 
ATOM     86  C   UNL     1      12.249  -4.629 -19.687  1.00  0.00     0.055 A 
ATOM     87  C   UNL     1      11.930  -2.916 -21.345  1.00  0.00     0.041 A 
ATOM     88  F   UNL     1      10.833  -0.928 -20.771  1.00  0.00    -0.206 F 
ATOM     89  C   UNL     1      12.438  -4.162 -20.991  1.00  0.00     0.022 A 
BRANCH  86  90
ATOM     90  S   UNL     1      13.023  -6.183 -19.160  1.00  0.00     0.124 S 
ATOM     91  O   UNL     1      13.889  -5.737 -18.074  1.00  0.00    -0.237 OA
ATOM     92  O   UNL     1      11.872  -6.989 -18.768  1.00  0.00    -0.237 OA
ATOM     93  O   UNL     1      13.721  -6.643 -20.360  1.00  0.00    -0.744 OA
ENDBRANCH  86  90
ENDBRANCH  60  83
ENDBRANCH  34  35
ENDBRANCH  26  29
ENDBRANCH  24  25
ENDBRANCH   1  24
TORSDOF 18
