REMARK SMILES CCC1(C(=O)NCCc2ccc(C(=O)NCCCCNC(=O)c3ccc(-c4c5nc(c(-c6cc(S(=O)(=O)[O-])ccc6F)c6ccc([nH]6)c(-c6cc(S(=O)(=O)[O-])ccc6F)c6nc(c(-c7cc(S(=O)(=O)[O-])ccc7F)c7ccc4[nH]7)C=C6)C=C5)cc3)cc2)CCCC1
REMARK SMILES IDX 16 1 15 2 13 3 14 4 12 6 9 7 10 8 87 9 11 10 86 11 8 12 7 13
REMARK SMILES IDX 6 14 4 15 5 16 3 18 88 19 91 20 89 21 90 22 2 23 1 24 17 25
REMARK SMILES IDX 18 26 19 27 20 28 21 29 22 31 23 32 24 33 85 34 25 35 84 36
REMARK SMILES IDX 26 37 27 38 28 39 78 40 29 41 83 42 77 43 79 44 30 45 82 46
REMARK SMILES IDX 76 47 75 48 31 50 63 51 43 52 62 53 44 54 47 55 61 56 80 57
REMARK SMILES IDX 45 58 46 59 60 61 81 62 48 63 32 64 33 65 41 66 34 67 40 68
REMARK SMILES IDX 42 69 39 70 35 71 36 72 37 73 38 74 64 75 65 76 73 77 66 78
REMARK SMILES IDX 72 79 74 80 71 81 67 82 68 83 69 84 70 85 49 86 50 87 58 88
REMARK SMILES IDX 51 89 57 90 59 91 56 92 52 93 53 94 54 95 55 96
REMARK H PARENT 15 5 6 17 20 30 79 49 47 60
REMARK Flexibility Score: inf
ROOT
ATOM      1  C   UNL     1      -1.326  -2.637  10.587  1.00  0.00     0.116 C 
ENDROOT
BRANCH   1   2
ATOM      2  N   UNL     1      -1.456  -1.552  11.545  1.00  0.00    -0.352 N 
ATOM      3  C   UNL     1      -1.228  -0.204  11.398  1.00  0.00     0.251 C 
ATOM      4  O   UNL     1      -1.490   0.556  12.327  1.00  0.00    -0.269 OA
ATOM      5  H   UNL     1      -1.756  -1.826  12.442  1.00  0.00     0.163 HD
BRANCH   3   6
ATOM      6  C   UNL     1      -0.735   0.359  10.116  1.00  0.00     0.039 A 
ATOM      7  C   UNL     1      -0.016   1.385   7.596  1.00  0.00    -0.046 A 
ATOM      8  C   UNL     1      -0.889   2.094   8.438  1.00  0.00     0.004 A 
ATOM      9  C   UNL     1       0.557   0.206   8.072  1.00  0.00     0.004 A 
ATOM     10  C   UNL     1      -1.252   1.582   9.686  1.00  0.00     0.014 A 
ATOM     11  C   UNL     1       0.224  -0.277   9.332  1.00  0.00     0.014 A 
BRANCH   7  12
ATOM     12  C   UNL     1       0.304   1.957   6.241  1.00  0.00     0.056 C 
BRANCH  12  13
ATOM     13  C   UNL     1       1.110   1.079   5.280  1.00  0.00     0.120 C 
BRANCH  13  14
ATOM     14  N   UNL     1       0.327   0.024   4.663  1.00  0.00    -0.355 N 
ATOM     15  C   UNL     1       0.253  -0.428   3.381  1.00  0.00     0.226 C 
ATOM     16  O   UNL     1      -0.481  -1.407   3.205  1.00  0.00    -0.274 OA
ATOM     17  H   UNL     1      -0.262  -0.456   5.290  1.00  0.00     0.163 HD
BRANCH  15  18
ATOM     18  C   UNL     1       1.052   0.202   2.202  1.00  0.00     0.049 C 
ATOM     19  C   UNL     1       2.565  -0.035   2.394  1.00  0.00     0.017 C 
ATOM     20  C   UNL     1       0.851   1.726   2.112  1.00  0.00     0.017 C 
ATOM     21  C   UNL     1       3.210   1.311   2.681  1.00  0.00     0.001 C 
ATOM     22  C   UNL     1       2.231   2.373   2.205  1.00  0.00     0.001 C 
BRANCH  18  23
ATOM     23  C   UNL     1       0.567  -0.503   0.893  1.00  0.00     0.013 C 
ATOM     24  C   UNL     1       1.112   0.036  -0.428  1.00  0.00     0.005 C 
ENDBRANCH  18  23
ENDBRANCH  15  18
ENDBRANCH  13  14
ENDBRANCH  12  13
ENDBRANCH   7  12
ENDBRANCH   3   6
ENDBRANCH   1   2
BRANCH   1  25
ATOM     25  C   UNL     1      -0.002  -3.384  10.775  1.00  0.00     0.023 C 
BRANCH  25  26
ATOM     26  C   UNL     1       0.027  -4.336  11.966  1.00  0.00     0.023 C 
BRANCH  26  27
ATOM     27  C   UNL     1      -0.953  -5.491  11.865  1.00  0.00     0.116 C 
BRANCH  27  28
ATOM     28  N   UNL     1      -0.726  -6.330  10.701  1.00  0.00    -0.352 N 
ATOM     29  C   UNL     1      -0.950  -7.683  10.578  1.00  0.00     0.251 C 
ATOM     30  H   UNL     1      -0.370  -5.877   9.903  1.00  0.00     0.163 HD
ATOM     31  O   UNL     1      -0.584  -8.278   9.577  1.00  0.00    -0.269 OA
BRANCH  29  32
ATOM     32  C   UNL     1      -1.595  -8.400  11.700  1.00  0.00     0.039 A 
ATOM     33  C   UNL     1      -1.026  -9.591  12.152  1.00  0.00     0.014 A 
ATOM     34  C   UNL     1      -2.725  -7.871  12.330  1.00  0.00     0.014 A 
ATOM     35  C   UNL     1      -1.567 -10.227  13.270  1.00  0.00     0.010 A 
ATOM     36  C   UNL     1      -3.204  -8.455  13.495  1.00  0.00     0.010 A 
ATOM     37  C   UNL     1      -2.643  -9.651  13.966  1.00  0.00    -0.014 A 
BRANCH  37  38
ATOM     38  C   UNL     1      -3.225 -10.316  15.159  1.00  0.00     0.031 A 
ATOM     39  C   UNL     1      -4.648 -10.805  15.119  1.00  0.00     0.074 A 
ATOM     40  C   UNL     1      -2.489 -10.443  16.280  1.00  0.00     0.049 A 
ATOM     41  N   UNL     1      -5.350 -11.388  16.057  1.00  0.00    -0.248 NA
ATOM     42  C   UNL     1      -5.390 -10.576  13.870  1.00  0.00     0.031 C 
ATOM     43  C   UNL     1      -1.117  -9.956  16.451  1.00  0.00     0.029 A 
ATOM     44  N   UNL     1      -2.788 -11.021  17.487  1.00  0.00    -0.354 N 
ATOM     45  C   UNL     1      -6.616 -11.585  15.514  1.00  0.00     0.074 A 
ATOM     46  C   UNL     1      -6.605 -10.987  14.197  1.00  0.00     0.031 C 
ATOM     47  C   UNL     1      -0.683 -10.290  17.677  1.00  0.00     0.029 A 
ATOM     48  C   UNL     1      -1.753 -10.979  18.392  1.00  0.00     0.049 A 
ATOM     49  H   UNL     1      -3.661 -11.429  17.687  1.00  0.00     0.167 HD
ATOM     50  C   UNL     1      -7.679 -12.232  16.051  1.00  0.00     0.034 A 
ATOM     51  C   UNL     1      -1.677 -11.447  19.654  1.00  0.00     0.034 A 
ATOM     52  C   UNL     1      -7.665 -12.835  17.362  1.00  0.00     0.049 A 
ATOM     53  C   UNL     1      -2.869 -12.171  20.228  1.00  0.00     0.074 A 
ATOM     54  C   UNL     1      -8.666 -13.549  17.996  1.00  0.00     0.029 A 
ATOM     55  N   UNL     1      -6.591 -12.792  18.244  1.00  0.00    -0.354 N 
ATOM     56  N   UNL     1      -4.043 -12.397  19.683  1.00  0.00    -0.248 NA
ATOM     57  C   UNL     1      -2.715 -12.725  21.578  1.00  0.00     0.031 C 
ATOM     58  C   UNL     1      -8.222 -13.883  19.280  1.00  0.00     0.029 A 
ATOM     59  C   UNL     1      -6.913 -13.450  19.421  1.00  0.00     0.049 A 
ATOM     60  H   UNL     1      -5.727 -12.357  18.059  1.00  0.00     0.167 HD
ATOM     61  C   UNL     1      -4.752 -13.155  20.611  1.00  0.00     0.074 A 
ATOM     62  C   UNL     1      -3.866 -13.360  21.739  1.00  0.00     0.031 C 
ATOM     63  C   UNL     1      -6.018 -13.642  20.539  1.00  0.00     0.034 A 
BRANCH  50  64
ATOM     64  C   UNL     1      -8.942 -12.296  15.223  1.00  0.00     0.023 A 
ATOM     65  C   UNL     1      -8.972 -12.935  13.970  1.00  0.00     0.031 A 
ATOM     66  C   UNL     1     -10.122 -11.676  15.670  1.00  0.00     0.131 A 
ATOM     67  C   UNL     1     -10.125 -12.865  13.173  1.00  0.00     0.055 A 
ATOM     68  C   UNL     1     -11.294 -11.688  14.910  1.00  0.00     0.041 A 
ATOM     69  F   UNL     1     -10.152 -11.030  16.846  1.00  0.00    -0.206 F 
ATOM     70  C   UNL     1     -11.295 -12.270  13.646  1.00  0.00     0.022 A 
BRANCH  67  71
ATOM     71  S   UNL     1     -10.022 -13.425  11.450  1.00  0.00     0.124 S 
ATOM     72  O   UNL     1      -8.973 -12.556  10.921  1.00  0.00    -0.237 OA
ATOM     73  O   UNL     1      -9.672 -14.833  11.596  1.00  0.00    -0.237 OA
ATOM     74  O   UNL     1     -11.360 -13.164  10.924  1.00  0.00    -0.744 OA
ENDBRANCH  67  71
ENDBRANCH  50  64
BRANCH  51  75
ATOM     75  C   UNL     1      -0.433 -11.266  20.456  1.00  0.00     0.023 A 
ATOM     76  C   UNL     1       0.327 -12.370  20.874  1.00  0.00     0.031 A 
ATOM     77  C   UNL     1      -0.011  -9.987  20.858  1.00  0.00     0.131 A 
ATOM     78  C   UNL     1       1.436 -12.181  21.713  1.00  0.00     0.055 A 
ATOM     79  C   UNL     1       1.125  -9.799  21.648  1.00  0.00     0.041 A 
ATOM     80  F   UNL     1      -0.696  -8.896  20.480  1.00  0.00    -0.206 F 
ATOM     81  C   UNL     1       1.848 -10.901  22.093  1.00  0.00     0.022 A 
BRANCH  78  82
ATOM     82  S   UNL     1       2.283 -13.641  22.378  1.00  0.00     0.124 S 
ATOM     83  O   UNL     1       1.195 -14.326  23.068  1.00  0.00    -0.237 OA
ATOM     84  O   UNL     1       2.778 -14.282  21.165  1.00  0.00    -0.237 OA
ATOM     85  O   UNL     1       3.312 -13.072  23.245  1.00  0.00    -0.744 OA
ENDBRANCH  78  82
ENDBRANCH  51  75
BRANCH  63  86
ATOM     86  C   UNL     1      -6.489 -14.495  21.693  1.00  0.00     0.023 A 
ATOM     87  C   UNL     1      -6.637 -13.974  22.991  1.00  0.00     0.031 A 
ATOM     88  C   UNL     1      -6.758 -15.861  21.495  1.00  0.00     0.131 A 
ATOM     89  C   UNL     1      -6.967 -14.829  24.053  1.00  0.00     0.055 A 
ATOM     90  C   UNL     1      -7.156 -16.692  22.543  1.00  0.00     0.041 A 
ATOM     91  F   UNL     1      -6.632 -16.413  20.277  1.00  0.00    -0.206 F 
ATOM     92  C   UNL     1      -7.244 -16.181  23.834  1.00  0.00     0.022 A 
BRANCH  89  93
ATOM     93  S   UNL     1      -6.902 -14.178  25.745  1.00  0.00     0.124 S 
ATOM     94  O   UNL     1      -5.543 -13.652  25.816  1.00  0.00    -0.237 OA
ATOM     95  O   UNL     1      -7.970 -13.184  25.736  1.00  0.00    -0.237 OA
ATOM     96  O   UNL     1      -7.156 -15.354  26.575  1.00  0.00    -0.744 OA
ENDBRANCH  89  93
ENDBRANCH  63  86
ENDBRANCH  37  38
ENDBRANCH  29  32
ENDBRANCH  27  28
ENDBRANCH  26  27
ENDBRANCH  25  26
ENDBRANCH   1  25
TORSDOF 19
