REMARK SMILES Nc1ccc(-c2cc3ccccc3s2)c(C(=O)NCCCCNC(=O)c2ccc(-c3c4nc(c(-c5cc(S(=O)(=O)[O-])ccc5F)c5ccc([nH]5)c(-c5cc(S(=O)(=O)[O-])ccc5F)c5nc(c(-c6cc(S(=O)(=O)[O-])ccc6F)c6ccc3[nH]6)C=C5)C=C4)cc2)n1
REMARK SMILES IDX 21 1 20 2 19 3 18 4 16 5 17 6 15 8 2 9 3 10 89 11 4 12 5 13
REMARK SMILES IDX 1 14 6 17 7 18 14 19 8 20 13 21 9 22 12 23 10 24 11 25 22 26
REMARK SMILES IDX 23 27 24 28 25 30 26 31 27 32 88 33 28 34 87 35 29 36 30 37
REMARK SMILES IDX 31 38 81 39 32 40 86 41 80 42 82 43 33 44 85 45 79 46 78 47
REMARK SMILES IDX 34 49 66 50 46 51 65 52 47 53 50 54 64 55 83 56 48 57 49 58
REMARK SMILES IDX 63 60 84 61 51 62 35 63 36 64 44 65 37 66 43 67 45 68 42 69
REMARK SMILES IDX 38 70 39 71 40 72 41 73 67 74 68 75 76 76 69 77 75 78 77 79
REMARK SMILES IDX 74 80 70 81 71 82 72 83 73 84 52 85 53 86 61 87 54 88 60 89
REMARK SMILES IDX 62 90 59 91 55 92 56 93 57 94 58 95
REMARK H PARENT 18 7 1 15 1 16 23 29 82 48 50 59
REMARK Flexibility Score: inf
ROOT
ATOM      1  C   UNL     1      -5.579   3.425   2.106  1.00  0.00     0.023 C 
ENDROOT
BRANCH   1   2
ATOM      2  C   UNL     1      -4.625   2.276   2.439  1.00  0.00     0.023 C 
BRANCH   2   3
ATOM      3  C   UNL     1      -3.866   1.653   1.276  1.00  0.00     0.116 C 
BRANCH   3   4
ATOM      4  N   UNL     1      -2.970   2.537   0.565  1.00  0.00    -0.351 N 
ATOM      5  C   UNL     1      -1.834   2.238  -0.164  1.00  0.00     0.270 C 
ATOM      6  O   UNL     1      -1.322   3.147  -0.822  1.00  0.00    -0.267 OA
ATOM      7  H   UNL     1      -3.203   3.493   0.606  1.00  0.00     0.163 HD
BRANCH   5   8
ATOM      8  C   UNL     1      -1.163   0.890  -0.148  1.00  0.00     0.139 A 
ATOM      9  C   UNL     1       0.918  -0.120   0.146  1.00  0.00     0.124 A 
ATOM     10  C   UNL     1       0.392  -1.364  -0.139  1.00  0.00     0.047 A 
ATOM     11  N   UNL     1       0.165   0.987   0.177  1.00  0.00    -0.225 NA
ATOM     12  C   UNL     1      -0.955  -1.462  -0.478  1.00  0.00     0.016 A 
ATOM     13  C   UNL     1      -1.769  -0.319  -0.516  1.00  0.00     0.023 A 
BRANCH   9  14
ATOM     14  N   UNL     1       2.257   0.027   0.452  1.00  0.00    -0.384 N 
ATOM     15  H   UNL     1       2.853  -0.757   0.443  1.00  0.00     0.158 HD
ATOM     16  H   UNL     1       2.616   0.915   0.679  1.00  0.00     0.158 HD
ENDBRANCH   9  14
BRANCH  13  17
ATOM     17  C   UNL     1      -3.160  -0.456  -0.956  1.00  0.00     0.038 A 
ATOM     18  C   UNL     1      -3.847   0.243  -1.926  1.00  0.00     0.029 A 
ATOM     19  S   UNL     1      -4.179  -1.605  -0.190  1.00  0.00    -0.135 S 
ATOM     20  C   UNL     1      -5.259  -0.028  -1.919  1.00  0.00    -0.007 A 
ATOM     21  C   UNL     1      -5.584  -1.003  -0.974  1.00  0.00     0.035 A 
ATOM     22  C   UNL     1      -6.311   0.564  -2.657  1.00  0.00     0.009 A 
ATOM     23  C   UNL     1      -6.915  -1.385  -0.731  1.00  0.00     0.019 A 
ATOM     24  C   UNL     1      -7.637   0.195  -2.413  1.00  0.00     0.001 A 
ATOM     25  C   UNL     1      -7.933  -0.766  -1.456  1.00  0.00     0.001 A 
ENDBRANCH  13  17
ENDBRANCH   5   8
ENDBRANCH   3   4
ENDBRANCH   2   3
ENDBRANCH   1   2
BRANCH   1  26
ATOM     26  C   UNL     1      -6.543   3.242   0.933  1.00  0.00     0.116 C 
BRANCH  26  27
ATOM     27  N   UNL     1      -7.392   2.063   1.011  1.00  0.00    -0.352 N 
ATOM     28  C   UNL     1      -8.749   1.915   0.809  1.00  0.00     0.251 C 
ATOM     29  H   UNL     1      -6.919   1.232   1.247  1.00  0.00     0.163 HD
ATOM     30  O   UNL     1      -9.265   0.815   0.985  1.00  0.00    -0.269 OA
BRANCH  28  31
ATOM     31  C   UNL     1      -9.608   3.074   0.457  1.00  0.00     0.039 A 
ATOM     32  C   UNL     1     -10.855   3.181   1.083  1.00  0.00     0.014 A 
ATOM     33  C   UNL     1      -9.196   4.071  -0.429  1.00  0.00     0.014 A 
ATOM     34  C   UNL     1     -11.608   4.349   0.945  1.00  0.00     0.010 A 
ATOM     35  C   UNL     1      -9.905   5.271  -0.499  1.00  0.00     0.010 A 
ATOM     36  C   UNL     1     -11.093   5.439   0.227  1.00  0.00    -0.014 A 
BRANCH  36  37
ATOM     37  C   UNL     1     -11.720   6.784   0.332  1.00  0.00     0.031 A 
ATOM     38  C   UNL     1     -12.287   7.474  -0.875  1.00  0.00     0.074 A 
ATOM     39  C   UNL     1     -11.690   7.417   1.524  1.00  0.00     0.049 A 
ATOM     40  N   UNL     1     -12.812   8.669  -0.973  1.00  0.00    -0.248 NA
ATOM     41  C   UNL     1     -12.228   6.735  -2.143  1.00  0.00     0.031 C 
ATOM     42  C   UNL     1     -11.100   6.873   2.752  1.00  0.00     0.029 A 
ATOM     43  N   UNL     1     -12.152   8.652   1.905  1.00  0.00    -0.354 N 
ATOM     44  C   UNL     1     -13.138   8.832  -2.315  1.00  0.00     0.074 A 
ATOM     45  C   UNL     1     -12.697   7.632  -2.998  1.00  0.00     0.031 C 
ATOM     46  C   UNL     1     -11.267   7.753   3.751  1.00  0.00     0.029 A 
ATOM     47  C   UNL     1     -11.930   8.942   3.232  1.00  0.00     0.049 A 
ATOM     48  H   UNL     1     -12.601   9.272   1.286  1.00  0.00     0.167 HD
ATOM     49  C   UNL     1     -13.763   9.877  -2.915  1.00  0.00     0.034 A 
ATOM     50  C   UNL     1     -12.219  10.045   3.951  1.00  0.00     0.034 A 
ATOM     51  C   UNL     1     -14.191  11.065  -2.214  1.00  0.00     0.049 A 
ATOM     52  C   UNL     1     -12.916  11.189   3.265  1.00  0.00     0.074 A 
ATOM     53  C   UNL     1     -14.871  12.165  -2.709  1.00  0.00     0.029 A 
ATOM     54  N   UNL     1     -13.972  11.314  -0.864  1.00  0.00    -0.354 N 
ATOM     55  N   UNL     1     -13.272  11.301   2.006  1.00  0.00    -0.248 NA
ATOM     56  C   UNL     1     -13.261  12.348   4.097  1.00  0.00     0.031 C 
ATOM     57  C   UNL     1     -15.011  13.099  -1.676  1.00  0.00     0.029 A 
ATOM     58  C   UNL     1     -14.480  12.557  -0.516  1.00  0.00     0.049 A 
ATOM     59  H   UNL     1     -13.520  10.697  -0.243  1.00  0.00     0.167 HD
ATOM     60  C   UNL     1     -13.908  12.534   1.902  1.00  0.00     0.074 A 
ATOM     61  C   UNL     1     -13.899  13.118   3.228  1.00  0.00     0.031 C 
ATOM     62  C   UNL     1     -14.452  13.128   0.810  1.00  0.00     0.034 A 
BRANCH  49  63
ATOM     63  C   UNL     1     -13.990   9.782  -4.406  1.00  0.00     0.023 A 
ATOM     64  C   UNL     1     -14.799   8.776  -4.964  1.00  0.00     0.031 A 
ATOM     65  C   UNL     1     -13.361  10.680  -5.286  1.00  0.00     0.131 A 
ATOM     66  C   UNL     1     -14.887   8.637  -6.357  1.00  0.00     0.055 A 
ATOM     67  C   UNL     1     -13.520  10.588  -6.671  1.00  0.00     0.041 A 
ATOM     68  F   UNL     1     -12.562  11.652  -4.817  1.00  0.00    -0.206 F 
ATOM     69  C   UNL     1     -14.272   9.552  -7.215  1.00  0.00     0.022 A 
BRANCH  66  70
ATOM     70  S   UNL     1     -15.689   7.156  -7.030  1.00  0.00     0.124 S 
ATOM     71  O   UNL     1     -14.869   6.091  -6.456  1.00  0.00    -0.237 OA
ATOM     72  O   UNL     1     -17.046   7.267  -6.511  1.00  0.00    -0.237 OA
ATOM     73  O   UNL     1     -15.557   7.321  -8.476  1.00  0.00    -0.744 OA
ENDBRANCH  66  70
ENDBRANCH  49  63
BRANCH  50  74
ATOM     74  C   UNL     1     -11.854  10.122   5.395  1.00  0.00     0.023 A 
ATOM     75  C   UNL     1     -12.844  10.179   6.388  1.00  0.00     0.031 A 
ATOM     76  C   UNL     1     -10.509  10.164   5.801  1.00  0.00     0.131 A 
ATOM     77  C   UNL     1     -12.476  10.315   7.736  1.00  0.00     0.055 A 
ATOM     78  C   UNL     1     -10.147  10.251   7.147  1.00  0.00     0.041 A 
ATOM     79  F   UNL     1      -9.522  10.102   4.893  1.00  0.00    -0.206 F 
ATOM     80  C   UNL     1     -11.135  10.339   8.123  1.00  0.00     0.022 A 
BRANCH  77  81
ATOM     81  S   UNL     1     -13.783  10.535   8.975  1.00  0.00     0.124 S 
ATOM     82  O   UNL     1     -14.469  11.722   8.478  1.00  0.00    -0.237 OA
ATOM     83  O   UNL     1     -14.515   9.277   8.868  1.00  0.00    -0.237 OA
ATOM     84  O   UNL     1     -13.042  10.718  10.222  1.00  0.00    -0.744 OA
ENDBRANCH  77  81
ENDBRANCH  50  74
BRANCH  62  85
ATOM     85  C   UNL     1     -15.117  14.464   1.027  1.00  0.00     0.023 A 
ATOM     86  C   UNL     1     -14.377  15.613   1.355  1.00  0.00     0.031 A 
ATOM     87  C   UNL     1     -16.514  14.581   0.922  1.00  0.00     0.131 A 
ATOM     88  C   UNL     1     -15.043  16.819   1.621  1.00  0.00     0.055 A 
ATOM     89  C   UNL     1     -17.166  15.796   1.133  1.00  0.00     0.041 A 
ATOM     90  F   UNL     1     -17.267  13.513   0.614  1.00  0.00    -0.206 F 
ATOM     91  C   UNL     1     -16.431  16.921   1.497  1.00  0.00     0.022 A 
BRANCH  88  92
ATOM     92  S   UNL     1     -14.076  18.235   2.212  1.00  0.00     0.124 S 
ATOM     93  O   UNL     1     -13.489  17.710   3.441  1.00  0.00    -0.237 OA
ATOM     94  O   UNL     1     -13.149  18.464   1.109  1.00  0.00    -0.237 OA
ATOM     95  O   UNL     1     -15.081  19.280   2.402  1.00  0.00    -0.744 OA
ENDBRANCH  88  92
ENDBRANCH  62  85
ENDBRANCH  36  37
ENDBRANCH  28  31
ENDBRANCH  26  27
ENDBRANCH   1  26
TORSDOF 16
