REMARK SMILES C[C@@](COc1ccccc1)(NC(=O)CN1CSCC1=O)C(=O)NCCCCNC(=O)c1ccc(-c2c3nc(c(-c4cc(S(=O)(=O)[O-])ccc4F)c4ccc([nH]4)c(-c4cc(S(=O)(=O)[O-])ccc4F)c4nc(c(-c5cc(S(=O)(=O)[O-])ccc5F)c5ccc2[nH]5)C=C4)C=C3)cc1
REMARK SMILES IDX 25 1 24 2 23 3 21 4 22 5 2 7 1 8 3 9 4 10 5 11 6 12 10 13
REMARK SMILES IDX 7 14 9 15 8 16 11 17 12 18 13 20 14 21 15 22 16 23 19 24
REMARK SMILES IDX 17 25 18 26 20 27 26 28 27 29 28 30 29 31 30 33 31 34 32 35
REMARK SMILES IDX 93 36 33 37 92 38 34 39 35 40 36 41 86 42 37 43 91 44 85 45
REMARK SMILES IDX 87 46 38 47 90 48 84 49 83 50 39 52 71 53 51 54 70 55 52 56
REMARK SMILES IDX 55 57 69 58 88 59 53 60 54 61 68 63 89 64 56 65 40 66 41 67
REMARK SMILES IDX 49 68 42 69 48 70 50 71 47 72 43 73 44 74 45 75 46 76 72 77
REMARK SMILES IDX 73 78 81 79 74 80 80 81 82 82 79 83 75 84 76 85 77 86 78 87
REMARK SMILES IDX 57 88 58 89 66 90 59 91 65 92 67 93 64 94 60 95 61 96 62 97
REMARK SMILES IDX 63 98
REMARK H PARENT 23 6 11 19 28 32 87 51 55 62
REMARK Flexibility Score: inf
ROOT
ATOM      1  C   UNL     1      -1.658   2.403   4.390  1.00  0.00     0.023 C 
ENDROOT
BRANCH   1   2
ATOM      2  C   UNL     1      -0.460   2.907   3.588  1.00  0.00     0.116 C 
BRANCH   2   3
ATOM      3  N   UNL     1       0.699   2.031   3.587  1.00  0.00    -0.354 N 
ATOM      4  C   UNL     1       1.267   1.293   2.590  1.00  0.00     0.249 C 
ATOM      5  O   UNL     1       2.462   1.008   2.719  1.00  0.00    -0.272 OA
ATOM      6  H   UNL     1       1.154   1.957   4.457  1.00  0.00     0.163 HD
BRANCH   4   7
ATOM      7  C   UNL     1       0.533   1.009   1.258  1.00  0.00     0.150 C 
ATOM      8  C   UNL     1       1.171  -0.212   0.553  1.00  0.00     0.049 C 
BRANCH   7   9
ATOM      9  C   UNL     1       0.798   2.286   0.395  1.00  0.00     0.267 C 
BRANCH   9  10
ATOM     10  O   UNL     1      -0.178   2.408  -0.660  1.00  0.00    -0.491 OA
BRANCH  10  11
ATOM     11  C   UNL     1       0.339   2.046  -1.871  1.00  0.00     0.119 A 
ATOM     12  C   UNL     1       1.218   2.882  -2.555  1.00  0.00     0.046 A 
ATOM     13  C   UNL     1      -0.074   0.837  -2.424  1.00  0.00     0.046 A 
ATOM     14  C   UNL     1       1.740   2.469  -3.781  1.00  0.00     0.004 A 
ATOM     15  C   UNL     1       0.461   0.419  -3.640  1.00  0.00     0.004 A 
ATOM     16  C   UNL     1       1.372   1.232  -4.315  1.00  0.00     0.000 A 
ENDBRANCH  10  11
ENDBRANCH   9  10
ENDBRANCH   7   9
BRANCH   7  17
ATOM     17  N   UNL     1      -0.934   0.789   1.363  1.00  0.00    -0.338 N 
ATOM     18  C   UNL     1      -1.639  -0.218   1.954  1.00  0.00     0.240 C 
ATOM     19  H   UNL     1      -1.486   1.484   0.938  1.00  0.00     0.164 HD
ATOM     20  O   UNL     1      -2.721  -0.535   1.450  1.00  0.00    -0.273 OA
BRANCH  18  21
ATOM     21  C   UNL     1      -1.123  -0.931   3.204  1.00  0.00     0.220 C 
BRANCH  21  22
ATOM     22  N   UNL     1      -0.206  -2.024   2.964  1.00  0.00    -0.323 N 
ATOM     23  C   UNL     1      -0.636  -3.180   2.230  1.00  0.00     0.190 C 
ATOM     24  C   UNL     1       1.014  -2.088   3.610  1.00  0.00     0.233 C 
ATOM     25  S   UNL     1       0.772  -4.292   2.120  1.00  0.00    -0.130 SA
ATOM     26  C   UNL     1       1.848  -3.251   3.137  1.00  0.00     0.171 C 
ATOM     27  O   UNL     1       1.397  -1.273   4.439  1.00  0.00    -0.274 OA
ENDBRANCH  21  22
ENDBRANCH  18  21
ENDBRANCH   7  17
ENDBRANCH   4   7
ENDBRANCH   2   3
ENDBRANCH   1   2
BRANCH   1  28
ATOM     28  C   UNL     1      -1.363   1.893   5.801  1.00  0.00     0.023 C 
BRANCH  28  29
ATOM     29  C   UNL     1      -0.572   2.841   6.689  1.00  0.00     0.116 C 
BRANCH  29  30
ATOM     30  N   UNL     1      -1.192   4.148   6.800  1.00  0.00    -0.352 N 
ATOM     31  C   UNL     1      -1.459   4.900   7.916  1.00  0.00     0.251 C 
ATOM     32  H   UNL     1      -1.461   4.557   5.946  1.00  0.00     0.163 HD
ATOM     33  O   UNL     1      -2.136   5.917   7.799  1.00  0.00    -0.269 OA
BRANCH  31  34
ATOM     34  C   UNL     1      -0.965   4.477   9.246  1.00  0.00     0.039 A 
ATOM     35  C   UNL     1      -1.807   4.641  10.350  1.00  0.00     0.014 A 
ATOM     36  C   UNL     1       0.317   3.949   9.420  1.00  0.00     0.014 A 
ATOM     37  C   UNL     1      -1.379   4.237  11.615  1.00  0.00     0.010 A 
ATOM     38  C   UNL     1       0.711   3.471  10.667  1.00  0.00     0.010 A 
ATOM     39  C   UNL     1      -0.126   3.626  11.781  1.00  0.00    -0.014 A 
BRANCH  39  40
ATOM     40  C   UNL     1       0.328   3.175  13.122  1.00  0.00     0.031 A 
ATOM     41  C   UNL     1       1.522   3.822  13.771  1.00  0.00     0.074 A 
ATOM     42  C   UNL     1      -0.315   2.163  13.736  1.00  0.00     0.049 A 
ATOM     43  N   UNL     1       2.083   3.560  14.924  1.00  0.00    -0.248 NA
ATOM     44  C   UNL     1       2.191   4.887  13.008  1.00  0.00     0.031 C 
ATOM     45  C   UNL     1      -1.453   1.426  13.181  1.00  0.00     0.029 A 
ATOM     46  N   UNL     1      -0.108   1.578  14.959  1.00  0.00    -0.354 N 
ATOM     47  C   UNL     1       3.175   4.416  15.019  1.00  0.00     0.074 A 
ATOM     48  C   UNL     1       3.235   5.156  13.777  1.00  0.00     0.031 C 
ATOM     49  C   UNL     1      -1.863   0.512  14.075  1.00  0.00     0.029 A 
ATOM     50  C   UNL     1      -0.998   0.570  15.248  1.00  0.00     0.049 A 
ATOM     51  H   UNL     1       0.611   1.854  15.573  1.00  0.00     0.167 HD
ATOM     52  C   UNL     1       4.032   4.589  16.056  1.00  0.00     0.034 A 
ATOM     53  C   UNL     1      -1.103  -0.218  16.337  1.00  0.00     0.034 A 
ATOM     54  C   UNL     1       3.948   3.849  17.293  1.00  0.00     0.049 A 
ATOM     55  C   UNL     1      -0.142  -0.007  17.478  1.00  0.00     0.074 A 
ATOM     56  C   UNL     1       4.729   3.973  18.429  1.00  0.00     0.029 A 
ATOM     57  N   UNL     1       3.027   2.841  17.554  1.00  0.00    -0.354 N 
ATOM     58  N   UNL     1       0.853   0.846  17.575  1.00  0.00    -0.248 NA
ATOM     59  C   UNL     1      -0.330  -0.853  18.663  1.00  0.00     0.031 C 
ATOM     60  C   UNL     1       4.322   3.001  19.350  1.00  0.00     0.029 A 
ATOM     61  C   UNL     1       3.237   2.319  18.822  1.00  0.00     0.049 A 
ATOM     62  H   UNL     1       2.327   2.541  16.930  1.00  0.00     0.167 HD
ATOM     63  C   UNL     1       1.390   0.657  18.845  1.00  0.00     0.074 A 
ATOM     64  C   UNL     1       0.595  -0.374  19.481  1.00  0.00     0.031 C 
ATOM     65  C   UNL     1       2.444   1.279  19.435  1.00  0.00     0.034 A 
BRANCH  52  66
ATOM     66  C   UNL     1       5.141   5.601  15.879  1.00  0.00     0.023 A 
ATOM     67  C   UNL     1       4.870   6.965  15.671  1.00  0.00     0.031 A 
ATOM     68  C   UNL     1       6.487   5.193  15.879  1.00  0.00     0.131 A 
ATOM     69  C   UNL     1       5.918   7.855  15.391  1.00  0.00     0.055 A 
ATOM     70  C   UNL     1       7.532   6.099  15.684  1.00  0.00     0.041 A 
ATOM     71  F   UNL     1       6.810   3.901  16.051  1.00  0.00    -0.206 F 
ATOM     72  C   UNL     1       7.250   7.437  15.422  1.00  0.00     0.022 A 
BRANCH  69  73
ATOM     73  S   UNL     1       5.506   9.533  14.838  1.00  0.00     0.124 S 
ATOM     74  O   UNL     1       4.721   9.263  13.635  1.00  0.00    -0.237 OA
ATOM     75  O   UNL     1       4.767  10.068  15.976  1.00  0.00    -0.237 OA
ATOM     76  O   UNL     1       6.811  10.146  14.597  1.00  0.00    -0.744 OA
ENDBRANCH  69  73
ENDBRANCH  52  66
BRANCH  53  77
ATOM     77  C   UNL     1      -2.156  -1.270  16.409  1.00  0.00     0.023 A 
ATOM     78  C   UNL     1      -3.190  -1.196  17.356  1.00  0.00     0.031 A 
ATOM     79  C   UNL     1      -2.124  -2.386  15.553  1.00  0.00     0.131 A 
ATOM     80  C   UNL     1      -4.121  -2.241  17.459  1.00  0.00     0.055 A 
ATOM     81  C   UNL     1      -3.083  -3.398  15.625  1.00  0.00     0.041 A 
ATOM     82  F   UNL     1      -1.163  -2.501  14.623  1.00  0.00    -0.206 F 
ATOM     83  C   UNL     1      -4.082  -3.336  16.592  1.00  0.00     0.022 A 
BRANCH  80  84
ATOM     84  S   UNL     1      -5.341  -2.188  18.801  1.00  0.00     0.124 S 
ATOM     85  O   UNL     1      -4.485  -2.116  19.979  1.00  0.00    -0.237 OA
ATOM     86  O   UNL     1      -6.093  -0.980  18.478  1.00  0.00    -0.237 OA
ATOM     87  O   UNL     1      -6.078  -3.440  18.639  1.00  0.00    -0.744 OA
ENDBRANCH  80  84
ENDBRANCH  53  77
BRANCH  65  88
ATOM     88  C   UNL     1       2.761   0.878  20.855  1.00  0.00     0.023 A 
ATOM     89  C   UNL     1       3.216  -0.413  21.174  1.00  0.00     0.031 A 
ATOM     90  C   UNL     1       2.573   1.792  21.907  1.00  0.00     0.131 A 
ATOM     91  C   UNL     1       3.401  -0.777  22.516  1.00  0.00     0.055 A 
ATOM     92  C   UNL     1       2.823   1.445  23.235  1.00  0.00     0.041 A 
ATOM     93  F   UNL     1       2.139   3.039  21.660  1.00  0.00    -0.206 F 
ATOM     94  C   UNL     1       3.223   0.149  23.548  1.00  0.00     0.022 A 
BRANCH  91  95
ATOM     95  S   UNL     1       3.771  -2.509  22.905  1.00  0.00     0.124 S 
ATOM     96  O   UNL     1       2.642  -3.205  22.297  1.00  0.00    -0.237 OA
ATOM     97  O   UNL     1       5.064  -2.705  22.257  1.00  0.00    -0.237 OA
ATOM     98  O   UNL     1       3.800  -2.534  24.366  1.00  0.00    -0.744 OA
ENDBRANCH  91  95
ENDBRANCH  65  88
ENDBRANCH  39  40
ENDBRANCH  31  34
ENDBRANCH  29  30
ENDBRANCH  28  29
ENDBRANCH   1  28
TORSDOF 20
