REMARK SMILES Cc1[nH]c(=O)sc1S(=O)(=O)N[C@@H]1CCCCC[C@@H]1C(=O)NCCCCNC(=O)c1ccc(-c2c3nc(c(-c4cc(S(=O)(=O)[O-])ccc4F)c4ccc([nH]4)c(-c4cc(S(=O)(=O)[O-])ccc4F)c4nc(c(-c5cc(S(=O)(=O)[O-])ccc5F)c5ccc2[nH]5)C=C4)C=C3)cc1
REMARK SMILES IDX 23 1 22 2 21 3 19 4 20 5 18 7 12 8 11 9 8 11 9 12 10 13 7 14
REMARK SMILES IDX 1 15 2 16 3 17 4 18 6 20 5 21 13 22 14 23 17 25 16 26 15 27
REMARK SMILES IDX 24 29 25 30 26 31 27 32 28 34 29 35 30 36 91 37 31 38 90 39
REMARK SMILES IDX 32 40 33 41 34 42 84 43 35 44 89 45 83 46 85 47 36 48 88 49
REMARK SMILES IDX 82 50 81 51 37 53 69 54 49 55 68 56 50 57 53 58 67 59 86 60
REMARK SMILES IDX 51 61 52 62 66 64 87 65 54 66 38 67 39 68 47 69 40 70 46 71
REMARK SMILES IDX 48 72 45 73 41 74 42 75 43 76 44 77 70 78 71 79 79 80 72 81
REMARK SMILES IDX 78 82 80 83 77 84 73 85 74 86 75 87 76 88 55 89 56 90 64 91
REMARK SMILES IDX 57 92 63 93 65 94 62 95 58 96 59 97 60 98 61 99
REMARK H PARENT 21 6 11 10 3 19 26 33 85 52 53 63
REMARK Flexibility Score: 100.00
ROOT
ATOM      1  C   UNL     1       5.164  -2.538   1.155  1.00  0.00     0.023 C 
ENDROOT
BRANCH   1   2
ATOM      2  C   UNL     1       4.902  -1.231   0.411  1.00  0.00     0.116 C 
BRANCH   2   3
ATOM      3  N   UNL     1       5.414  -1.222  -0.953  1.00  0.00    -0.356 N 
ATOM      4  C   UNL     1       4.785  -1.278  -2.163  1.00  0.00     0.224 C 
ATOM      5  O   UNL     1       5.494  -1.244  -3.173  1.00  0.00    -0.275 OA
ATOM      6  H   UNL     1       6.395  -1.165  -1.013  1.00  0.00     0.163 HD
BRANCH   4   7
ATOM      7  C   UNL     1       3.259  -1.341  -2.302  1.00  0.00     0.096 C 
BRANCH   7   8
ATOM      8  C   UNL     1       2.570   0.047  -2.161  1.00  0.00     0.082 C 
BRANCH   8   9
ATOM      9  N   UNL     1       3.098   0.767  -0.963  1.00  0.00    -0.207 NA
ATOM     10  H   UNL     1       2.761   0.252  -0.150  1.00  0.00     0.141 HD
BRANCH   9  11
ATOM     11  S   UNL     1       2.748   2.406  -0.668  1.00  0.00     0.252 S 
ATOM     12  O   UNL     1       2.815   3.029  -1.974  1.00  0.00    -0.206 OA
ATOM     13  O   UNL     1       3.722   2.740   0.352  1.00  0.00    -0.206 OA
BRANCH  11  14
ATOM     14  C   UNL     1       1.163   2.601   0.004  1.00  0.00     0.158 A 
ATOM     15  C   UNL     1       1.083   0.498   1.520  1.00  0.00     0.067 C 
ATOM     16  C   UNL     1       0.596   1.765   0.897  1.00  0.00     0.046 A 
ATOM     17  N   UNL     1      -0.665   2.183   1.275  1.00  0.00    -0.315 N 
ATOM     18  C   UNL     1      -1.118   3.353   0.736  1.00  0.00     0.305 A 
ATOM     19  H   UNL     1      -1.213   1.660   1.905  1.00  0.00     0.170 HD
ATOM     20  S   UNL     1       0.113   3.970  -0.342  1.00  0.00    -0.061 S 
ATOM     21  O   UNL     1      -2.210   3.873   0.943  1.00  0.00    -0.257 OA
ENDBRANCH  11  14
ENDBRANCH   9  11
ENDBRANCH   8   9
BRANCH   8  22
ATOM     22  C   UNL     1       1.037   0.008  -2.083  1.00  0.00     0.021 C 
BRANCH  22  23
ATOM     23  C   UNL     1       0.295  -1.057  -2.883  1.00  0.00     0.002 CG0
ATOM     24  G   UNL     1       0.212  -2.395  -2.151  1.00  0.00     0.000 G0
ENDBRANCH  22  23
ENDBRANCH   8  22
ENDBRANCH   7   8
BRANCH   7  25
ATOM     25  C   UNL     1       2.674  -2.515  -1.505  1.00  0.00     0.015 C 
BRANCH  25  26
ATOM     26  C   UNL     1       1.499  -3.202  -2.196  1.00  0.00     0.001 C 
BRANCH  26  27
ATOM     27  C   UNL     1       0.212  -2.395  -2.151  1.00  0.00     0.000 CG0
ATOM     28  G   UNL     1       0.295  -1.057  -2.883  1.00  0.00     0.000 G0
ENDBRANCH  26  27
ENDBRANCH  25  26
ENDBRANCH   7  25
ENDBRANCH   4   7
ENDBRANCH   2   3
ENDBRANCH   1   2
BRANCH   1  29
ATOM     29  C   UNL     1       6.628  -2.812   1.510  1.00  0.00     0.023 C 
BRANCH  29  30
ATOM     30  C   UNL     1       7.271  -1.776   2.430  1.00  0.00     0.116 C 
BRANCH  30  31
ATOM     31  N   UNL     1       6.619  -1.704   3.731  1.00  0.00    -0.352 N 
ATOM     32  C   UNL     1       6.849  -0.791   4.740  1.00  0.00     0.251 C 
ATOM     33  H   UNL     1       5.934  -2.387   3.912  1.00  0.00     0.163 HD
ATOM     34  O   UNL     1       6.566  -1.080   5.898  1.00  0.00    -0.269 OA
BRANCH  32  35
ATOM     35  C   UNL     1       7.445   0.520   4.414  1.00  0.00     0.039 A 
ATOM     36  C   UNL     1       8.457   1.050   5.217  1.00  0.00     0.014 A 
ATOM     37  C   UNL     1       6.989   1.222   3.295  1.00  0.00     0.014 A 
ATOM     38  C   UNL     1       9.070   2.241   4.833  1.00  0.00     0.010 A 
ATOM     39  C   UNL     1       7.644   2.366   2.875  1.00  0.00     0.010 A 
ATOM     40  C   UNL     1       8.686   2.884   3.641  1.00  0.00    -0.014 A 
BRANCH  40  41
ATOM     41  C   UNL     1       9.508   3.979   3.119  1.00  0.00     0.031 A 
ATOM     42  C   UNL     1      10.947   3.631   2.961  1.00  0.00     0.074 A 
ATOM     43  C   UNL     1       9.053   5.151   2.626  1.00  0.00     0.049 A 
ATOM     44  N   UNL     1      11.931   4.015   3.703  1.00  0.00    -0.248 NA
ATOM     45  C   UNL     1      11.319   2.612   1.968  1.00  0.00     0.031 C 
ATOM     46  C   UNL     1       7.665   5.559   2.407  1.00  0.00     0.029 A 
ATOM     47  N   UNL     1       9.763   6.206   2.125  1.00  0.00    -0.354 N 
ATOM     48  C   UNL     1      13.082   3.496   3.119  1.00  0.00     0.074 A 
ATOM     49  C   UNL     1      12.626   2.481   2.206  1.00  0.00     0.031 C 
ATOM     50  C   UNL     1       7.638   6.670   1.635  1.00  0.00     0.029 A 
ATOM     51  C   UNL     1       8.998   7.142   1.432  1.00  0.00     0.049 A 
ATOM     52  H   UNL     1      10.736   6.298   2.244  1.00  0.00     0.167 HD
ATOM     53  C   UNL     1      14.285   4.120   3.268  1.00  0.00     0.034 A 
ATOM     54  C   UNL     1       9.440   8.220   0.728  1.00  0.00     0.034 A 
ATOM     55  C   UNL     1      14.222   5.107   4.327  1.00  0.00     0.049 A 
ATOM     56  C   UNL     1      10.779   8.565   1.262  1.00  0.00     0.074 A 
ATOM     57  C   UNL     1      13.883   5.072   5.668  1.00  0.00     0.029 A 
ATOM     58  N   UNL     1      14.156   6.437   3.970  1.00  0.00    -0.354 N 
ATOM     59  N   UNL     1      10.974   9.017   2.470  1.00  0.00    -0.248 NA
ATOM     60  C   UNL     1      11.950   7.980   0.626  1.00  0.00     0.031 C 
ATOM     61  C   UNL     1      13.141   6.270   5.889  1.00  0.00     0.029 A 
ATOM     62  C   UNL     1      13.153   7.014   4.708  1.00  0.00     0.049 A 
ATOM     63  H   UNL     1      14.724   6.891   3.306  1.00  0.00     0.167 HD
ATOM     64  C   UNL     1      12.122   8.377   2.908  1.00  0.00     0.074 A 
ATOM     65  C   UNL     1      12.739   7.842   1.696  1.00  0.00     0.031 C 
ATOM     66  C   UNL     1      12.314   8.099   4.232  1.00  0.00     0.034 A 
BRANCH  53  67
ATOM     67  C   UNL     1      15.401   4.140   2.239  1.00  0.00     0.023 A 
ATOM     68  C   UNL     1      16.542   4.906   2.555  1.00  0.00     0.031 A 
ATOM     69  C   UNL     1      15.302   3.728   0.892  1.00  0.00     0.131 A 
ATOM     70  C   UNL     1      17.422   5.347   1.554  1.00  0.00     0.055 A 
ATOM     71  C   UNL     1      16.224   4.108  -0.089  1.00  0.00     0.041 A 
ATOM     72  F   UNL     1      14.276   3.011   0.423  1.00  0.00    -0.206 F 
ATOM     73  C   UNL     1      17.269   4.956   0.229  1.00  0.00     0.022 A 
BRANCH  70  74
ATOM     74  S   UNL     1      18.649   6.605   1.991  1.00  0.00     0.124 S 
ATOM     75  O   UNL     1      17.796   7.666   2.516  1.00  0.00    -0.237 OA
ATOM     76  O   UNL     1      19.471   5.897   2.966  1.00  0.00    -0.237 OA
ATOM     77  O   UNL     1      19.303   6.897   0.718  1.00  0.00    -0.744 OA
ENDBRANCH  70  74
ENDBRANCH  53  67
BRANCH  54  78
ATOM     78  C   UNL     1       8.883   8.806  -0.524  1.00  0.00     0.023 A 
ATOM     79  C   UNL     1       9.216  10.101  -0.981  1.00  0.00     0.031 A 
ATOM     80  C   UNL     1       8.198   7.972  -1.435  1.00  0.00     0.131 A 
ATOM     81  C   UNL     1       8.873  10.506  -2.295  1.00  0.00     0.055 A 
ATOM     82  C   UNL     1       7.858   8.378  -2.728  1.00  0.00     0.041 A 
ATOM     83  F   UNL     1       7.917   6.695  -1.132  1.00  0.00    -0.206 F 
ATOM     84  C   UNL     1       8.205   9.645  -3.168  1.00  0.00     0.022 A 
BRANCH  81  85
ATOM     85  S   UNL     1       9.393  12.134  -2.934  1.00  0.00     0.124 S 
ATOM     86  O   UNL     1       8.536  13.050  -2.191  1.00  0.00    -0.237 OA
ATOM     87  O   UNL     1      10.814  12.164  -2.606  1.00  0.00    -0.237 OA
ATOM     88  O   UNL     1       9.102  12.048  -4.366  1.00  0.00    -0.744 OA
ENDBRANCH  81  85
ENDBRANCH  54  78
BRANCH  66  89
ATOM     89  C   UNL     1      11.462   8.813   5.263  1.00  0.00     0.023 A 
ATOM     90  C   UNL     1      10.049   8.839   5.285  1.00  0.00     0.031 A 
ATOM     91  C   UNL     1      12.139   9.416   6.340  1.00  0.00     0.131 A 
ATOM     92  C   UNL     1       9.372   9.464   6.352  1.00  0.00     0.055 A 
ATOM     93  C   UNL     1      11.467  10.010   7.405  1.00  0.00     0.041 A 
ATOM     94  F   UNL     1      13.482   9.410   6.390  1.00  0.00    -0.206 F 
ATOM     95  C   UNL     1      10.079  10.043   7.412  1.00  0.00     0.022 A 
BRANCH  92  96
ATOM     96  S   UNL     1       7.553   9.568   6.376  1.00  0.00     0.124 S 
ATOM     97  O   UNL     1       7.212   9.958   5.013  1.00  0.00    -0.237 OA
ATOM     98  O   UNL     1       7.166   8.216   6.771  1.00  0.00    -0.237 OA
ATOM     99  O   UNL     1       7.286  10.593   7.387  1.00  0.00    -0.744 OA
ENDBRANCH  92  96
ENDBRANCH  66  89
ENDBRANCH  40  41
ENDBRANCH  32  35
ENDBRANCH  30  31
ENDBRANCH  29  30
ENDBRANCH   1  29
TORSDOF 17
