REMARK SMILES O=C(NCCCCNC(=O)c1ccc2c(=O)[nH]c(N3CC[NH2+]CC3)nc2c1)c1ccc(-c2c3nc(c(-c4cc(S(=O)(=O)[O-])ccc4F)c4ccc([nH]4)c(-c4cc(S(=O)(=O)[O-])ccc4F)c4nc(c(-c5cc(S(=O)(=O)[O-])ccc5F)c5ccc2[nH]5)C=C4)C=C3)cc1
REMARK SMILES IDX 4 1 3 2 1 3 2 4 28 6 29 7 90 8 30 9 89 10 31 11 32 12 33 13
REMARK SMILES IDX 83 14 34 15 88 16 82 17 84 18 35 19 87 20 81 21 80 22 36 24
REMARK SMILES IDX 68 25 48 26 67 27 49 28 52 29 66 30 85 31 50 32 51 33 65 35
REMARK SMILES IDX 86 36 53 37 37 38 38 39 46 40 39 41 45 42 47 43 44 44 40 45
REMARK SMILES IDX 41 46 42 47 43 48 69 49 70 50 78 51 71 52 77 53 79 54 76 55
REMARK SMILES IDX 72 56 73 57 74 58 75 59 54 60 55 61 63 62 56 63 62 64 64 65
REMARK SMILES IDX 61 66 57 67 58 68 59 69 60 70 5 71 6 72 7 73 8 74 9 75 10 77
REMARK SMILES IDX 11 78 12 79 27 80 13 81 26 82 14 83 25 84 15 85 18 86 16 87
REMARK SMILES IDX 17 88 19 90 20 91 24 92 21 93 23 94 22 95
REMARK H PARENT 3 5 84 23 52 34 8 76 17 89 22 96 22 97
REMARK Flexibility Score: inf
ROOT
ATOM      1  C   UNL     1       4.748  -0.656   0.972  1.00  0.00     0.116 C 
ENDROOT
BRANCH   1   2
ATOM      2  N   UNL     1       3.316  -0.779   0.745  1.00  0.00    -0.352 N 
ATOM      3  O   UNL     1       1.284  -0.223  -0.044  1.00  0.00    -0.269 OA
ATOM      4  C   UNL     1       2.500  -0.059  -0.092  1.00  0.00     0.251 C 
ATOM      5  H   UNL     1       2.867  -1.482   1.268  1.00  0.00     0.163 HD
BRANCH   4   6
ATOM      6  C   UNL     1       3.081   0.926  -1.029  1.00  0.00     0.039 A 
ATOM      7  C   UNL     1       4.184   0.602  -1.824  1.00  0.00     0.014 A 
ATOM      8  C   UNL     1       2.499   2.193  -1.116  1.00  0.00     0.014 A 
ATOM      9  C   UNL     1       4.781   1.581  -2.615  1.00  0.00     0.010 A 
ATOM     10  C   UNL     1       3.060   3.155  -1.958  1.00  0.00     0.010 A 
ATOM     11  C   UNL     1       4.222   2.866  -2.692  1.00  0.00    -0.014 A 
BRANCH  11  12
ATOM     12  C   UNL     1       4.836   3.902  -3.560  1.00  0.00     0.031 A 
ATOM     13  C   UNL     1       5.444   5.137  -2.958  1.00  0.00     0.074 A 
ATOM     14  C   UNL     1       4.811   3.741  -4.896  1.00  0.00     0.049 A 
ATOM     15  N   UNL     1       5.926   6.199  -3.553  1.00  0.00    -0.248 NA
ATOM     16  C   UNL     1       5.502   5.189  -1.491  1.00  0.00     0.031 C 
ATOM     17  C   UNL     1       4.251   2.582  -5.593  1.00  0.00     0.029 A 
ATOM     18  N   UNL     1       5.250   4.559  -5.906  1.00  0.00    -0.354 N 
ATOM     19  C   UNL     1       6.326   7.057  -2.534  1.00  0.00     0.074 A 
ATOM     20  C   UNL     1       5.996   6.401  -1.285  1.00  0.00     0.031 C 
ATOM     21  C   UNL     1       4.376   2.764  -6.915  1.00  0.00     0.029 A 
ATOM     22  C   UNL     1       4.966   4.076  -7.161  1.00  0.00     0.049 A 
ATOM     23  H   UNL     1       5.721   5.408  -5.747  1.00  0.00     0.167 HD
ATOM     24  C   UNL     1       6.919   8.274  -2.636  1.00  0.00     0.034 A 
ATOM     25  C   UNL     1       5.119   4.640  -8.374  1.00  0.00     0.034 A 
ATOM     26  C   UNL     1       7.233   8.910  -3.895  1.00  0.00     0.049 A 
ATOM     27  C   UNL     1       5.724   6.013  -8.468  1.00  0.00     0.074 A 
ATOM     28  C   UNL     1       7.867  10.120  -4.118  1.00  0.00     0.029 A 
ATOM     29  N   UNL     1       6.920   8.393  -5.147  1.00  0.00    -0.354 N 
ATOM     30  N   UNL     1       6.115   6.809  -7.500  1.00  0.00    -0.248 NA
ATOM     31  C   UNL     1       5.915   6.563  -9.816  1.00  0.00     0.031 C 
ATOM     32  C   UNL     1       7.875  10.366  -5.496  1.00  0.00     0.029 A 
ATOM     33  C   UNL     1       7.316   9.275  -6.142  1.00  0.00     0.049 A 
ATOM     34  H   UNL     1       6.481   7.526  -5.305  1.00  0.00     0.167 HD
ATOM     35  C   UNL     1       6.621   7.944  -8.122  1.00  0.00     0.074 A 
ATOM     36  C   UNL     1       6.486   7.730  -9.550  1.00  0.00     0.031 C 
ATOM     37  C   UNL     1       7.162   9.056  -7.562  1.00  0.00     0.034 A 
BRANCH  24  38
ATOM     38  C   UNL     1       7.208   9.012  -1.349  1.00  0.00     0.023 A 
ATOM     39  C   UNL     1       8.086   8.496  -0.379  1.00  0.00     0.031 A 
ATOM     40  C   UNL     1       6.556  10.225  -1.062  1.00  0.00     0.131 A 
ATOM     41  C   UNL     1       8.215   9.136   0.863  1.00  0.00     0.055 A 
ATOM     42  C   UNL     1       6.757  10.905   0.141  1.00  0.00     0.041 A 
ATOM     43  F   UNL     1       5.692  10.761  -1.939  1.00  0.00    -0.206 F 
ATOM     44  C   UNL     1       7.575  10.350   1.121  1.00  0.00     0.022 A 
BRANCH  41  45
ATOM     45  S   UNL     1       9.087   8.268   2.197  1.00  0.00     0.124 S 
ATOM     46  O   UNL     1       8.373   6.994   2.239  1.00  0.00    -0.237 OA
ATOM     47  O   UNL     1      10.455   8.218   1.698  1.00  0.00    -0.237 OA
ATOM     48  O   UNL     1       8.876   9.127   3.361  1.00  0.00    -0.744 OA
ENDBRANCH  41  45
ENDBRANCH  24  38
BRANCH  25  49
ATOM     49  C   UNL     1       4.640   3.916  -9.582  1.00  0.00     0.023 A 
ATOM     50  C   UNL     1       5.538   3.393 -10.523  1.00  0.00     0.031 A 
ATOM     51  C   UNL     1       3.264   3.711  -9.790  1.00  0.00     0.131 A 
ATOM     52  C   UNL     1       5.048   2.702 -11.641  1.00  0.00     0.055 A 
ATOM     53  C   UNL     1       2.784   2.988 -10.882  1.00  0.00     0.041 A 
ATOM     54  F   UNL     1       2.367   4.183  -8.909  1.00  0.00    -0.206 F 
ATOM     55  C   UNL     1       3.679   2.483 -11.819  1.00  0.00     0.022 A 
BRANCH  52  56
ATOM     56  S   UNL     1       6.228   2.110 -12.884  1.00  0.00     0.124 S 
ATOM     57  O   UNL     1       6.820   3.359 -13.350  1.00  0.00    -0.237 OA
ATOM     58  O   UNL     1       7.096   1.244 -12.092  1.00  0.00    -0.237 OA
ATOM     59  O   UNL     1       5.382   1.419 -13.855  1.00  0.00    -0.744 OA
ENDBRANCH  52  56
ENDBRANCH  25  49
BRANCH  37  60
ATOM     60  C   UNL     1       7.700  10.105  -8.501  1.00  0.00     0.023 A 
ATOM     61  C   UNL     1       6.853  10.916  -9.275  1.00  0.00     0.031 A 
ATOM     62  C   UNL     1       9.089  10.303  -8.605  1.00  0.00     0.131 A 
ATOM     63  C   UNL     1       7.406  11.868 -10.146  1.00  0.00     0.055 A 
ATOM     64  C   UNL     1       9.630  11.283  -9.437  1.00  0.00     0.041 A 
ATOM     65  F   UNL     1       9.940   9.552  -7.888  1.00  0.00    -0.206 F 
ATOM     66  C   UNL     1       8.788  12.067 -10.219  1.00  0.00     0.022 A 
BRANCH  63  67
ATOM     67  S   UNL     1       6.298  12.817 -11.225  1.00  0.00     0.124 S 
ATOM     68  O   UNL     1       5.705  11.768 -12.048  1.00  0.00    -0.237 OA
ATOM     69  O   UNL     1       5.403  13.461 -10.269  1.00  0.00    -0.237 OA
ATOM     70  O   UNL     1       7.201  13.723 -11.932  1.00  0.00    -0.744 OA
ENDBRANCH  63  67
ENDBRANCH  37  60
ENDBRANCH  11  12
ENDBRANCH   4   6
ENDBRANCH   1   2
BRANCH   1  71
ATOM     71  C   UNL     1       5.100  -0.456   2.443  1.00  0.00     0.023 C 
BRANCH  71  72
ATOM     72  C   UNL     1       4.606  -1.548   3.392  1.00  0.00     0.023 C 
BRANCH  72  73
ATOM     73  C   UNL     1       4.958  -2.974   2.980  1.00  0.00     0.116 C 
BRANCH  73  74
ATOM     74  N   UNL     1       6.393  -3.205   2.941  1.00  0.00    -0.352 N 
ATOM     75  C   UNL     1       7.151  -4.045   3.715  1.00  0.00     0.251 C 
ATOM     76  H   UNL     1       6.888  -2.687   2.266  1.00  0.00     0.163 HD
ATOM     77  O   UNL     1       8.376  -4.045   3.645  1.00  0.00    -0.269 OA
BRANCH  75  78
ATOM     78  C   UNL     1       6.479  -4.962   4.651  1.00  0.00     0.041 A 
ATOM     79  C   UNL     1       5.567  -5.911   4.171  1.00  0.00     0.015 A 
ATOM     80  C   UNL     1       6.775  -4.869   6.016  1.00  0.00     0.043 A 
ATOM     81  C   UNL     1       4.898  -6.732   5.071  1.00  0.00     0.017 A 
ATOM     82  C   UNL     1       6.116  -5.696   6.925  1.00  0.00     0.081 A 
ATOM     83  C   UNL     1       5.179  -6.613   6.436  1.00  0.00     0.066 A 
ATOM     84  N   UNL     1       6.415  -5.582   8.295  1.00  0.00    -0.214 NA
ATOM     85  C   UNL     1       4.498  -7.464   7.418  1.00  0.00     0.260 A 
ATOM     86  C   UNL     1       5.847  -6.397   9.126  1.00  0.00     0.206 A 
ATOM     87  O   UNL     1       3.608  -8.246   7.105  1.00  0.00    -0.269 OA
ATOM     88  N   UNL     1       4.920  -7.316   8.710  1.00  0.00    -0.292 N 
ATOM     89  H   UNL     1       4.530  -7.912   9.389  1.00  0.00     0.173 HD
BRANCH  86  90
ATOM     90  N   UNL     1       6.094  -6.381  10.472  1.00  0.00    -0.331 N 
ATOM     91  C   UNL     1       6.371  -5.128  11.181  1.00  0.00     0.181 C 
ATOM     92  C   UNL     1       6.463  -7.585  11.222  1.00  0.00     0.181 C 
ATOM     93  C   UNL     1       5.677  -5.166  12.563  1.00  0.00     0.282 C 
ATOM     94  C   UNL     1       5.773  -7.577  12.600  1.00  0.00     0.282 C 
ATOM     95  N   UNL     1       6.033  -6.350  13.382  1.00  0.00    -0.343 N 
ATOM     96  H   UNL     1       5.468  -6.360  14.231  1.00  0.00     0.346 HD
ATOM     97  H   UNL     1       7.020  -6.308  13.635  1.00  0.00     0.346 HD
ENDBRANCH  86  90
ENDBRANCH  75  78
ENDBRANCH  73  74
ENDBRANCH  72  73
ENDBRANCH  71  72
ENDBRANCH   1  71
TORSDOF 15
