REMARK SMILES C[C@@H](C(=O)NCCCCNC(=O)c1ccc(-c2c3nc(c(-c4cc(S(=O)(=O)[O-])ccc4F)c4ccc([nH]4)c(-c4cc(S(=O)(=O)[O-])ccc4F)c4nc(c(-c5cc(S(=O)(=O)[O-])ccc5F)c5ccc2[nH]5)C=C4)C=C3)cc1)c1cccc(C(=O)c2ccccc2)c1
REMARK SMILES IDX 7 1 6 2 5 3 3 4 4 5 2 7 1 8 76 9 77 10 89 11 78 12 80 13
REMARK SMILES IDX 79 14 81 15 82 16 83 17 84 18 88 19 85 20 87 21 86 22 8 23
REMARK SMILES IDX 9 24 10 25 11 26 12 28 13 29 14 30 75 31 15 32 74 33 16 34
REMARK SMILES IDX 17 35 18 36 68 37 19 38 73 39 67 40 69 41 20 42 72 43 66 44
REMARK SMILES IDX 65 45 21 47 53 48 33 49 52 50 34 51 37 52 51 53 70 54 35 55
REMARK SMILES IDX 36 56 50 58 71 59 38 60 22 61 23 62 31 63 24 64 30 65 32 66
REMARK SMILES IDX 29 67 25 68 26 69 27 70 28 71 54 72 55 73 63 74 56 75 62 76
REMARK SMILES IDX 64 77 61 78 57 79 58 80 59 81 60 82 39 83 40 84 48 85 41 86
REMARK SMILES IDX 47 87 49 88 46 89 42 90 43 91 44 92 45 93
REMARK H PARENT 5 6 10 27 69 46 37 57
REMARK Flexibility Score: inf
ROOT
ATOM      1  C   UNL     1       4.329  -0.504  -1.165  1.00  0.00     0.023 C 
ENDROOT
BRANCH   1   2
ATOM      2  C   UNL     1       3.538   0.576  -1.905  1.00  0.00     0.116 C 
BRANCH   2   3
ATOM      3  N   UNL     1       2.477   0.005  -2.708  1.00  0.00    -0.356 N 
ATOM      4  C   UNL     1       1.131  -0.051  -2.491  1.00  0.00     0.227 C 
ATOM      5  O   UNL     1       0.461  -0.623  -3.354  1.00  0.00    -0.274 OA
ATOM      6  H   UNL     1       2.775  -0.410  -3.549  1.00  0.00     0.163 HD
BRANCH   4   7
ATOM      7  C   UNL     1       0.509   0.608  -1.245  1.00  0.00     0.105 C 
ATOM      8  C   UNL     1       0.957  -0.060   0.063  1.00  0.00     0.023 C 
BRANCH   7   9
ATOM      9  C   UNL     1      -1.020   0.596  -1.264  1.00  0.00    -0.035 A 
ATOM     10  C   UNL     1      -1.754   1.785  -1.167  1.00  0.00     0.004 A 
ATOM     11  C   UNL     1      -1.717  -0.625  -1.301  1.00  0.00     0.016 A 
ATOM     12  C   UNL     1      -3.148   1.749  -1.088  1.00  0.00     0.001 A 
ATOM     13  C   UNL     1      -3.110  -0.673  -1.178  1.00  0.00     0.023 A 
ATOM     14  C   UNL     1      -3.823   0.525  -1.083  1.00  0.00     0.012 A 
BRANCH  13  15
ATOM     15  C   UNL     1      -3.854  -1.968  -1.159  1.00  0.00     0.193 C 
ATOM     16  O   UNL     1      -5.076  -1.983  -1.276  1.00  0.00    -0.289 OA
BRANCH  15  17
ATOM     17  C   UNL     1      -3.137  -3.258  -1.018  1.00  0.00     0.022 A 
ATOM     18  C   UNL     1      -3.366  -4.254  -1.971  1.00  0.00     0.012 A 
ATOM     19  C   UNL     1      -2.236  -3.479   0.032  1.00  0.00     0.012 A 
ATOM     20  C   UNL     1      -2.651  -5.450  -1.905  1.00  0.00     0.001 A 
ATOM     21  C   UNL     1      -1.519  -4.674   0.088  1.00  0.00     0.001 A 
ATOM     22  C   UNL     1      -1.721  -5.655  -0.884  1.00  0.00     0.000 A 
ENDBRANCH  15  17
ENDBRANCH  13  15
ENDBRANCH   7   9
ENDBRANCH   4   7
ENDBRANCH   2   3
ENDBRANCH   1   2
BRANCH   1  23
ATOM     23  C   UNL     1       5.106  -1.470  -2.066  1.00  0.00     0.023 C 
BRANCH  23  24
ATOM     24  C   UNL     1       6.103  -0.822  -3.022  1.00  0.00     0.116 C 
BRANCH  24  25
ATOM     25  N   UNL     1       7.106  -0.019  -2.339  1.00  0.00    -0.352 N 
ATOM     26  C   UNL     1       8.463   0.035  -2.557  1.00  0.00     0.251 C 
ATOM     27  H   UNL     1       6.767   0.565  -1.623  1.00  0.00     0.163 HD
ATOM     28  O   UNL     1       9.178   0.687  -1.800  1.00  0.00    -0.269 OA
BRANCH  26  29
ATOM     29  C   UNL     1       9.055  -0.729  -3.676  1.00  0.00     0.039 A 
ATOM     30  C   UNL     1      10.135  -1.577  -3.417  1.00  0.00     0.014 A 
ATOM     31  C   UNL     1       8.516  -0.643  -4.962  1.00  0.00     0.014 A 
ATOM     32  C   UNL     1      10.614  -2.413  -4.429  1.00  0.00     0.010 A 
ATOM     33  C   UNL     1       8.960  -1.514  -5.954  1.00  0.00     0.010 A 
ATOM     34  C   UNL     1       9.997  -2.424  -5.690  1.00  0.00    -0.014 A 
BRANCH  34  35
ATOM     35  C   UNL     1      10.368  -3.418  -6.730  1.00  0.00     0.031 A 
ATOM     36  C   UNL     1      10.977  -2.964  -8.027  1.00  0.00     0.074 A 
ATOM     37  C   UNL     1      10.044  -4.715  -6.548  1.00  0.00     0.049 A 
ATOM     38  N   UNL     1      11.225  -3.655  -9.108  1.00  0.00    -0.248 NA
ATOM     39  C   UNL     1      11.330  -1.540  -8.127  1.00  0.00     0.031 C 
ATOM     40  C   UNL     1       9.412  -5.267  -5.346  1.00  0.00     0.029 A 
ATOM     41  N   UNL     1      10.169  -5.800  -7.381  1.00  0.00    -0.354 N 
ATOM     42  C   UNL     1      11.737  -2.749 -10.030  1.00  0.00     0.074 A 
ATOM     43  C   UNL     1      11.739  -1.452  -9.385  1.00  0.00     0.031 C 
ATOM     44  C   UNL     1       9.197  -6.580  -5.524  1.00  0.00     0.029 A 
ATOM     45  C   UNL     1       9.627  -6.957  -6.867  1.00  0.00     0.049 A 
ATOM     46  H   UNL     1      10.605  -5.755  -8.262  1.00  0.00     0.167 HD
ATOM     47  C   UNL     1      12.171  -2.983 -11.292  1.00  0.00     0.034 A 
ATOM     48  C   UNL     1       9.461  -8.173  -7.425  1.00  0.00     0.034 A 
ATOM     49  C   UNL     1      12.191  -4.286 -11.908  1.00  0.00     0.049 A 
ATOM     50  C   UNL     1       9.934  -8.397  -8.838  1.00  0.00     0.074 A 
ATOM     51  C   UNL     1      12.720  -4.649 -13.134  1.00  0.00     0.029 A 
ATOM     52  N   UNL     1      11.645  -5.436 -11.355  1.00  0.00    -0.354 N 
ATOM     53  N   UNL     1      10.495  -7.545  -9.665  1.00  0.00    -0.248 NA
ATOM     54  C   UNL     1       9.754  -9.745  -9.395  1.00  0.00     0.031 C 
ATOM     55  C   UNL     1      12.433  -6.001 -13.353  1.00  0.00     0.029 A 
ATOM     56  C   UNL     1      11.782  -6.498 -12.236  1.00  0.00     0.049 A 
ATOM     57  H   UNL     1      11.222  -5.490 -10.467  1.00  0.00     0.167 HD
ATOM     58  C   UNL     1      10.752  -8.262 -10.830  1.00  0.00     0.074 A 
ATOM     59  C   UNL     1      10.302  -9.618 -10.594  1.00  0.00     0.031 C 
ATOM     60  C   UNL     1      11.312  -7.840 -11.991  1.00  0.00     0.034 A 
BRANCH  47  61
ATOM     61  C   UNL     1      12.632  -1.802 -12.107  1.00  0.00     0.023 A 
ATOM     62  C   UNL     1      13.796  -1.086 -11.784  1.00  0.00     0.031 A 
ATOM     63  C   UNL     1      11.901  -1.402 -13.240  1.00  0.00     0.131 A 
ATOM     64  C   UNL     1      14.169   0.024 -12.557  1.00  0.00     0.055 A 
ATOM     65  C   UNL     1      12.312  -0.336 -14.042  1.00  0.00     0.041 A 
ATOM     66  F   UNL     1      10.771  -2.041 -13.584  1.00  0.00    -0.206 F 
ATOM     67  C   UNL     1      13.448   0.390 -13.697  1.00  0.00     0.022 A 
BRANCH  64  68
ATOM     68  S   UNL     1      15.562   1.043 -11.999  1.00  0.00     0.124 S 
ATOM     69  O   UNL     1      15.079   1.520 -10.706  1.00  0.00    -0.237 OA
ATOM     70  O   UNL     1      16.659   0.082 -11.956  1.00  0.00    -0.237 OA
ATOM     71  O   UNL     1      15.672   2.069 -13.034  1.00  0.00    -0.744 OA
ENDBRANCH  64  68
ENDBRANCH  47  61
BRANCH  48  72
ATOM     72  C   UNL     1       8.771  -9.264  -6.678  1.00  0.00     0.023 A 
ATOM     73  C   UNL     1       9.447 -10.444  -6.331  1.00  0.00     0.031 A 
ATOM     74  C   UNL     1       7.404  -9.168  -6.359  1.00  0.00     0.131 A 
ATOM     75  C   UNL     1       8.744 -11.502  -5.734  1.00  0.00     0.055 A 
ATOM     76  C   UNL     1       6.722 -10.204  -5.718  1.00  0.00     0.041 A 
ATOM     77  F   UNL     1       6.711  -8.060  -6.665  1.00  0.00    -0.206 F 
ATOM     78  C   UNL     1       7.389 -11.386  -5.416  1.00  0.00     0.022 A 
BRANCH  75  79
ATOM     79  S   UNL     1       9.605 -13.078  -5.476  1.00  0.00     0.124 S 
ATOM     80  O   UNL     1      10.095 -13.373  -6.818  1.00  0.00    -0.237 OA
ATOM     81  O   UNL     1      10.616 -12.710  -4.490  1.00  0.00    -0.237 OA
ATOM     82  O   UNL     1       8.552 -13.965  -4.987  1.00  0.00    -0.744 OA
ENDBRANCH  75  79
ENDBRANCH  48  72
BRANCH  60  83
ATOM     83  C   UNL     1      11.492  -8.869 -13.076  1.00  0.00     0.023 A 
ATOM     84  C   UNL     1      10.393  -9.408 -13.766  1.00  0.00     0.031 A 
ATOM     85  C   UNL     1      12.779  -9.319 -13.419  1.00  0.00     0.131 A 
ATOM     86  C   UNL     1      10.598 -10.401 -14.735  1.00  0.00     0.055 A 
ATOM     87  C   UNL     1      12.981 -10.269 -14.420  1.00  0.00     0.041 A 
ATOM     88  F   UNL     1      13.862  -8.837 -12.788  1.00  0.00    -0.206 F 
ATOM     89  C   UNL     1      11.886 -10.823 -15.078  1.00  0.00     0.022 A 
BRANCH  86  90
ATOM     90  S   UNL     1       9.152 -11.182 -15.502  1.00  0.00     0.124 S 
ATOM     91  O   UNL     1       8.504 -11.811 -14.356  1.00  0.00    -0.237 OA
ATOM     92  O   UNL     1       8.451 -10.043 -16.085  1.00  0.00    -0.237 OA
ATOM     93  O   UNL     1       9.736 -12.110 -16.470  1.00  0.00    -0.744 OA
ENDBRANCH  86  90
ENDBRANCH  60  83
ENDBRANCH  34  35
ENDBRANCH  26  29
ENDBRANCH  24  25
ENDBRANCH  23  24
ENDBRANCH   1  23
TORSDOF 17
