REMARK SMILES O=C(NCCCCNC(=O)[C@H]1CC2(CCN(C(=O)C3CC3)CC2)CN1C(=O)CCn1cccn1)c1ccc(-c2c3nc(c(-c4cc(S(=O)(=O)[O-])ccc4F)c4ccc([nH]4)c(-c4cc(S(=O)(=O)[O-])ccc4F)c4nc(c(-c5cc(S(=O)(=O)[O-])ccc5F)c5ccc2[nH]5)C=C4)C=C3)cc1
REMARK SMILES IDX 6 1 5 2 4 3 3 4 1 5 2 6 35 8 36 9 97 10 37 11 96 12 38 13
REMARK SMILES IDX 39 14 40 15 90 16 41 17 95 18 89 19 91 20 42 21 94 22 88 23
REMARK SMILES IDX 87 24 43 26 75 27 55 28 74 29 56 30 59 31 73 32 92 33 57 34
REMARK SMILES IDX 58 35 72 37 93 38 60 39 44 40 45 41 53 42 46 43 52 44 54 45
REMARK SMILES IDX 51 46 47 47 48 48 49 49 50 50 76 51 77 52 85 53 78 54 84 55
REMARK SMILES IDX 86 56 83 57 79 58 80 59 81 60 82 61 61 62 62 63 70 64 63 65
REMARK SMILES IDX 69 66 71 67 68 68 64 69 65 70 66 71 67 72 7 73 8 74 9 75
REMARK SMILES IDX 10 77 11 78 12 79 25 80 13 81 24 82 14 83 23 84 15 85 22 86
REMARK SMILES IDX 16 87 17 88 18 89 26 90 27 91 28 92 29 93 30 94 31 95 34 96
REMARK SMILES IDX 32 97 33 98 19 99 20 100 21 101
REMARK H PARENT 3 7 91 25 59 36 8 76
REMARK Flexibility Score: inf
ROOT
ATOM      1  C   UNL     1       6.459  -9.438   1.511  1.00  0.00     0.023 C 
ENDROOT
BRANCH   1   2
ATOM      2  C   UNL     1       5.221  -9.945   0.764  1.00  0.00     0.023 C 
BRANCH   2   3
ATOM      3  C   UNL     1       5.465 -10.315  -0.693  1.00  0.00     0.116 C 
BRANCH   3   4
ATOM      4  N   UNL     1       6.698 -11.049  -0.904  1.00  0.00    -0.352 N 
ATOM      5  O   UNL     1       8.339 -12.509  -0.916  1.00  0.00    -0.269 OA
ATOM      6  C   UNL     1       7.148 -12.316  -0.650  1.00  0.00     0.251 C 
ATOM      7  H   UNL     1       7.386 -10.495  -1.340  1.00  0.00     0.163 HD
BRANCH   6   8
ATOM      8  C   UNL     1       6.355 -13.437  -0.070  1.00  0.00     0.039 A 
ATOM      9  C   UNL     1       4.971 -13.458   0.105  1.00  0.00     0.014 A 
ATOM     10  C   UNL     1       7.090 -14.588   0.283  1.00  0.00     0.014 A 
ATOM     11  C   UNL     1       4.347 -14.587   0.648  1.00  0.00     0.010 A 
ATOM     12  C   UNL     1       6.472 -15.719   0.811  1.00  0.00     0.010 A 
ATOM     13  C   UNL     1       5.095 -15.718   1.003  1.00  0.00    -0.014 A 
BRANCH  13  14
ATOM     14  C   UNL     1       4.383 -16.969   1.298  1.00  0.00     0.031 A 
ATOM     15  C   UNL     1       3.576 -17.463   0.139  1.00  0.00     0.074 A 
ATOM     16  C   UNL     1       4.560 -17.727   2.402  1.00  0.00     0.049 A 
ATOM     17  N   UNL     1       2.293 -17.600   0.060  1.00  0.00    -0.248 NA
ATOM     18  C   UNL     1       4.269 -17.670  -1.146  1.00  0.00     0.031 C 
ATOM     19  C   UNL     1       5.520 -17.520   3.486  1.00  0.00     0.029 A 
ATOM     20  N   UNL     1       3.978 -18.918   2.741  1.00  0.00    -0.354 N 
ATOM     21  C   UNL     1       2.037 -18.127  -1.206  1.00  0.00     0.074 A 
ATOM     22  C   UNL     1       3.250 -17.956  -1.957  1.00  0.00     0.031 C 
ATOM     23  C   UNL     1       5.616 -18.651   4.225  1.00  0.00     0.029 A 
ATOM     24  C   UNL     1       4.643 -19.623   3.747  1.00  0.00     0.049 A 
ATOM     25  H   UNL     1       3.158 -19.251   2.311  1.00  0.00     0.167 HD
ATOM     26  C   UNL     1       0.923 -18.870  -1.456  1.00  0.00     0.034 A 
ATOM     27  C   UNL     1       4.457 -20.924   4.118  1.00  0.00     0.034 A 
ATOM     28  C   UNL     1      -0.072 -18.671  -0.428  1.00  0.00     0.049 A 
ATOM     29  C   UNL     1       3.107 -21.318   3.645  1.00  0.00     0.074 A 
ATOM     30  C   UNL     1      -0.763 -17.575   0.054  1.00  0.00     0.029 A 
ATOM     31  N   UNL     1      -0.214 -19.647   0.533  1.00  0.00    -0.354 N 
ATOM     32  N   UNL     1       2.006 -20.802   4.116  1.00  0.00    -0.248 NA
ATOM     33  C   UNL     1       2.995 -21.908   2.319  1.00  0.00     0.031 C 
ATOM     34  C   UNL     1      -0.821 -17.775   1.464  1.00  0.00     0.029 A 
ATOM     35  C   UNL     1      -0.246 -19.015   1.750  1.00  0.00     0.049 A 
ATOM     36  H   UNL     1      -0.280 -20.616   0.375  1.00  0.00     0.167 HD
ATOM     37  C   UNL     1       1.206 -20.594   3.004  1.00  0.00     0.074 A 
ATOM     38  C   UNL     1       1.830 -21.376   1.937  1.00  0.00     0.031 C 
ATOM     39  C   UNL     1       0.282 -19.588   2.973  1.00  0.00     0.034 A 
BRANCH  26  40
ATOM     40  C   UNL     1       0.868 -20.059  -2.395  1.00  0.00     0.023 A 
ATOM     41  C   UNL     1      -0.359 -20.747  -2.485  1.00  0.00     0.031 A 
ATOM     42  C   UNL     1       1.985 -20.731  -2.941  1.00  0.00     0.131 A 
ATOM     43  C   UNL     1      -0.415 -22.070  -2.957  1.00  0.00     0.055 A 
ATOM     44  C   UNL     1       1.910 -22.020  -3.476  1.00  0.00     0.041 A 
ATOM     45  F   UNL     1       3.224 -20.229  -2.908  1.00  0.00    -0.206 F 
ATOM     46  C   UNL     1       0.714 -22.714  -3.451  1.00  0.00     0.022 A 
BRANCH  43  47
ATOM     47  S   UNL     1      -1.954 -22.997  -2.724  1.00  0.00     0.124 S 
ATOM     48  O   UNL     1      -2.161 -22.860  -1.288  1.00  0.00    -0.237 OA
ATOM     49  O   UNL     1      -2.878 -22.265  -3.583  1.00  0.00    -0.237 OA
ATOM     50  O   UNL     1      -1.610 -24.343  -3.181  1.00  0.00    -0.744 OA
ENDBRANCH  43  47
ENDBRANCH  26  40
BRANCH  27  51
ATOM     51  C   UNL     1       5.499 -21.918   4.531  1.00  0.00     0.023 A 
ATOM     52  C   UNL     1       5.211 -23.128   5.208  1.00  0.00     0.031 A 
ATOM     53  C   UNL     1       6.812 -21.786   4.024  1.00  0.00     0.131 A 
ATOM     54  C   UNL     1       6.211 -24.126   5.356  1.00  0.00     0.055 A 
ATOM     55  C   UNL     1       7.792 -22.771   4.172  1.00  0.00     0.041 A 
ATOM     56  F   UNL     1       7.167 -20.724   3.283  1.00  0.00    -0.206 F 
ATOM     57  C   UNL     1       7.493 -23.950   4.832  1.00  0.00     0.022 A 
BRANCH  54  58
ATOM     58  S   UNL     1       5.844 -25.723   6.166  1.00  0.00     0.124 S 
ATOM     59  O   UNL     1       5.631 -25.327   7.553  1.00  0.00    -0.237 OA
ATOM     60  O   UNL     1       4.670 -26.186   5.435  1.00  0.00    -0.237 OA
ATOM     61  O   UNL     1       7.056 -26.512   5.935  1.00  0.00    -0.744 OA
ENDBRANCH  54  58
ENDBRANCH  27  51
BRANCH  39  62
ATOM     62  C   UNL     1      -0.071 -18.883   4.267  1.00  0.00     0.023 A 
ATOM     63  C   UNL     1       0.848 -18.212   5.106  1.00  0.00     0.031 A 
ATOM     64  C   UNL     1      -1.437 -18.788   4.588  1.00  0.00     0.131 A 
ATOM     65  C   UNL     1       0.382 -17.490   6.224  1.00  0.00     0.055 A 
ATOM     66  C   UNL     1      -1.895 -18.056   5.681  1.00  0.00     0.041 A 
ATOM     67  F   UNL     1      -2.361 -19.381   3.814  1.00  0.00    -0.206 F 
ATOM     68  C   UNL     1      -0.986 -17.408   6.507  1.00  0.00     0.022 A 
BRANCH  65  69
ATOM     69  S   UNL     1       1.546 -16.650   7.348  1.00  0.00     0.124 S 
ATOM     70  O   UNL     1       2.562 -17.663   7.609  1.00  0.00    -0.237 OA
ATOM     71  O   UNL     1       1.976 -15.499   6.557  1.00  0.00    -0.237 OA
ATOM     72  O   UNL     1       0.715 -16.310   8.506  1.00  0.00    -0.744 OA
ENDBRANCH  65  69
ENDBRANCH  39  62
ENDBRANCH  13  14
ENDBRANCH   6   8
ENDBRANCH   3   4
ENDBRANCH   2   3
ENDBRANCH   1   2
BRANCH   1  73
ATOM     73  C   UNL     1       6.985  -8.000   1.268  1.00  0.00     0.116 C 
BRANCH  73  74
ATOM     74  N   UNL     1       6.195  -6.883   1.792  1.00  0.00    -0.354 N 
ATOM     75  C   UNL     1       6.529  -5.779   2.537  1.00  0.00     0.242 C 
ATOM     76  H   UNL     1       5.238  -6.934   1.567  1.00  0.00     0.163 HD
ATOM     77  O   UNL     1       6.159  -4.687   2.069  1.00  0.00    -0.273 OA
BRANCH  75  78
ATOM     78  C   UNL     1       7.311  -5.747   3.914  1.00  0.00     0.175 C 
ATOM     79  C   UNL     1       6.677  -4.781   4.973  1.00  0.00     0.044 C 
ATOM     80  N   UNL     1       7.875  -6.723   4.850  1.00  0.00    -0.330 N 
ATOM     81  C   UNL     1       7.604  -4.865   6.250  1.00  0.00    -0.006 C 
ATOM     82  C   UNL     1       8.650  -5.928   5.811  1.00  0.00     0.127 C 
ATOM     83  C   UNL     1       6.891  -5.408   7.526  1.00  0.00     0.030 C 
ATOM     84  C   UNL     1       8.197  -3.482   6.581  1.00  0.00     0.030 C 
ATOM     85  C   UNL     1       5.951  -4.434   8.215  1.00  0.00     0.120 C 
ATOM     86  C   UNL     1       7.154  -2.563   7.245  1.00  0.00     0.120 C 
ATOM     87  N   UNL     1       6.623  -3.176   8.466  1.00  0.00    -0.342 N 
ATOM     88  C   UNL     1       6.859  -2.538   9.687  1.00  0.00     0.225 C 
ATOM     89  O   UNL     1       7.473  -1.475   9.718  1.00  0.00    -0.275 OA
BRANCH  80  90
ATOM     90  C   UNL     1       7.149  -7.781   5.422  1.00  0.00     0.225 C 
ATOM     91  O   UNL     1       7.409  -8.242   6.535  1.00  0.00    -0.275 OA
BRANCH  90  92
ATOM     92  C   UNL     1       6.103  -8.432   4.581  1.00  0.00     0.124 C 
BRANCH  92  93
ATOM     93  C   UNL     1       4.601  -8.267   4.767  1.00  0.00     0.154 C 
BRANCH  93  94
ATOM     94  N   UNL     1       3.987  -6.968   4.564  1.00  0.00    -0.272 N 
ATOM     95  C   UNL     1       3.310  -6.233   5.500  1.00  0.00     0.108 A 
ATOM     96  N   UNL     1       3.861  -6.445   3.326  1.00  0.00    -0.182 NA
ATOM     97  C   UNL     1       2.865  -5.098   4.861  1.00  0.00     0.042 A 
ATOM     98  C   UNL     1       3.253  -5.271   3.522  1.00  0.00     0.135 A 
ENDBRANCH  93  94
ENDBRANCH  92  93
ENDBRANCH  90  92
ENDBRANCH  80  90
BRANCH  88  99
ATOM     99  C   UNL     1       6.442  -3.055  11.031  1.00  0.00     0.079 C 
ATOM    100  C   UNL     1       5.383  -4.032  11.451  1.00  0.00     0.014 C 
ATOM    101  C   UNL     1       6.832  -4.436  11.499  1.00  0.00     0.014 C 
ENDBRANCH  88  99
ENDBRANCH  75  78
ENDBRANCH  73  74
ENDBRANCH   1  73
TORSDOF 19
