REMARK SMILES Cc1c(CC(=O)N[C@H](CO)C(=O)NCCCCNC(=O)c2ccc(-c3c4nc(c(-c5cc(S(=O)(=O)[O-])ccc5F)c5ccc([nH]5)c(-c5cc(S(=O)(=O)[O-])ccc5F)c5nc(c(-c6cc(S(=O)(=O)[O-])ccc6F)c6ccc3[nH]6)C=C5)C=C4)cc2)cc(-c2ccc(S(C)(=O)=O)cc2)n1-c1cccc(F)c1
REMARK SMILES IDX 14 1 13 2 11 3 12 4 8 6 7 7 5 8 6 9 4 11 3 12 1 13 2 14
REMARK SMILES IDX 96 15 84 16 85 17 97 18 98 19 103 20 99 21 101 22 100 23
REMARK SMILES IDX 102 24 86 25 87 26 95 27 88 28 94 29 89 30 90 31 91 32 92 33
REMARK SMILES IDX 93 34 9 35 10 36 15 38 16 39 17 40 18 41 19 42 20 44 21 45
REMARK SMILES IDX 22 46 83 47 23 48 82 49 24 50 25 51 26 52 76 53 27 54 81 55
REMARK SMILES IDX 75 56 77 57 28 58 80 59 74 60 73 61 29 63 61 64 41 65 60 66
REMARK SMILES IDX 42 67 45 68 59 69 78 70 43 71 44 72 58 74 79 75 46 76 30 77
REMARK SMILES IDX 31 78 39 79 32 80 38 81 40 82 37 83 33 84 34 85 35 86 36 87
REMARK SMILES IDX 62 88 63 89 71 90 64 91 70 92 72 93 69 94 65 95 66 96 67 97
REMARK SMILES IDX 68 98 47 99 48 100 56 101 49 102 55 103 57 104 54 105 50 106
REMARK SMILES IDX 51 107 52 108 53 109
REMARK H PARENT 13 5 7 10 10 37 18 43 77 62 45 73
REMARK Flexibility Score: inf
ROOT
ATOM      1  C   UNL     1      -4.956  -3.320  -0.047  1.00  0.00     0.116 C 
ENDROOT
BRANCH   1   2
ATOM      2  N   UNL     1      -4.257  -4.008   1.021  1.00  0.00    -0.354 N 
ATOM      3  C   UNL     1      -3.007  -3.843   1.530  1.00  0.00     0.244 C 
ATOM      4  O   UNL     1      -2.453  -4.866   1.946  1.00  0.00    -0.273 OA
ATOM      5  H   UNL     1      -4.780  -4.719   1.455  1.00  0.00     0.163 HD
BRANCH   3   6
ATOM      6  C   UNL     1      -2.240  -2.517   1.420  1.00  0.00     0.197 C 
BRANCH   6   7
ATOM      7  N   UNL     1      -3.108  -1.350   1.576  1.00  0.00    -0.342 N 
ATOM      8  C   UNL     1      -3.575  -0.740   2.699  1.00  0.00     0.225 C 
ATOM      9  O   UNL     1      -4.413   0.153   2.534  1.00  0.00    -0.275 OA
ATOM     10  H   UNL     1      -3.404  -0.940   0.731  1.00  0.00     0.164 HD
BRANCH   8  11
ATOM     11  C   UNL     1      -3.003  -1.008   4.085  1.00  0.00     0.137 C 
BRANCH  11  12
ATOM     12  C   UNL     1      -2.899  -2.437   4.519  1.00  0.00    -0.017 A 
ATOM     13  C   UNL     1      -5.391  -3.141   4.580  1.00  0.00     0.065 C 
ATOM     14  C   UNL     1      -3.915  -3.373   4.676  1.00  0.00     0.024 A 
ATOM     15  N   UNL     1      -3.336  -4.590   5.045  1.00  0.00    -0.313 N 
ATOM     16  C   UNL     1      -1.694  -3.072   4.919  1.00  0.00     0.033 A 
ATOM     17  C   UNL     1      -1.957  -4.400   5.191  1.00  0.00     0.053 A 
BRANCH  15  18
ATOM     18  C   UNL     1      -4.004  -5.839   5.190  1.00  0.00     0.049 A 
ATOM     19  C   UNL     1      -3.775  -6.636   6.319  1.00  0.00     0.027 A 
ATOM     20  C   UNL     1      -4.787  -6.324   4.140  1.00  0.00     0.065 A 
ATOM     21  C   UNL     1      -4.335  -7.915   6.393  1.00  0.00     0.005 A 
ATOM     22  C   UNL     1      -5.320  -7.604   4.219  1.00  0.00     0.125 A 
ATOM     23  C   UNL     1      -5.104  -8.403   5.336  1.00  0.00     0.039 A 
ATOM     24  F   UNL     1      -6.020  -8.087   3.183  1.00  0.00    -0.207 F 
ENDBRANCH  15  18
BRANCH  17  25
ATOM     25  C   UNL     1      -0.973  -5.465   5.433  1.00  0.00    -0.001 A 
ATOM     26  C   UNL     1      -0.918  -6.590   4.595  1.00  0.00     0.011 A 
ATOM     27  C   UNL     1      -0.074  -5.368   6.502  1.00  0.00     0.011 A 
ATOM     28  C   UNL     1      -0.044  -7.643   4.870  1.00  0.00     0.021 A 
ATOM     29  C   UNL     1       0.811  -6.413   6.780  1.00  0.00     0.021 A 
ATOM     30  C   UNL     1       0.796  -7.558   5.980  1.00  0.00     0.067 A 
BRANCH  30  31
ATOM     31  S   UNL     1       1.841  -8.937   6.377  1.00  0.00     0.175 S 
ATOM     32  C   UNL     1       0.694 -10.205   6.857  1.00  0.00     0.163 C 
ATOM     33  O   UNL     1       2.491  -9.354   5.143  1.00  0.00    -0.224 OA
ATOM     34  O   UNL     1       2.624  -8.586   7.543  1.00  0.00    -0.224 OA
ENDBRANCH  30  31
ENDBRANCH  17  25
ENDBRANCH  11  12
ENDBRANCH   8  11
ENDBRANCH   6   7
BRANCH   6  35
ATOM     35  C   UNL     1      -1.445  -2.533   0.101  1.00  0.00     0.191 C 
BRANCH  35  36
ATOM     36  O   UNL     1      -1.714  -1.402  -0.728  1.00  0.00    -0.394 OA
ATOM     37  H   UNL     1      -2.651  -1.398  -0.977  1.00  0.00     0.210 HD
ENDBRANCH  35  36
ENDBRANCH   6  35
ENDBRANCH   3   6
ENDBRANCH   1   2
BRANCH   1  38
ATOM     38  C   UNL     1      -5.249  -4.301  -1.188  1.00  0.00     0.023 C 
BRANCH  38  39
ATOM     39  C   UNL     1      -5.970  -5.609  -0.796  1.00  0.00     0.023 C 
BRANCH  39  40
ATOM     40  C   UNL     1      -7.102  -5.549   0.249  1.00  0.00     0.116 C 
BRANCH  40  41
ATOM     41  N   UNL     1      -8.400  -5.220  -0.280  1.00  0.00    -0.352 N 
ATOM     42  C   UNL     1      -9.628  -5.328   0.356  1.00  0.00     0.251 C 
ATOM     43  H   UNL     1      -8.418  -4.877  -1.202  1.00  0.00     0.163 HD
ATOM     44  O   UNL     1     -10.626  -5.045  -0.303  1.00  0.00    -0.269 OA
BRANCH  42  45
ATOM     45  C   UNL     1      -9.770  -5.852   1.768  1.00  0.00     0.039 A 
ATOM     46  C   UNL     1      -9.961  -7.211   1.958  1.00  0.00     0.014 A 
ATOM     47  C   UNL     1      -9.973  -5.036   2.897  1.00  0.00     0.014 A 
ATOM     48  C   UNL     1     -10.296  -7.730   3.248  1.00  0.00     0.010 A 
ATOM     49  C   UNL     1     -10.396  -5.565   4.195  1.00  0.00     0.010 A 
ATOM     50  C   UNL     1     -10.596  -6.941   4.423  1.00  0.00    -0.014 A 
BRANCH  50  51
ATOM     51  C   UNL     1     -11.599  -7.630   5.513  1.00  0.00     0.031 A 
ATOM     52  C   UNL     1     -12.634  -8.236   4.621  1.00  0.00     0.074 A 
ATOM     53  C   UNL     1     -11.876  -7.761   6.881  1.00  0.00     0.049 A 
ATOM     54  N   UNL     1     -13.250  -7.490   3.745  1.00  0.00    -0.248 NA
ATOM     55  C   UNL     1     -12.706  -9.673   4.349  1.00  0.00     0.031 C 
ATOM     56  C   UNL     1     -11.185  -7.120   8.012  1.00  0.00     0.029 A 
ATOM     57  N   UNL     1     -12.863  -8.516   7.616  1.00  0.00    -0.354 N 
ATOM     58  C   UNL     1     -14.045  -8.330   3.008  1.00  0.00     0.074 A 
ATOM     59  C   UNL     1     -13.485  -9.654   3.260  1.00  0.00     0.031 C 
ATOM     60  C   UNL     1     -11.627  -7.589   9.220  1.00  0.00     0.029 A 
ATOM     61  C   UNL     1     -12.719  -8.554   9.062  1.00  0.00     0.049 A 
ATOM     62  H   UNL     1     -13.599  -8.984   7.159  1.00  0.00     0.167 HD
ATOM     63  C   UNL     1     -15.363  -7.977   2.952  1.00  0.00     0.034 A 
ATOM     64  C   UNL     1     -13.444  -9.220  10.064  1.00  0.00     0.034 A 
ATOM     65  C   UNL     1     -16.139  -8.693   3.932  1.00  0.00     0.049 A 
ATOM     66  C   UNL     1     -14.799  -9.420   9.552  1.00  0.00     0.074 A 
ATOM     67  C   UNL     1     -16.189 -10.024   4.294  1.00  0.00     0.029 A 
ATOM     68  N   UNL     1     -16.627  -7.970   5.002  1.00  0.00    -0.354 N 
ATOM     69  N   UNL     1     -15.653  -8.449   9.489  1.00  0.00    -0.248 NA
ATOM     70  C   UNL     1     -15.300 -10.727   9.145  1.00  0.00     0.031 C 
ATOM     71  C   UNL     1     -16.207 -10.005   5.705  1.00  0.00     0.029 A 
ATOM     72  C   UNL     1     -16.556  -8.733   6.147  1.00  0.00     0.049 A 
ATOM     73  H   UNL     1     -16.972  -7.049   4.954  1.00  0.00     0.167 HD
ATOM     74  C   UNL     1     -16.513  -8.883   8.530  1.00  0.00     0.074 A 
ATOM     75  C   UNL     1     -16.449 -10.332   8.593  1.00  0.00     0.031 C 
ATOM     76  C   UNL     1     -16.652  -8.083   7.442  1.00  0.00     0.034 A 
BRANCH  63  77
ATOM     77  C   UNL     1     -15.590  -6.534   2.593  1.00  0.00     0.023 A 
ATOM     78  C   UNL     1     -16.092  -6.220   1.324  1.00  0.00     0.031 A 
ATOM     79  C   UNL     1     -15.220  -5.463   3.437  1.00  0.00     0.131 A 
ATOM     80  C   UNL     1     -16.154  -4.878   0.912  1.00  0.00     0.055 A 
ATOM     81  C   UNL     1     -15.226  -4.140   3.004  1.00  0.00     0.041 A 
ATOM     82  F   UNL     1     -14.854  -5.687   4.710  1.00  0.00    -0.206 F 
ATOM     83  C   UNL     1     -15.688  -3.841   1.728  1.00  0.00     0.022 A 
BRANCH  80  84
ATOM     84  S   UNL     1     -16.897  -4.499  -0.697  1.00  0.00     0.124 S 
ATOM     85  O   UNL     1     -15.975  -5.138  -1.631  1.00  0.00    -0.237 OA
ATOM     86  O   UNL     1     -18.212  -5.126  -0.585  1.00  0.00    -0.237 OA
ATOM     87  O   UNL     1     -16.914  -3.038  -0.738  1.00  0.00    -0.744 OA
ENDBRANCH  80  84
ENDBRANCH  63  77
BRANCH  64  88
ATOM     88  C   UNL     1     -13.414  -9.682  11.559  1.00  0.00     0.023 A 
ATOM     89  C   UNL     1     -14.622  -9.871  12.354  1.00  0.00     0.031 A 
ATOM     90  C   UNL     1     -12.288 -10.342  12.067  1.00  0.00     0.131 A 
ATOM     91  C   UNL     1     -14.662 -10.699  13.520  1.00  0.00     0.055 A 
ATOM     92  C   UNL     1     -12.332 -11.151  13.230  1.00  0.00     0.041 A 
ATOM     93  F   UNL     1     -11.132 -10.322  11.388  1.00  0.00    -0.206 F 
ATOM     94  C   UNL     1     -13.511 -11.347  13.947  1.00  0.00     0.022 A 
BRANCH  91  95
ATOM     95  S   UNL     1     -16.235 -11.103  14.414  1.00  0.00     0.124 S 
ATOM     96  O   UNL     1     -16.586  -9.842  15.053  1.00  0.00    -0.237 OA
ATOM     97  O   UNL     1     -17.110 -11.560  13.339  1.00  0.00    -0.237 OA
ATOM     98  O   UNL     1     -15.838 -12.162  15.348  1.00  0.00    -0.744 OA
ENDBRANCH  91  95
ENDBRANCH  64  88
BRANCH  76  99
ATOM     99  C   UNL     1     -16.715  -6.572   7.695  1.00  0.00     0.023 A 
ATOM    100  C   UNL     1     -15.878  -5.829   8.575  1.00  0.00     0.031 A 
ATOM    101  C   UNL     1     -17.757  -5.855   7.087  1.00  0.00     0.131 A 
ATOM    102  C   UNL     1     -16.133  -4.470   8.857  1.00  0.00     0.055 A 
ATOM    103  C   UNL     1     -17.982  -4.497   7.329  1.00  0.00     0.041 A 
ATOM    104  F   UNL     1     -18.600  -6.473   6.245  1.00  0.00    -0.206 F 
ATOM    105  C   UNL     1     -17.184  -3.803   8.231  1.00  0.00     0.022 A 
BRANCH 102 106
ATOM    106  S   UNL     1     -15.153  -3.579  10.118  1.00  0.00     0.124 S 
ATOM    107  O   UNL     1     -15.164  -4.486  11.260  1.00  0.00    -0.237 OA
ATOM    108  O   UNL     1     -13.863  -3.405   9.457  1.00  0.00    -0.237 OA
ATOM    109  O   UNL     1     -15.906  -2.340  10.322  1.00  0.00    -0.744 OA
ENDBRANCH 102 106
ENDBRANCH  76  99
ENDBRANCH  50  51
ENDBRANCH  42  45
ENDBRANCH  40  41
ENDBRANCH  39  40
ENDBRANCH  38  39
ENDBRANCH   1  38
TORSDOF 22
