REMARK SMILES Cc1cscc1CNC(=O)N[C@@H](C)c1nc(C(=O)NCCCCNC(=O)c2ccc(-c3c4nc(c(-c5cc(S(=O)(=O)[O-])ccc5F)c5ccc([nH]5)c(-c5cc(S(=O)(=O)[O-])ccc5F)c5nc(c(-c6cc(S(=O)(=O)[O-])ccc6F)c6ccc3[nH]6)C=C5)C=C4)cc2)cs1
REMARK SMILES IDX 21 1 20 2 19 3 17 4 18 5 16 7 14 8 15 9 91 10 90 11 12 12
REMARK SMILES IDX 13 13 11 14 8 15 9 16 10 18 7 20 6 21 1 22 2 23 3 24 4 25
REMARK SMILES IDX 5 26 22 27 23 28 24 29 25 30 26 32 27 33 28 34 89 35 29 36
REMARK SMILES IDX 88 37 30 38 31 39 32 40 82 41 33 42 87 43 81 44 83 45 34 46
REMARK SMILES IDX 86 47 80 48 79 49 35 51 67 52 47 53 66 54 48 55 51 56 65 57
REMARK SMILES IDX 84 58 49 59 50 60 64 62 85 63 52 64 36 65 37 66 45 67 38 68
REMARK SMILES IDX 44 69 46 70 43 71 39 72 40 73 41 74 42 75 68 76 69 77 77 78
REMARK SMILES IDX 70 79 76 80 78 81 75 82 71 83 72 84 73 85 74 86 53 87 54 88
REMARK SMILES IDX 62 89 55 90 61 91 63 92 60 93 56 94 57 95 58 96 59 97
REMARK H PARENT 19 6 8 17 11 19 24 31 83 50 51 61
REMARK Flexibility Score: inf
ROOT
ATOM      1  C   UNL     1      -2.681   8.428   2.037  1.00  0.00     0.023 C 
ENDROOT
BRANCH   1   2
ATOM      2  C   UNL     1      -2.277   7.835   3.385  1.00  0.00     0.116 C 
BRANCH   2   3
ATOM      3  N   UNL     1      -3.361   7.071   3.973  1.00  0.00    -0.351 N 
ATOM      4  C   UNL     1      -3.564   5.711   4.046  1.00  0.00     0.270 C 
ATOM      5  O   UNL     1      -4.574   5.313   4.623  1.00  0.00    -0.267 OA
ATOM      6  H   UNL     1      -4.068   7.614   4.389  1.00  0.00     0.163 HD
BRANCH   4   7
ATOM      7  C   UNL     1      -2.580   4.771   3.489  1.00  0.00     0.139 A 
ATOM      8  C   UNL     1      -0.731   4.111   2.431  1.00  0.00     0.116 A 
ATOM      9  N   UNL     1      -1.508   5.143   2.683  1.00  0.00    -0.234 NA
ATOM     10  S   UNL     1      -1.286   2.611   3.052  1.00  0.00    -0.124 S 
ATOM     11  C   UNL     1      -2.635   3.408   3.737  1.00  0.00     0.101 A 
BRANCH   8  12
ATOM     12  C   UNL     1       0.576   4.209   1.681  1.00  0.00     0.140 C 
ATOM     13  C   UNL     1       1.556   5.095   2.452  1.00  0.00     0.039 C 
BRANCH  12  14
ATOM     14  N   UNL     1       0.301   4.809   0.383  1.00  0.00    -0.329 N 
ATOM     15  N   UNL     1       1.086   3.348  -1.297  1.00  0.00    -0.334 N 
ATOM     16  C   UNL     1       0.478   4.462  -0.889  1.00  0.00     0.315 C 
ATOM     17  H   UNL     1       1.062   3.246  -2.276  1.00  0.00     0.165 HD
ATOM     18  O   UNL     1       0.038   5.215  -1.759  1.00  0.00    -0.249 OA
ATOM     19  H   UNL     1      -0.123   5.693   0.468  1.00  0.00     0.166 HD
BRANCH  15  20
ATOM     20  C   UNL     1       1.769   2.256  -0.649  1.00  0.00     0.154 C 
BRANCH  20  21
ATOM     21  C   UNL     1       0.836   1.105  -0.382  1.00  0.00    -0.015 A 
ATOM     22  C   UNL     1       2.716  -0.672  -0.033  1.00  0.00     0.045 C 
ATOM     23  C   UNL     1       1.285  -0.247  -0.105  1.00  0.00    -0.035 A 
ATOM     24  C   UNL     1       0.220  -1.109   0.082  1.00  0.00     0.068 A 
ATOM     25  S   UNL     1      -1.292  -0.336  -0.046  1.00  0.00    -0.152 S 
ATOM     26  C   UNL     1      -0.549   1.166  -0.365  1.00  0.00     0.070 A 
ENDBRANCH  20  21
ENDBRANCH  15  20
ENDBRANCH  12  14
ENDBRANCH   8  12
ENDBRANCH   4   7
ENDBRANCH   2   3
ENDBRANCH   1   2
BRANCH   1  27
ATOM     27  C   UNL     1      -3.639   9.621   2.145  1.00  0.00     0.023 C 
BRANCH  27  28
ATOM     28  C   UNL     1      -3.134  10.790   2.989  1.00  0.00     0.116 C 
BRANCH  28  29
ATOM     29  N   UNL     1      -1.848  11.306   2.546  1.00  0.00    -0.352 N 
ATOM     30  C   UNL     1      -1.396  12.604   2.546  1.00  0.00     0.251 C 
ATOM     31  H   UNL     1      -1.217  10.635   2.199  1.00  0.00     0.163 HD
ATOM     32  O   UNL     1      -0.318  12.876   2.026  1.00  0.00    -0.269 OA
BRANCH  30  33
ATOM     33  C   UNL     1      -2.235  13.670   3.135  1.00  0.00     0.039 A 
ATOM     34  C   UNL     1      -2.452  14.836   2.398  1.00  0.00     0.014 A 
ATOM     35  C   UNL     1      -2.828  13.509   4.390  1.00  0.00     0.014 A 
ATOM     36  C   UNL     1      -3.323  15.811   2.889  1.00  0.00     0.010 A 
ATOM     37  C   UNL     1      -3.748  14.450   4.846  1.00  0.00     0.010 A 
ATOM     38  C   UNL     1      -4.011  15.607   4.097  1.00  0.00    -0.014 A 
BRANCH  38  39
ATOM     39  C   UNL     1      -5.025  16.585   4.569  1.00  0.00     0.031 A 
ATOM     40  C   UNL     1      -4.812  17.350   5.847  1.00  0.00     0.074 A 
ATOM     41  C   UNL     1      -6.168  16.741   3.871  1.00  0.00     0.049 A 
ATOM     42  N   UNL     1      -5.595  18.220   6.431  1.00  0.00    -0.248 NA
ATOM     43  C   UNL     1      -3.566  17.076   6.577  1.00  0.00     0.031 C 
ATOM     44  C   UNL     1      -6.513  16.012   2.647  1.00  0.00     0.029 A 
ATOM     45  N   UNL     1      -7.250  17.555   4.087  1.00  0.00    -0.354 N 
ATOM     46  C   UNL     1      -4.942  18.594   7.601  1.00  0.00     0.074 A 
ATOM     47  C   UNL     1      -3.731  17.803   7.672  1.00  0.00     0.031 C 
ATOM     48  C   UNL     1      -7.709  16.434   2.207  1.00  0.00     0.029 A 
ATOM     49  C   UNL     1      -8.235  17.430   3.134  1.00  0.00     0.049 A 
ATOM     50  H   UNL     1      -7.316  18.171   4.852  1.00  0.00     0.167 HD
ATOM     51  C   UNL     1      -5.308  19.526   8.517  1.00  0.00     0.034 A 
ATOM     52  C   UNL     1      -9.430  18.044   3.023  1.00  0.00     0.034 A 
ATOM     53  C   UNL     1      -6.519  20.308   8.425  1.00  0.00     0.049 A 
ATOM     54  C   UNL     1      -9.821  19.066   4.058  1.00  0.00     0.074 A 
ATOM     55  C   UNL     1      -6.955  21.323   9.259  1.00  0.00     0.029 A 
ATOM     56  N   UNL     1      -7.495  20.154   7.449  1.00  0.00    -0.354 N 
ATOM     57  N   UNL     1      -9.160  19.459   5.123  1.00  0.00    -0.248 NA
ATOM     58  C   UNL     1     -11.114  19.736   3.868  1.00  0.00     0.031 C 
ATOM     59  C   UNL     1      -8.223  21.732   8.830  1.00  0.00     0.029 A 
ATOM     60  C   UNL     1      -8.547  21.028   7.681  1.00  0.00     0.049 A 
ATOM     61  H   UNL     1      -7.447  19.516   6.700  1.00  0.00     0.167 HD
ATOM     62  C   UNL     1      -9.949  20.440   5.717  1.00  0.00     0.074 A 
ATOM     63  C   UNL     1     -11.121  20.593   4.879  1.00  0.00     0.031 C 
ATOM     64  C   UNL     1      -9.724  21.153   6.851  1.00  0.00     0.034 A 
BRANCH  51  65
ATOM     65  C   UNL     1      -4.396  19.725   9.705  1.00  0.00     0.023 A 
ATOM     66  C   UNL     1      -3.067  20.162   9.553  1.00  0.00     0.031 A 
ATOM     67  C   UNL     1      -4.846  19.442  11.007  1.00  0.00     0.131 A 
ATOM     68  C   UNL     1      -2.215  20.223  10.666  1.00  0.00     0.055 A 
ATOM     69  C   UNL     1      -4.018  19.588  12.122  1.00  0.00     0.041 A 
ATOM     70  F   UNL     1      -6.097  19.002  11.217  1.00  0.00    -0.206 F 
ATOM     71  C   UNL     1      -2.688  19.963  11.954  1.00  0.00     0.022 A 
BRANCH  68  72
ATOM     72  S   UNL     1      -0.444  20.494  10.386  1.00  0.00     0.124 S 
ATOM     73  O   UNL     1      -0.109  19.375   9.508  1.00  0.00    -0.237 OA
ATOM     74  O   UNL     1      -0.419  21.817   9.774  1.00  0.00    -0.237 OA
ATOM     75  O   UNL     1       0.131  20.415  11.727  1.00  0.00    -0.744 OA
ENDBRANCH  68  72
ENDBRANCH  51  65
BRANCH  52  76
ATOM     76  C   UNL     1     -10.345  17.710   1.894  1.00  0.00     0.023 A 
ATOM     77  C   UNL     1     -10.664  18.663   0.914  1.00  0.00     0.031 A 
ATOM     78  C   UNL     1     -10.938  16.439   1.796  1.00  0.00     0.131 A 
ATOM     79  C   UNL     1     -11.583  18.345  -0.098  1.00  0.00     0.055 A 
ATOM     80  C   UNL     1     -11.813  16.111   0.760  1.00  0.00     0.041 A 
ATOM     81  F   UNL     1     -10.661  15.489   2.704  1.00  0.00    -0.206 F 
ATOM     82  C   UNL     1     -12.150  17.072  -0.189  1.00  0.00     0.022 A 
BRANCH  79  83
ATOM     83  S   UNL     1     -12.087  19.648  -1.255  1.00  0.00     0.124 S 
ATOM     84  O   UNL     1     -12.640  20.651  -0.352  1.00  0.00    -0.237 OA
ATOM     85  O   UNL     1     -10.821  19.990  -1.895  1.00  0.00    -0.237 OA
ATOM     86  O   UNL     1     -13.058  18.979  -2.118  1.00  0.00    -0.744 OA
ENDBRANCH  79  83
ENDBRANCH  52  76
BRANCH  64  87
ATOM     87  C   UNL     1     -10.764  22.181   7.227  1.00  0.00     0.023 A 
ATOM     88  C   UNL     1     -12.069  21.809   7.599  1.00  0.00     0.031 A 
ATOM     89  C   UNL     1     -10.455  23.552   7.185  1.00  0.00     0.131 A 
ATOM     90  C   UNL     1     -13.032  22.798   7.851  1.00  0.00     0.055 A 
ATOM     91  C   UNL     1     -11.400  24.529   7.500  1.00  0.00     0.041 A 
ATOM     92  F   UNL     1      -9.226  23.965   6.833  1.00  0.00    -0.206 F 
ATOM     93  C   UNL     1     -12.701  24.155   7.821  1.00  0.00     0.022 A 
BRANCH  90  94
ATOM     94  S   UNL     1     -14.753  22.288   8.117  1.00  0.00     0.124 S 
ATOM     95  O   UNL     1     -15.047  21.560   6.888  1.00  0.00    -0.237 OA
ATOM     96  O   UNL     1     -14.656  21.481   9.329  1.00  0.00    -0.237 OA
ATOM     97  O   UNL     1     -15.466  23.555   8.273  1.00  0.00    -0.744 OA
ENDBRANCH  90  94
ENDBRANCH  64  87
ENDBRANCH  38  39
ENDBRANCH  30  33
ENDBRANCH  28  29
ENDBRANCH  27  28
ENDBRANCH   1  27
TORSDOF 18
