REMARK SMILES O=C(Cc1ccc(NC(=O)C2CCCC2)cc1)NCCCCNC(=O)c1ccc(-c2c3nc(c(-c4cc(S(=O)(=O)[O-])ccc4F)c4ccc([nH]4)c(-c4cc(S(=O)(=O)[O-])ccc4F)c4nc(c(-c5cc(S(=O)(=O)[O-])ccc5F)c5ccc2[nH]5)C=C4)C=C3)cc1
REMARK SMILES IDX 20 1 19 2 18 3 1 4 2 5 3 7 4 8 5 9 17 10 6 11 16 12 7 13
REMARK SMILES IDX 8 14 9 15 10 17 11 18 12 19 15 20 13 21 14 22 21 23 22 24
REMARK SMILES IDX 23 25 24 26 25 28 26 29 27 30 88 31 28 32 87 33 29 34 30 35
REMARK SMILES IDX 31 36 81 37 32 38 86 39 80 40 82 41 33 42 85 43 79 44 78 45
REMARK SMILES IDX 34 47 66 48 46 49 65 50 47 51 50 52 64 53 83 54 48 55 49 56
REMARK SMILES IDX 63 58 84 59 51 60 35 61 36 62 44 63 37 64 43 65 45 66 42 67
REMARK SMILES IDX 38 68 39 69 40 70 41 71 67 72 68 73 76 74 69 75 75 76 77 77
REMARK SMILES IDX 74 78 70 79 71 80 72 81 73 82 52 83 53 84 61 85 54 86 60 87
REMARK SMILES IDX 62 88 59 89 55 90 56 91 57 92 58 93
REMARK H PARENT 18 6 8 16 23 27 82 46 50 57
REMARK Flexibility Score: inf
ROOT
ATOM      1  C   UNL     1       2.329  -0.715   3.578  1.00  0.00     0.023 C 
ENDROOT
BRANCH   1   2
ATOM      2  C   UNL     1       1.829   0.333   2.588  1.00  0.00     0.116 C 
BRANCH   2   3
ATOM      3  N   UNL     1       2.433   0.171   1.289  1.00  0.00    -0.356 N 
ATOM      4  O   UNL     1       0.506  -0.291   0.122  1.00  0.00    -0.275 OA
ATOM      5  C   UNL     1       1.716  -0.080   0.140  1.00  0.00     0.224 C 
ATOM      6  H   UNL     1       3.413   0.243   1.219  1.00  0.00     0.163 HD
BRANCH   5   7
ATOM      7  C   UNL     1       2.558  -0.141  -1.121  1.00  0.00     0.135 C 
BRANCH   7   8
ATOM      8  C   UNL     1       3.500   1.029  -1.269  1.00  0.00    -0.039 A 
ATOM      9  C   UNL     1       4.816   0.941  -0.801  1.00  0.00     0.006 A 
ATOM     10  C   UNL     1       3.061   2.234  -1.828  1.00  0.00     0.006 A 
ATOM     11  C   UNL     1       5.697   2.005  -0.974  1.00  0.00     0.026 A 
ATOM     12  C   UNL     1       3.971   3.265  -2.062  1.00  0.00     0.026 A 
ATOM     13  C   UNL     1       5.319   3.094  -1.739  1.00  0.00     0.041 A 
BRANCH  13  14
ATOM     14  N   UNL     1       6.229   4.018  -2.249  1.00  0.00    -0.326 N 
ATOM     15  C   UNL     1       7.514   3.916  -2.679  1.00  0.00     0.227 C 
ATOM     16  H   UNL     1       5.867   4.931  -2.310  1.00  0.00     0.169 HD
ATOM     17  O   UNL     1       8.009   4.987  -3.067  1.00  0.00    -0.274 OA
BRANCH  15  18
ATOM     18  C   UNL     1       8.373   2.636  -2.736  1.00  0.00     0.079 C 
ATOM     19  C   UNL     1       7.786   1.240  -2.929  1.00  0.00     0.013 C 
ATOM     20  C   UNL     1       9.265   2.734  -3.996  1.00  0.00     0.013 C 
ATOM     21  C   UNL     1       8.937   0.395  -3.454  1.00  0.00     0.001 C 
ATOM     22  C   UNL     1       9.758   1.328  -4.317  1.00  0.00     0.001 C 
ENDBRANCH  15  18
ENDBRANCH  13  14
ENDBRANCH   7   8
ENDBRANCH   5   7
ENDBRANCH   2   3
ENDBRANCH   1   2
BRANCH   1  23
ATOM     23  C   UNL     1       3.840  -0.698   3.842  1.00  0.00     0.023 C 
BRANCH  23  24
ATOM     24  C   UNL     1       4.414   0.627   4.339  1.00  0.00     0.116 C 
BRANCH  24  25
ATOM     25  N   UNL     1       3.826   1.060   5.595  1.00  0.00    -0.352 N 
ATOM     26  C   UNL     1       4.431   1.408   6.781  1.00  0.00     0.251 C 
ATOM     27  H   UNL     1       2.843   1.112   5.598  1.00  0.00     0.163 HD
ATOM     28  O   UNL     1       3.739   1.591   7.776  1.00  0.00    -0.269 OA
BRANCH  26  29
ATOM     29  C   UNL     1       5.906   1.531   6.868  1.00  0.00     0.039 A 
ATOM     30  C   UNL     1       6.560   0.998   7.983  1.00  0.00     0.014 A 
ATOM     31  C   UNL     1       6.646   2.174   5.872  1.00  0.00     0.014 A 
ATOM     32  C   UNL     1       7.955   1.043   8.061  1.00  0.00     0.010 A 
ATOM     33  C   UNL     1       8.040   2.151   5.915  1.00  0.00     0.010 A 
ATOM     34  C   UNL     1       8.712   1.581   7.007  1.00  0.00    -0.014 A 
BRANCH  34  35
ATOM     35  C   UNL     1      10.201   1.536   7.025  1.00  0.00     0.031 A 
ATOM     36  C   UNL     1      11.003   2.811   7.034  1.00  0.00     0.074 A 
ATOM     37  C   UNL     1      10.833   0.345   6.979  1.00  0.00     0.049 A 
ATOM     38  N   UNL     1      12.301   2.971   6.983  1.00  0.00    -0.248 NA
ATOM     39  C   UNL     1      10.245   4.070   7.081  1.00  0.00     0.031 C 
ATOM     40  C   UNL     1      10.171  -0.961   6.945  1.00  0.00     0.029 A 
ATOM     41  N   UNL     1      12.171   0.036   6.952  1.00  0.00    -0.354 N 
ATOM     42  C   UNL     1      12.515   4.346   6.978  1.00  0.00     0.074 A 
ATOM     43  C   UNL     1      11.210   4.971   6.977  1.00  0.00     0.031 C 
ATOM     44  C   UNL     1      11.103  -1.927   6.944  1.00  0.00     0.029 A 
ATOM     45  C   UNL     1      12.428  -1.316   6.918  1.00  0.00     0.049 A 
ATOM     46  H   UNL     1      12.881   0.718   6.957  1.00  0.00     0.167 HD
ATOM     47  C   UNL     1      13.691   5.022   6.990  1.00  0.00     0.034 A 
ATOM     48  C   UNL     1      13.594  -1.990   6.861  1.00  0.00     0.034 A 
ATOM     49  C   UNL     1      14.987   4.385   7.005  1.00  0.00     0.049 A 
ATOM     50  C   UNL     1      14.886  -1.212   6.830  1.00  0.00     0.074 A 
ATOM     51  C   UNL     1      16.235   4.979   7.077  1.00  0.00     0.029 A 
ATOM     52  N   UNL     1      15.205   3.015   6.936  1.00  0.00    -0.354 N 
ATOM     53  N   UNL     1      15.070   0.087   6.861  1.00  0.00    -0.248 NA
ATOM     54  C   UNL     1      16.127  -1.995   6.761  1.00  0.00     0.031 C 
ATOM     55  C   UNL     1      17.206   3.979   6.965  1.00  0.00     0.029 A 
ATOM     56  C   UNL     1      16.567   2.750   6.921  1.00  0.00     0.049 A 
ATOM     57  H   UNL     1      14.497   2.332   6.902  1.00  0.00     0.167 HD
ATOM     58  C   UNL     1      16.451   0.274   6.855  1.00  0.00     0.074 A 
ATOM     59  C   UNL     1      17.048  -1.045   6.827  1.00  0.00     0.031 C 
ATOM     60  C   UNL     1      17.158   1.433   6.879  1.00  0.00     0.034 A 
BRANCH  47  61
ATOM     61  C   UNL     1      13.633   6.532   6.954  1.00  0.00     0.023 A 
ATOM     62  C   UNL     1      13.052   7.279   7.993  1.00  0.00     0.031 A 
ATOM     63  C   UNL     1      14.172   7.235   5.861  1.00  0.00     0.131 A 
ATOM     64  C   UNL     1      12.967   8.676   7.889  1.00  0.00     0.055 A 
ATOM     65  C   UNL     1      14.158   8.630   5.802  1.00  0.00     0.041 A 
ATOM     66  F   UNL     1      14.721   6.576   4.828  1.00  0.00    -0.206 F 
ATOM     67  C   UNL     1      13.541   9.358   6.814  1.00  0.00     0.022 A 
BRANCH  64  68
ATOM     68  S   UNL     1      11.978   9.578   9.112  1.00  0.00     0.124 S 
ATOM     69  O   UNL     1      10.666   8.958   8.946  1.00  0.00    -0.237 OA
ATOM     70  O   UNL     1      12.672   9.281  10.360  1.00  0.00    -0.237 OA
ATOM     71  O   UNL     1      12.063  10.967   8.666  1.00  0.00    -0.744 OA
ENDBRANCH  64  68
ENDBRANCH  47  61
BRANCH  48  72
ATOM     72  C   UNL     1      13.607  -3.481   6.829  1.00  0.00     0.023 A 
ATOM     73  C   UNL     1      14.189  -4.218   7.874  1.00  0.00     0.031 A 
ATOM     74  C   UNL     1      13.079  -4.193   5.737  1.00  0.00     0.131 A 
ATOM     75  C   UNL     1      14.270  -5.616   7.785  1.00  0.00     0.055 A 
ATOM     76  C   UNL     1      13.110  -5.587   5.681  1.00  0.00     0.041 A 
ATOM     77  F   UNL     1      12.511  -3.539   4.711  1.00  0.00    -0.206 F 
ATOM     78  C   UNL     1      13.720  -6.307   6.703  1.00  0.00     0.022 A 
BRANCH  75  79
ATOM     79  S   UNL     1      15.184  -6.516   9.068  1.00  0.00     0.124 S 
ATOM     80  O   UNL     1      16.511  -5.922   8.957  1.00  0.00    -0.237 OA
ATOM     81  O   UNL     1      14.428  -6.180  10.270  1.00  0.00    -0.237 OA
ATOM     82  O   UNL     1      15.084  -7.910   8.641  1.00  0.00    -0.744 OA
ENDBRANCH  75  79
ENDBRANCH  48  72
BRANCH  60  83
ATOM     83  C   UNL     1      18.664   1.322   6.928  1.00  0.00     0.023 A 
ATOM     84  C   UNL     1      19.406   0.779   5.865  1.00  0.00     0.031 A 
ATOM     85  C   UNL     1      19.367   1.764   8.064  1.00  0.00     0.131 A 
ATOM     86  C   UNL     1      20.797   0.637   5.983  1.00  0.00     0.055 A 
ATOM     87  C   UNL     1      20.758   1.685   8.147  1.00  0.00     0.041 A 
ATOM     88  F   UNL     1      18.712   2.287   9.113  1.00  0.00    -0.206 F 
ATOM     89  C   UNL     1      21.480   1.106   7.108  1.00  0.00     0.022 A 
BRANCH  86  90
ATOM     90  S   UNL     1      21.694  -0.263   4.688  1.00  0.00     0.124 S 
ATOM     91  O   UNL     1      21.024  -1.560   4.702  1.00  0.00    -0.237 OA
ATOM     92  O   UNL     1      21.457   0.564   3.510  1.00  0.00    -0.237 OA
ATOM     93  O   UNL     1      23.074  -0.274   5.170  1.00  0.00    -0.744 OA
ENDBRANCH  86  90
ENDBRANCH  60  83
ENDBRANCH  34  35
ENDBRANCH  26  29
ENDBRANCH  24  25
ENDBRANCH  23  24
ENDBRANCH   1  23
TORSDOF 17
