REMARK SMILES CC[N@@H+]1CCO[C@H](C[N@H+]2CCCCC[C@@H]2C(=O)NCCCCNC(=O)c2ccc(-c3c4nc(c(-c5cc(S(=O)(=O)[O-])ccc5F)c5ccc([nH]5)c(-c5cc(S(=O)(=O)[O-])ccc5F)c5nc(c(-c6cc(S(=O)(=O)[O-])ccc6F)c6ccc3[nH]6)C=C5)C=C4)cc2)C1
REMARK SMILES IDX 20 1 19 2 18 3 16 4 17 5 15 7 9 8 8 10 7 11 3 12 4 13 89 14
REMARK SMILES IDX 5 16 6 17 2 18 1 19 10 20 11 21 14 23 13 24 12 25 21 27
REMARK SMILES IDX 22 28 23 29 24 30 25 32 26 33 27 34 88 35 28 36 87 37 29 38
REMARK SMILES IDX 30 39 31 40 81 41 32 42 86 43 80 44 82 45 33 46 85 47 79 48
REMARK SMILES IDX 78 49 34 51 66 52 46 53 65 54 47 55 50 56 64 57 83 58 48 59
REMARK SMILES IDX 49 60 63 62 84 63 51 64 35 65 36 66 44 67 37 68 43 69 45 70
REMARK SMILES IDX 42 71 38 72 39 73 40 74 41 75 67 76 68 77 76 78 69 79 75 80
REMARK SMILES IDX 77 81 74 82 70 83 71 84 72 85 73 86 52 87 53 88 61 89 54 90
REMARK SMILES IDX 60 91 62 92 59 93 55 94 56 95 57 96 58 97
REMARK H PARENT 18 6 9 9 3 15 23 31 82 50 50 61
REMARK Flexibility Score: 100.00
ROOT
ATOM      1  C   UNL     1      -3.514  -2.298   5.943  1.00  0.00     0.023 C 
ENDROOT
BRANCH   1   2
ATOM      2  C   UNL     1      -3.091  -1.919   4.524  1.00  0.00     0.116 C 
BRANCH   2   3
ATOM      3  N   UNL     1      -2.045  -0.923   4.531  1.00  0.00    -0.351 N 
ATOM      4  C   UNL     1      -0.724  -1.036   4.221  1.00  0.00     0.278 C 
ATOM      5  O   UNL     1      -0.050   0.001   4.294  1.00  0.00    -0.268 OA
ATOM      6  H   UNL     1      -2.333  -0.021   4.803  1.00  0.00     0.163 HD
BRANCH   4   7
ATOM      7  C   UNL     1      -0.039  -2.371   3.789  1.00  0.00     0.274 C 
BRANCH   7   8
ATOM      8  N   UNL     1      -0.640  -2.897   2.538  1.00  0.00    -0.322 N 
ATOM      9  H   UNL     1      -1.636  -2.701   2.638  1.00  0.00     0.348 HD
BRANCH   8  10
ATOM     10  C   UNL     1      -0.048  -2.190   1.355  1.00  0.00     0.301 C 
BRANCH  10  11
ATOM     11  C   UNL     1       1.373  -2.665   0.902  1.00  0.00     0.228 C 
ATOM     12  N   UNL     1       1.745  -1.456  -1.333  1.00  0.00    -0.331 N 
ATOM     13  C   UNL     1       1.586  -2.782  -1.964  1.00  0.00     0.291 C 
ATOM     14  C   UNL     1       2.166  -1.635   0.067  1.00  0.00     0.300 C 
ATOM     15  H   UNL     1       2.492  -0.936  -1.794  1.00  0.00     0.348 HD
ATOM     16  C   UNL     1       0.818  -3.813  -1.122  1.00  0.00     0.222 C 
ATOM     17  O   UNL     1       1.346  -3.929   0.204  1.00  0.00    -0.361 OA
BRANCH  12  18
ATOM     18  C   UNL     1       0.581  -0.592  -1.541  1.00  0.00     0.258 C 
ATOM     19  C   UNL     1       0.738   0.800  -0.934  1.00  0.00     0.071 C 
ENDBRANCH  12  18
ENDBRANCH  10  11
ENDBRANCH   8  10
BRANCH   8  20
ATOM     20  C   UNL     1      -0.587  -4.348   2.337  1.00  0.00     0.262 C 
BRANCH  20  21
ATOM     21  C   UNL     1      -1.533  -5.169   3.209  1.00  0.00     0.061 CG0
ATOM     22  G   UNL     1      -0.977  -5.496   4.583  1.00  0.00     0.000 G0
ENDBRANCH  20  21
ENDBRANCH   8  20
ENDBRANCH   7   8
BRANCH   7  23
ATOM     23  C   UNL     1       0.326  -3.302   4.955  1.00  0.00     0.076 C 
BRANCH  23  24
ATOM     24  C   UNL     1      -0.684  -4.307   5.479  1.00  0.00     0.007 C 
BRANCH  24  25
ATOM     25  C   UNL     1      -0.977  -5.496   4.583  1.00  0.00     0.006 CG0
ATOM     26  G   UNL     1      -1.533  -5.169   3.209  1.00  0.00     0.000 G0
ENDBRANCH  24  25
ENDBRANCH  23  24
ENDBRANCH   7  23
ENDBRANCH   4   7
ENDBRANCH   2   3
ENDBRANCH   1   2
BRANCH   1  27
ATOM     27  C   UNL     1      -4.607  -1.433   6.550  1.00  0.00     0.023 C 
BRANCH  27  28
ATOM     28  C   UNL     1      -5.929  -1.450   5.799  1.00  0.00     0.116 C 
BRANCH  28  29
ATOM     29  N   UNL     1      -6.485  -2.784   5.604  1.00  0.00    -0.352 N 
ATOM     30  C   UNL     1      -7.792  -3.191   5.751  1.00  0.00     0.251 C 
ATOM     31  H   UNL     1      -5.844  -3.482   5.334  1.00  0.00     0.163 HD
ATOM     32  O   UNL     1      -8.095  -4.375   5.635  1.00  0.00    -0.269 OA
BRANCH  30  33
ATOM     33  C   UNL     1      -8.808  -2.179   6.101  1.00  0.00     0.039 A 
ATOM     34  C   UNL     1      -9.617  -2.384   7.219  1.00  0.00     0.014 A 
ATOM     35  C   UNL     1      -8.865  -0.978   5.389  1.00  0.00     0.014 A 
ATOM     36  C   UNL     1     -10.421  -1.340   7.680  1.00  0.00     0.010 A 
ATOM     37  C   UNL     1      -9.586   0.088   5.909  1.00  0.00     0.010 A 
ATOM     38  C   UNL     1     -10.372  -0.080   7.060  1.00  0.00    -0.014 A 
BRANCH  38  39
ATOM     39  C   UNL     1     -11.143   1.077   7.583  1.00  0.00     0.031 A 
ATOM     40  C   UNL     1     -12.181   1.729   6.710  1.00  0.00     0.074 A 
ATOM     41  C   UNL     1     -10.853   1.589   8.796  1.00  0.00     0.049 A 
ATOM     42  N   UNL     1     -12.882   2.812   6.922  1.00  0.00    -0.248 NA
ATOM     43  C   UNL     1     -12.426   1.101   5.403  1.00  0.00     0.031 C 
ATOM     44  C   UNL     1      -9.827   1.079   9.709  1.00  0.00     0.029 A 
ATOM     45  N   UNL     1     -11.387   2.660   9.467  1.00  0.00    -0.354 N 
ATOM     46  C   UNL     1     -13.632   3.007   5.767  1.00  0.00     0.074 A 
ATOM     47  C   UNL     1     -13.240   1.975   4.832  1.00  0.00     0.031 C 
ATOM     48  C   UNL     1      -9.830   1.817  10.832  1.00  0.00     0.029 A 
ATOM     49  C   UNL     1     -10.822   2.878  10.703  1.00  0.00     0.049 A 
ATOM     50  H   UNL     1     -12.108   3.220   9.099  1.00  0.00     0.167 HD
ATOM     51  C   UNL     1     -14.583   3.942   5.519  1.00  0.00     0.034 A 
ATOM     52  C   UNL     1     -11.074   3.830  11.623  1.00  0.00     0.034 A 
ATOM     53  C   UNL     1     -14.981   4.944   6.475  1.00  0.00     0.049 A 
ATOM     54  C   UNL     1     -12.140   4.856  11.331  1.00  0.00     0.074 A 
ATOM     55  C   UNL     1     -15.973   5.902   6.360  1.00  0.00     0.029 A 
ATOM     56  N   UNL     1     -14.405   5.118   7.728  1.00  0.00    -0.354 N 
ATOM     57  N   UNL     1     -12.878   4.997  10.253  1.00  0.00    -0.248 NA
ATOM     58  C   UNL     1     -12.415   5.843  12.383  1.00  0.00     0.031 C 
ATOM     59  C   UNL     1     -15.959   6.689   7.518  1.00  0.00     0.029 A 
ATOM     60  C   UNL     1     -15.005   6.180   8.386  1.00  0.00     0.049 A 
ATOM     61  H   UNL     1     -13.677   4.567   8.095  1.00  0.00     0.167 HD
ATOM     62  C   UNL     1     -13.726   6.070  10.513  1.00  0.00     0.074 A 
ATOM     63  C   UNL     1     -13.416   6.529  11.852  1.00  0.00     0.031 C 
ATOM     64  C   UNL     1     -14.677   6.625   9.719  1.00  0.00     0.034 A 
BRANCH  51  65
ATOM     65  C   UNL     1     -15.234   3.919   4.157  1.00  0.00     0.023 A 
ATOM     66  C   UNL     1     -15.969   2.806   3.711  1.00  0.00     0.031 A 
ATOM     67  C   UNL     1     -15.076   4.999   3.271  1.00  0.00     0.131 A 
ATOM     68  C   UNL     1     -16.436   2.758   2.389  1.00  0.00     0.055 A 
ATOM     69  C   UNL     1     -15.623   4.983   1.986  1.00  0.00     0.041 A 
ATOM     70  F   UNL     1     -14.368   6.081   3.631  1.00  0.00    -0.206 F 
ATOM     71  C   UNL     1     -16.291   3.850   1.531  1.00  0.00     0.022 A 
BRANCH  68  72
ATOM     72  S   UNL     1     -17.090   1.187   1.762  1.00  0.00     0.124 S 
ATOM     73  O   UNL     1     -15.939   0.302   1.931  1.00  0.00    -0.237 OA
ATOM     74  O   UNL     1     -18.222   0.939   2.647  1.00  0.00    -0.237 OA
ATOM     75  O   UNL     1     -17.436   1.489   0.374  1.00  0.00    -0.744 OA
ENDBRANCH  68  72
ENDBRANCH  51  65
BRANCH  52  76
ATOM     76  C   UNL     1     -10.316   3.865  12.907  1.00  0.00     0.023 A 
ATOM     77  C   UNL     1     -10.962   3.635  14.132  1.00  0.00     0.031 A 
ATOM     78  C   UNL     1      -8.943   4.168  12.932  1.00  0.00     0.131 A 
ATOM     79  C   UNL     1     -10.248   3.758  15.335  1.00  0.00     0.055 A 
ATOM     80  C   UNL     1      -8.226   4.241  14.128  1.00  0.00     0.041 A 
ATOM     81  F   UNL     1      -8.275   4.388  11.788  1.00  0.00    -0.206 F 
ATOM     82  C   UNL     1      -8.882   4.048  15.340  1.00  0.00     0.022 A 
BRANCH  79  83
ATOM     83  S   UNL     1     -11.152   3.609  16.900  1.00  0.00     0.124 S 
ATOM     84  O   UNL     1     -12.150   4.664  16.769  1.00  0.00    -0.237 OA
ATOM     85  O   UNL     1     -11.652   2.240  16.832  1.00  0.00    -0.237 OA
ATOM     86  O   UNL     1     -10.123   3.845  17.911  1.00  0.00    -0.744 OA
ENDBRANCH  79  83
ENDBRANCH  52  76
BRANCH  64  87
ATOM     87  C   UNL     1     -15.480   7.758  10.307  1.00  0.00     0.023 A 
ATOM     88  C   UNL     1     -14.900   9.008  10.586  1.00  0.00     0.031 A 
ATOM     89  C   UNL     1     -16.844   7.579  10.597  1.00  0.00     0.131 A 
ATOM     90  C   UNL     1     -15.670  10.014  11.189  1.00  0.00     0.055 A 
ATOM     91  C   UNL     1     -17.618   8.602  11.144  1.00  0.00     0.041 A 
ATOM     92  F   UNL     1     -17.446   6.404  10.350  1.00  0.00    -0.206 F 
ATOM     93  C   UNL     1     -17.029   9.824  11.454  1.00  0.00     0.022 A 
BRANCH  90  94
ATOM     94  S   UNL     1     -14.850  11.549  11.700  1.00  0.00     0.124 S 
ATOM     95  O   UNL     1     -13.837  11.057  12.628  1.00  0.00    -0.237 OA
ATOM     96  O   UNL     1     -14.353  12.074  10.433  1.00  0.00    -0.237 OA
ATOM     97  O   UNL     1     -15.927  12.325  12.312  1.00  0.00    -0.744 OA
ENDBRANCH  90  94
ENDBRANCH  64  87
ENDBRANCH  38  39
ENDBRANCH  30  33
ENDBRANCH  28  29
ENDBRANCH  27  28
ENDBRANCH   1  27
TORSDOF 17
