REMARK SMILES CC(C)N1C[C@@H](C(=O)NCCCCNC(=O)c2ccc(-c3c4nc(c(-c5cc(S(=O)(=O)[O-])ccc5F)c5ccc([nH]5)c(-c5cc(S(=O)(=O)[O-])ccc5F)c5nc(c(-c6cc(S(=O)(=O)[O-])ccc6F)c6ccc3[nH]6)C=C5)C=C4)cc2)CC1=O
REMARK SMILES IDX 12 1 11 2 10 3 9 4 7 5 8 6 6 8 4 9 5 10 81 11 80 12 82 13
REMARK SMILES IDX 2 14 1 15 3 16 13 17 14 18 15 19 16 21 17 22 18 23 79 24
REMARK SMILES IDX 19 25 78 26 20 27 21 28 22 29 72 30 23 31 77 32 71 33 73 34
REMARK SMILES IDX 24 35 76 36 70 37 69 38 25 40 57 41 37 42 56 43 38 44 41 45
REMARK SMILES IDX 55 46 74 47 39 48 40 49 54 51 75 52 42 53 26 54 27 55 35 56
REMARK SMILES IDX 28 57 34 58 36 59 33 60 29 61 30 62 31 63 32 64 58 65 59 66
REMARK SMILES IDX 67 67 60 68 66 69 68 70 65 71 61 72 62 73 63 74 64 75 43 76
REMARK SMILES IDX 44 77 52 78 45 79 51 80 53 81 50 82 46 83 47 84 48 85 49 86
REMARK H PARENT 9 7 14 20 73 39 41 50
REMARK Flexibility Score: inf
ROOT
ATOM      1  C   UNL     1      -5.330  -2.073   4.636  1.00  0.00     0.023 C 
ENDROOT
BRANCH   1   2
ATOM      2  C   UNL     1      -4.251  -1.395   3.790  1.00  0.00     0.023 C 
BRANCH   2   3
ATOM      3  C   UNL     1      -3.435  -2.340   2.910  1.00  0.00     0.116 C 
BRANCH   3   4
ATOM      4  N   UNL     1      -4.250  -2.980   1.891  1.00  0.00    -0.356 N 
ATOM      5  C   UNL     1      -4.228  -2.893   0.536  1.00  0.00     0.225 C 
ATOM      6  O   UNL     1      -5.042  -3.575  -0.092  1.00  0.00    -0.275 OA
ATOM      7  H   UNL     1      -4.941  -3.584   2.247  1.00  0.00     0.163 HD
BRANCH   5   8
ATOM      8  C   UNL     1      -3.242  -2.023  -0.216  1.00  0.00     0.107 C 
ATOM      9  N   UNL     1      -1.047  -1.248   0.142  1.00  0.00    -0.339 N 
ATOM     10  C   UNL     1      -1.805  -2.467  -0.025  1.00  0.00     0.133 C 
ATOM     11  C   UNL     1      -1.859  -0.143   0.338  1.00  0.00     0.223 C 
ATOM     12  C   UNL     1      -3.296  -0.545   0.141  1.00  0.00     0.115 C 
ATOM     13  O   UNL     1      -1.507   0.991   0.625  1.00  0.00    -0.275 OA
BRANCH   9  14
ATOM     14  C   UNL     1       0.411  -1.293   0.303  1.00  0.00     0.078 C 
ATOM     15  C   UNL     1       1.121  -0.019  -0.159  1.00  0.00     0.031 C 
ATOM     16  C   UNL     1       0.802  -1.634   1.739  1.00  0.00     0.031 C 
ENDBRANCH   9  14
ENDBRANCH   5   8
ENDBRANCH   3   4
ENDBRANCH   2   3
ENDBRANCH   1   2
BRANCH   1  17
ATOM     17  C   UNL     1      -4.839  -3.203   5.534  1.00  0.00     0.116 C 
BRANCH  17  18
ATOM     18  N   UNL     1      -3.813  -2.777   6.471  1.00  0.00    -0.352 N 
ATOM     19  C   UNL     1      -3.724  -3.014   7.823  1.00  0.00     0.251 C 
ATOM     20  H   UNL     1      -3.080  -2.245   6.085  1.00  0.00     0.163 HD
ATOM     21  O   UNL     1      -2.859  -2.446   8.484  1.00  0.00    -0.269 OA
BRANCH  19  22
ATOM     22  C   UNL     1      -4.693  -3.922   8.474  1.00  0.00     0.039 A 
ATOM     23  C   UNL     1      -5.289  -3.529   9.675  1.00  0.00     0.014 A 
ATOM     24  C   UNL     1      -5.029  -5.147   7.892  1.00  0.00     0.014 A 
ATOM     25  C   UNL     1      -6.268  -4.337  10.258  1.00  0.00     0.010 A 
ATOM     26  C   UNL     1      -6.064  -5.907   8.428  1.00  0.00     0.010 A 
ATOM     27  C   UNL     1      -6.691  -5.516   9.621  1.00  0.00    -0.014 A 
BRANCH  27  28
ATOM     28  C   UNL     1      -7.766  -6.365  10.200  1.00  0.00     0.031 A 
ATOM     29  C   UNL     1      -7.462  -7.779  10.617  1.00  0.00     0.074 A 
ATOM     30  C   UNL     1      -9.023  -5.886  10.298  1.00  0.00     0.049 A 
ATOM     31  N   UNL     1      -8.271  -8.704  11.068  1.00  0.00    -0.248 NA
ATOM     32  C   UNL     1      -6.066  -8.221  10.476  1.00  0.00     0.031 C 
ATOM     33  C   UNL     1      -9.450  -4.545   9.894  1.00  0.00     0.029 A 
ATOM     34  N   UNL     1     -10.174  -6.473  10.762  1.00  0.00    -0.354 N 
ATOM     35  C   UNL     1      -7.486  -9.838  11.252  1.00  0.00     0.074 A 
ATOM     36  C   UNL     1      -6.154  -9.503  10.795  1.00  0.00     0.031 C 
ATOM     37  C   UNL     1     -10.760  -4.403  10.155  1.00  0.00     0.029 A 
ATOM     38  C   UNL     1     -11.279  -5.655  10.696  1.00  0.00     0.049 A 
ATOM     39  H   UNL     1     -10.206  -7.394  11.110  1.00  0.00     0.167 HD
ATOM     40  C   UNL     1      -7.837 -11.038  11.778  1.00  0.00     0.034 A 
ATOM     41  C   UNL     1     -12.566  -5.891  11.022  1.00  0.00     0.034 A 
ATOM     42  C   UNL     1      -9.168 -11.351  12.238  1.00  0.00     0.049 A 
ATOM     43  C   UNL     1     -12.940  -7.244  11.576  1.00  0.00     0.074 A 
ATOM     44  C   UNL     1      -9.624 -12.517  12.827  1.00  0.00     0.029 A 
ATOM     45  N   UNL     1     -10.261 -10.497  12.155  1.00  0.00    -0.354 N 
ATOM     46  N   UNL     1     -12.176  -8.293  11.785  1.00  0.00    -0.248 NA
ATOM     47  C   UNL     1     -14.345  -7.440  11.953  1.00  0.00     0.031 C 
ATOM     48  C   UNL     1     -11.002 -12.398  13.030  1.00  0.00     0.029 A 
ATOM     49  C   UNL     1     -11.393 -11.122  12.655  1.00  0.00     0.049 A 
ATOM     50  H   UNL     1     -10.235  -9.581  11.795  1.00  0.00     0.167 HD
ATOM     51  C   UNL     1     -13.004  -9.257  12.357  1.00  0.00     0.074 A 
ATOM     52  C   UNL     1     -14.318  -8.660  12.469  1.00  0.00     0.031 C 
ATOM     53  C   UNL     1     -12.702 -10.518  12.760  1.00  0.00     0.034 A 
BRANCH  40  54
ATOM     54  C   UNL     1      -6.767 -12.103  11.855  1.00  0.00     0.023 A 
ATOM     55  C   UNL     1      -5.598 -11.924  12.617  1.00  0.00     0.031 A 
ATOM     56  C   UNL     1      -6.901 -13.302  11.133  1.00  0.00     0.131 A 
ATOM     57  C   UNL     1      -4.578 -12.886  12.574  1.00  0.00     0.055 A 
ATOM     58  C   UNL     1      -5.921 -14.297  11.168  1.00  0.00     0.041 A 
ATOM     59  F   UNL     1      -7.981 -13.524  10.368  1.00  0.00    -0.206 F 
ATOM     60  C   UNL     1      -4.743 -14.085  11.878  1.00  0.00     0.022 A 
BRANCH  57  61
ATOM     61  S   UNL     1      -2.971 -12.476  13.309  1.00  0.00     0.124 S 
ATOM     62  O   UNL     1      -2.605 -11.274  12.564  1.00  0.00    -0.237 OA
ATOM     63  O   UNL     1      -3.307 -12.280  14.714  1.00  0.00    -0.237 OA
ATOM     64  O   UNL     1      -2.152 -13.652  13.020  1.00  0.00    -0.744 OA
ENDBRANCH  57  61
ENDBRANCH  40  54
BRANCH  41  65
ATOM     65  C   UNL     1     -13.603  -4.835  10.831  1.00  0.00     0.023 A 
ATOM     66  C   UNL     1     -14.305  -4.302  11.924  1.00  0.00     0.031 A 
ATOM     67  C   UNL     1     -13.945  -4.378   9.545  1.00  0.00     0.131 A 
ATOM     68  C   UNL     1     -15.347  -3.386  11.710  1.00  0.00     0.055 A 
ATOM     69  C   UNL     1     -14.942  -3.422   9.342  1.00  0.00     0.041 A 
ATOM     70  F   UNL     1     -13.306  -4.851   8.464  1.00  0.00    -0.206 F 
ATOM     71  C   UNL     1     -15.660  -2.932  10.427  1.00  0.00     0.022 A 
BRANCH  68  72
ATOM     72  S   UNL     1     -16.358  -2.873  13.126  1.00  0.00     0.124 S 
ATOM     73  O   UNL     1     -16.858  -4.154  13.612  1.00  0.00    -0.237 OA
ATOM     74  O   UNL     1     -15.375  -2.205  13.973  1.00  0.00    -0.237 OA
ATOM     75  O   UNL     1     -17.362  -1.997  12.527  1.00  0.00    -0.744 OA
ENDBRANCH  68  72
ENDBRANCH  41  65
BRANCH  53  76
ATOM     76  C   UNL     1     -13.802 -11.313  13.423  1.00  0.00     0.023 A 
ATOM     77  C   UNL     1     -14.961 -11.707  12.731  1.00  0.00     0.031 A 
ATOM     78  C   UNL     1     -13.690 -11.671  14.779  1.00  0.00     0.131 A 
ATOM     79  C   UNL     1     -15.987 -12.380  13.412  1.00  0.00     0.055 A 
ATOM     80  C   UNL     1     -14.683 -12.401  15.433  1.00  0.00     0.041 A 
ATOM     81  F   UNL     1     -12.608 -11.319  15.492  1.00  0.00    -0.206 F 
ATOM     82  C   UNL     1     -15.847 -12.746  14.753  1.00  0.00     0.022 A 
BRANCH  79  83
ATOM     83  S   UNL     1     -17.557 -12.675  12.552  1.00  0.00     0.124 S 
ATOM     84  O   UNL     1     -17.950 -11.323  12.167  1.00  0.00    -0.237 OA
ATOM     85  O   UNL     1     -17.154 -13.556  11.462  1.00  0.00    -0.237 OA
ATOM     86  O   UNL     1     -18.396 -13.297  13.574  1.00  0.00    -0.744 OA
ENDBRANCH  79  83
ENDBRANCH  53  76
ENDBRANCH  27  28
ENDBRANCH  19  22
ENDBRANCH  17  18
ENDBRANCH   1  17
TORSDOF 15
