REMARK SMILES O=C(NCCCCNC(=O)c1cc(-c2cc(Cl)ccc2Cl)cc([N+](=O)[O-])c1)c1ccc(-c2c3nc(c(-c4cc(S(=O)(=O)[O-])ccc4F)c4ccc([nH]4)c(-c4cc(S(=O)(=O)[O-])ccc4F)c4nc(c(-c5cc(S(=O)(=O)[O-])ccc5F)c5ccc2[nH]5)C=C4)C=C3)cc1
REMARK SMILES IDX 4 1 3 2 1 3 2 4 28 6 29 7 90 8 30 9 89 10 31 11 32 12 33 13
REMARK SMILES IDX 83 14 34 15 88 16 82 17 84 18 35 19 87 20 81 21 80 22 36 24
REMARK SMILES IDX 68 25 48 26 67 27 49 28 52 29 66 30 85 31 50 32 51 33 65 35
REMARK SMILES IDX 86 36 53 37 37 38 38 39 46 40 39 41 45 42 47 43 44 44 40 45
REMARK SMILES IDX 41 46 42 47 43 48 69 49 70 50 78 51 71 52 77 53 79 54 76 55
REMARK SMILES IDX 72 56 73 57 74 58 75 59 54 60 55 61 63 62 56 63 62 64 64 65
REMARK SMILES IDX 61 66 57 67 58 68 59 69 60 70 5 71 6 72 7 73 8 74 9 75 10 77
REMARK SMILES IDX 11 78 12 79 27 80 13 81 23 82 22 83 14 84 15 85 20 86 16 87
REMARK SMILES IDX 19 88 21 89 17 90 18 91 24 92 25 93 26 94
REMARK H PARENT 3 5 84 23 52 34 8 76
REMARK Flexibility Score: inf
ROOT
ATOM      1  C   UNL     1       4.630   1.210  -0.094  1.00  0.00     0.116 C 
ENDROOT
BRANCH   1   2
ATOM      2  N   UNL     1       3.197   1.045   0.112  1.00  0.00    -0.352 N 
ATOM      3  O   UNL     1       1.217  -0.036   0.114  1.00  0.00    -0.269 OA
ATOM      4  C   UNL     1       2.443  -0.103   0.053  1.00  0.00     0.251 C 
ATOM      5  H   UNL     1       2.701   1.869   0.322  1.00  0.00     0.163 HD
BRANCH   4   6
ATOM      6  C   UNL     1       3.114  -1.410  -0.110  1.00  0.00     0.039 A 
ATOM      7  C   UNL     1       4.234  -1.727   0.662  1.00  0.00     0.014 A 
ATOM      8  C   UNL     1       2.632  -2.317  -1.057  1.00  0.00     0.014 A 
ATOM      9  C   UNL     1       4.961  -2.877   0.379  1.00  0.00     0.010 A 
ATOM     10  C   UNL     1       3.313  -3.519  -1.273  1.00  0.00     0.010 A 
ATOM     11  C   UNL     1       4.500  -3.796  -0.577  1.00  0.00    -0.014 A 
BRANCH  11  12
ATOM     12  C   UNL     1       5.244  -5.067  -0.775  1.00  0.00     0.031 A 
ATOM     13  C   UNL     1       5.909  -5.387  -2.086  1.00  0.00     0.074 A 
ATOM     14  C   UNL     1       5.337  -5.922   0.263  1.00  0.00     0.049 A 
ATOM     15  N   UNL     1       6.595  -6.450  -2.422  1.00  0.00    -0.248 NA
ATOM     16  C   UNL     1       5.783  -4.392  -3.161  1.00  0.00     0.031 C 
ATOM     17  C   UNL     1       4.727  -5.711   1.580  1.00  0.00     0.029 A 
ATOM     18  N   UNL     1       5.984  -7.123   0.389  1.00  0.00    -0.354 N 
ATOM     19  C   UNL     1       6.969  -6.264  -3.748  1.00  0.00     0.074 A 
ATOM     20  C   UNL     1       6.409  -4.994  -4.164  1.00  0.00     0.031 C 
ATOM     21  C   UNL     1       5.067  -6.723   2.391  1.00  0.00     0.029 A 
ATOM     22  C   UNL     1       5.850  -7.692   1.635  1.00  0.00     0.049 A 
ATOM     23  H   UNL     1       6.497  -7.539  -0.341  1.00  0.00     0.167 HD
ATOM     24  C   UNL     1       7.713  -7.077  -4.540  1.00  0.00     0.034 A 
ATOM     25  C   UNL     1       6.282  -8.875   2.111  1.00  0.00     0.034 A 
ATOM     26  C   UNL     1       8.268  -8.338  -4.101  1.00  0.00     0.049 A 
ATOM     27  C   UNL     1       7.070  -9.773   1.197  1.00  0.00     0.074 A 
ATOM     28  C   UNL     1       9.066  -9.220  -4.810  1.00  0.00     0.029 A 
ATOM     29  N   UNL     1       8.078  -8.901  -2.846  1.00  0.00    -0.354 N 
ATOM     30  N   UNL     1       7.430  -9.570  -0.050  1.00  0.00    -0.248 NA
ATOM     31  C   UNL     1       7.513 -11.056   1.753  1.00  0.00     0.031 C 
ATOM     32  C   UNL     1       9.298 -10.345  -4.011  1.00  0.00     0.029 A 
ATOM     33  C   UNL     1       8.713 -10.133  -2.773  1.00  0.00     0.049 A 
ATOM     34  H   UNL     1       7.566  -8.487  -2.114  1.00  0.00     0.167 HD
ATOM     35  C   UNL     1       8.161 -10.694  -0.418  1.00  0.00     0.074 A 
ATOM     36  C   UNL     1       8.211 -11.557   0.745  1.00  0.00     0.031 C 
ATOM     37  C   UNL     1       8.740 -10.988  -1.610  1.00  0.00     0.034 A 
BRANCH  24  38
ATOM     38  C   UNL     1       7.934  -6.656  -5.973  1.00  0.00     0.023 A 
ATOM     39  C   UNL     1       8.689  -5.519  -6.309  1.00  0.00     0.031 A 
ATOM     40  C   UNL     1       7.390  -7.418  -7.024  1.00  0.00     0.131 A 
ATOM     41  C   UNL     1       8.837  -5.149  -7.655  1.00  0.00     0.055 A 
ATOM     42  C   UNL     1       7.598  -7.083  -8.363  1.00  0.00     0.041 A 
ATOM     43  F   UNL     1       6.643  -8.503  -6.765  1.00  0.00    -0.206 F 
ATOM     44  C   UNL     1       8.317  -5.936  -8.686  1.00  0.00     0.022 A 
BRANCH  41  45
ATOM     45  S   UNL     1       9.626  -3.561  -8.040  1.00  0.00     0.124 S 
ATOM     46  O   UNL     1       8.752  -2.619  -7.345  1.00  0.00    -0.237 OA
ATOM     47  O   UNL     1      10.961  -3.727  -7.477  1.00  0.00    -0.237 OA
ATOM     48  O   UNL     1       9.569  -3.493  -9.499  1.00  0.00    -0.744 OA
ENDBRANCH  41  45
ENDBRANCH  24  38
BRANCH  25  49
ATOM     49  C   UNL     1       5.941  -9.298   3.499  1.00  0.00     0.023 A 
ATOM     50  C   UNL     1       6.942  -9.527   4.454  1.00  0.00     0.031 A 
ATOM     51  C   UNL     1       4.604  -9.518   3.879  1.00  0.00     0.131 A 
ATOM     52  C   UNL     1       6.596 -10.009   5.726  1.00  0.00     0.055 A 
ATOM     53  C   UNL     1       4.261  -9.937   5.164  1.00  0.00     0.041 A 
ATOM     54  F   UNL     1       3.606  -9.311   3.004  1.00  0.00    -0.206 F 
ATOM     55  C   UNL     1       5.262 -10.201   6.092  1.00  0.00     0.022 A 
BRANCH  52  56
ATOM     56  S   UNL     1       7.926 -10.481   6.864  1.00  0.00     0.124 S 
ATOM     57  O   UNL     1       8.677 -11.442   6.064  1.00  0.00    -0.237 OA
ATOM     58  O   UNL     1       8.581  -9.201   7.110  1.00  0.00    -0.237 OA
ATOM     59  O   UNL     1       7.211 -11.044   8.008  1.00  0.00    -0.744 OA
ENDBRANCH  52  56
ENDBRANCH  25  49
BRANCH  37  60
ATOM     60  C   UNL     1       9.507 -12.284  -1.688  1.00  0.00     0.023 A 
ATOM     61  C   UNL     1       8.863 -13.530  -1.597  1.00  0.00     0.031 A 
ATOM     62  C   UNL     1      10.906 -12.270  -1.824  1.00  0.00     0.131 A 
ATOM     63  C   UNL     1       9.622 -14.709  -1.579  1.00  0.00     0.055 A 
ATOM     64  C   UNL     1      11.651 -13.449  -1.869  1.00  0.00     0.041 A 
ATOM     65  F   UNL     1      11.573 -11.108  -1.912  1.00  0.00    -0.206 F 
ATOM     66  C   UNL     1      11.011 -14.677  -1.731  1.00  0.00     0.022 A 
BRANCH  63  67
ATOM     67  S   UNL     1       8.780 -16.283  -1.257  1.00  0.00     0.124 S 
ATOM     68  O   UNL     1       8.177 -16.042   0.050  1.00  0.00    -0.237 OA
ATOM     69  O   UNL     1       7.852 -16.376  -2.379  1.00  0.00    -0.237 OA
ATOM     70  O   UNL     1       9.865 -17.262  -1.268  1.00  0.00    -0.744 OA
ENDBRANCH  63  67
ENDBRANCH  37  60
ENDBRANCH  11  12
ENDBRANCH   4   6
ENDBRANCH   1   2
BRANCH   1  71
ATOM     71  C   UNL     1       4.962   2.220  -1.183  1.00  0.00     0.023 C 
BRANCH  71  72
ATOM     72  C   UNL     1       4.469   3.641  -0.925  1.00  0.00     0.023 C 
BRANCH  72  73
ATOM     73  C   UNL     1       4.854   4.228   0.428  1.00  0.00     0.116 C 
BRANCH  73  74
ATOM     74  N   UNL     1       6.293   4.310   0.623  1.00  0.00    -0.352 N 
ATOM     75  C   UNL     1       7.067   5.382   0.978  1.00  0.00     0.251 C 
ATOM     76  H   UNL     1       6.783   3.469   0.478  1.00  0.00     0.163 HD
ATOM     77  O   UNL     1       8.295   5.298   0.969  1.00  0.00    -0.269 OA
BRANCH  75  78
ATOM     78  C   UNL     1       6.441   6.666   1.352  1.00  0.00     0.047 A 
ATOM     79  C   UNL     1       6.984   7.848   0.831  1.00  0.00     0.023 A 
ATOM     80  C   UNL     1       5.371   6.717   2.247  1.00  0.00     0.099 A 
ATOM     81  C   UNL     1       6.428   9.098   1.148  1.00  0.00    -0.009 A 
ATOM     82  C   UNL     1       4.769   7.947   2.512  1.00  0.00     0.270 A 
ATOM     83  C   UNL     1       5.277   9.130   1.954  1.00  0.00     0.094 A 
BRANCH  81  84
ATOM     84  C   UNL     1       7.075  10.341   0.694  1.00  0.00     0.002 A 
ATOM     85  C   UNL     1       7.190  10.610  -0.684  1.00  0.00     0.030 A 
ATOM     86  C   UNL     1       7.635  11.273   1.597  1.00  0.00     0.048 A 
ATOM     87  C   UNL     1       7.837  11.763  -1.135  1.00  0.00     0.041 A 
ATOM     88  C   UNL     1       8.276  12.428   1.136  1.00  0.00     0.023 A 
ATOM     89  Cl  UNL     1       7.606  11.030   3.312  1.00  0.00    -0.084 Cl
ATOM     90  Cl  UNL     1       7.974  12.062  -2.824  1.00  0.00    -0.084 Cl
ATOM     91  C   UNL     1       8.379  12.672  -0.232  1.00  0.00     0.022 A 
ENDBRANCH  81  84
BRANCH  82  92
ATOM     92  N   UNL     1       3.591   8.000   3.386  1.00  0.00     0.062 N 
ATOM     93  O   UNL     1       3.079   9.108   3.598  1.00  0.00    -0.258 OA
ATOM     94  O   UNL     1       3.168   6.930   3.845  1.00  0.00    -0.258 OA
ENDBRANCH  82  92
ENDBRANCH  75  78
ENDBRANCH  73  74
ENDBRANCH  72  73
ENDBRANCH  71  72
ENDBRANCH   1  71
TORSDOF 16
