REMARK SMILES NS(=O)(=O)c1ccc(-n2nc(C(F)F)cc2-c2ccc(C(=O)NCCCCNC(=O)c3ccc(-c4c5nc(c(-c6cc(S(=O)(=O)[O-])ccc6F)c6ccc([nH]6)c(-c6cc(S(=O)(=O)[O-])ccc6F)c6nc(c(-c7cc(S(=O)(=O)[O-])ccc7F)c7ccc4[nH]7)C=C6)C=C5)cc3)cc2)cc1
REMARK SMILES IDX 25 1 24 2 23 3 21 4 22 5 20 7 17 8 18 9 95 10 19 11 94 12
REMARK SMILES IDX 16 13 9 14 10 15 11 16 15 17 8 18 5 19 6 20 97 21 7 22 96 23
REMARK SMILES IDX 2 24 3 25 4 26 1 27 12 30 13 31 14 32 26 33 27 34 28 35
REMARK SMILES IDX 29 36 30 38 31 39 32 40 93 41 33 42 92 43 34 44 35 45 36 46
REMARK SMILES IDX 86 47 37 48 91 49 85 50 87 51 38 52 90 53 84 54 83 55 39 57
REMARK SMILES IDX 71 58 51 59 70 60 52 61 55 62 69 63 88 64 53 65 54 66 68 68
REMARK SMILES IDX 89 69 56 70 40 71 41 72 49 73 42 74 48 75 50 76 47 77 43 78
REMARK SMILES IDX 44 79 45 80 46 81 72 82 73 83 81 84 74 85 80 86 82 87 79 88
REMARK SMILES IDX 75 89 76 90 77 91 78 92 57 93 58 94 66 95 59 96 65 97 67 98
REMARK SMILES IDX 64 99 60 100 61 101 62 102 63 103
REMARK H PARENT 23 6 1 28 1 29 28 37 87 56 55 67
REMARK Flexibility Score: inf
ROOT
ATOM      1  C   UNL     1       3.522  -7.991  -0.449  1.00  0.00     0.023 C 
ENDROOT
BRANCH   1   2
ATOM      2  C   UNL     1       4.801  -7.835   0.383  1.00  0.00     0.116 C 
BRANCH   2   3
ATOM      3  N   UNL     1       5.396  -6.528   0.180  1.00  0.00    -0.352 N 
ATOM      4  C   UNL     1       5.329  -5.358   0.893  1.00  0.00     0.251 C 
ATOM      5  O   UNL     1       5.960  -4.390   0.467  1.00  0.00    -0.269 OA
ATOM      6  H   UNL     1       5.958  -6.468  -0.626  1.00  0.00     0.163 HD
BRANCH   4   7
ATOM      7  C   UNL     1       4.560  -5.212   2.161  1.00  0.00     0.039 A 
ATOM      8  C   UNL     1       3.198  -4.792   4.589  1.00  0.00     0.000 A 
ATOM      9  C   UNL     1       4.304  -4.001   4.261  1.00  0.00     0.011 A 
ATOM     10  C   UNL     1       2.780  -5.789   3.709  1.00  0.00     0.011 A 
ATOM     11  C   UNL     1       4.984  -4.218   3.058  1.00  0.00     0.014 A 
ATOM     12  C   UNL     1       3.428  -5.961   2.486  1.00  0.00     0.014 A 
BRANCH   8  13
ATOM     13  C   UNL     1       2.414  -4.527   5.786  1.00  0.00     0.075 A 
ATOM     14  N   UNL     1       1.609  -3.411   5.972  1.00  0.00    -0.233 N 
ATOM     15  N   UNL     1       1.146  -3.333   7.246  1.00  0.00    -0.166 NA
ATOM     16  C   UNL     1       1.463  -4.521   7.797  1.00  0.00     0.129 A 
ATOM     17  C   UNL     1       2.300  -5.272   6.939  1.00  0.00     0.060 A 
BRANCH  14  18
ATOM     18  C   UNL     1       1.232  -2.446   5.000  1.00  0.00     0.065 A 
ATOM     19  C   UNL     1       0.671  -0.550   3.039  1.00  0.00     0.082 A 
ATOM     20  C   UNL     1       0.640  -1.905   2.710  1.00  0.00     0.024 A 
ATOM     21  C   UNL     1       0.945  -0.137   4.348  1.00  0.00     0.024 A 
ATOM     22  C   UNL     1       0.925  -2.850   3.692  1.00  0.00     0.030 A 
ATOM     23  C   UNL     1       1.197  -1.090   5.342  1.00  0.00     0.030 A 
BRANCH  19  24
ATOM     24  S   UNL     1       0.395   0.651   1.771  1.00  0.00     0.238 S 
ATOM     25  O   UNL     1       1.137   1.856   2.097  1.00  0.00    -0.207 OA
ATOM     26  O   UNL     1      -1.003   0.663   1.447  1.00  0.00    -0.207 OA
BRANCH  24  27
ATOM     27  N   UNL     1       1.187   0.000   0.439  1.00  0.00    -0.225 NA
ATOM     28  H   UNL     1       1.084   0.629  -0.358  1.00  0.00     0.137 HD
ATOM     29  H   UNL     1       0.779  -0.907   0.211  1.00  0.00     0.137 HD
ENDBRANCH  24  27
ENDBRANCH  19  24
ENDBRANCH  14  18
BRANCH  16  30
ATOM     30  C   UNL     1       0.965  -4.956   9.143  1.00  0.00     0.393 C 
ATOM     31  F   UNL     1       1.193  -4.028  10.111  1.00  0.00    -0.203 F 
ATOM     32  F   UNL     1      -0.380  -5.179   9.128  1.00  0.00    -0.203 F 
ENDBRANCH  16  30
ENDBRANCH   8  13
ENDBRANCH   4   7
ENDBRANCH   2   3
ENDBRANCH   1   2
BRANCH   1  33
ATOM     33  C   UNL     1       3.761  -8.225  -1.946  1.00  0.00     0.023 C 
BRANCH  33  34
ATOM     34  C   UNL     1       4.380  -9.579  -2.284  1.00  0.00     0.116 C 
BRANCH  34  35
ATOM     35  N   UNL     1       3.521 -10.693  -1.895  1.00  0.00    -0.352 N 
ATOM     36  C   UNL     1       3.869 -12.015  -1.713  1.00  0.00     0.251 C 
ATOM     37  H   UNL     1       2.573 -10.472  -1.743  1.00  0.00     0.163 HD
ATOM     38  O   UNL     1       3.015 -12.892  -1.790  1.00  0.00    -0.269 OA
BRANCH  36  39
ATOM     39  C   UNL     1       5.276 -12.354  -1.430  1.00  0.00     0.039 A 
ATOM     40  C   UNL     1       5.906 -13.398  -2.107  1.00  0.00     0.014 A 
ATOM     41  C   UNL     1       5.974 -11.589  -0.494  1.00  0.00     0.014 A 
ATOM     42  C   UNL     1       7.271 -13.601  -1.913  1.00  0.00     0.010 A 
ATOM     43  C   UNL     1       7.341 -11.735  -0.367  1.00  0.00     0.010 A 
ATOM     44  C   UNL     1       7.999 -12.745  -1.068  1.00  0.00    -0.014 A 
BRANCH  44  45
ATOM     45  C   UNL     1       9.468 -12.784  -1.077  1.00  0.00     0.031 A 
ATOM     46  C   UNL     1      10.068 -12.655  -2.435  1.00  0.00     0.074 A 
ATOM     47  C   UNL     1      10.252 -12.713   0.022  1.00  0.00     0.049 A 
ATOM     48  N   UNL     1      10.694 -13.559  -3.111  1.00  0.00    -0.248 NA
ATOM     49  C   UNL     1       9.807 -11.424  -3.200  1.00  0.00     0.031 C 
ATOM     50  C   UNL     1       9.811 -12.545   1.411  1.00  0.00     0.029 A 
ATOM     51  N   UNL     1      11.616 -12.672   0.130  1.00  0.00    -0.354 N 
ATOM     52  C   UNL     1      11.139 -12.930  -4.273  1.00  0.00     0.074 A 
ATOM     53  C   UNL     1      10.381 -11.712  -4.370  1.00  0.00     0.031 C 
ATOM     54  C   UNL     1      10.863 -12.200   2.185  1.00  0.00     0.029 A 
ATOM     55  C   UNL     1      12.076 -12.293   1.391  1.00  0.00     0.049 A 
ATOM     56  H   UNL     1      12.219 -12.890  -0.617  1.00  0.00     0.167 HD
ATOM     57  C   UNL     1      12.284 -13.338  -4.889  1.00  0.00     0.034 A 
ATOM     58  C   UNL     1      13.359 -12.087   1.789  1.00  0.00     0.034 A 
ATOM     59  C   UNL     1      12.704 -14.620  -4.367  1.00  0.00     0.049 A 
ATOM     60  C   UNL     1      14.229 -12.866   0.886  1.00  0.00     0.074 A 
ATOM     61  C   UNL     1      12.254 -15.920  -4.425  1.00  0.00     0.029 A 
ATOM     62  N   UNL     1      13.589 -14.548  -3.319  1.00  0.00    -0.354 N 
ATOM     63  N   UNL     1      14.210 -14.167   0.839  1.00  0.00    -0.248 NA
ATOM     64  C   UNL     1      14.882 -12.218  -0.244  1.00  0.00     0.031 C 
ATOM     65  C   UNL     1      12.673 -16.531  -3.204  1.00  0.00     0.029 A 
ATOM     66  C   UNL     1      13.410 -15.606  -2.465  1.00  0.00     0.049 A 
ATOM     67  H   UNL     1      14.258 -13.836  -3.197  1.00  0.00     0.167 HD
ATOM     68  C   UNL     1      14.412 -14.468  -0.492  1.00  0.00     0.074 A 
ATOM     69  C   UNL     1      15.012 -13.268  -1.060  1.00  0.00     0.031 C 
ATOM     70  C   UNL     1      13.781 -15.536  -1.062  1.00  0.00     0.034 A 
BRANCH  57  71
ATOM     71  C   UNL     1      13.285 -12.433  -5.598  1.00  0.00     0.023 A 
ATOM     72  C   UNL     1      14.473 -13.036  -6.072  1.00  0.00     0.031 A 
ATOM     73  C   UNL     1      13.296 -11.021  -5.569  1.00  0.00     0.131 A 
ATOM     74  C   UNL     1      15.612 -12.268  -6.378  1.00  0.00     0.055 A 
ATOM     75  C   UNL     1      14.415 -10.258  -5.926  1.00  0.00     0.041 A 
ATOM     76  F   UNL     1      12.271 -10.294  -5.115  1.00  0.00    -0.206 F 
ATOM     77  C   UNL     1      15.592 -10.880  -6.302  1.00  0.00     0.022 A 
BRANCH  74  78
ATOM     78  S   UNL     1      17.174 -13.123  -6.716  1.00  0.00     0.124 S 
ATOM     79  O   UNL     1      17.318 -13.959  -5.530  1.00  0.00    -0.237 OA
ATOM     80  O   UNL     1      16.873 -13.816  -7.964  1.00  0.00    -0.237 OA
ATOM     81  O   UNL     1      18.139 -12.031  -6.829  1.00  0.00    -0.744 OA
ENDBRANCH  74  78
ENDBRANCH  57  71
BRANCH  58  82
ATOM     82  C   UNL     1      13.886 -11.137   2.800  1.00  0.00     0.023 A 
ATOM     83  C   UNL     1      15.128 -11.314   3.447  1.00  0.00     0.031 A 
ATOM     84  C   UNL     1      13.268  -9.876   2.940  1.00  0.00     0.131 A 
ATOM     85  C   UNL     1      15.709 -10.249   4.174  1.00  0.00     0.055 A 
ATOM     86  C   UNL     1      13.847  -8.827   3.657  1.00  0.00     0.041 A 
ATOM     87  F   UNL     1      12.120  -9.595   2.302  1.00  0.00    -0.206 F 
ATOM     88  C   UNL     1      15.079  -9.006   4.267  1.00  0.00     0.022 A 
BRANCH  85  89
ATOM     89  S   UNL     1      17.361 -10.435   4.924  1.00  0.00     0.124 S 
ATOM     90  O   UNL     1      17.107 -11.373   6.011  1.00  0.00    -0.237 OA
ATOM     91  O   UNL     1      18.159 -10.931   3.809  1.00  0.00    -0.237 OA
ATOM     92  O   UNL     1      17.694  -9.075   5.354  1.00  0.00    -0.744 OA
ENDBRANCH  85  89
ENDBRANCH  58  82
BRANCH  70  93
ATOM     93  C   UNL     1      13.314 -16.635  -0.133  1.00  0.00     0.023 A 
ATOM     94  C   UNL     1      12.400 -16.468   0.932  1.00  0.00     0.031 A 
ATOM     95  C   UNL     1      13.825 -17.924  -0.357  1.00  0.00     0.131 A 
ATOM     96  C   UNL     1      12.054 -17.565   1.743  1.00  0.00     0.055 A 
ATOM     97  C   UNL     1      13.461 -19.014   0.431  1.00  0.00     0.041 A 
ATOM     98  F   UNL     1      14.686 -18.151  -1.363  1.00  0.00    -0.206 F 
ATOM     99  C   UNL     1      12.582 -18.836   1.493  1.00  0.00     0.022 A 
BRANCH  96 100
ATOM    100  S   UNL     1      10.943 -17.349   3.171  1.00  0.00     0.124 S 
ATOM    101  O   UNL     1      11.471 -16.169   3.845  1.00  0.00    -0.237 OA
ATOM    102  O   UNL     1       9.638 -17.187   2.533  1.00  0.00    -0.237 OA
ATOM    103  O   UNL     1      11.101 -18.599   3.917  1.00  0.00    -0.744 OA
ENDBRANCH  96 100
ENDBRANCH  70  93
ENDBRANCH  44  45
ENDBRANCH  36  39
ENDBRANCH  34  35
ENDBRANCH  33  34
ENDBRANCH   1  33
TORSDOF 19
