REMARK SMILES CCCCCCNC(=O)Oc1cccc(-c2ccc([C@@H](C)C(=O)NCCCCNC(=O)c3ccc(-c4c5nc(c(-c6cc(S(=O)(=O)[O-])ccc6F)c6ccc([nH]6)c(-c6cc(S(=O)(=O)[O-])ccc6F)c6nc(c(-c7cc(S(=O)(=O)[O-])ccc7F)c7ccc4[nH]7)C=C6)C=C5)cc3)cc2Cl)c1
REMARK SMILES IDX 20 1 21 2 19 3 16 4 17 5 96 6 18 7 95 8 97 9 15 10 11 11
REMARK SMILES IDX 12 12 98 13 13 14 14 15 10 16 8 17 7 18 9 20 6 21 5 22 4 23
REMARK SMILES IDX 3 24 2 25 1 26 22 27 23 28 24 29 25 31 26 32 27 33 28 34
REMARK SMILES IDX 29 35 30 36 31 38 32 39 33 40 94 41 34 42 93 43 35 44 36 45
REMARK SMILES IDX 37 46 87 47 38 48 92 49 86 50 88 51 39 52 91 53 85 54 84 55
REMARK SMILES IDX 40 57 72 58 52 59 71 60 53 61 56 62 70 63 89 64 54 65 55 66
REMARK SMILES IDX 69 68 90 69 57 70 41 71 42 72 50 73 43 74 49 75 51 76 48 77
REMARK SMILES IDX 44 78 45 79 46 80 47 81 73 82 74 83 82 84 75 85 81 86 83 87
REMARK SMILES IDX 80 88 76 89 77 90 78 91 79 92 58 93 59 94 67 95 60 96 66 97
REMARK SMILES IDX 68 98 65 99 61 100 62 101 63 102 64 103
REMARK H PARENT 7 19 24 30 29 37 88 56 56 67
REMARK Flexibility Score: inf
ROOT
ATOM      1  C   UNL     1      -4.540   1.248 -13.673  1.00  0.00     0.105 C 
ATOM      2  C   UNL     1      -5.649   1.433 -14.706  1.00  0.00     0.023 C 
ENDROOT
BRANCH   1   3
ATOM      3  C   UNL     1      -4.877   1.675 -12.253  1.00  0.00    -0.034 A 
ATOM      4  C   UNL     1      -5.203   2.536  -9.537  1.00  0.00     0.000 A 
ATOM      5  C   UNL     1      -5.594   3.334 -10.629  1.00  0.00     0.010 A 
ATOM      6  C   UNL     1      -4.731   1.244  -9.845  1.00  0.00     0.049 A 
ATOM      7  C   UNL     1      -5.484   2.893 -11.952  1.00  0.00     0.005 A 
ATOM      8  C   UNL     1      -4.535   0.842 -11.177  1.00  0.00     0.025 A 
ATOM      9  Cl  UNL     1      -4.415   0.045  -8.632  1.00  0.00    -0.084 Cl
BRANCH   4  10
ATOM     10  C   UNL     1      -5.282   3.110  -8.171  1.00  0.00    -0.013 A 
ATOM     11  C   UNL     1      -4.312   3.543  -5.981  1.00  0.00     0.133 A 
ATOM     12  C   UNL     1      -5.416   4.298  -5.601  1.00  0.00     0.047 A 
ATOM     13  C   UNL     1      -4.232   2.964  -7.249  1.00  0.00     0.056 A 
ATOM     14  C   UNL     1      -6.454   4.481  -6.506  1.00  0.00     0.004 A 
ATOM     15  C   UNL     1      -6.392   3.882  -7.770  1.00  0.00     0.009 A 
BRANCH  11  16
ATOM     16  O   UNL     1      -3.354   3.277  -4.988  1.00  0.00    -0.410 OA
BRANCH  16  17
ATOM     17  C   UNL     1      -2.012   3.458  -5.283  1.00  0.00     0.412 C 
ATOM     18  N   UNL     1      -1.186   3.022  -4.283  1.00  0.00    -0.321 N 
ATOM     19  H   UNL     1      -0.220   3.155  -4.419  1.00  0.00     0.167 HD
ATOM     20  O   UNL     1      -1.559   3.957  -6.305  1.00  0.00    -0.224 OA
BRANCH  18  21
ATOM     21  C   UNL     1      -1.586   2.384  -3.045  1.00  0.00     0.119 C 
BRANCH  21  22
ATOM     22  C   UNL     1      -0.985   0.986  -2.903  1.00  0.00     0.021 C 
BRANCH  22  23
ATOM     23  C   UNL     1       0.545   0.952  -2.798  1.00  0.00     0.002 C 
BRANCH  23  24
ATOM     24  C   UNL     1       1.144   1.752  -1.636  1.00  0.00    -0.000 C 
BRANCH  24  25
ATOM     25  C   UNL     1       0.659   1.348  -0.242  1.00  0.00    -0.003 C 
ATOM     26  C   UNL     1       1.026  -0.080   0.132  1.00  0.00     0.004 C 
ENDBRANCH  24  25
ENDBRANCH  23  24
ENDBRANCH  22  23
ENDBRANCH  21  22
ENDBRANCH  18  21
ENDBRANCH  16  17
ENDBRANCH  11  16
ENDBRANCH   4  10
ENDBRANCH   1   3
BRANCH   1  27
ATOM     27  C   UNL     1      -3.154   1.719 -14.146  1.00  0.00     0.227 C 
ATOM     28  O   UNL     1      -2.229   0.902 -14.233  1.00  0.00    -0.274 OA
ATOM     29  N   UNL     1      -2.865   3.002 -14.500  1.00  0.00    -0.356 N 
ATOM     30  H   UNL     1      -1.953   3.127 -14.849  1.00  0.00     0.163 HD
BRANCH  29  31
ATOM     31  C   UNL     1      -3.654   4.215 -14.456  1.00  0.00     0.116 C 
BRANCH  31  32
ATOM     32  C   UNL     1      -3.384   5.030 -13.190  1.00  0.00     0.023 C 
BRANCH  32  33
ATOM     33  C   UNL     1      -2.224   6.016 -13.295  1.00  0.00     0.023 C 
BRANCH  33  34
ATOM     34  C   UNL     1      -2.392   7.100 -14.351  1.00  0.00     0.116 C 
BRANCH  34  35
ATOM     35  N   UNL     1      -3.591   7.910 -14.184  1.00  0.00    -0.352 N 
ATOM     36  C   UNL     1      -3.751   9.248 -14.473  1.00  0.00     0.251 C 
ATOM     37  H   UNL     1      -4.381   7.447 -13.822  1.00  0.00     0.163 HD
ATOM     38  O   UNL     1      -4.797   9.823 -14.195  1.00  0.00    -0.269 OA
BRANCH  36  39
ATOM     39  C   UNL     1      -2.617   9.980 -15.075  1.00  0.00     0.039 A 
ATOM     40  C   UNL     1      -2.160  11.149 -14.464  1.00  0.00     0.014 A 
ATOM     41  C   UNL     1      -1.950   9.450 -16.183  1.00  0.00     0.014 A 
ATOM     42  C   UNL     1      -0.980  11.742 -14.916  1.00  0.00     0.010 A 
ATOM     43  C   UNL     1      -0.731   9.992 -16.572  1.00  0.00     0.010 A 
ATOM     44  C   UNL     1      -0.231  11.143 -15.943  1.00  0.00    -0.014 A 
BRANCH  44  45
ATOM     45  C   UNL     1       1.071  11.705 -16.386  1.00  0.00     0.031 A 
ATOM     46  C   UNL     1       1.232  12.178 -17.805  1.00  0.00     0.074 A 
ATOM     47  C   UNL     1       2.122  11.721 -15.541  1.00  0.00     0.049 A 
ATOM     48  N   UNL     1       2.305  12.601 -18.422  1.00  0.00    -0.248 NA
ATOM     49  C   UNL     1       0.030  12.133 -18.654  1.00  0.00     0.031 C 
ATOM     50  C   UNL     1       2.100  11.250 -14.153  1.00  0.00     0.029 A 
ATOM     51  N   UNL     1       3.416  12.141 -15.724  1.00  0.00    -0.354 N 
ATOM     52  C   UNL     1       1.912  12.858 -19.731  1.00  0.00     0.074 A 
ATOM     53  C   UNL     1       0.521  12.474 -19.835  1.00  0.00     0.031 C 
ATOM     54  C   UNL     1       3.313  11.433 -13.607  1.00  0.00     0.029 A 
ATOM     55  C   UNL     1       4.214  11.985 -14.613  1.00  0.00     0.049 A 
ATOM     56  H   UNL     1       3.744  12.518 -16.573  1.00  0.00     0.167 HD
ATOM     57  C   UNL     1       2.636  13.391 -20.746  1.00  0.00     0.034 A 
ATOM     58  C   UNL     1       5.525  12.245 -14.432  1.00  0.00     0.034 A 
ATOM     59  C   UNL     1       4.017  13.785 -20.619  1.00  0.00     0.049 A 
ATOM     60  C   UNL     1       6.318  12.815 -15.584  1.00  0.00     0.074 A 
ATOM     61  C   UNL     1       4.833  14.382 -21.564  1.00  0.00     0.029 A 
ATOM     62  N   UNL     1       4.790  13.620 -19.476  1.00  0.00    -0.354 N 
ATOM     63  N   UNL     1       5.918  13.095 -16.803  1.00  0.00    -0.248 NA
ATOM     64  C   UNL     1       7.733  13.112 -15.332  1.00  0.00     0.031 C 
ATOM     65  C   UNL     1       6.114  14.513 -21.017  1.00  0.00     0.029 A 
ATOM     66  C   UNL     1       6.079  14.077 -19.702  1.00  0.00     0.049 A 
ATOM     67  H   UNL     1       4.469  13.235 -18.628  1.00  0.00     0.167 HD
ATOM     68  C   UNL     1       7.026  13.638 -17.449  1.00  0.00     0.074 A 
ATOM     69  C   UNL     1       8.103  13.656 -16.482  1.00  0.00     0.031 C 
ATOM     70  C   UNL     1       7.142  14.087 -18.726  1.00  0.00     0.034 A 
BRANCH  57  71
ATOM     71  C   UNL     1       1.948  13.556 -22.079  1.00  0.00     0.023 A 
ATOM     72  C   UNL     1       0.830  14.395 -22.234  1.00  0.00     0.031 A 
ATOM     73  C   UNL     1       2.398  12.848 -23.207  1.00  0.00     0.131 A 
ATOM     74  C   UNL     1       0.154  14.444 -23.462  1.00  0.00     0.055 A 
ATOM     75  C   UNL     1       1.773  12.968 -24.450  1.00  0.00     0.041 A 
ATOM     76  F   UNL     1       3.447  12.014 -23.118  1.00  0.00    -0.206 F 
ATOM     77  C   UNL     1       0.634  13.758 -24.579  1.00  0.00     0.022 A 
BRANCH  74  78
ATOM     78  S   UNL     1      -1.443  15.300 -23.537  1.00  0.00     0.124 S 
ATOM     79  O   UNL     1      -2.223  14.554 -22.552  1.00  0.00    -0.237 OA
ATOM     80  O   UNL     1      -1.087  16.665 -23.169  1.00  0.00    -0.237 OA
ATOM     81  O   UNL     1      -1.866  15.117 -24.924  1.00  0.00    -0.744 OA
ENDBRANCH  74  78
ENDBRANCH  57  71
BRANCH  58  82
ATOM     82  C   UNL     1       6.184  11.966 -13.122  1.00  0.00     0.023 A 
ATOM     83  C   UNL     1       6.739  13.005 -12.356  1.00  0.00     0.031 A 
ATOM     84  C   UNL     1       6.319  10.651 -12.641  1.00  0.00     0.131 A 
ATOM     85  C   UNL     1       7.452  12.708 -11.184  1.00  0.00     0.055 A 
ATOM     86  C   UNL     1       6.977  10.367 -11.443  1.00  0.00     0.041 A 
ATOM     87  F   UNL     1       5.806   9.620 -13.331  1.00  0.00    -0.206 F 
ATOM     88  C   UNL     1       7.562  11.397 -10.715  1.00  0.00     0.022 A 
BRANCH  85  89
ATOM     89  S   UNL     1       8.322  14.053 -10.333  1.00  0.00     0.124 S 
ATOM     90  O   UNL     1       9.190  14.560 -11.391  1.00  0.00    -0.237 OA
ATOM     91  O   UNL     1       7.221  14.923  -9.935  1.00  0.00    -0.237 OA
ATOM     92  O   UNL     1       9.007  13.375  -9.235  1.00  0.00    -0.744 OA
ENDBRANCH  85  89
ENDBRANCH  58  82
BRANCH  70  93
ATOM     93  C   UNL     1       8.467  14.690 -19.126  1.00  0.00     0.023 A 
ATOM     94  C   UNL     1       9.639  13.919 -19.214  1.00  0.00     0.031 A 
ATOM     95  C   UNL     1       8.553  16.061 -19.425  1.00  0.00     0.131 A 
ATOM     96  C   UNL     1      10.857  14.535 -19.540  1.00  0.00     0.055 A 
ATOM     97  C   UNL     1       9.754  16.656 -19.810  1.00  0.00     0.041 A 
ATOM     98  F   UNL     1       7.465  16.846 -19.355  1.00  0.00    -0.206 F 
ATOM     99  C   UNL     1      10.918  15.895 -19.856  1.00  0.00     0.022 A 
BRANCH  96 100
ATOM    100  S   UNL     1      12.379  13.553 -19.459  1.00  0.00     0.124 S 
ATOM    101  O   UNL     1      12.382  13.111 -18.068  1.00  0.00    -0.237 OA
ATOM    102  O   UNL     1      12.136  12.517 -20.456  1.00  0.00    -0.237 OA
ATOM    103  O   UNL     1      13.425  14.513 -19.806  1.00  0.00    -0.744 OA
ENDBRANCH  96 100
ENDBRANCH  70  93
ENDBRANCH  44  45
ENDBRANCH  36  39
ENDBRANCH  34  35
ENDBRANCH  33  34
ENDBRANCH  32  33
ENDBRANCH  31  32
ENDBRANCH  29  31
ENDBRANCH   1  27
TORSDOF 23
