REMARK SMILES CC(C)[C@H](NC(=O)CCNC(=O)c1ccoc1)C(=O)NCCCCNC(=O)c1ccc(-c2c3nc(c(-c4cc(S(=O)(=O)[O-])ccc4F)c4ccc([nH]4)c(-c4cc(S(=O)(=O)[O-])ccc4F)c4nc(c(-c5cc(S(=O)(=O)[O-])ccc5F)c5ccc2[nH]5)C=C4)C=C3)cc1
REMARK SMILES IDX 21 1 20 2 18 3 19 4 4 6 2 7 1 8 3 9 5 10 6 11 7 13 8 14 9 15
REMARK SMILES IDX 10 16 11 17 12 19 13 20 14 21 17 22 15 23 16 24 22 25 23 26
REMARK SMILES IDX 24 27 25 28 26 29 27 31 28 32 29 33 90 34 30 35 89 36 31 37
REMARK SMILES IDX 32 38 33 39 83 40 34 41 88 42 82 43 84 44 35 45 87 46 81 47
REMARK SMILES IDX 80 48 36 50 68 51 48 52 67 53 49 54 52 55 66 56 85 57 50 58
REMARK SMILES IDX 51 59 65 61 86 62 53 63 37 64 38 65 46 66 39 67 45 68 47 69
REMARK SMILES IDX 44 70 40 71 41 72 42 73 43 74 69 75 70 76 78 77 71 78 77 79
REMARK SMILES IDX 79 80 76 81 72 82 73 83 74 84 75 85 54 86 55 87 63 88 56 89
REMARK SMILES IDX 62 90 64 91 61 92 57 93 58 94 59 95 60 96
REMARK H PARENT 20 5 5 12 10 18 25 30 84 49 52 60
REMARK Flexibility Score: inf
ROOT
ATOM      1  C   UNL     1       0.393  -3.888   1.040  1.00  0.00     0.116 C 
ENDROOT
BRANCH   1   2
ATOM      2  N   UNL     1      -0.753  -3.473   1.819  1.00  0.00    -0.354 N 
ATOM      3  C   UNL     1      -1.536  -2.367   1.742  1.00  0.00     0.242 C 
ATOM      4  O   UNL     1      -2.582  -2.379   2.402  1.00  0.00    -0.273 OA
ATOM      5  H   UNL     1      -1.011  -4.104   2.530  1.00  0.00     0.163 HD
BRANCH   3   6
ATOM      6  C   UNL     1      -1.224  -1.163   0.823  1.00  0.00     0.173 C 
BRANCH   6   7
ATOM      7  C   UNL     1      -1.734  -1.297  -0.637  1.00  0.00     0.015 C 
ATOM      8  C   UNL     1      -0.922  -2.212  -1.554  1.00  0.00     0.010 C 
ATOM      9  C   UNL     1      -3.207  -1.718  -0.686  1.00  0.00     0.010 C 
ENDBRANCH   6   7
BRANCH   6  10
ATOM     10  N   UNL     1       0.168  -0.714   0.901  1.00  0.00    -0.344 N 
ATOM     11  C   UNL     1       0.781  -0.019   1.899  1.00  0.00     0.222 C 
ATOM     12  H   UNL     1       0.735  -0.944   0.130  1.00  0.00     0.164 HD
ATOM     13  O   UNL     1       1.956   0.317   1.743  1.00  0.00    -0.275 OA
BRANCH  11  14
ATOM     14  C   UNL     1       0.025   0.358   3.154  1.00  0.00     0.121 C 
BRANCH  14  15
ATOM     15  C   UNL     1      -0.311   1.845   3.143  1.00  0.00     0.126 C 
BRANCH  15  16
ATOM     16  N   UNL     1      -1.417   2.153   2.248  1.00  0.00    -0.351 N 
ATOM     17  C   UNL     1      -2.765   2.019   2.469  1.00  0.00     0.254 C 
ATOM     18  H   UNL     1      -1.163   2.506   1.364  1.00  0.00     0.163 HD
ATOM     19  O   UNL     1      -3.522   1.991   1.502  1.00  0.00    -0.269 OA
BRANCH  17  20
ATOM     20  C   UNL     1      -3.242   1.901   3.829  1.00  0.00     0.077 A 
ATOM     21  C   UNL     1      -2.990   2.729   4.961  1.00  0.00     0.056 A 
ATOM     22  C   UNL     1      -4.141   0.950   4.265  1.00  0.00     0.208 A 
ATOM     23  C   UNL     1      -3.729   2.210   5.998  1.00  0.00     0.195 A 
ATOM     24  O   UNL     1      -4.428   1.124   5.582  1.00  0.00    -0.472 OA
ENDBRANCH  17  20
ENDBRANCH  15  16
ENDBRANCH  14  15
ENDBRANCH  11  14
ENDBRANCH   6  10
ENDBRANCH   3   6
ENDBRANCH   1   2
BRANCH   1  25
ATOM     25  C   UNL     1       1.540  -4.419   1.894  1.00  0.00     0.023 C 
BRANCH  25  26
ATOM     26  C   UNL     1       1.205  -5.587   2.826  1.00  0.00     0.023 C 
BRANCH  26  27
ATOM     27  C   UNL     1       0.387  -6.729   2.229  1.00  0.00     0.116 C 
BRANCH  27  28
ATOM     28  N   UNL     1       0.956  -7.281   1.014  1.00  0.00    -0.352 N 
ATOM     29  C   UNL     1       0.994  -8.583   0.580  1.00  0.00     0.251 C 
ATOM     30  H   UNL     1       1.377  -6.625   0.413  1.00  0.00     0.163 HD
ATOM     31  O   UNL     1       1.579  -8.843  -0.469  1.00  0.00    -0.269 OA
BRANCH  29  32
ATOM     32  C   UNL     1       0.385  -9.670   1.382  1.00  0.00     0.039 A 
ATOM     33  C   UNL     1       1.110 -10.855   1.542  1.00  0.00     0.014 A 
ATOM     34  C   UNL     1      -0.884  -9.548   1.957  1.00  0.00     0.014 A 
ATOM     35  C   UNL     1       0.592 -11.893   2.321  1.00  0.00     0.010 A 
ATOM     36  C   UNL     1      -1.378 -10.563   2.777  1.00  0.00     0.010 A 
ATOM     37  C   UNL     1      -0.646 -11.746   2.963  1.00  0.00    -0.014 A 
BRANCH  37  38
ATOM     38  C   UNL     1      -1.198 -12.838   3.804  1.00  0.00     0.031 A 
ATOM     39  C   UNL     1      -2.410 -13.600   3.345  1.00  0.00     0.074 A 
ATOM     40  C   UNL     1      -0.639 -13.110   4.998  1.00  0.00     0.049 A 
ATOM     41  N   UNL     1      -3.073 -14.550   3.954  1.00  0.00    -0.248 NA
ATOM     42  C   UNL     1      -2.968 -13.216   2.041  1.00  0.00     0.031 C 
ATOM     43  C   UNL     1       0.504 -12.403   5.579  1.00  0.00     0.029 A 
ATOM     44  N   UNL     1      -0.964 -14.050   5.943  1.00  0.00    -0.354 N 
ATOM     45  C   UNL     1      -4.143 -14.860   3.121  1.00  0.00     0.074 A 
ATOM     46  C   UNL     1      -4.058 -13.966   1.984  1.00  0.00     0.031 C 
ATOM     47  C   UNL     1       0.792 -12.942   6.776  1.00  0.00     0.029 A 
ATOM     48  C   UNL     1      -0.153 -14.020   7.053  1.00  0.00     0.049 A 
ATOM     49  H   UNL     1      -1.708 -14.686   5.836  1.00  0.00     0.167 HD
ATOM     50  C   UNL     1      -5.100 -15.809   3.281  1.00  0.00     0.034 A 
ATOM     51  C   UNL     1      -0.169 -14.779   8.165  1.00  0.00     0.034 A 
ATOM     52  C   UNL     1      -5.162 -16.707   4.408  1.00  0.00     0.049 A 
ATOM     53  C   UNL     1      -1.183 -15.884   8.283  1.00  0.00     0.074 A 
ATOM     54  C   UNL     1      -6.072 -17.718   4.665  1.00  0.00     0.029 A 
ATOM     55  N   UNL     1      -4.264 -16.706   5.469  1.00  0.00    -0.354 N 
ATOM     56  N   UNL     1      -2.171 -16.185   7.473  1.00  0.00    -0.248 NA
ATOM     57  C   UNL     1      -1.067 -16.766   9.451  1.00  0.00     0.031 C 
ATOM     58  C   UNL     1      -5.742 -18.309   5.892  1.00  0.00     0.029 A 
ATOM     59  C   UNL     1      -4.598 -17.697   6.378  1.00  0.00     0.049 A 
ATOM     60  H   UNL     1      -3.502 -16.090   5.561  1.00  0.00     0.167 HD
ATOM     61  C   UNL     1      -2.780 -17.308   8.023  1.00  0.00     0.074 A 
ATOM     62  C   UNL     1      -2.043 -17.634   9.227  1.00  0.00     0.031 C 
ATOM     63  C   UNL     1      -3.850 -18.008   7.571  1.00  0.00     0.034 A 
BRANCH  50  64
ATOM     64  C   UNL     1      -6.169 -15.883   2.220  1.00  0.00     0.023 A 
ATOM     65  C   UNL     1      -5.864 -16.242   0.895  1.00  0.00     0.031 A 
ATOM     66  C   UNL     1      -7.494 -15.524   2.518  1.00  0.00     0.131 A 
ATOM     67  C   UNL     1      -6.849 -16.146  -0.099  1.00  0.00     0.055 A 
ATOM     68  C   UNL     1      -8.489 -15.508   1.539  1.00  0.00     0.041 A 
ATOM     69  F   UNL     1      -7.839 -15.154   3.762  1.00  0.00    -0.206 F 
ATOM     70  C   UNL     1      -8.165 -15.803   0.217  1.00  0.00     0.022 A 
BRANCH  67  71
ATOM     71  S   UNL     1      -6.348 -16.326  -1.833  1.00  0.00     0.124 S 
ATOM     72  O   UNL     1      -5.406 -15.219  -1.981  1.00  0.00    -0.237 OA
ATOM     73  O   UNL     1      -5.770 -17.664  -1.858  1.00  0.00    -0.237 OA
ATOM     74  O   UNL     1      -7.600 -16.172  -2.570  1.00  0.00    -0.744 OA
ENDBRANCH  67  71
ENDBRANCH  50  64
BRANCH  51  75
ATOM     75  C   UNL     1       0.816 -14.535   9.250  1.00  0.00     0.023 A 
ATOM     76  C   UNL     1       1.877 -15.425   9.475  1.00  0.00     0.031 A 
ATOM     77  C   UNL     1       0.693 -13.417  10.092  1.00  0.00     0.131 A 
ATOM     78  C   UNL     1       2.757 -15.203  10.544  1.00  0.00     0.055 A 
ATOM     79  C   UNL     1       1.590 -13.184  11.136  1.00  0.00     0.041 A 
ATOM     80  F   UNL     1      -0.297 -12.531   9.903  1.00  0.00    -0.206 F 
ATOM     81  C   UNL     1       2.624 -14.085  11.373  1.00  0.00     0.022 A 
BRANCH  78  82
ATOM     82  S   UNL     1       4.054 -16.428  10.869  1.00  0.00     0.124 S 
ATOM     83  O   UNL     1       3.274 -17.643  11.074  1.00  0.00    -0.237 OA
ATOM     84  O   UNL     1       4.839 -16.368   9.640  1.00  0.00    -0.237 OA
ATOM     85  O   UNL     1       4.724 -15.907  12.059  1.00  0.00    -0.744 OA
ENDBRANCH  78  82
ENDBRANCH  51  75
BRANCH  63  86
ATOM     86  C   UNL     1      -4.243 -19.225   8.364  1.00  0.00     0.023 A 
ATOM     87  C   UNL     1      -4.856 -19.118   9.624  1.00  0.00     0.031 A 
ATOM     88  C   UNL     1      -3.973 -20.508   7.858  1.00  0.00     0.131 A 
ATOM     89  C   UNL     1      -5.138 -20.278  10.360  1.00  0.00     0.055 A 
ATOM     90  C   UNL     1      -4.290 -21.659   8.579  1.00  0.00     0.041 A 
ATOM     91  F   UNL     1      -3.387 -20.660   6.660  1.00  0.00    -0.206 F 
ATOM     92  C   UNL     1      -4.865 -21.548   9.842  1.00  0.00     0.022 A 
BRANCH  89  93
ATOM     93  S   UNL     1      -5.794 -20.105  12.043  1.00  0.00     0.124 S 
ATOM     94  O   UNL     1      -4.788 -19.259  12.679  1.00  0.00    -0.237 OA
ATOM     95  O   UNL     1      -7.093 -19.484  11.806  1.00  0.00    -0.237 OA
ATOM     96  O   UNL     1      -5.845 -21.481  12.534  1.00  0.00    -0.744 OA
ENDBRANCH  89  93
ENDBRANCH  63  86
ENDBRANCH  37  38
ENDBRANCH  29  32
ENDBRANCH  27  28
ENDBRANCH  26  27
ENDBRANCH  25  26
ENDBRANCH   1  25
TORSDOF 20
