REMARK SMILES C[C@]12CCC(=O)N1[C@@H](C(=O)N1C[C@H](O)C[C@@H]1C(=O)NCCCCNC(=O)c1ccc(-c3c4nc(c(-c5cc(S(=O)(=O)[O-])ccc5F)c5ccc([nH]5)c(-c5cc(S(=O)(=O)[O-])ccc5F)c5nc(c(-c6cc(S(=O)(=O)[O-])ccc6F)c6ccc3[nH]6)C=C5)C=C4)cc1)CS2
REMARK SMILES IDX 22 1 21 2 20 3 19 4 17 5 18 6 16 8 11 9 12 10 13 11 15 12
REMARK SMILES IDX 9 13 10 14 8 15 1 16 2 17 3 18 7 19 91 20 4 21 5 22 90 23
REMARK SMILES IDX 6 24 14 25 23 27 24 28 25 29 26 31 27 32 28 33 89 34 29 35
REMARK SMILES IDX 88 36 30 37 31 38 32 39 82 40 33 41 87 42 81 43 83 44 34 45
REMARK SMILES IDX 86 46 80 47 79 48 35 50 67 51 47 52 66 53 48 54 51 55 65 56
REMARK SMILES IDX 84 57 49 58 50 59 64 61 85 62 52 63 36 64 37 65 45 66 38 67
REMARK SMILES IDX 44 68 46 69 43 70 39 71 40 72 41 73 42 74 68 75 69 76 77 77
REMARK SMILES IDX 70 78 76 79 78 80 75 81 71 82 72 83 73 84 74 85 53 86 54 87
REMARK SMILES IDX 62 88 55 89 61 90 63 91 60 92 56 93 57 94 58 95 59 96
REMARK H PARENT 19 7 14 26 24 30 83 49 51 60
REMARK Flexibility Score: inf
ROOT
ATOM      1  C   UNL     1       4.662   2.922   4.254  1.00  0.00     0.023 C 
ENDROOT
BRANCH   1   2
ATOM      2  C   UNL     1       3.246   3.182   3.777  1.00  0.00     0.023 C 
BRANCH   2   3
ATOM      3  C   UNL     1       2.165   3.240   4.867  1.00  0.00     0.116 C 
BRANCH   3   4
ATOM      4  N   UNL     1       1.612   4.584   4.931  1.00  0.00    -0.354 N 
ATOM      5  C   UNL     1       0.549   5.163   4.308  1.00  0.00     0.242 C 
ATOM      6  O   UNL     1       0.529   6.401   4.307  1.00  0.00    -0.273 OA
ATOM      7  H   UNL     1       2.098   5.188   5.539  1.00  0.00     0.163 HD
BRANCH   5   8
ATOM      8  C   UNL     1      -0.640   4.349   3.712  1.00  0.00     0.177 C 
ATOM      9  N   UNL     1      -1.040   4.883   2.389  1.00  0.00    -0.326 N 
ATOM     10  C   UNL     1      -2.100   5.880   2.542  1.00  0.00     0.152 C 
ATOM     11  C   UNL     1      -2.483   5.901   4.021  1.00  0.00     0.136 C 
ATOM     12  C   UNL     1      -1.873   4.621   4.595  1.00  0.00     0.069 C 
BRANCH   9  13
ATOM     13  C   UNL     1      -0.717   4.539   1.086  1.00  0.00     0.247 C 
ATOM     14  O   UNL     1      -1.031   5.297   0.157  1.00  0.00    -0.272 OA
BRANCH  13  15
ATOM     15  C   UNL     1      -0.126   3.158   0.704  1.00  0.00     0.186 C 
ATOM     16  C   UNL     1       0.105   0.388  -0.879  1.00  0.00     0.047 C 
ATOM     17  C   UNL     1      -0.382   0.726   0.530  1.00  0.00     0.087 C 
ATOM     18  C   UNL     1      -1.404  -0.289   1.027  1.00  0.00     0.049 C 
ATOM     19  N   UNL     1      -1.036   2.007   0.635  1.00  0.00    -0.315 N 
ATOM     20  S   UNL     1       1.062   0.906   1.621  1.00  0.00    -0.131 SA
ATOM     21  C   UNL     1      -2.403   0.519   1.834  1.00  0.00     0.103 C 
ATOM     22  C   UNL     1      -2.218   1.929   1.351  1.00  0.00     0.224 C 
ATOM     23  C   UNL     1       1.112   2.726   1.457  1.00  0.00     0.107 C 
ATOM     24  O   UNL     1      -2.962   2.849   1.657  1.00  0.00    -0.275 OA
ENDBRANCH  13  15
ENDBRANCH   9  13
BRANCH  11  25
ATOM     25  O   UNL     1      -1.981   7.055   4.689  1.00  0.00    -0.391 OA
ATOM     26  H   UNL     1      -1.015   7.080   4.610  1.00  0.00     0.211 HD
ENDBRANCH  11  25
ENDBRANCH   5   8
ENDBRANCH   3   4
ENDBRANCH   2   3
ENDBRANCH   1   2
BRANCH   1  27
ATOM     27  C   UNL     1       4.875   1.515   4.794  1.00  0.00     0.116 C 
BRANCH  27  28
ATOM     28  N   UNL     1       4.631   0.444   3.824  1.00  0.00    -0.352 N 
ATOM     29  C   UNL     1       5.446  -0.608   3.456  1.00  0.00     0.251 C 
ATOM     30  H   UNL     1       3.760   0.480   3.369  1.00  0.00     0.163 HD
ATOM     31  O   UNL     1       5.094  -1.393   2.582  1.00  0.00    -0.269 OA
BRANCH  29  32
ATOM     32  C   UNL     1       6.777  -0.733   4.087  1.00  0.00     0.039 A 
ATOM     33  C   UNL     1       7.910  -0.837   3.278  1.00  0.00     0.014 A 
ATOM     34  C   UNL     1       6.903  -0.586   5.466  1.00  0.00     0.014 A 
ATOM     35  C   UNL     1       9.172  -0.642   3.843  1.00  0.00     0.010 A 
ATOM     36  C   UNL     1       8.141  -0.253   5.995  1.00  0.00     0.010 A 
ATOM     37  C   UNL     1       9.292  -0.262   5.190  1.00  0.00    -0.014 A 
BRANCH  37  38
ATOM     38  C   UNL     1      10.592   0.149   5.789  1.00  0.00     0.031 A 
ATOM     39  C   UNL     1      11.082  -0.535   7.039  1.00  0.00     0.074 A 
ATOM     40  C   UNL     1      11.265   1.208   5.291  1.00  0.00     0.049 A 
ATOM     41  N   UNL     1      12.072  -0.212   7.830  1.00  0.00    -0.248 NA
ATOM     42  C   UNL     1      10.306  -1.698   7.495  1.00  0.00     0.031 C 
ATOM     43  C   UNL     1      10.860   2.010   4.133  1.00  0.00     0.029 A 
ATOM     44  N   UNL     1      12.431   1.803   5.706  1.00  0.00    -0.354 N 
ATOM     45  C   UNL     1      12.001  -1.098   8.900  1.00  0.00     0.074 A 
ATOM     46  C   UNL     1      10.824  -1.913   8.692  1.00  0.00     0.031 C 
ATOM     47  C   UNL     1      11.781   2.961   3.907  1.00  0.00     0.029 A 
ATOM     48  C   UNL     1      12.816   2.874   4.930  1.00  0.00     0.049 A 
ATOM     49  H   UNL     1      12.945   1.493   6.486  1.00  0.00     0.167 HD
ATOM     50  C   UNL     1      12.858  -1.245   9.941  1.00  0.00     0.034 A 
ATOM     51  C   UNL     1      13.879   3.696   5.037  1.00  0.00     0.034 A 
ATOM     52  C   UNL     1      14.064  -0.472  10.093  1.00  0.00     0.049 A 
ATOM     53  C   UNL     1      14.851   3.481   6.170  1.00  0.00     0.074 A 
ATOM     54  C   UNL     1      15.055  -0.596  11.050  1.00  0.00     0.029 A 
ATOM     55  N   UNL     1      14.450   0.565   9.252  1.00  0.00    -0.354 N 
ATOM     56  N   UNL     1      14.799   2.603   7.145  1.00  0.00    -0.248 NA
ATOM     57  C   UNL     1      16.026   4.361   6.211  1.00  0.00     0.031 C 
ATOM     58  C   UNL     1      16.017   0.394  10.815  1.00  0.00     0.029 A 
ATOM     59  C   UNL     1      15.656   1.098   9.678  1.00  0.00     0.049 A 
ATOM     60  H   UNL     1      13.941   0.875   8.469  1.00  0.00     0.167 HD
ATOM     61  C   UNL     1      15.948   2.811   7.902  1.00  0.00     0.074 A 
ATOM     62  C   UNL     1      16.680   3.885   7.261  1.00  0.00     0.031 C 
ATOM     63  C   UNL     1      16.364   2.172   9.024  1.00  0.00     0.034 A 
BRANCH  50  64
ATOM     64  C   UNL     1      12.507  -2.280  10.985  1.00  0.00     0.023 A 
ATOM     65  C   UNL     1      12.379  -3.641  10.657  1.00  0.00     0.031 A 
ATOM     66  C   UNL     1      12.233  -1.896  12.309  1.00  0.00     0.131 A 
ATOM     67  C   UNL     1      11.883  -4.547  11.605  1.00  0.00     0.055 A 
ATOM     68  C   UNL     1      11.835  -2.822  13.276  1.00  0.00     0.041 A 
ATOM     69  F   UNL     1      12.320  -0.609  12.681  1.00  0.00    -0.206 F 
ATOM     70  C   UNL     1      11.636  -4.154  12.921  1.00  0.00     0.022 A 
BRANCH  67  71
ATOM     71  S   UNL     1      11.400  -6.202  11.040  1.00  0.00     0.124 S 
ATOM     72  O   UNL     1      10.362  -5.885  10.062  1.00  0.00    -0.237 OA
ATOM     73  O   UNL     1      12.648  -6.729  10.500  1.00  0.00    -0.237 OA
ATOM     74  O   UNL     1      10.921  -6.853  12.258  1.00  0.00    -0.744 OA
ENDBRANCH  67  71
ENDBRANCH  50  64
BRANCH  51  75
ATOM     75  C   UNL     1      14.095   4.794   4.051  1.00  0.00     0.023 A 
ATOM     76  C   UNL     1      15.190   4.764   3.173  1.00  0.00     0.031 A 
ATOM     77  C   UNL     1      13.236   5.906   3.997  1.00  0.00     0.131 A 
ATOM     78  C   UNL     1      15.427   5.846   2.311  1.00  0.00     0.055 A 
ATOM     79  C   UNL     1      13.450   6.959   3.105  1.00  0.00     0.041 A 
ATOM     80  F   UNL     1      12.168   5.979   4.807  1.00  0.00    -0.206 F 
ATOM     81  C   UNL     1      14.558   6.939   2.263  1.00  0.00     0.022 A 
BRANCH  78  82
ATOM     82  S   UNL     1      16.935   5.839   1.302  1.00  0.00     0.124 S 
ATOM     83  O   UNL     1      17.974   5.738   2.321  1.00  0.00    -0.237 OA
ATOM     84  O   UNL     1      16.736   4.657   0.470  1.00  0.00    -0.237 OA
ATOM     85  O   UNL     1      16.877   7.115   0.593  1.00  0.00    -0.744 OA
ENDBRANCH  78  82
ENDBRANCH  51  75
BRANCH  63  86
ATOM     86  C   UNL     1      17.691   2.596   9.597  1.00  0.00     0.023 A 
ATOM     87  C   UNL     1      17.862   3.849  10.209  1.00  0.00     0.031 A 
ATOM     88  C   UNL     1      18.797   1.730   9.530  1.00  0.00     0.131 A 
ATOM     89  C   UNL     1      19.125   4.222  10.690  1.00  0.00     0.055 A 
ATOM     90  C   UNL     1      20.038   2.086  10.057  1.00  0.00     0.041 A 
ATOM     91  F   UNL     1      18.684   0.522   8.956  1.00  0.00    -0.206 F 
ATOM     92  C   UNL     1      20.210   3.342  10.632  1.00  0.00     0.022 A 
BRANCH  89  93
ATOM     93  S   UNL     1      19.350   5.902  11.333  1.00  0.00     0.124 S 
ATOM     94  O   UNL     1      19.021   6.719  10.170  1.00  0.00    -0.237 OA
ATOM     95  O   UNL     1      18.393   5.946  12.434  1.00  0.00    -0.237 OA
ATOM     96  O   UNL     1      20.756   5.931  11.734  1.00  0.00    -0.744 OA
ENDBRANCH  89  93
ENDBRANCH  63  86
ENDBRANCH  37  38
ENDBRANCH  29  32
ENDBRANCH  27  28
ENDBRANCH   1  27
TORSDOF 17
