REMARK SMILES COC(=O)[C@@H]1CCN(S(=O)(=O)N2CCC(C(=O)NCCCCNC(=O)c3ccc(-c4c5nc(c(-c6cc(S(=O)(=O)[O-])ccc6F)c6ccc([nH]6)c(-c6cc(S(=O)(=O)[O-])ccc6F)c6nc(c(-c7cc(S(=O)(=O)[O-])ccc7F)c7ccc4[nH]7)C=C6)C=C5)cc3)CC2)C1
REMARK SMILES IDX 20 1 19 2 18 3 16 4 17 5 15 7 12 8 13 9 90 10 14 11 89 12
REMARK SMILES IDX 9 13 10 14 11 15 8 16 5 17 6 18 91 19 7 20 3 21 4 22 2 23
REMARK SMILES IDX 1 24 21 25 22 26 23 27 24 28 25 30 26 31 27 32 88 33 28 34
REMARK SMILES IDX 87 35 29 36 30 37 31 38 81 39 32 40 86 41 80 42 82 43 33 44
REMARK SMILES IDX 85 45 79 46 78 47 34 49 66 50 46 51 65 52 47 53 50 54 64 55
REMARK SMILES IDX 83 56 48 57 49 58 63 60 84 61 51 62 35 63 36 64 44 65 37 66
REMARK SMILES IDX 43 67 45 68 42 69 38 70 39 71 40 72 41 73 67 74 68 75 76 76
REMARK SMILES IDX 69 77 75 78 77 79 74 80 70 81 71 82 72 83 73 84 52 85 53 86
REMARK SMILES IDX 61 87 54 88 60 89 62 90 59 91 55 92 56 93 57 94 58 95
REMARK H PARENT 18 6 23 29 82 48 50 59
REMARK Flexibility Score: inf
ROOT
ATOM      1  C   UNL     1      -4.590  -9.525   7.156  1.00  0.00     0.023 C 
ENDROOT
BRANCH   1   2
ATOM      2  C   UNL     1      -3.160  -9.623   6.641  1.00  0.00     0.116 C 
BRANCH   2   3
ATOM      3  N   UNL     1      -3.039 -10.620   5.590  1.00  0.00    -0.356 N 
ATOM      4  C   UNL     1      -2.721 -10.485   4.274  1.00  0.00     0.223 C 
ATOM      5  O   UNL     1      -2.725 -11.491   3.561  1.00  0.00    -0.275 OA
ATOM      6  H   UNL     1      -3.216 -11.545   5.877  1.00  0.00     0.163 HD
BRANCH   4   7
ATOM      7  C   UNL     1      -2.327  -9.139   3.694  1.00  0.00     0.081 C 
ATOM      8  N   UNL     1      -1.906  -6.358   4.234  1.00  0.00    -0.189 NA
ATOM      9  C   UNL     1      -3.039  -6.712   3.358  1.00  0.00     0.104 C 
ATOM     10  C   UNL     1      -0.731  -7.215   4.013  1.00  0.00     0.104 C 
ATOM     11  C   UNL     1      -3.488  -8.135   3.685  1.00  0.00     0.030 C 
ATOM     12  C   UNL     1      -1.038  -8.651   4.359  1.00  0.00     0.030 C 
BRANCH   8  13
ATOM     13  S   UNL     1      -1.653  -4.728   4.567  1.00  0.00     0.281 S 
ATOM     14  O   UNL     1      -0.648  -4.613   5.595  1.00  0.00    -0.195 OA
ATOM     15  O   UNL     1      -2.947  -4.099   4.725  1.00  0.00    -0.195 OA
BRANCH  13  16
ATOM     16  N   UNL     1      -0.975  -4.133   3.123  1.00  0.00    -0.188 NA
ATOM     17  C   UNL     1       0.492  -2.186   2.950  1.00  0.00     0.116 C 
ATOM     18  C   UNL     1       1.286  -3.417   3.338  1.00  0.00     0.033 C 
ATOM     19  C   UNL     1      -0.971  -2.623   3.038  1.00  0.00     0.118 C 
ATOM     20  C   UNL     1       0.421  -4.540   2.808  1.00  0.00     0.104 C 
BRANCH  17  21
ATOM     21  C   UNL     1       0.862  -1.735   1.557  1.00  0.00     0.310 C 
ATOM     22  O   UNL     1       1.480  -2.410   0.743  1.00  0.00    -0.252 OA
BRANCH  21  23
ATOM     23  O   UNL     1       0.458  -0.452   1.350  1.00  0.00    -0.469 OA
ATOM     24  C   UNL     1       0.904   0.079   0.102  1.00  0.00     0.282 C 
ENDBRANCH  21  23
ENDBRANCH  17  21
ENDBRANCH  13  16
ENDBRANCH   8  13
ENDBRANCH   4   7
ENDBRANCH   2   3
ENDBRANCH   1   2
BRANCH   1  25
ATOM     25  C   UNL     1      -5.071 -10.771   7.894  1.00  0.00     0.023 C 
BRANCH  25  26
ATOM     26  C   UNL     1      -4.173 -11.213   9.042  1.00  0.00     0.116 C 
BRANCH  26  27
ATOM     27  N   UNL     1      -3.982 -10.171  10.039  1.00  0.00    -0.352 N 
ATOM     28  C   UNL     1      -4.108 -10.253  11.404  1.00  0.00     0.251 C 
ATOM     29  H   UNL     1      -3.728  -9.287   9.687  1.00  0.00     0.163 HD
ATOM     30  O   UNL     1      -4.083  -9.232  12.083  1.00  0.00    -0.269 OA
BRANCH  28  31
ATOM     31  C   UNL     1      -4.306 -11.575  12.035  1.00  0.00     0.039 A 
ATOM     32  C   UNL     1      -5.277 -11.710  13.028  1.00  0.00     0.014 A 
ATOM     33  C   UNL     1      -3.552 -12.680  11.630  1.00  0.00     0.014 A 
ATOM     34  C   UNL     1      -5.524 -12.968  13.579  1.00  0.00     0.010 A 
ATOM     35  C   UNL     1      -3.869 -13.946  12.108  1.00  0.00     0.010 A 
ATOM     36  C   UNL     1      -4.844 -14.102  13.104  1.00  0.00    -0.014 A 
BRANCH  36  37
ATOM     37  C   UNL     1      -5.115 -15.449  13.670  1.00  0.00     0.031 A 
ATOM     38  C   UNL     1      -4.017 -16.201  14.377  1.00  0.00     0.074 A 
ATOM     39  C   UNL     1      -6.335 -16.004  13.525  1.00  0.00     0.049 A 
ATOM     40  N   UNL     1      -4.045 -17.391  14.920  1.00  0.00    -0.248 NA
ATOM     41  C   UNL     1      -2.706 -15.539  14.454  1.00  0.00     0.031 C 
ATOM     42  C   UNL     1      -7.464 -15.392  12.822  1.00  0.00     0.029 A 
ATOM     43  N   UNL     1      -6.832 -17.205  13.965  1.00  0.00    -0.354 N 
ATOM     44  C   UNL     1      -2.758 -17.621  15.395  1.00  0.00     0.074 A 
ATOM     45  C   UNL     1      -1.957 -16.482  15.003  1.00  0.00     0.031 C 
ATOM     46  C   UNL     1      -8.531 -16.201  12.915  1.00  0.00     0.029 A 
ATOM     47  C   UNL     1      -8.154 -17.410  13.639  1.00  0.00     0.049 A 
ATOM     48  H   UNL     1      -6.294 -17.859  14.467  1.00  0.00     0.167 HD
ATOM     49  C   UNL     1      -2.294 -18.669  16.120  1.00  0.00     0.034 A 
ATOM     50  C   UNL     1      -8.966 -18.455  13.893  1.00  0.00     0.034 A 
ATOM     51  C   UNL     1      -3.110 -19.793  16.509  1.00  0.00     0.049 A 
ATOM     52  C   UNL     1      -8.419 -19.623  14.676  1.00  0.00     0.074 A 
ATOM     53  C   UNL     1      -2.759 -20.887  17.279  1.00  0.00     0.029 A 
ATOM     54  N   UNL     1      -4.441 -19.973  16.151  1.00  0.00    -0.354 N 
ATOM     55  N   UNL     1      -7.213 -19.799  15.167  1.00  0.00    -0.248 NA
ATOM     56  C   UNL     1      -9.349 -20.723  14.952  1.00  0.00     0.031 C 
ATOM     57  C   UNL     1      -3.848 -21.765  17.319  1.00  0.00     0.029 A 
ATOM     58  C   UNL     1      -4.913 -21.176  16.655  1.00  0.00     0.049 A 
ATOM     59  H   UNL     1      -4.972 -19.338  15.617  1.00  0.00     0.167 HD
ATOM     60  C   UNL     1      -7.254 -21.018  15.841  1.00  0.00     0.074 A 
ATOM     61  C   UNL     1      -8.609 -21.514  15.713  1.00  0.00     0.031 C 
ATOM     62  C   UNL     1      -6.263 -21.668  16.506  1.00  0.00     0.034 A 
BRANCH  49  63
ATOM     63  C   UNL     1      -0.834 -18.652  16.510  1.00  0.00     0.023 A 
ATOM     64  C   UNL     1      -0.294 -17.636  17.320  1.00  0.00     0.031 A 
ATOM     65  C   UNL     1       0.041 -19.648  16.041  1.00  0.00     0.131 A 
ATOM     66  C   UNL     1       1.086 -17.592  17.567  1.00  0.00     0.055 A 
ATOM     67  C   UNL     1       1.399 -19.650  16.367  1.00  0.00     0.041 A 
ATOM     68  F   UNL     1      -0.406 -20.631  15.244  1.00  0.00    -0.206 F 
ATOM     69  C   UNL     1       1.933 -18.609  17.120  1.00  0.00     0.022 A 
BRANCH  66  70
ATOM     70  S   UNL     1       1.781 -16.106  18.340  1.00  0.00     0.124 S 
ATOM     71  O   UNL     1       1.371 -15.066  17.399  1.00  0.00    -0.237 OA
ATOM     72  O   UNL     1       1.121 -16.088  19.640  1.00  0.00    -0.237 OA
ATOM     73  O   UNL     1       3.217 -16.375  18.372  1.00  0.00    -0.744 OA
ENDBRANCH  66  70
ENDBRANCH  49  63
BRANCH  50  74
ATOM     74  C   UNL     1     -10.377 -18.458  13.405  1.00  0.00     0.023 A 
ATOM     75  C   UNL     1     -11.456 -18.505  14.302  1.00  0.00     0.031 A 
ATOM     76  C   UNL     1     -10.666 -18.473  12.028  1.00  0.00     0.131 A 
ATOM     77  C   UNL     1     -12.768 -18.622  13.815  1.00  0.00     0.055 A 
ATOM     78  C   UNL     1     -11.976 -18.525  11.549  1.00  0.00     0.041 A 
ATOM     79  F   UNL     1      -9.674 -18.429  11.125  1.00  0.00    -0.206 F 
ATOM     80  C   UNL     1     -13.036 -18.616  12.445  1.00  0.00     0.022 A 
BRANCH  77  81
ATOM     81  S   UNL     1     -14.115 -18.887  15.002  1.00  0.00     0.124 S 
ATOM     82  O   UNL     1     -13.680 -20.105  15.676  1.00  0.00    -0.237 OA
ATOM     83  O   UNL     1     -14.067 -17.663  15.793  1.00  0.00    -0.237 OA
ATOM     84  O   UNL     1     -15.294 -19.031  14.150  1.00  0.00    -0.744 OA
ENDBRANCH  77  81
ENDBRANCH  50  74
BRANCH  62  85
ATOM     85  C   UNL     1      -6.633 -22.968  17.183  1.00  0.00     0.023 A 
ATOM     86  C   UNL     1      -7.077 -24.085  16.452  1.00  0.00     0.031 A 
ATOM     87  C   UNL     1      -6.580 -23.079  18.584  1.00  0.00     0.131 A 
ATOM     88  C   UNL     1      -7.532 -25.227  17.127  1.00  0.00     0.055 A 
ATOM     89  C   UNL     1      -6.955 -24.249  19.246  1.00  0.00     0.041 A 
ATOM     90  F   UNL     1      -6.168 -22.046  19.337  1.00  0.00    -0.206 F 
ATOM     91  C   UNL     1      -7.454 -25.325  18.519  1.00  0.00     0.022 A 
BRANCH  88  92
ATOM     92  S   UNL     1      -8.360 -26.527  16.171  1.00  0.00     0.124 S 
ATOM     93  O   UNL     1      -9.429 -25.784  15.513  1.00  0.00    -0.237 OA
ATOM     94  O   UNL     1      -7.289 -27.006  15.303  1.00  0.00    -0.237 OA
ATOM     95  O   UNL     1      -8.801 -27.476  17.192  1.00  0.00    -0.744 OA
ENDBRANCH  88  92
ENDBRANCH  62  85
ENDBRANCH  36  37
ENDBRANCH  28  31
ENDBRANCH  26  27
ENDBRANCH  25  26
ENDBRANCH   1  25
TORSDOF 18
