REMARK SMILES Cc1c(Cl)ccc2c(OCC(=O)NCCCCNC(=O)c3ccc(-c4c5nc(c(-c6cc(S(=O)(=O)[O-])ccc6F)c6ccc([nH]6)c(-c6cc(S(=O)(=O)[O-])ccc6F)c6nc(c(-c7cc(S(=O)(=O)[O-])ccc7F)c7ccc4[nH]7)C=C6)C=C5)cc3)ccnc12
REMARK SMILES IDX 16 1 15 2 14 3 13 4 11 5 12 6 10 8 9 9 8 10 1 11 2 12 3 13
REMARK SMILES IDX 87 14 4 15 5 16 7 17 86 18 6 19 85 20 84 21 17 22 18 23
REMARK SMILES IDX 19 24 20 26 21 27 22 28 83 29 23 30 82 31 24 32 25 33 26 34
REMARK SMILES IDX 76 35 27 36 81 37 75 38 77 39 28 40 80 41 74 42 73 43 29 45
REMARK SMILES IDX 61 46 41 47 60 48 42 49 45 50 59 51 78 52 43 53 44 54 58 56
REMARK SMILES IDX 79 57 46 58 30 59 31 60 39 61 32 62 38 63 40 64 37 65 33 66
REMARK SMILES IDX 34 67 35 68 36 69 62 70 63 71 71 72 64 73 70 74 72 75 69 76
REMARK SMILES IDX 65 77 66 78 67 79 68 80 47 81 48 82 56 83 49 84 55 85 57 86
REMARK SMILES IDX 54 87 50 88 51 89 52 90 53 91
REMARK H PARENT 13 7 18 25 77 44 45 55
REMARK Flexibility Score: inf
ROOT
ATOM      1  C   UNL     1      -4.251   4.411  -2.255  1.00  0.00     0.023 C 
ENDROOT
BRANCH   1   2
ATOM      2  C   UNL     1      -3.492   3.775  -3.423  1.00  0.00     0.023 C 
BRANCH   2   3
ATOM      3  C   UNL     1      -3.087   4.734  -4.540  1.00  0.00     0.116 C 
BRANCH   3   4
ATOM      4  N   UNL     1      -2.253   5.823  -4.071  1.00  0.00    -0.353 N 
ATOM      5  C   UNL     1      -0.917   6.020  -4.264  1.00  0.00     0.257 C 
ATOM      6  O   UNL     1      -0.393   7.044  -3.821  1.00  0.00    -0.271 OA
ATOM      7  H   UNL     1      -2.713   6.513  -3.540  1.00  0.00     0.163 HD
BRANCH   5   8
ATOM      8  C   UNL     1      -0.102   5.003  -5.068  1.00  0.00     0.329 C 
BRANCH   8   9
ATOM      9  O   UNL     1      -0.159   3.650  -4.649  1.00  0.00    -0.483 OA
BRANCH   9  10
ATOM     10  C   UNL     1       0.411   3.300  -3.449  1.00  0.00     0.131 A 
ATOM     11  C   UNL     1       1.158  -0.180  -0.036  1.00  0.00     0.048 C 
ATOM     12  C   UNL     1       0.591   0.217  -1.377  1.00  0.00    -0.006 A 
ATOM     13  C   UNL     1      -0.069  -0.704  -2.208  1.00  0.00     0.046 A 
ATOM     14  C   UNL     1       0.772   1.543  -1.808  1.00  0.00     0.078 A 
ATOM     15  Cl  UNL     1      -0.263  -2.369  -1.780  1.00  0.00    -0.084 Cl
ATOM     16  C   UNL     1      -0.587  -0.307  -3.437  1.00  0.00     0.022 A 
ATOM     17  C   UNL     1       0.239   1.951  -3.053  1.00  0.00     0.043 A 
ATOM     18  N   UNL     1       1.450   2.405  -1.029  1.00  0.00    -0.256 NA
ATOM     19  C   UNL     1      -0.442   1.011  -3.852  1.00  0.00     0.016 A 
ATOM     20  C   UNL     1       1.599   3.682  -1.434  1.00  0.00     0.115 A 
ATOM     21  C   UNL     1       1.110   4.173  -2.625  1.00  0.00     0.067 A 
ENDBRANCH   9  10
ENDBRANCH   8   9
ENDBRANCH   5   8
ENDBRANCH   3   4
ENDBRANCH   2   3
ENDBRANCH   1   2
BRANCH   1  22
ATOM     22  C   UNL     1      -5.471   5.246  -2.630  1.00  0.00     0.116 C 
BRANCH  22  23
ATOM     23  N   UNL     1      -6.495   4.483  -3.326  1.00  0.00    -0.352 N 
ATOM     24  C   UNL     1      -7.852   4.471  -3.098  1.00  0.00     0.251 C 
ATOM     25  H   UNL     1      -6.178   3.900  -4.053  1.00  0.00     0.163 HD
ATOM     26  O   UNL     1      -8.580   3.699  -3.714  1.00  0.00    -0.269 OA
BRANCH  24  27
ATOM     27  C   UNL     1      -8.415   5.373  -2.073  1.00  0.00     0.039 A 
ATOM     28  C   UNL     1      -9.139   4.820  -1.015  1.00  0.00     0.014 A 
ATOM     29  C   UNL     1      -8.171   6.750  -2.126  1.00  0.00     0.014 A 
ATOM     30  C   UNL     1      -9.553   5.640   0.035  1.00  0.00     0.010 A 
ATOM     31  C   UNL     1      -8.547   7.558  -1.055  1.00  0.00     0.010 A 
ATOM     32  C   UNL     1      -9.229   7.007   0.041  1.00  0.00    -0.014 A 
BRANCH  32  33
ATOM     33  C   UNL     1      -9.554   7.851   1.217  1.00  0.00     0.031 A 
ATOM     34  C   UNL     1     -10.618   8.906   1.131  1.00  0.00     0.074 A 
ATOM     35  C   UNL     1      -8.859   7.684   2.359  1.00  0.00     0.049 A 
ATOM     36  N   UNL     1     -11.070   9.693   2.073  1.00  0.00    -0.248 NA
ATOM     37  C   UNL     1     -11.246   9.116  -0.183  1.00  0.00     0.031 C 
ATOM     38  C   UNL     1      -7.759   6.734   2.542  1.00  0.00     0.029 A 
ATOM     39  N   UNL     1      -8.971   8.302   3.579  1.00  0.00    -0.354 N 
ATOM     40  C   UNL     1     -12.043  10.481   1.472  1.00  0.00     0.074 A 
ATOM     41  C   UNL     1     -12.073  10.120   0.072  1.00  0.00     0.031 C 
ATOM     42  C   UNL     1      -7.318   6.813   3.808  1.00  0.00     0.029 A 
ATOM     43  C   UNL     1      -8.091   7.826   4.522  1.00  0.00     0.049 A 
ATOM     44  H   UNL     1      -9.621   9.019   3.762  1.00  0.00     0.167 HD
ATOM     45  C   UNL     1     -12.859  11.399   2.044  1.00  0.00     0.034 A 
ATOM     46  C   UNL     1      -7.936   8.153   5.821  1.00  0.00     0.034 A 
ATOM     47  C   UNL     1     -12.827  11.748   3.440  1.00  0.00     0.049 A 
ATOM     48  C   UNL     1      -8.859   9.173   6.435  1.00  0.00     0.074 A 
ATOM     49  C   UNL     1     -13.647  12.632   4.120  1.00  0.00     0.029 A 
ATOM     50  N   UNL     1     -11.936  11.234   4.369  1.00  0.00    -0.354 N 
ATOM     51  N   UNL     1      -9.848   9.831   5.878  1.00  0.00    -0.248 NA
ATOM     52  C   UNL     1      -8.659   9.484   7.858  1.00  0.00     0.031 C 
ATOM     53  C   UNL     1     -13.231  12.675   5.454  1.00  0.00     0.029 A 
ATOM     54  C   UNL     1     -12.175  11.792   5.614  1.00  0.00     0.049 A 
ATOM     55  H   UNL     1     -11.236  10.570   4.173  1.00  0.00     0.167 HD
ATOM     56  C   UNL     1     -10.402  10.615   6.885  1.00  0.00     0.074 A 
ATOM     57  C   UNL     1      -9.652  10.333   8.091  1.00  0.00     0.031 C 
ATOM     58  C   UNL     1     -11.434  11.493   6.814  1.00  0.00     0.034 A 
BRANCH  45  59
ATOM     59  C   UNL     1     -13.892  12.062   1.175  1.00  0.00     0.023 A 
ATOM     60  C   UNL     1     -13.812  13.436   0.890  1.00  0.00     0.031 A 
ATOM     61  C   UNL     1     -15.009  11.345   0.711  1.00  0.00     0.131 A 
ATOM     62  C   UNL     1     -14.844  14.055   0.173  1.00  0.00     0.055 A 
ATOM     63  C   UNL     1     -16.020  11.960  -0.027  1.00  0.00     0.041 A 
ATOM     64  F   UNL     1     -15.123  10.029   0.956  1.00  0.00    -0.206 F 
ATOM     65  C   UNL     1     -15.943  13.323  -0.293  1.00  0.00     0.022 A 
BRANCH  62  66
ATOM     66  S   UNL     1     -14.809  15.834  -0.175  1.00  0.00     0.124 S 
ATOM     67  O   UNL     1     -15.034  15.866  -1.619  1.00  0.00    -0.237 OA
ATOM     68  O   UNL     1     -15.915  16.325   0.640  1.00  0.00    -0.237 OA
ATOM     69  O   UNL     1     -13.475  16.246   0.250  1.00  0.00    -0.744 OA
ENDBRANCH  62  66
ENDBRANCH  45  59
BRANCH  46  70
ATOM     70  C   UNL     1      -6.921   7.435   6.641  1.00  0.00     0.023 A 
ATOM     71  C   UNL     1      -5.545   7.592   6.403  1.00  0.00     0.031 A 
ATOM     72  C   UNL     1      -7.326   6.522   7.630  1.00  0.00     0.131 A 
ATOM     73  C   UNL     1      -4.624   6.819   7.122  1.00  0.00     0.055 A 
ATOM     74  C   UNL     1      -6.403   5.791   8.379  1.00  0.00     0.041 A 
ATOM     75  F   UNL     1      -8.630   6.334   7.880  1.00  0.00    -0.206 F 
ATOM     76  C   UNL     1      -5.044   5.931   8.119  1.00  0.00     0.022 A 
BRANCH  73  77
ATOM     77  S   UNL     1      -2.853   6.877   6.735  1.00  0.00     0.124 S 
ATOM     78  O   UNL     1      -2.272   7.254   8.020  1.00  0.00    -0.237 OA
ATOM     79  O   UNL     1      -2.599   5.504   6.306  1.00  0.00    -0.237 OA
ATOM     80  O   UNL     1      -2.764   7.884   5.683  1.00  0.00    -0.744 OA
ENDBRANCH  73  77
ENDBRANCH  46  70
BRANCH  58  81
ATOM     81  C   UNL     1     -11.832  12.226   8.068  1.00  0.00     0.023 A 
ATOM     82  C   UNL     1     -13.087  11.987   8.659  1.00  0.00     0.031 A 
ATOM     83  C   UNL     1     -11.024  13.244   8.602  1.00  0.00     0.131 A 
ATOM     84  C   UNL     1     -13.508  12.774   9.738  1.00  0.00     0.055 A 
ATOM     85  C   UNL     1     -11.434  14.003   9.699  1.00  0.00     0.041 A 
ATOM     86  F   UNL     1      -9.823  13.512   8.065  1.00  0.00    -0.206 F 
ATOM     87  C   UNL     1     -12.685  13.776  10.265  1.00  0.00     0.022 A 
BRANCH  84  88
ATOM     88  S   UNL     1     -15.159  12.572  10.459  1.00  0.00     0.124 S 
ATOM     89  O   UNL     1     -14.844  12.221  11.842  1.00  0.00    -0.237 OA
ATOM     90  O   UNL     1     -15.742  13.898  10.270  1.00  0.00    -0.237 OA
ATOM     91  O   UNL     1     -15.761  11.503   9.669  1.00  0.00    -0.744 OA
ENDBRANCH  84  88
ENDBRANCH  58  81
ENDBRANCH  32  33
ENDBRANCH  24  27
ENDBRANCH  22  23
ENDBRANCH   1  22
TORSDOF 16
