REMARK SMILES Cc1noc(C)c1CNc1cnc(C(=O)NCCCCNC(=O)c2ccc(-c3c4nc(c(-c5cc(S(=O)(=O)[O-])ccc5F)c5ccc([nH]5)c(-c5cc(S(=O)(=O)[O-])ccc5F)c5nc(c(-c6cc(S(=O)(=O)[O-])ccc6F)c6ccc3[nH]6)C=C5)C=C4)cc2)cn1
REMARK SMILES IDX 18 1 17 2 16 3 14 4 15 5 13 7 10 8 11 9 88 10 12 11 87 12
REMARK SMILES IDX 9 13 8 15 7 16 1 17 2 18 3 19 4 20 5 21 6 22 19 23 20 24
REMARK SMILES IDX 21 25 22 26 23 28 24 29 25 30 86 31 26 32 85 33 27 34 28 35
REMARK SMILES IDX 29 36 79 37 30 38 84 39 78 40 80 41 31 42 83 43 77 44 76 45
REMARK SMILES IDX 32 47 64 48 44 49 63 50 45 51 48 52 62 53 81 54 46 55 47 56
REMARK SMILES IDX 61 58 82 59 49 60 33 61 34 62 42 63 35 64 41 65 43 66 40 67
REMARK SMILES IDX 36 68 37 69 38 70 39 71 65 72 66 73 74 74 67 75 73 76 75 77
REMARK SMILES IDX 72 78 68 79 69 80 70 81 71 82 50 83 51 84 59 85 52 86 58 87
REMARK SMILES IDX 60 88 57 89 53 90 54 91 55 92 56 93
REMARK H PARENT 16 6 9 14 21 27 80 46 48 57
REMARK Flexibility Score: inf
ROOT
ATOM      1  C   UNL     1      -3.575   9.022   0.912  1.00  0.00     0.023 C 
ENDROOT
BRANCH   1   2
ATOM      2  C   UNL     1      -4.239   7.725   1.369  1.00  0.00     0.116 C 
BRANCH   2   3
ATOM      3  N   UNL     1      -5.200   7.250   0.390  1.00  0.00    -0.351 N 
ATOM      4  C   UNL     1      -5.076   6.315  -0.614  1.00  0.00     0.271 C 
ATOM      5  O   UNL     1      -6.056   6.102  -1.329  1.00  0.00    -0.267 OA
ATOM      6  H   UNL     1      -6.090   7.665   0.454  1.00  0.00     0.163 HD
BRANCH   4   7
ATOM      7  C   UNL     1      -3.829   5.529  -0.848  1.00  0.00     0.146 A 
ATOM      8  C   UNL     1      -1.713   3.861  -1.220  1.00  0.00     0.144 A 
ATOM      9  C   UNL     1      -1.673   4.943  -0.341  1.00  0.00     0.158 A 
ATOM     10  N   UNL     1      -2.808   3.647  -1.975  1.00  0.00    -0.235 NA
ATOM     11  N   UNL     1      -2.709   5.792  -0.135  1.00  0.00    -0.246 NA
ATOM     12  C   UNL     1      -3.860   4.489  -1.768  1.00  0.00     0.147 A 
BRANCH   8  13
ATOM     13  N   UNL     1      -0.706   2.936  -1.360  1.00  0.00    -0.365 N 
ATOM     14  H   UNL     1      -0.468   2.609  -2.257  1.00  0.00     0.162 HD
BRANCH  13  15
ATOM     15  C   UNL     1       0.009   2.435  -0.202  1.00  0.00     0.156 C 
BRANCH  15  16
ATOM     16  C   UNL     1       0.058   0.951  -0.090  1.00  0.00     0.037 A 
ATOM     17  C   UNL     1      -2.489   0.353  -0.004  1.00  0.00     0.071 C 
ATOM     18  C   UNL     1      -1.037   0.046   0.002  1.00  0.00     0.086 A 
ATOM     19  N   UNL     1      -0.617  -1.220   0.100  1.00  0.00    -0.085 NA
ATOM     20  O   UNL     1       0.762  -1.163   0.084  1.00  0.00    -0.361 OA
ATOM     21  C   UNL     1       1.163   0.131  -0.027  1.00  0.00     0.138 A 
ATOM     22  C   UNL     1       2.618   0.366  -0.043  1.00  0.00     0.091 C 
ENDBRANCH  15  16
ENDBRANCH  13  15
ENDBRANCH   8  13
ENDBRANCH   4   7
ENDBRANCH   2   3
ENDBRANCH   1   2
BRANCH   1  23
ATOM     23  C   UNL     1      -4.474  10.259   1.031  1.00  0.00     0.023 C 
BRANCH  23  24
ATOM     24  C   UNL     1      -5.021  10.538   2.430  1.00  0.00     0.116 C 
BRANCH  24  25
ATOM     25  N   UNL     1      -3.983  10.642   3.445  1.00  0.00    -0.352 N 
ATOM     26  C   UNL     1      -3.943  11.457   4.551  1.00  0.00     0.251 C 
ATOM     27  H   UNL     1      -3.207  10.049   3.323  1.00  0.00     0.163 HD
ATOM     28  O   UNL     1      -2.932  11.496   5.247  1.00  0.00    -0.269 OA
BRANCH  26  29
ATOM     29  C   UNL     1      -5.107  12.312   4.866  1.00  0.00     0.039 A 
ATOM     30  C   UNL     1      -4.896  13.668   5.127  1.00  0.00     0.014 A 
ATOM     31  C   UNL     1      -6.401  11.786   4.867  1.00  0.00     0.014 A 
ATOM     32  C   UNL     1      -5.992  14.513   5.315  1.00  0.00     0.010 A 
ATOM     33  C   UNL     1      -7.493  12.641   4.986  1.00  0.00     0.010 A 
ATOM     34  C   UNL     1      -7.300  14.013   5.206  1.00  0.00    -0.014 A 
BRANCH  34  35
ATOM     35  C   UNL     1      -8.479  14.911   5.308  1.00  0.00     0.031 A 
ATOM     36  C   UNL     1      -9.465  14.739   6.430  1.00  0.00     0.074 A 
ATOM     37  C   UNL     1      -8.706  15.823   4.343  1.00  0.00     0.049 A 
ATOM     38  N   UNL     1     -10.595  15.363   6.644  1.00  0.00    -0.248 NA
ATOM     39  C   UNL     1      -9.152  13.699   7.419  1.00  0.00     0.031 C 
ATOM     40  C   UNL     1      -7.854  16.041   3.171  1.00  0.00     0.029 A 
ATOM     41  N   UNL     1      -9.729  16.722   4.182  1.00  0.00    -0.354 N 
ATOM     42  C   UNL     1     -11.139  14.779   7.783  1.00  0.00     0.074 A 
ATOM     43  C   UNL     1     -10.244  13.707   8.168  1.00  0.00     0.031 C 
ATOM     44  C   UNL     1      -8.384  17.019   2.419  1.00  0.00     0.029 A 
ATOM     45  C   UNL     1      -9.629  17.471   3.033  1.00  0.00     0.049 A 
ATOM     46  H   UNL     1     -10.465  16.823   4.828  1.00  0.00     0.167 HD
ATOM     47  C   UNL     1     -12.265  15.121   8.459  1.00  0.00     0.034 A 
ATOM     48  C   UNL     1     -10.454  18.405   2.521  1.00  0.00     0.034 A 
ATOM     49  C   UNL     1     -13.140  16.198   8.060  1.00  0.00     0.049 A 
ATOM     50  C   UNL     1     -11.701  18.773   3.280  1.00  0.00     0.074 A 
ATOM     51  C   UNL     1     -14.265  16.681   8.706  1.00  0.00     0.029 A 
ATOM     52  N   UNL     1     -12.997  16.952   6.901  1.00  0.00    -0.354 N 
ATOM     53  N   UNL     1     -12.168  18.262   4.396  1.00  0.00    -0.248 NA
ATOM     54  C   UNL     1     -12.523  19.851   2.719  1.00  0.00     0.031 C 
ATOM     55  C   UNL     1     -14.839  17.677   7.905  1.00  0.00     0.029 A 
ATOM     56  C   UNL     1     -14.031  17.871   6.795  1.00  0.00     0.049 A 
ATOM     57  H   UNL     1     -12.267  16.848   6.248  1.00  0.00     0.167 HD
ATOM     58  C   UNL     1     -13.330  18.973   4.681  1.00  0.00     0.074 A 
ATOM     59  C   UNL     1     -13.482  19.956   3.627  1.00  0.00     0.031 C 
ATOM     60  C   UNL     1     -14.188  18.829   5.724  1.00  0.00     0.034 A 
BRANCH  47  61
ATOM     61  C   UNL     1     -12.615  14.293   9.676  1.00  0.00     0.023 A 
ATOM     62  C   UNL     1     -11.746  14.200  10.778  1.00  0.00     0.031 A 
ATOM     63  C   UNL     1     -13.798  13.534   9.709  1.00  0.00     0.131 A 
ATOM     64  C   UNL     1     -12.016  13.289  11.810  1.00  0.00     0.055 A 
ATOM     65  C   UNL     1     -14.109  12.701  10.787  1.00  0.00     0.041 A 
ATOM     66  F   UNL     1     -14.661  13.566   8.682  1.00  0.00    -0.206 F 
ATOM     67  C   UNL     1     -13.204  12.556  11.835  1.00  0.00     0.022 A 
BRANCH  64  68
ATOM     68  S   UNL     1     -10.704  12.935  13.013  1.00  0.00     0.124 S 
ATOM     69  O   UNL     1      -9.608  12.519  12.140  1.00  0.00    -0.237 OA
ATOM     70  O   UNL     1     -10.537  14.220  13.682  1.00  0.00    -0.237 OA
ATOM     71  O   UNL     1     -11.272  11.870  13.836  1.00  0.00    -0.744 OA
ENDBRANCH  64  68
ENDBRANCH  47  61
BRANCH  48  72
ATOM     72  C   UNL     1     -10.127  19.049   1.219  1.00  0.00     0.023 A 
ATOM     73  C   UNL     1      -9.750  20.399   1.150  1.00  0.00     0.031 A 
ATOM     74  C   UNL     1     -10.183  18.314   0.021  1.00  0.00     0.131 A 
ATOM     75  C   UNL     1      -9.467  20.981  -0.096  1.00  0.00     0.055 A 
ATOM     76  C   UNL     1      -9.862  18.887  -1.210  1.00  0.00     0.041 A 
ATOM     77  F   UNL     1     -10.526  17.016   0.037  1.00  0.00    -0.206 F 
ATOM     78  C   UNL     1      -9.509  20.231  -1.274  1.00  0.00     0.022 A 
BRANCH  75  79
ATOM     79  S   UNL     1      -9.076  22.751  -0.161  1.00  0.00     0.124 S 
ATOM     80  O   UNL     1     -10.306  23.346   0.349  1.00  0.00    -0.237 OA
ATOM     81  O   UNL     1      -7.911  22.837   0.714  1.00  0.00    -0.237 OA
ATOM     82  O   UNL     1      -8.807  22.988  -1.577  1.00  0.00    -0.744 OA
ENDBRANCH  75  79
ENDBRANCH  48  72
BRANCH  60  83
ATOM     83  C   UNL     1     -15.354  19.786   5.786  1.00  0.00     0.023 A 
ATOM     84  C   UNL     1     -16.392  19.749   4.839  1.00  0.00     0.031 A 
ATOM     85  C   UNL     1     -15.419  20.755   6.803  1.00  0.00     0.131 A 
ATOM     86  C   UNL     1     -17.425  20.698   4.898  1.00  0.00     0.055 A 
ATOM     87  C   UNL     1     -16.479  21.659   6.890  1.00  0.00     0.041 A 
ATOM     88  F   UNL     1     -14.453  20.838   7.731  1.00  0.00    -0.206 F 
ATOM     89  C   UNL     1     -17.484  21.641   5.927  1.00  0.00     0.022 A 
BRANCH  86  90
ATOM     90  S   UNL     1     -18.649  20.739   3.560  1.00  0.00     0.124 S 
ATOM     91  O   UNL     1     -17.810  20.967   2.388  1.00  0.00    -0.237 OA
ATOM     92  O   UNL     1     -19.265  19.420   3.657  1.00  0.00    -0.237 OA
ATOM     93  O   UNL     1     -19.519  21.856   3.925  1.00  0.00    -0.744 OA
ENDBRANCH  86  90
ENDBRANCH  60  83
ENDBRANCH  34  35
ENDBRANCH  26  29
ENDBRANCH  24  25
ENDBRANCH  23  24
ENDBRANCH   1  23
TORSDOF 17
