REMARK SMILES CCOc1ccccc1[C@H]1CC(C(=O)NCCCCNC(=O)c2ccc(-c3c4nc(c(-c5cc(S(=O)(=O)[O-])ccc5F)c5ccc([nH]5)c(-c5cc(S(=O)(=O)[O-])ccc5F)c5nc(c(-c6cc(S(=O)(=O)[O-])ccc6F)c6ccc3[nH]6)C=C5)C=C4)cc2)=Nc2c(C(=O)Nc3ccccc3)cnn21
REMARK SMILES IDX 17 1 16 2 15 3 13 4 14 5 12 7 10 8 11 9 100 10 87 11 99 12
REMARK SMILES IDX 86 13 88 14 98 15 9 16 4 17 5 18 6 19 8 20 7 21 3 22 2 23
REMARK SMILES IDX 1 24 89 25 90 26 91 27 92 29 93 30 97 31 94 32 96 33 95 34
REMARK SMILES IDX 18 35 19 36 20 37 21 38 22 40 23 41 24 42 85 43 25 44 84 45
REMARK SMILES IDX 26 46 27 47 28 48 78 49 29 50 83 51 77 52 79 53 30 54 82 55
REMARK SMILES IDX 76 56 75 57 31 59 63 60 43 61 62 62 44 63 47 64 61 65 80 66
REMARK SMILES IDX 45 67 46 68 60 70 81 71 48 72 32 73 33 74 41 75 34 76 40 77
REMARK SMILES IDX 42 78 39 79 35 80 36 81 37 82 38 83 64 84 65 85 73 86 66 87
REMARK SMILES IDX 72 88 74 89 71 90 67 91 68 92 69 93 70 94 49 95 50 96 58 97
REMARK SMILES IDX 51 98 57 99 59 100 56 101 52 102 53 103 54 104 55 105
REMARK H PARENT 15 6 91 28 20 39 79 58 47 69
REMARK Flexibility Score: inf
ROOT
ATOM      1  C   UNL     1       1.473   4.945  -1.463  1.00  0.00     0.023 C 
ENDROOT
BRANCH   1   2
ATOM      2  C   UNL     1       1.185   4.482  -0.040  1.00  0.00     0.116 C 
BRANCH   2   3
ATOM      3  N   UNL     1      -0.096   3.816   0.117  1.00  0.00    -0.351 N 
ATOM      4  C   UNL     1      -0.420   2.591   0.663  1.00  0.00     0.265 C 
ATOM      5  O   UNL     1      -1.506   2.455   1.213  1.00  0.00    -0.268 OA
ATOM      6  H   UNL     1      -0.866   4.326  -0.224  1.00  0.00     0.163 HD
BRANCH   4   7
ATOM      7  C   UNL     1       0.505   1.375   0.478  1.00  0.00     0.110 C 
ATOM      8  C   UNL     1       3.089   0.637   0.334  1.00  0.00     0.150 C 
ATOM      9  C   UNL     1       1.975   1.666   0.400  1.00  0.00     0.094 C 
ATOM     10  N   UNL     1       2.528  -0.673   0.411  1.00  0.00    -0.239 N 
ATOM     11  C   UNL     1       0.726  -0.840   0.064  1.00  0.00     0.164 A 
ATOM     12  N   UNL     1       3.360  -2.345   0.349  1.00  0.00    -0.178 NA
ATOM     13  N   UNL     1      -0.064   0.226   0.291  1.00  0.00    -0.227 NA
ATOM     14  C   UNL     1       0.428  -2.551  -0.300  1.00  0.00     0.104 A 
ATOM     15  C   UNL     1       2.116  -3.487  -0.020  1.00  0.00     0.151 A 
BRANCH   8  16
ATOM     16  C   UNL     1       3.839   0.828  -0.958  1.00  0.00     0.019 A 
ATOM     17  C   UNL     1       3.951  -0.194  -1.895  1.00  0.00     0.124 A 
ATOM     18  C   UNL     1       4.681   0.039  -3.067  1.00  0.00     0.047 A 
ATOM     19  C   UNL     1       5.258   1.290  -3.329  1.00  0.00     0.004 A 
ATOM     20  C   UNL     1       4.437   2.086  -1.225  1.00  0.00     0.010 A 
ATOM     21  C   UNL     1       5.128   2.321  -2.409  1.00  0.00     0.001 A 
BRANCH  17  22
ATOM     22  O   UNL     1       3.524  -1.476  -1.685  1.00  0.00    -0.494 OA
BRANCH  22  23
ATOM     23  C   UNL     1       2.121  -1.810  -1.006  1.00  0.00     0.226 C 
ATOM     24  C   UNL     1       1.667  -2.109   1.208  1.00  0.00     0.049 C 
ENDBRANCH  22  23
ENDBRANCH  17  22
ENDBRANCH   8  16
BRANCH  14  25
ATOM     25  C   UNL     1      -0.828  -3.225  -0.614  1.00  0.00     0.261 C 
ATOM     26  O   UNL     1      -0.914  -4.446  -0.484  1.00  0.00    -0.269 OA
ATOM     27  N   UNL     1      -1.950  -2.509  -0.978  1.00  0.00    -0.322 N 
ATOM     28  H   UNL     1      -2.800  -3.001  -0.921  1.00  0.00     0.170 HD
BRANCH  27  29
ATOM     29  C   UNL     1      -2.056  -1.181  -1.419  1.00  0.00     0.041 A 
ATOM     30  C   UNL     1      -3.015  -0.370  -0.809  1.00  0.00     0.026 A 
ATOM     31  C   UNL     1      -1.204  -0.640  -2.389  1.00  0.00     0.026 A 
ATOM     32  C   UNL     1      -3.037   1.001  -1.075  1.00  0.00     0.002 A 
ATOM     33  C   UNL     1      -1.230   0.734  -2.656  1.00  0.00     0.002 A 
ATOM     34  C   UNL     1      -2.136   1.555  -1.986  1.00  0.00     0.000 A 
ENDBRANCH  27  29
ENDBRANCH  14  25
ENDBRANCH   4   7
ENDBRANCH   2   3
ENDBRANCH   1   2
BRANCH   1  35
ATOM     35  C   UNL     1       0.617   6.130  -1.906  1.00  0.00     0.023 C 
BRANCH  35  36
ATOM     36  C   UNL     1       0.478   7.192  -0.825  1.00  0.00     0.116 C 
BRANCH  36  37
ATOM     37  N   UNL     1       1.770   7.720  -0.375  1.00  0.00    -0.352 N 
ATOM     38  C   UNL     1       1.977   8.859   0.389  1.00  0.00     0.251 C 
ATOM     39  H   UNL     1       2.572   7.214  -0.641  1.00  0.00     0.163 HD
ATOM     40  O   UNL     1       3.048   9.449   0.375  1.00  0.00    -0.269 OA
BRANCH  38  41
ATOM     41  C   UNL     1       0.901   9.222   1.329  1.00  0.00     0.039 A 
ATOM     42  C   UNL     1       0.510  10.501   1.720  1.00  0.00     0.014 A 
ATOM     43  C   UNL     1       0.293   8.143   1.941  1.00  0.00     0.014 A 
ATOM     44  C   UNL     1      -0.457  10.593   2.754  1.00  0.00     0.010 A 
ATOM     45  C   UNL     1      -0.963   8.326   2.410  1.00  0.00     0.010 A 
ATOM     46  C   UNL     1      -1.090   9.415   3.233  1.00  0.00    -0.014 A 
BRANCH  46  47
ATOM     47  C   UNL     1      -2.326   9.303   4.048  1.00  0.00     0.031 A 
ATOM     48  C   UNL     1      -3.378  10.118   3.308  1.00  0.00     0.074 A 
ATOM     49  C   UNL     1      -2.491   8.448   5.129  1.00  0.00     0.049 A 
ATOM     50  N   UNL     1      -3.589  11.384   3.506  1.00  0.00    -0.248 NA
ATOM     51  C   UNL     1      -3.930   9.713   1.977  1.00  0.00     0.031 C 
ATOM     52  C   UNL     1      -1.546   7.532   5.822  1.00  0.00     0.029 A 
ATOM     53  N   UNL     1      -3.618   8.225   5.921  1.00  0.00    -0.354 N 
ATOM     54  C   UNL     1      -4.647  11.720   2.666  1.00  0.00     0.074 A 
ATOM     55  C   UNL     1      -4.548  10.827   1.561  1.00  0.00     0.031 C 
ATOM     56  C   UNL     1      -2.193   6.702   6.699  1.00  0.00     0.029 A 
ATOM     57  C   UNL     1      -3.603   7.061   6.778  1.00  0.00     0.049 A 
ATOM     58  H   UNL     1      -4.390   8.835   5.898  1.00  0.00     0.167 HD
ATOM     59  C   UNL     1      -5.732  12.353   3.195  1.00  0.00     0.034 A 
ATOM     60  C   UNL     1      -4.609   6.592   7.635  1.00  0.00     0.034 A 
ATOM     61  C   UNL     1      -5.373  12.858   4.504  1.00  0.00     0.049 A 
ATOM     62  C   UNL     1      -5.515   7.763   7.821  1.00  0.00     0.074 A 
ATOM     63  C   UNL     1      -4.423  13.736   4.982  1.00  0.00     0.029 A 
ATOM     64  N   UNL     1      -5.680  12.006   5.537  1.00  0.00    -0.354 N 
ATOM     65  N   UNL     1      -5.114   8.839   8.447  1.00  0.00    -0.248 NA
ATOM     66  C   UNL     1      -6.493   7.962   6.755  1.00  0.00     0.031 C 
ATOM     67  C   UNL     1      -3.893  13.107   6.149  1.00  0.00     0.029 A 
ATOM     68  C   UNL     1      -4.670  11.992   6.462  1.00  0.00     0.049 A 
ATOM     69  H   UNL     1      -6.510  11.480   5.604  1.00  0.00     0.167 HD
ATOM     70  C   UNL     1      -5.377   9.866   7.556  1.00  0.00     0.074 A 
ATOM     71  C   UNL     1      -6.225   9.252   6.515  1.00  0.00     0.031 C 
ATOM     72  C   UNL     1      -4.585  10.985   7.504  1.00  0.00     0.034 A 
BRANCH  59  73
ATOM     73  C   UNL     1      -7.184  12.061   2.846  1.00  0.00     0.023 A 
ATOM     74  C   UNL     1      -8.152  12.806   3.546  1.00  0.00     0.031 A 
ATOM     75  C   UNL     1      -7.676  10.938   2.139  1.00  0.00     0.131 A 
ATOM     76  C   UNL     1      -9.496  12.395   3.598  1.00  0.00     0.055 A 
ATOM     77  C   UNL     1      -9.028  10.569   2.140  1.00  0.00     0.041 A 
ATOM     78  F   UNL     1      -6.880  10.085   1.486  1.00  0.00    -0.206 F 
ATOM     79  C   UNL     1      -9.945  11.286   2.890  1.00  0.00     0.022 A 
BRANCH  76  80
ATOM     80  S   UNL     1     -10.601  13.247   4.752  1.00  0.00     0.124 S 
ATOM     81  O   UNL     1      -9.915  13.043   6.021  1.00  0.00    -0.237 OA
ATOM     82  O   UNL     1     -10.590  14.608   4.225  1.00  0.00    -0.237 OA
ATOM     83  O   UNL     1     -11.866  12.532   4.600  1.00  0.00    -0.744 OA
ENDBRANCH  76  80
ENDBRANCH  59  73
BRANCH  60  84
ATOM     84  C   UNL     1      -5.169   5.160   7.848  1.00  0.00     0.023 A 
ATOM     85  C   UNL     1      -6.127   4.680   8.831  1.00  0.00     0.031 A 
ATOM     86  C   UNL     1      -4.915   4.261   6.797  1.00  0.00     0.131 A 
ATOM     87  C   UNL     1      -6.745   3.379   8.700  1.00  0.00     0.055 A 
ATOM     88  C   UNL     1      -5.554   3.023   6.657  1.00  0.00     0.041 A 
ATOM     89  F   UNL     1      -4.081   4.595   5.803  1.00  0.00    -0.206 F 
ATOM     90  C   UNL     1      -6.473   2.582   7.591  1.00  0.00     0.022 A 
BRANCH  87  91
ATOM     91  S   UNL     1      -7.926   2.618   9.925  1.00  0.00     0.124 S 
ATOM     92  O   UNL     1      -7.104   2.476  11.121  1.00  0.00    -0.237 OA
ATOM     93  O   UNL     1      -9.012   3.588   9.993  1.00  0.00    -0.237 OA
ATOM     94  O   UNL     1      -8.300   1.343   9.304  1.00  0.00    -0.744 OA
ENDBRANCH  87  91
ENDBRANCH  60  84
BRANCH  72  95
ATOM     95  C   UNL     1      -3.551  11.204   8.598  1.00  0.00     0.023 A 
ATOM     96  C   UNL     1      -2.410  10.410   8.892  1.00  0.00     0.031 A 
ATOM     97  C   UNL     1      -3.729  12.377   9.347  1.00  0.00     0.131 A 
ATOM     98  C   UNL     1      -1.543  10.789   9.947  1.00  0.00     0.055 A 
ATOM     99  C   UNL     1      -2.846  12.771  10.345  1.00  0.00     0.041 A 
ATOM    100  F   UNL     1      -4.771  13.186   9.097  1.00  0.00    -0.206 F 
ATOM    101  C   UNL     1      -1.760  11.971  10.664  1.00  0.00     0.022 A 
BRANCH  98 102
ATOM    102  S   UNL     1      -0.175   9.704  10.498  1.00  0.00     0.124 S 
ATOM    103  O   UNL     1      -0.816   8.400  10.617  1.00  0.00    -0.237 OA
ATOM    104  O   UNL     1       0.798   9.837   9.418  1.00  0.00    -0.237 OA
ATOM    105  O   UNL     1       0.243  10.298  11.770  1.00  0.00    -0.744 OA
ENDBRANCH  98 102
ENDBRANCH  72  95
ENDBRANCH  46  47
ENDBRANCH  38  41
ENDBRANCH  36  37
ENDBRANCH  35  36
ENDBRANCH   1  35
TORSDOF 19
