REMARK SMILES CCN(CC)c1ccc(NS(=O)(=O)c2ccc(Cl)s2)cc1C(=O)NCCCCNC(=O)c1ccc(-c2c3nc(c(-c4cc(S(=O)(=O)[O-])ccc4F)c4ccc([nH]4)c(-c4cc(S(=O)(=O)[O-])ccc4F)c4nc(c(-c5cc(S(=O)(=O)[O-])ccc5F)c5ccc2[nH]5)C=C4)C=C3)cc1
REMARK SMILES IDX 26 1 25 2 24 3 22 4 23 5 21 7 6 8 7 9 8 10 20 11 9 12 3 13
REMARK SMILES IDX 2 14 1 15 4 16 5 17 10 18 11 20 12 21 13 22 14 23 15 24
REMARK SMILES IDX 19 25 16 26 17 27 18 28 27 29 28 30 29 31 30 32 31 34 32 35
REMARK SMILES IDX 33 36 94 37 34 38 93 39 35 40 36 41 37 42 87 43 38 44 92 45
REMARK SMILES IDX 86 46 88 47 39 48 91 49 85 50 84 51 40 53 72 54 52 55 71 56
REMARK SMILES IDX 53 57 56 58 70 59 89 60 54 61 55 62 69 64 90 65 57 66 41 67
REMARK SMILES IDX 42 68 50 69 43 70 49 71 51 72 48 73 44 74 45 75 46 76 47 77
REMARK SMILES IDX 73 78 74 79 82 80 75 81 81 82 83 83 80 84 76 85 77 86 78 87
REMARK SMILES IDX 79 88 58 89 59 90 67 91 60 92 66 93 68 94 65 95 61 96 62 97
REMARK SMILES IDX 63 98 64 99
REMARK H PARENT 24 6 10 19 29 33 88 52 56 63
REMARK Flexibility Score: inf
ROOT
ATOM      1  C   UNL     1      -1.207   0.422   2.389  1.00  0.00     0.023 C 
ENDROOT
BRANCH   1   2
ATOM      2  C   UNL     1       0.034  -0.380   2.010  1.00  0.00     0.116 C 
BRANCH   2   3
ATOM      3  N   UNL     1       1.178   0.396   1.616  1.00  0.00    -0.352 N 
ATOM      4  C   UNL     1       2.464  -0.008   1.352  1.00  0.00     0.253 C 
ATOM      5  O   UNL     1       3.281   0.882   1.092  1.00  0.00    -0.269 OA
ATOM      6  H   UNL     1       1.016   1.363   1.521  1.00  0.00     0.163 HD
BRANCH   4   7
ATOM      7  C   UNL     1       2.986  -1.415   1.399  1.00  0.00     0.065 A 
ATOM      8  C   UNL     1       2.435  -2.559   0.783  1.00  0.00     0.050 A 
ATOM      9  C   UNL     1       3.282  -3.670   0.599  1.00  0.00     0.029 A 
ATOM     10  C   UNL     1       4.570  -3.727   1.122  1.00  0.00     0.029 A 
ATOM     11  C   UNL     1       4.285  -1.509   1.964  1.00  0.00     0.042 A 
ATOM     12  C   UNL     1       5.055  -2.672   1.877  1.00  0.00     0.050 A 
BRANCH   8  13
ATOM     13  N   UNL     1       1.119  -2.684   0.349  1.00  0.00    -0.371 N 
BRANCH  13  14
ATOM     14  C   UNL     1       0.850  -2.659  -1.094  1.00  0.00     0.113 C 
ATOM     15  C   UNL     1       1.357  -1.385  -1.755  1.00  0.00     0.027 C 
ENDBRANCH  13  14
BRANCH  13  16
ATOM     16  C   UNL     1       0.210  -3.466   1.216  1.00  0.00     0.113 C 
ATOM     17  C   UNL     1       0.398  -4.971   1.169  1.00  0.00     0.027 C 
ENDBRANCH  13  16
ENDBRANCH   8  13
BRANCH  12  18
ATOM     18  N   UNL     1       6.229  -2.749   2.688  1.00  0.00    -0.279 N 
ATOM     19  H   UNL     1       6.484  -1.952   3.207  1.00  0.00     0.180 HD
BRANCH  18  20
ATOM     20  S   UNL     1       7.203  -4.111   2.813  1.00  0.00     0.271 S 
ATOM     21  O   UNL     1       7.726  -4.419   1.494  1.00  0.00    -0.200 OA
ATOM     22  O   UNL     1       8.082  -3.918   3.932  1.00  0.00    -0.200 OA
BRANCH  20  23
ATOM     23  C   UNL     1       6.223  -5.544   3.228  1.00  0.00     0.141 A 
ATOM     24  C   UNL     1       6.275  -6.853   2.777  1.00  0.00     0.036 A 
ATOM     25  S   UNL     1       4.928  -5.313   4.328  1.00  0.00    -0.110 S 
ATOM     26  C   UNL     1       5.174  -7.630   3.244  1.00  0.00     0.034 A 
ATOM     27  C   UNL     1       4.361  -6.884   4.057  1.00  0.00     0.094 A 
ATOM     28  Cl  UNL     1       2.887  -7.395   4.775  1.00  0.00    -0.072 Cl
ENDBRANCH  20  23
ENDBRANCH  18  20
ENDBRANCH  12  18
ENDBRANCH   4   7
ENDBRANCH   2   3
ENDBRANCH   1   2
BRANCH   1  29
ATOM     29  C   UNL     1      -1.853   1.238   1.262  1.00  0.00     0.023 C 
BRANCH  29  30
ATOM     30  C   UNL     1      -2.012   0.560  -0.101  1.00  0.00     0.116 C 
BRANCH  30  31
ATOM     31  N   UNL     1      -2.858  -0.625  -0.097  1.00  0.00    -0.352 N 
ATOM     32  C   UNL     1      -4.116  -0.848  -0.611  1.00  0.00     0.251 C 
ATOM     33  H   UNL     1      -2.460  -1.406   0.352  1.00  0.00     0.163 HD
ATOM     34  O   UNL     1      -4.640  -1.948  -0.445  1.00  0.00    -0.269 OA
BRANCH  32  35
ATOM     35  C   UNL     1      -4.867   0.229  -1.300  1.00  0.00     0.039 A 
ATOM     36  C   UNL     1      -6.195   0.456  -0.924  1.00  0.00     0.014 A 
ATOM     37  C   UNL     1      -4.285   1.023  -2.289  1.00  0.00     0.014 A 
ATOM     38  C   UNL     1      -6.886   1.561  -1.433  1.00  0.00     0.010 A 
ATOM     39  C   UNL     1      -4.949   2.166  -2.742  1.00  0.00     0.010 A 
ATOM     40  C   UNL     1      -6.241   2.470  -2.287  1.00  0.00    -0.014 A 
BRANCH  40  41
ATOM     41  C   UNL     1      -6.858   3.784  -2.620  1.00  0.00     0.031 A 
ATOM     42  C   UNL     1      -7.202   4.147  -4.038  1.00  0.00     0.074 A 
ATOM     43  C   UNL     1      -7.022   4.695  -1.638  1.00  0.00     0.049 A 
ATOM     44  N   UNL     1      -7.653   5.280  -4.514  1.00  0.00    -0.248 NA
ATOM     45  C   UNL     1      -6.991   3.108  -5.056  1.00  0.00     0.031 C 
ATOM     46  C   UNL     1      -6.684   4.485  -0.227  1.00  0.00     0.029 A 
ATOM     47  N   UNL     1      -7.497   5.983  -1.671  1.00  0.00    -0.354 N 
ATOM     48  C   UNL     1      -7.768   5.100  -5.888  1.00  0.00     0.074 A 
ATOM     49  C   UNL     1      -7.300   3.758  -6.171  1.00  0.00     0.031 C 
ATOM     50  C   UNL     1      -6.979   5.594   0.469  1.00  0.00     0.029 A 
ATOM     51  C   UNL     1      -7.479   6.613  -0.448  1.00  0.00     0.049 A 
ATOM     52  H   UNL     1      -7.822   6.415  -2.494  1.00  0.00     0.167 HD
ATOM     53  C   UNL     1      -8.233   5.967  -6.822  1.00  0.00     0.034 A 
ATOM     54  C   UNL     1      -7.805   7.874  -0.100  1.00  0.00     0.034 A 
ATOM     55  C   UNL     1      -8.710   7.298  -6.528  1.00  0.00     0.049 A 
ATOM     56  C   UNL     1      -8.292   8.824  -1.162  1.00  0.00     0.074 A 
ATOM     57  C   UNL     1      -9.273   8.222  -7.393  1.00  0.00     0.029 A 
ATOM     58  N   UNL     1      -8.669   7.904  -5.279  1.00  0.00    -0.354 N 
ATOM     59  N   UNL     1      -8.449   8.614  -2.448  1.00  0.00    -0.248 NA
ATOM     60  C   UNL     1      -8.649  10.180  -0.724  1.00  0.00     0.031 C 
ATOM     61  C   UNL     1      -9.512   9.404  -6.683  1.00  0.00     0.029 A 
ATOM     62  C   UNL     1      -9.162   9.199  -5.359  1.00  0.00     0.049 A 
ATOM     63  H   UNL     1      -8.339   7.476  -4.456  1.00  0.00     0.167 HD
ATOM     64  C   UNL     1      -8.947   9.806  -2.966  1.00  0.00     0.074 A 
ATOM     65  C   UNL     1      -9.079  10.722  -1.853  1.00  0.00     0.031 C 
ATOM     66  C   UNL     1      -9.271  10.113  -4.248  1.00  0.00     0.034 A 
BRANCH  53  67
ATOM     67  C   UNL     1      -8.225   5.511  -8.261  1.00  0.00     0.023 A 
ATOM     68  C   UNL     1      -9.035   4.452  -8.705  1.00  0.00     0.031 A 
ATOM     69  C   UNL     1      -7.397   6.148  -9.203  1.00  0.00     0.131 A 
ATOM     70  C   UNL     1      -8.954   4.020 -10.038  1.00  0.00     0.055 A 
ATOM     71  C   UNL     1      -7.374   5.760 -10.544  1.00  0.00     0.041 A 
ATOM     72  F   UNL     1      -6.591   7.155  -8.833  1.00  0.00    -0.206 F 
ATOM     73  C   UNL     1      -8.147   4.682 -10.966  1.00  0.00     0.022 A 
BRANCH  70  74
ATOM     74  S   UNL     1      -9.833   2.507 -10.514  1.00  0.00     0.124 S 
ATOM     75  O   UNL     1      -9.219   1.519  -9.630  1.00  0.00    -0.237 OA
ATOM     76  O   UNL     1     -11.222   2.845 -10.227  1.00  0.00    -0.237 OA
ATOM     77  O   UNL     1      -9.508   2.353 -11.931  1.00  0.00    -0.744 OA
ENDBRANCH  70  74
ENDBRANCH  53  67
BRANCH  54  78
ATOM     78  C   UNL     1      -7.662   8.330   1.312  1.00  0.00     0.023 A 
ATOM     79  C   UNL     1      -8.787   8.693   2.068  1.00  0.00     0.031 A 
ATOM     80  C   UNL     1      -6.395   8.460   1.907  1.00  0.00     0.131 A 
ATOM     81  C   UNL     1      -8.622   9.215   3.360  1.00  0.00     0.055 A 
ATOM     82  C   UNL     1      -6.239   8.932   3.211  1.00  0.00     0.041 A 
ATOM     83  F   UNL     1      -5.287   8.120   1.228  1.00  0.00    -0.206 F 
ATOM     84  C   UNL     1      -7.356   9.326   3.941  1.00  0.00     0.022 A 
BRANCH  81  85
ATOM     85  S   UNL     1     -10.084   9.830   4.240  1.00  0.00     0.124 S 
ATOM     86  O   UNL     1     -10.594  10.829   3.308  1.00  0.00    -0.237 OA
ATOM     87  O   UNL     1     -10.882   8.617   4.382  1.00  0.00    -0.237 OA
ATOM     88  O   UNL     1      -9.533  10.360   5.485  1.00  0.00    -0.744 OA
ENDBRANCH  81  85
ENDBRANCH  54  78
BRANCH  66  89
ATOM     89  C   UNL     1      -9.834  11.490  -4.496  1.00  0.00     0.023 A 
ATOM     90  C   UNL     1      -9.045  12.645  -4.354  1.00  0.00     0.031 A 
ATOM     91  C   UNL     1     -11.184  11.649  -4.852  1.00  0.00     0.131 A 
ATOM     92  C   UNL     1      -9.627  13.912  -4.513  1.00  0.00     0.055 A 
ATOM     93  C   UNL     1     -11.744  12.910  -5.063  1.00  0.00     0.041 A 
ATOM     94  F   UNL     1     -11.983  10.580  -4.998  1.00  0.00    -0.206 F 
ATOM     95  C   UNL     1     -10.968  14.051  -4.881  1.00  0.00     0.022 A 
BRANCH  92  96
ATOM     96  S   UNL     1      -8.629  15.383  -4.148  1.00  0.00     0.124 S 
ATOM     97  O   UNL     1      -8.276  15.171  -2.748  1.00  0.00    -0.237 OA
ATOM     98  O   UNL     1      -7.535  15.264  -5.107  1.00  0.00    -0.237 OA
ATOM     99  O   UNL     1      -9.549  16.492  -4.394  1.00  0.00    -0.744 OA
ENDBRANCH  92  96
ENDBRANCH  66  89
ENDBRANCH  40  41
ENDBRANCH  32  35
ENDBRANCH  30  31
ENDBRANCH  29  30
ENDBRANCH   1  29
TORSDOF 20
