REMARK SMILES CCC(=O)Nc1ccc2nc(N3CC[NH+](CC(=O)N4CCCC4)CC3)cc(C(=O)NCCCCNC(=O)c3ccc(-c4c5nc(c(-c6cc(S(=O)(=O)[O-])ccc6F)c6ccc([nH]6)c(-c6cc(S(=O)(=O)[O-])ccc6F)c6nc(c(-c7cc(S(=O)(=O)[O-])ccc7F)c7ccc4[nH]7)C=C6)C=C5)cc3)c2c1
REMARK SMILES IDX 32 1 31 2 30 3 28 4 29 5 27 7 6 8 7 9 102 10 8 11 101 12
REMARK SMILES IDX 9 13 10 14 26 15 11 16 5 17 3 18 4 19 2 21 1 22 12 23 13 24
REMARK SMILES IDX 25 25 14 26 24 27 15 28 16 30 17 31 18 32 19 33 20 34 23 35
REMARK SMILES IDX 21 36 22 37 33 38 34 39 35 40 36 41 37 43 38 44 39 45 100 46
REMARK SMILES IDX 40 47 99 48 41 49 42 50 43 51 93 52 44 53 98 54 92 55 94 56
REMARK SMILES IDX 45 57 97 58 91 59 90 60 46 62 78 63 58 64 77 65 59 66 62 67
REMARK SMILES IDX 76 68 95 69 60 70 61 71 75 73 96 74 63 75 47 76 48 77 56 78
REMARK SMILES IDX 49 79 55 80 57 81 54 82 50 83 51 84 52 85 53 86 79 87 80 88
REMARK SMILES IDX 88 89 81 90 87 91 89 92 86 93 82 94 83 95 84 96 85 97 64 98
REMARK SMILES IDX 65 99 73 100 66 101 72 102 74 103 71 104 67 105 68 106
REMARK SMILES IDX 69 107 70 108
REMARK H PARENT 30 6 5 20 15 29 35 42 94 61 62 72
REMARK Flexibility Score: inf
ROOT
ATOM      1  C   UNL     1       3.817   3.479  -3.709  1.00  0.00     0.023 C 
ENDROOT
BRANCH   1   2
ATOM      2  C   UNL     1       5.228   2.887  -3.567  1.00  0.00     0.116 C 
BRANCH   2   3
ATOM      3  N   UNL     1       6.023   3.747  -2.713  1.00  0.00    -0.352 N 
ATOM      4  C   UNL     1       6.217   3.920  -1.369  1.00  0.00     0.252 C 
ATOM      5  O   UNL     1       6.826   4.962  -1.092  1.00  0.00    -0.269 OA
ATOM      6  H   UNL     1       6.570   4.374  -3.240  1.00  0.00     0.163 HD
BRANCH   4   7
ATOM      7  C   UNL     1       5.891   2.981  -0.233  1.00  0.00     0.052 A 
ATOM      8  C   UNL     1       3.188   0.431  -0.964  1.00  0.00     0.041 A 
ATOM      9  C   UNL     1       3.465  -0.498   0.015  1.00  0.00     0.028 A 
ATOM     10  C   UNL     1       3.927   1.609  -1.024  1.00  0.00     0.037 A 
ATOM     11  C   UNL     1       4.405  -0.168   0.987  1.00  0.00     0.031 A 
ATOM     12  C   UNL     1       4.997   1.887  -0.161  1.00  0.00     0.015 A 
ATOM     13  C   UNL     1       5.132   1.016   0.935  1.00  0.00     0.074 A 
ATOM     14  N   UNL     1       5.905   1.289   1.983  1.00  0.00    -0.231 NA
ATOM     15  C   UNL     1       6.644   3.259   0.925  1.00  0.00     0.061 A 
ATOM     16  C   UNL     1       6.585   2.447   2.044  1.00  0.00     0.130 A 
BRANCH   8  17
ATOM     17  N   UNL     1       2.241   0.166  -1.950  1.00  0.00    -0.326 N 
ATOM     18  C   UNL     1       0.919   0.509  -1.930  1.00  0.00     0.224 C 
ATOM     19  O   UNL     1       0.265   0.397  -2.967  1.00  0.00    -0.275 OA
ATOM     20  H   UNL     1       2.558  -0.320  -2.745  1.00  0.00     0.169 HD
BRANCH  18  21
ATOM     21  C   UNL     1       0.290   1.050  -0.664  1.00  0.00     0.097 C 
ATOM     22  C   UNL     1       0.146   0.002   0.423  1.00  0.00     0.014 C 
ENDBRANCH  18  21
ENDBRANCH   8  17
BRANCH  16  23
ATOM     23  N   UNL     1       7.187   2.775   3.249  1.00  0.00    -0.345 N 
ATOM     24  C   UNL     1       8.039   3.962   3.376  1.00  0.00     0.179 C 
ATOM     25  C   UNL     1       7.225   1.697   4.238  1.00  0.00     0.179 C 
ATOM     26  C   UNL     1       8.555   4.219   4.808  1.00  0.00     0.284 C 
ATOM     27  C   UNL     1       7.817   2.085   5.595  1.00  0.00     0.284 C 
ATOM     28  N   UNL     1       8.928   3.033   5.585  1.00  0.00    -0.324 N 
ATOM     29  H   UNL     1       9.081   3.352   6.541  1.00  0.00     0.348 HD
BRANCH  28  30
ATOM     30  C   UNL     1      10.257   2.457   5.328  1.00  0.00     0.363 C 
BRANCH  30  31
ATOM     31  C   UNL     1      10.838   2.549   3.912  1.00  0.00     0.277 C 
ATOM     32  O   UNL     1      11.264   3.630   3.489  1.00  0.00    -0.268 OA
ATOM     33  N   UNL     1      10.986   1.398   3.167  1.00  0.00    -0.338 N 
ATOM     34  C   UNL     1      10.375   0.096   3.359  1.00  0.00     0.119 C 
ATOM     35  C   UNL     1      11.839   1.392   1.988  1.00  0.00     0.119 C 
ATOM     36  C   UNL     1      11.294  -0.855   2.612  1.00  0.00     0.023 C 
ATOM     37  C   UNL     1      11.725  -0.016   1.414  1.00  0.00     0.023 C 
ENDBRANCH  30  31
ENDBRANCH  28  30
ENDBRANCH  16  23
ENDBRANCH   4   7
ENDBRANCH   2   3
ENDBRANCH   1   2
BRANCH   1  38
ATOM     38  C   UNL     1       3.534   4.197  -5.017  1.00  0.00     0.023 C 
BRANCH  38  39
ATOM     39  C   UNL     1       3.369   3.250  -6.193  1.00  0.00     0.116 C 
BRANCH  39  40
ATOM     40  N   UNL     1       2.281   2.283  -6.045  1.00  0.00    -0.352 N 
ATOM     41  C   UNL     1       1.540   1.707  -7.054  1.00  0.00     0.251 C 
ATOM     42  H   UNL     1       2.054   2.015  -5.125  1.00  0.00     0.163 HD
ATOM     43  O   UNL     1       0.651   0.899  -6.820  1.00  0.00    -0.269 OA
BRANCH  41  44
ATOM     44  C   UNL     1       1.810   2.160  -8.427  1.00  0.00     0.039 A 
ATOM     45  C   UNL     1       0.809   2.862  -9.101  1.00  0.00     0.014 A 
ATOM     46  C   UNL     1       3.108   2.078  -8.931  1.00  0.00     0.014 A 
ATOM     47  C   UNL     1       1.140   3.575 -10.251  1.00  0.00     0.010 A 
ATOM     48  C   UNL     1       3.451   2.860 -10.023  1.00  0.00     0.010 A 
ATOM     49  C   UNL     1       2.474   3.627 -10.683  1.00  0.00    -0.014 A 
BRANCH  49  50
ATOM     50  C   UNL     1       2.894   4.457 -11.838  1.00  0.00     0.031 A 
ATOM     51  C   UNL     1       3.500   3.773 -13.029  1.00  0.00     0.074 A 
ATOM     52  C   UNL     1       2.826   5.802 -11.774  1.00  0.00     0.049 A 
ATOM     53  N   UNL     1       4.142   4.287 -14.043  1.00  0.00    -0.248 NA
ATOM     54  C   UNL     1       3.410   2.304 -13.049  1.00  0.00     0.031 C 
ATOM     55  C   UNL     1       2.272   6.575 -10.660  1.00  0.00     0.029 A 
ATOM     56  N   UNL     1       3.248   6.760 -12.661  1.00  0.00    -0.354 N 
ATOM     57  C   UNL     1       4.555   3.204 -14.810  1.00  0.00     0.074 A 
ATOM     58  C   UNL     1       4.147   2.007 -14.106  1.00  0.00     0.031 C 
ATOM     59  C   UNL     1       2.376   7.886 -10.938  1.00  0.00     0.029 A 
ATOM     60  C   UNL     1       3.054   8.050 -12.220  1.00  0.00     0.049 A 
ATOM     61  H   UNL     1       3.652   6.545 -13.533  1.00  0.00     0.167 HD
ATOM     62  C   UNL     1       5.192   3.210 -16.005  1.00  0.00     0.034 A 
ATOM     63  C   UNL     1       3.409   9.226 -12.777  1.00  0.00     0.034 A 
ATOM     64  C   UNL     1       5.565   4.414 -16.701  1.00  0.00     0.049 A 
ATOM     65  C   UNL     1       4.138   9.207 -14.100  1.00  0.00     0.074 A 
ATOM     66  C   UNL     1       6.207   4.546 -17.918  1.00  0.00     0.029 A 
ATOM     67  N   UNL     1       5.312   5.700 -16.241  1.00  0.00    -0.354 N 
ATOM     68  N   UNL     1       4.527   8.174 -14.812  1.00  0.00    -0.248 NA
ATOM     69  C   UNL     1       4.473  10.507 -14.697  1.00  0.00     0.031 C 
ATOM     70  C   UNL     1       6.377   5.910 -18.177  1.00  0.00     0.029 A 
ATOM     71  C   UNL     1       5.788   6.629 -17.149  1.00  0.00     0.049 A 
ATOM     72  H   UNL     1       4.862   5.918 -15.393  1.00  0.00     0.167 HD
ATOM     73  C   UNL     1       5.109   8.703 -15.960  1.00  0.00     0.074 A 
ATOM     74  C   UNL     1       5.024  10.143 -15.846  1.00  0.00     0.031 C 
ATOM     75  C   UNL     1       5.662   8.059 -17.019  1.00  0.00     0.034 A 
BRANCH  62  76
ATOM     76  C   UNL     1       5.528   1.871 -16.610  1.00  0.00     0.023 A 
ATOM     77  C   UNL     1       4.519   0.968 -16.988  1.00  0.00     0.031 A 
ATOM     78  C   UNL     1       6.865   1.471 -16.768  1.00  0.00     0.131 A 
ATOM     79  C   UNL     1       4.861  -0.320 -17.423  1.00  0.00     0.055 A 
ATOM     80  C   UNL     1       7.200   0.218 -17.285  1.00  0.00     0.041 A 
ATOM     81  F   UNL     1       7.870   2.283 -16.403  1.00  0.00    -0.206 F 
ATOM     82  C   UNL     1       6.194  -0.692 -17.601  1.00  0.00     0.022 A 
BRANCH  79  83
ATOM     83  S   UNL     1       3.538  -1.544 -17.617  1.00  0.00     0.124 S 
ATOM     84  O   UNL     1       3.032  -1.646 -16.250  1.00  0.00    -0.237 OA
ATOM     85  O   UNL     1       2.650  -0.902 -18.579  1.00  0.00    -0.237 OA
ATOM     86  O   UNL     1       4.238  -2.729 -18.106  1.00  0.00    -0.744 OA
ENDBRANCH  79  83
ENDBRANCH  62  76
BRANCH  63  87
ATOM     87  C   UNL     1       3.109  10.519 -12.097  1.00  0.00     0.023 A 
ATOM     88  C   UNL     1       2.255  11.463 -12.691  1.00  0.00     0.031 A 
ATOM     89  C   UNL     1       3.724  10.864 -10.881  1.00  0.00     0.131 A 
ATOM     90  C   UNL     1       2.089  12.727 -12.104  1.00  0.00     0.055 A 
ATOM     91  C   UNL     1       3.510  12.102 -10.270  1.00  0.00     0.041 A 
ATOM     92  F   UNL     1       4.546   9.999 -10.266  1.00  0.00    -0.206 F 
ATOM     93  C   UNL     1       2.702  13.049 -10.891  1.00  0.00     0.022 A 
BRANCH  90  94
ATOM     94  S   UNL     1       1.151  13.987 -13.011  1.00  0.00     0.124 S 
ATOM     95  O   UNL     1       1.849  14.012 -14.291  1.00  0.00    -0.237 OA
ATOM     96  O   UNL     1      -0.191  13.415 -13.021  1.00  0.00    -0.237 OA
ATOM     97  O   UNL     1       1.310  15.186 -12.190  1.00  0.00    -0.744 OA
ENDBRANCH  90  94
ENDBRANCH  63  87
BRANCH  75  98
ATOM     98  C   UNL     1       6.133   8.907 -18.169  1.00  0.00     0.023 A 
ATOM     99  C   UNL     1       7.290   9.698 -18.084  1.00  0.00     0.031 A 
ATOM    100  C   UNL     1       5.420   8.892 -19.381  1.00  0.00     0.131 A 
ATOM    101  C   UNL     1       7.685  10.470 -19.186  1.00  0.00     0.055 A 
ATOM    102  C   UNL     1       5.841   9.628 -20.488  1.00  0.00     0.041 A 
ATOM    103  F   UNL     1       4.310   8.148 -19.510  1.00  0.00    -0.206 F 
ATOM    104  C   UNL     1       6.976  10.429 -20.391  1.00  0.00     0.022 A 
BRANCH 101 105
ATOM    105  S   UNL     1       9.121  11.563 -19.017  1.00  0.00     0.124 S 
ATOM    106  O   UNL     1       8.671  12.500 -17.992  1.00  0.00    -0.237 OA
ATOM    107  O   UNL     1      10.175  10.637 -18.614  1.00  0.00    -0.237 OA
ATOM    108  O   UNL     1       9.279  12.134 -20.353  1.00  0.00    -0.744 OA
ENDBRANCH 101 105
ENDBRANCH  75  98
ENDBRANCH  49  50
ENDBRANCH  41  44
ENDBRANCH  39  40
ENDBRANCH  38  39
ENDBRANCH   1  38
TORSDOF 19
