REMARK SMILES Cc1c(NC(=O)c2ccccc2NC(=O)[C@@H]2CCCO2)cccc1C(=O)NCCCCNC(=O)c1ccc(-c2c3nc(c(-c4cc(S(=O)(=O)[O-])ccc4F)c4ccc([nH]4)c(-c4cc(S(=O)(=O)[O-])ccc4F)c4nc(c(-c5cc(S(=O)(=O)[O-])ccc5F)c5ccc2[nH]5)C=C4)C=C3)cc1
REMARK SMILES IDX 29 1 28 2 27 3 25 4 26 5 24 7 1 8 2 9 3 10 21 11 23 12 22 13
REMARK SMILES IDX 4 14 5 15 6 17 7 18 8 19 12 20 9 21 11 22 10 23 13 24 14 25
REMARK SMILES IDX 15 27 16 28 17 29 20 30 18 31 19 32 30 33 31 34 32 35 33 36
REMARK SMILES IDX 34 38 35 39 36 40 97 41 37 42 96 43 38 44 39 45 40 46 90 47
REMARK SMILES IDX 41 48 95 49 89 50 91 51 42 52 94 53 88 54 87 55 43 57 75 58
REMARK SMILES IDX 55 59 74 60 56 61 59 62 73 63 92 64 57 65 58 66 72 68 93 69
REMARK SMILES IDX 60 70 44 71 45 72 53 73 46 74 52 75 54 76 51 77 47 78 48 79
REMARK SMILES IDX 49 80 50 81 76 82 77 83 85 84 78 85 84 86 86 87 83 88 79 89
REMARK SMILES IDX 80 90 81 91 82 92 61 93 62 94 70 95 63 96 69 97 71 98 68 99
REMARK SMILES IDX 64 100 65 101 66 102 67 103
REMARK H PARENT 27 6 4 16 13 26 32 37 91 56 59 67
REMARK Flexibility Score: inf
ROOT
ATOM      1  C   UNL     1       4.213   1.288  -1.201  1.00  0.00     0.023 C 
ENDROOT
BRANCH   1   2
ATOM      2  C   UNL     1       3.502   1.800   0.070  1.00  0.00     0.116 C 
BRANCH   2   3
ATOM      3  N   UNL     1       2.259   2.478  -0.263  1.00  0.00    -0.352 N 
ATOM      4  C   UNL     1       0.928   2.155  -0.242  1.00  0.00     0.251 C 
ATOM      5  O   UNL     1       0.174   3.075  -0.590  1.00  0.00    -0.269 OA
ATOM      6  H   UNL     1       2.413   3.397  -0.583  1.00  0.00     0.163 HD
BRANCH   4   7
ATOM      7  C   UNL     1       0.288   0.862   0.207  1.00  0.00     0.044 A 
ATOM      8  C   UNL     1       2.034  -0.816  -0.626  1.00  0.00     0.047 C 
ATOM      9  C   UNL     1       0.765  -0.462   0.095  1.00  0.00    -0.015 A 
ATOM     10  C   UNL     1      -0.065  -1.550   0.488  1.00  0.00     0.045 A 
ATOM     11  C   UNL     1      -1.378  -1.346   0.906  1.00  0.00     0.026 A 
ATOM     12  C   UNL     1      -1.045   1.029   0.654  1.00  0.00     0.014 A 
ATOM     13  C   UNL     1      -1.871  -0.051   0.983  1.00  0.00     0.003 A 
BRANCH  10  14
ATOM     14  N   UNL     1       0.477  -2.844   0.391  1.00  0.00    -0.322 N 
ATOM     15  C   UNL     1      -0.029  -4.023  -0.092  1.00  0.00     0.257 C 
ATOM     16  H   UNL     1       1.396  -2.917   0.734  1.00  0.00     0.170 HD
ATOM     17  O   UNL     1       0.610  -5.061   0.087  1.00  0.00    -0.269 OA
BRANCH  15  18
ATOM     18  C   UNL     1      -1.286  -4.118  -0.883  1.00  0.00     0.063 A 
ATOM     19  C   UNL     1      -2.028  -5.286  -0.604  1.00  0.00     0.016 A 
ATOM     20  C   UNL     1      -1.709  -3.237  -1.912  1.00  0.00     0.054 A 
ATOM     21  C   UNL     1      -3.214  -5.561  -1.270  1.00  0.00     0.001 A 
ATOM     22  C   UNL     1      -2.954  -3.496  -2.497  1.00  0.00     0.027 A 
ATOM     23  C   UNL     1      -3.692  -4.647  -2.192  1.00  0.00     0.002 A 
BRANCH  20  24
ATOM     24  N   UNL     1      -0.857  -2.193  -2.342  1.00  0.00    -0.323 N 
ATOM     25  C   UNL     1      -0.884  -1.182  -3.263  1.00  0.00     0.253 C 
ATOM     26  H   UNL     1      -0.010  -2.194  -1.839  1.00  0.00     0.170 HD
ATOM     27  O   UNL     1       0.100  -0.432  -3.295  1.00  0.00    -0.272 OA
BRANCH  25  28
ATOM     28  C   UNL     1      -2.027  -0.994  -4.263  1.00  0.00     0.207 C 
ATOM     29  C   UNL     1      -1.892  -2.013  -5.389  1.00  0.00     0.044 C 
ATOM     30  O   UNL     1      -2.050   0.293  -4.912  1.00  0.00    -0.368 OA
ATOM     31  C   UNL     1      -2.583  -1.325  -6.535  1.00  0.00     0.032 C 
ATOM     32  C   UNL     1      -2.152   0.106  -6.327  1.00  0.00     0.161 C 
ENDBRANCH  25  28
ENDBRANCH  20  24
ENDBRANCH  15  18
ENDBRANCH  10  14
ENDBRANCH   4   7
ENDBRANCH   2   3
ENDBRANCH   1   2
BRANCH   1  33
ATOM     33  C   UNL     1       5.079   2.311  -1.926  1.00  0.00     0.023 C 
BRANCH  33  34
ATOM     34  C   UNL     1       6.418   2.520  -1.246  1.00  0.00     0.116 C 
BRANCH  34  35
ATOM     35  N   UNL     1       7.537   1.785  -1.829  1.00  0.00    -0.352 N 
ATOM     36  C   UNL     1       8.854   1.762  -1.396  1.00  0.00     0.251 C 
ATOM     37  H   UNL     1       7.333   1.242  -2.624  1.00  0.00     0.163 HD
ATOM     38  O   UNL     1       9.739   1.202  -2.040  1.00  0.00    -0.269 OA
BRANCH  36  39
ATOM     39  C   UNL     1       9.161   2.329  -0.061  1.00  0.00     0.039 A 
ATOM     40  C   UNL     1       9.700   1.462   0.894  1.00  0.00     0.014 A 
ATOM     41  C   UNL     1       8.616   3.551   0.317  1.00  0.00     0.014 A 
ATOM     42  C   UNL     1       9.448   1.701   2.242  1.00  0.00     0.010 A 
ATOM     43  C   UNL     1       8.245   3.714   1.637  1.00  0.00     0.010 A 
ATOM     44  C   UNL     1       8.603   2.754   2.592  1.00  0.00    -0.014 A 
BRANCH  44  45
ATOM     45  C   UNL     1       7.912   2.821   3.878  1.00  0.00     0.031 A 
ATOM     46  C   UNL     1       8.174   3.922   4.828  1.00  0.00     0.074 A 
ATOM     47  C   UNL     1       6.969   1.900   4.183  1.00  0.00     0.049 A 
ATOM     48  N   UNL     1       7.971   3.854   6.101  1.00  0.00    -0.248 NA
ATOM     49  C   UNL     1       8.747   5.194   4.412  1.00  0.00     0.031 C 
ATOM     50  C   UNL     1       6.000   1.948   5.275  1.00  0.00     0.029 A 
ATOM     51  N   UNL     1       6.868   0.601   3.691  1.00  0.00    -0.354 N 
ATOM     52  C   UNL     1       8.073   5.128   6.612  1.00  0.00     0.074 A 
ATOM     53  C   UNL     1       8.646   5.903   5.538  1.00  0.00     0.031 C 
ATOM     54  C   UNL     1       5.592   0.700   5.549  1.00  0.00     0.029 A 
ATOM     55  C   UNL     1       6.379  -0.205   4.732  1.00  0.00     0.049 A 
ATOM     56  H   UNL     1       7.097   0.303   2.781  1.00  0.00     0.167 HD
ATOM     57  C   UNL     1       7.519   5.408   7.829  1.00  0.00     0.034 A 
ATOM     58  C   UNL     1       7.105  -1.261   5.201  1.00  0.00     0.034 A 
ATOM     59  C   UNL     1       7.018   4.193   8.482  1.00  0.00     0.049 A 
ATOM     60  C   UNL     1       7.502  -1.127   6.655  1.00  0.00     0.074 A 
ATOM     61  C   UNL     1       5.746   3.673   8.665  1.00  0.00     0.029 A 
ATOM     62  N   UNL     1       7.906   3.177   8.826  1.00  0.00    -0.354 N 
ATOM     63  N   UNL     1       7.394  -0.024   7.344  1.00  0.00    -0.248 NA
ATOM     64  C   UNL     1       8.068  -2.217   7.442  1.00  0.00     0.031 C 
ATOM     65  C   UNL     1       5.878   2.313   9.055  1.00  0.00     0.029 A 
ATOM     66  C   UNL     1       7.227   2.014   9.140  1.00  0.00     0.049 A 
ATOM     67  H   UNL     1       8.886   3.273   8.842  1.00  0.00     0.167 HD
ATOM     68  C   UNL     1       7.887  -0.216   8.610  1.00  0.00     0.074 A 
ATOM     69  C   UNL     1       8.266  -1.618   8.630  1.00  0.00     0.031 C 
ATOM     70  C   UNL     1       7.952   0.805   9.519  1.00  0.00     0.034 A 
BRANCH  57  71
ATOM     71  C   UNL     1       7.135   6.809   8.281  1.00  0.00     0.023 A 
ATOM     72  C   UNL     1       6.071   6.970   9.195  1.00  0.00     0.031 A 
ATOM     73  C   UNL     1       7.698   8.014   7.815  1.00  0.00     0.131 A 
ATOM     74  C   UNL     1       5.540   8.240   9.501  1.00  0.00     0.055 A 
ATOM     75  C   UNL     1       7.135   9.273   8.067  1.00  0.00     0.041 A 
ATOM     76  F   UNL     1       8.858   8.044   7.151  1.00  0.00    -0.206 F 
ATOM     77  C   UNL     1       6.038   9.391   8.901  1.00  0.00     0.022 A 
BRANCH  74  78
ATOM     78  S   UNL     1       4.186   8.370  10.700  1.00  0.00     0.124 S 
ATOM     79  O   UNL     1       3.145   7.554  10.084  1.00  0.00    -0.237 OA
ATOM     80  O   UNL     1       4.796   7.835  11.912  1.00  0.00    -0.237 OA
ATOM     81  O   UNL     1       3.903   9.805  10.737  1.00  0.00    -0.744 OA
ENDBRANCH  74  78
ENDBRANCH  57  71
BRANCH  58  82
ATOM     82  C   UNL     1       7.884  -1.947   4.132  1.00  0.00     0.023 A 
ATOM     83  C   UNL     1       7.143  -2.469   3.049  1.00  0.00     0.031 A 
ATOM     84  C   UNL     1       9.256  -1.737   3.947  1.00  0.00     0.131 A 
ATOM     85  C   UNL     1       7.729  -2.592   1.783  1.00  0.00     0.055 A 
ATOM     86  C   UNL     1       9.857  -1.934   2.696  1.00  0.00     0.041 A 
ATOM     87  F   UNL     1      10.004  -1.208   4.927  1.00  0.00    -0.206 F 
ATOM     88  C   UNL     1       9.085  -2.316   1.597  1.00  0.00     0.022 A 
BRANCH  85  89
ATOM     89  S   UNL     1       6.643  -2.834   0.343  1.00  0.00     0.124 S 
ATOM     90  O   UNL     1       6.603  -4.287   0.236  1.00  0.00    -0.237 OA
ATOM     91  O   UNL     1       5.395  -2.191   0.756  1.00  0.00    -0.237 OA
ATOM     92  O   UNL     1       7.346  -2.137  -0.731  1.00  0.00    -0.744 OA
ENDBRANCH  85  89
ENDBRANCH  58  82
BRANCH  70  93
ATOM     93  C   UNL     1       8.627   0.751  10.877  1.00  0.00     0.023 A 
ATOM     94  C   UNL     1       9.571  -0.221  11.242  1.00  0.00     0.031 A 
ATOM     95  C   UNL     1       8.382   1.755  11.849  1.00  0.00     0.131 A 
ATOM     96  C   UNL     1      10.157  -0.227  12.523  1.00  0.00     0.055 A 
ATOM     97  C   UNL     1       9.025   1.793  13.090  1.00  0.00     0.041 A 
ATOM     98  F   UNL     1       7.510   2.751  11.633  1.00  0.00    -0.206 F 
ATOM     99  C   UNL     1       9.908   0.788  13.443  1.00  0.00     0.022 A 
BRANCH  96 100
ATOM    100  S   UNL     1      11.207  -1.631  12.984  1.00  0.00     0.124 S 
ATOM    101  O   UNL     1      10.268  -2.747  12.901  1.00  0.00    -0.237 OA
ATOM    102  O   UNL     1      12.244  -1.598  11.958  1.00  0.00    -0.237 OA
ATOM    103  O   UNL     1      11.657  -1.298  14.334  1.00  0.00    -0.744 OA
ENDBRANCH  96 100
ENDBRANCH  70  93
ENDBRANCH  44  45
ENDBRANCH  36  39
ENDBRANCH  34  35
ENDBRANCH  33  34
ENDBRANCH   1  33
TORSDOF 18
