REMARK SMILES CCc1ccc(S(=O)(=O)c2nnn(-c3ccc(C(=O)NCCCCNC(=O)c4ccc(-c5c6nc(c(-c7cc(S(=O)(=O)[O-])ccc7F)c7ccc([nH]7)c(-c7cc(S(=O)(=O)[O-])ccc7F)c7nc(c(-c8cc(S(=O)(=O)[O-])ccc8F)c8ccc5[nH]8)C=C7)C=C6)cc4)cc3)c2C)cc1
REMARK SMILES IDX 22 1 21 2 20 3 18 4 19 5 17 7 14 8 15 9 92 10 16 11 91 12
REMARK SMILES IDX 13 13 10 14 11 15 93 16 12 17 94 18 7 19 8 20 9 21 6 22 3 23
REMARK SMILES IDX 4 24 96 25 5 26 95 27 2 28 1 29 23 30 24 31 25 32 26 33
REMARK SMILES IDX 27 35 28 36 29 37 90 38 30 39 89 40 31 41 32 42 33 43 83 44
REMARK SMILES IDX 34 45 88 46 82 47 84 48 35 49 87 50 81 51 80 52 36 54 68 55
REMARK SMILES IDX 48 56 67 57 49 58 52 59 66 60 85 61 50 62 51 63 65 65 86 66
REMARK SMILES IDX 53 67 37 68 38 69 46 70 39 71 45 72 47 73 44 74 40 75 41 76
REMARK SMILES IDX 42 77 43 78 69 79 70 80 78 81 71 82 77 83 79 84 76 85 72 86
REMARK SMILES IDX 73 87 74 88 75 89 54 90 55 91 63 92 56 93 62 94 64 95 61 96
REMARK SMILES IDX 57 97 58 98 59 99 60 100
REMARK H PARENT 20 6 25 34 84 53 52 64
REMARK Flexibility Score: inf
ROOT
ATOM      1  C   UNL     1      -4.693   8.660   8.691  1.00  0.00     0.023 C 
ENDROOT
BRANCH   1   2
ATOM      2  C   UNL     1      -4.754   8.168   7.238  1.00  0.00     0.116 C 
BRANCH   2   3
ATOM      3  N   UNL     1      -4.106   9.104   6.334  1.00  0.00    -0.352 N 
ATOM      4  C   UNL     1      -2.840   9.182   5.807  1.00  0.00     0.251 C 
ATOM      5  O   UNL     1      -2.600  10.113   5.038  1.00  0.00    -0.269 OA
ATOM      6  H   UNL     1      -4.698   9.833   6.037  1.00  0.00     0.163 HD
BRANCH   4   7
ATOM      7  C   UNL     1      -1.767   8.178   6.070  1.00  0.00     0.039 A 
ATOM      8  C   UNL     1       0.171   6.171   6.289  1.00  0.00     0.067 A 
ATOM      9  C   UNL     1       0.269   7.094   5.248  1.00  0.00     0.029 A 
ATOM     10  C   UNL     1      -0.804   6.311   7.276  1.00  0.00     0.029 A 
ATOM     11  C   UNL     1      -0.724   8.073   5.127  1.00  0.00     0.016 A 
ATOM     12  C   UNL     1      -1.734   7.342   7.186  1.00  0.00     0.016 A 
BRANCH   8  13
ATOM     13  N   UNL     1       1.010   5.045   6.325  1.00  0.00    -0.216 N 
ATOM     14  C   UNL     1       1.830   3.047   6.538  1.00  0.00     0.205 A 
ATOM     15  N   UNL     1       2.864   3.929   6.357  1.00  0.00    -0.117 NA
ATOM     16  C   UNL     1       0.624   3.723   6.447  1.00  0.00     0.081 A 
ATOM     17  N   UNL     1       2.344   5.132   6.144  1.00  0.00    -0.061 NA
ATOM     18  C   UNL     1      -0.775   3.248   6.283  1.00  0.00     0.070 C 
BRANCH  14  19
ATOM     19  S   UNL     1       2.082   1.337   6.575  1.00  0.00     0.227 S 
ATOM     20  O   UNL     1       1.083   0.849   7.515  1.00  0.00    -0.217 OA
ATOM     21  O   UNL     1       3.497   1.142   6.784  1.00  0.00    -0.217 OA
BRANCH  19  22
ATOM     22  C   UNL     1       1.665   0.724   4.965  1.00  0.00     0.073 A 
ATOM     23  C   UNL     1       0.912  -0.306   2.467  1.00  0.00    -0.048 A 
ATOM     24  C   UNL     1       1.182  -1.166   3.545  1.00  0.00     0.005 A 
ATOM     25  C   UNL     1       1.005   1.075   2.670  1.00  0.00     0.005 A 
ATOM     26  C   UNL     1       1.553  -0.657   4.792  1.00  0.00     0.021 A 
ATOM     27  C   UNL     1       1.404   1.590   3.902  1.00  0.00     0.021 A 
BRANCH  23  28
ATOM     28  C   UNL     1       0.465  -0.883   1.142  1.00  0.00     0.032 C 
ATOM     29  C   UNL     1       0.951  -0.118  -0.085  1.00  0.00     0.009 C 
ENDBRANCH  23  28
ENDBRANCH  19  22
ENDBRANCH  14  19
ENDBRANCH   8  13
ENDBRANCH   4   7
ENDBRANCH   2   3
ENDBRANCH   1   2
BRANCH   1  30
ATOM     30  C   UNL     1      -5.663   9.799   9.038  1.00  0.00     0.023 C 
BRANCH  30  31
ATOM     31  C   UNL     1      -7.138   9.413   9.017  1.00  0.00     0.116 C 
BRANCH  31  32
ATOM     32  N   UNL     1      -7.471   8.376   9.993  1.00  0.00    -0.352 N 
ATOM     33  C   UNL     1      -8.636   7.632  10.075  1.00  0.00     0.251 C 
ATOM     34  H   UNL     1      -6.786   8.183  10.673  1.00  0.00     0.163 HD
ATOM     35  O   UNL     1      -8.981   7.132  11.139  1.00  0.00    -0.269 OA
BRANCH  33  36
ATOM     36  C   UNL     1      -9.439   7.446   8.852  1.00  0.00     0.039 A 
ATOM     37  C   UNL     1     -10.833   7.525   8.861  1.00  0.00     0.014 A 
ATOM     38  C   UNL     1      -8.747   7.229   7.663  1.00  0.00     0.014 A 
ATOM     39  C   UNL     1     -11.513   7.476   7.644  1.00  0.00     0.010 A 
ATOM     40  C   UNL     1      -9.400   7.334   6.461  1.00  0.00     0.010 A 
ATOM     41  C   UNL     1     -10.787   7.407   6.442  1.00  0.00    -0.014 A 
BRANCH  41  42
ATOM     42  C   UNL     1     -11.445   7.546   5.145  1.00  0.00     0.031 A 
ATOM     43  C   UNL     1     -12.278   8.769   5.013  1.00  0.00     0.074 A 
ATOM     44  C   UNL     1     -11.172   6.763   4.076  1.00  0.00     0.049 A 
ATOM     45  N   UNL     1     -13.567   8.831   5.009  1.00  0.00    -0.248 NA
ATOM     46  C   UNL     1     -11.628  10.088   5.062  1.00  0.00     0.031 C 
ATOM     47  C   UNL     1     -10.172   5.697   3.956  1.00  0.00     0.029 A 
ATOM     48  N   UNL     1     -11.682   6.828   2.816  1.00  0.00    -0.354 N 
ATOM     49  C   UNL     1     -13.892  10.165   4.796  1.00  0.00     0.074 A 
ATOM     50  C   UNL     1     -12.685  10.905   5.053  1.00  0.00     0.031 C 
ATOM     51  C   UNL     1      -9.992   5.383   2.652  1.00  0.00     0.029 A 
ATOM     52  C   UNL     1     -10.979   6.096   1.859  1.00  0.00     0.049 A 
ATOM     53  H   UNL     1     -12.486   7.352   2.595  1.00  0.00     0.167 HD
ATOM     54  C   UNL     1     -15.067  10.510   4.196  1.00  0.00     0.034 A 
ATOM     55  C   UNL     1     -11.187   6.078   0.513  1.00  0.00     0.034 A 
ATOM     56  C   UNL     1     -15.960   9.373   4.131  1.00  0.00     0.049 A 
ATOM     57  C   UNL     1     -12.597   6.495   0.307  1.00  0.00     0.074 A 
ATOM     58  C   UNL     1     -16.533   8.537   5.071  1.00  0.00     0.029 A 
ATOM     59  N   UNL     1     -16.046   8.695   2.934  1.00  0.00    -0.354 N 
ATOM     60  N   UNL     1     -13.613   5.792   0.728  1.00  0.00    -0.248 NA
ATOM     61  C   UNL     1     -12.868   7.911   0.106  1.00  0.00     0.031 C 
ATOM     62  C   UNL     1     -16.444   7.233   4.499  1.00  0.00     0.029 A 
ATOM     63  C   UNL     1     -15.924   7.354   3.208  1.00  0.00     0.049 A 
ATOM     64  H   UNL     1     -16.173   9.098   2.045  1.00  0.00     0.167 HD
ATOM     65  C   UNL     1     -14.486   6.719   1.276  1.00  0.00     0.074 A 
ATOM     66  C   UNL     1     -14.019   8.014   0.778  1.00  0.00     0.031 C 
ATOM     67  C   UNL     1     -15.323   6.387   2.305  1.00  0.00     0.034 A 
BRANCH  54  68
ATOM     68  C   UNL     1     -15.297  11.740   3.349  1.00  0.00     0.023 A 
ATOM     69  C   UNL     1     -16.600  11.943   2.851  1.00  0.00     0.031 A 
ATOM     70  C   UNL     1     -14.289  12.544   2.775  1.00  0.00     0.131 A 
ATOM     71  C   UNL     1     -16.837  12.817   1.777  1.00  0.00     0.055 A 
ATOM     72  C   UNL     1     -14.541  13.465   1.754  1.00  0.00     0.041 A 
ATOM     73  F   UNL     1     -12.996  12.420   3.095  1.00  0.00    -0.206 F 
ATOM     74  C   UNL     1     -15.815  13.583   1.225  1.00  0.00     0.022 A 
BRANCH  71  75
ATOM     75  S   UNL     1     -18.473  12.799   1.000  1.00  0.00     0.124 S 
ATOM     76  O   UNL     1     -18.613  11.392   0.642  1.00  0.00    -0.237 OA
ATOM     77  O   UNL     1     -19.326  13.277   2.083  1.00  0.00    -0.237 OA
ATOM     78  O   UNL     1     -18.323  13.718  -0.126  1.00  0.00    -0.744 OA
ENDBRANCH  71  75
ENDBRANCH  54  68
BRANCH  55  79
ATOM     79  C   UNL     1     -10.160   6.071  -0.573  1.00  0.00     0.023 A 
ATOM     80  C   UNL     1     -10.463   5.772  -1.923  1.00  0.00     0.031 A 
ATOM     81  C   UNL     1      -8.885   6.629  -0.325  1.00  0.00     0.131 A 
ATOM     82  C   UNL     1      -9.518   6.040  -2.946  1.00  0.00     0.055 A 
ATOM     83  C   UNL     1      -7.962   6.897  -1.339  1.00  0.00     0.041 A 
ATOM     84  F   UNL     1      -8.524   7.017   0.908  1.00  0.00    -0.206 F 
ATOM     85  C   UNL     1      -8.279   6.615  -2.657  1.00  0.00     0.022 A 
BRANCH  82  86
ATOM     86  S   UNL     1      -9.919   5.730  -4.701  1.00  0.00     0.124 S 
ATOM     87  O   UNL     1      -9.928   4.273  -4.764  1.00  0.00    -0.237 OA
ATOM     88  O   UNL     1     -11.208   6.396  -4.854  1.00  0.00    -0.237 OA
ATOM     89  O   UNL     1      -8.815   6.367  -5.422  1.00  0.00    -0.744 OA
ENDBRANCH  82  86
ENDBRANCH  55  79
BRANCH  67  90
ATOM     90  C   UNL     1     -15.499   4.919   2.655  1.00  0.00     0.023 A 
ATOM     91  C   UNL     1     -14.458   4.028   3.012  1.00  0.00     0.031 A 
ATOM     92  C   UNL     1     -16.818   4.439   2.738  1.00  0.00     0.131 A 
ATOM     93  C   UNL     1     -14.763   2.712   3.420  1.00  0.00     0.055 A 
ATOM     94  C   UNL     1     -17.117   3.147   3.167  1.00  0.00     0.041 A 
ATOM     95  F   UNL     1     -17.854   5.239   2.432  1.00  0.00    -0.206 F 
ATOM     96  C   UNL     1     -16.090   2.276   3.504  1.00  0.00     0.022 A 
BRANCH  93  97
ATOM     97  S   UNL     1     -13.440   1.524   3.825  1.00  0.00     0.124 S 
ATOM     98  O   UNL     1     -12.494   1.674   2.726  1.00  0.00    -0.237 OA
ATOM     99  O   UNL     1     -12.980   1.992   5.130  1.00  0.00    -0.237 OA
ATOM    100  O   UNL     1     -14.137   0.236   3.855  1.00  0.00    -0.744 OA
ENDBRANCH  93  97
ENDBRANCH  67  90
ENDBRANCH  41  42
ENDBRANCH  33  36
ENDBRANCH  31  32
ENDBRANCH  30  31
ENDBRANCH   1  30
TORSDOF 18
