REMARK SMILES C[C@@H](C(=O)NCCCCNC(=O)c1ccc(-c2c3nc(c(-c4cc(S(=O)(=O)[O-])ccc4F)c4ccc([nH]4)c(-c4cc(S(=O)(=O)[O-])ccc4F)c4nc(c(-c5cc(S(=O)(=O)[O-])ccc5F)c5ccc2[nH]5)C=C4)C=C3)cc1)c1ccc(Cc2ccsc2)cc1F
REMARK SMILES IDX 7 1 6 2 5 3 3 4 4 5 2 7 1 8 76 9 77 10 87 11 78 12 86 13
REMARK SMILES IDX 88 14 79 15 80 16 81 17 82 18 85 19 83 20 84 21 8 22 9 23
REMARK SMILES IDX 10 24 11 25 12 27 13 28 14 29 75 30 15 31 74 32 16 33 17 34
REMARK SMILES IDX 18 35 68 36 19 37 73 38 67 39 69 40 20 41 72 42 66 43 65 44
REMARK SMILES IDX 21 46 53 47 33 48 52 49 34 50 37 51 51 52 70 53 35 54 36 55
REMARK SMILES IDX 50 57 71 58 38 59 22 60 23 61 31 62 24 63 30 64 32 65 29 66
REMARK SMILES IDX 25 67 26 68 27 69 28 70 54 71 55 72 63 73 56 74 62 75 64 76
REMARK SMILES IDX 61 77 57 78 58 79 59 80 60 81 39 82 40 83 48 84 41 85 47 86
REMARK SMILES IDX 49 87 46 88 42 89 43 90 44 91 45 92
REMARK H PARENT 5 6 10 26 69 45 37 56
REMARK Flexibility Score: inf
ROOT
ATOM      1  C   UNL     1       4.270   0.590   0.978  1.00  0.00     0.023 C 
ENDROOT
BRANCH   1   2
ATOM      2  C   UNL     1       3.509  -0.502   1.735  1.00  0.00     0.116 C 
BRANCH   2   3
ATOM      3  N   UNL     1       2.466   0.073   2.557  1.00  0.00    -0.356 N 
ATOM      4  C   UNL     1       1.123   0.164   2.341  1.00  0.00     0.227 C 
ATOM      5  O   UNL     1       0.478   0.824   3.159  1.00  0.00    -0.274 OA
ATOM      6  H   UNL     1       2.776   0.460   3.408  1.00  0.00     0.163 HD
BRANCH   4   7
ATOM      7  C   UNL     1       0.474  -0.560   1.147  1.00  0.00     0.108 C 
ATOM      8  C   UNL     1       0.871   0.044  -0.205  1.00  0.00     0.023 C 
BRANCH   7   9
ATOM      9  C   UNL     1      -1.047  -0.571   1.252  1.00  0.00    -0.000 A 
ATOM     10  C   UNL     1      -1.784   0.616   1.138  1.00  0.00     0.008 A 
ATOM     11  C   UNL     1      -1.749  -1.761   1.449  1.00  0.00     0.127 A 
ATOM     12  C   UNL     1      -3.177   0.600   1.181  1.00  0.00     0.004 A 
ATOM     13  C   UNL     1      -3.145  -1.782   1.520  1.00  0.00     0.043 A 
ATOM     14  F   UNL     1      -1.086  -2.924   1.541  1.00  0.00    -0.207 F 
ATOM     15  C   UNL     1      -3.881  -0.596   1.382  1.00  0.00    -0.041 A 
BRANCH  15  16
ATOM     16  C   UNL     1      -5.391  -0.610   1.374  1.00  0.00     0.072 C 
BRANCH  16  17
ATOM     17  C   UNL     1      -5.886  -0.094   2.697  1.00  0.00    -0.033 A 
ATOM     18  C   UNL     1      -5.777   1.261   3.171  1.00  0.00     0.015 A 
ATOM     19  C   UNL     1      -6.601  -0.854   3.608  1.00  0.00     0.068 A 
ATOM     20  C   UNL     1      -6.370   1.456   4.398  1.00  0.00     0.065 A 
ATOM     21  S   UNL     1      -7.099   0.030   4.985  1.00  0.00    -0.152 S 
ENDBRANCH  16  17
ENDBRANCH  15  16
ENDBRANCH   7   9
ENDBRANCH   4   7
ENDBRANCH   2   3
ENDBRANCH   1   2
BRANCH   1  22
ATOM     22  C   UNL     1       5.050   1.560   1.871  1.00  0.00     0.023 C 
BRANCH  22  23
ATOM     23  C   UNL     1       6.057   0.907   2.810  1.00  0.00     0.116 C 
BRANCH  23  24
ATOM     24  N   UNL     1       7.043   0.109   2.102  1.00  0.00    -0.352 N 
ATOM     25  C   UNL     1       8.395   0.015   2.315  1.00  0.00     0.251 C 
ATOM     26  H   UNL     1       6.691  -0.441   1.365  1.00  0.00     0.163 HD
ATOM     27  O   UNL     1       9.090  -0.589   1.498  1.00  0.00    -0.269 OA
BRANCH  25  28
ATOM     28  C   UNL     1       9.013   0.656   3.495  1.00  0.00     0.039 A 
ATOM     29  C   UNL     1      10.242   1.304   3.341  1.00  0.00     0.014 A 
ATOM     30  C   UNL     1       8.404   0.607   4.753  1.00  0.00     0.014 A 
ATOM     31  C   UNL     1      10.839   1.928   4.438  1.00  0.00     0.010 A 
ATOM     32  C   UNL     1       8.959   1.302   5.824  1.00  0.00     0.010 A 
ATOM     33  C   UNL     1      10.194   1.951   5.685  1.00  0.00    -0.014 A 
BRANCH  33  34
ATOM     34  C   UNL     1      10.828   2.607   6.859  1.00  0.00     0.031 A 
ATOM     35  C   UNL     1      11.223   1.786   8.059  1.00  0.00     0.074 A 
ATOM     36  C   UNL     1      11.024   3.940   6.856  1.00  0.00     0.049 A 
ATOM     37  N   UNL     1      11.780   2.169   9.179  1.00  0.00    -0.248 NA
ATOM     38  C   UNL     1      10.922   0.347   8.003  1.00  0.00     0.031 C 
ATOM     39  C   UNL     1      10.645   4.847   5.770  1.00  0.00     0.029 A 
ATOM     40  N   UNL     1      11.595   4.766   7.792  1.00  0.00    -0.354 N 
ATOM     41  C   UNL     1      11.882   1.025   9.965  1.00  0.00     0.074 A 
ATOM     42  C   UNL     1      11.264  -0.050   9.219  1.00  0.00     0.031 C 
ATOM     43  C   UNL     1      11.033   6.094   6.083  1.00  0.00     0.029 A 
ATOM     44  C   UNL     1      11.648   6.086   7.406  1.00  0.00     0.049 A 
ATOM     45  H   UNL     1      11.935   4.444   8.658  1.00  0.00     0.167 HD
ATOM     46  C   UNL     1      12.462   0.878  11.182  1.00  0.00     0.034 A 
ATOM     47  C   UNL     1      12.138   7.166   8.047  1.00  0.00     0.034 A 
ATOM     48  C   UNL     1      13.088   1.959  11.904  1.00  0.00     0.049 A 
ATOM     49  C   UNL     1      12.766   6.980   9.406  1.00  0.00     0.074 A 
ATOM     50  C   UNL     1      13.757   1.914  13.115  1.00  0.00     0.029 A 
ATOM     51  N   UNL     1      13.116   3.284  11.486  1.00  0.00    -0.354 N 
ATOM     52  N   UNL     1      12.911   5.880  10.109  1.00  0.00    -0.248 NA
ATOM     53  C   UNL     1      13.312   8.181  10.049  1.00  0.00     0.031 C 
ATOM     54  C   UNL     1      14.119   3.220  13.465  1.00  0.00     0.029 A 
ATOM     55  C   UNL     1      13.760   4.069  12.431  1.00  0.00     0.049 A 
ATOM     56  H   UNL     1      12.734   3.618  10.642  1.00  0.00     0.167 HD
ATOM     57  C   UNL     1      13.605   6.253  11.258  1.00  0.00     0.074 A 
ATOM     58  C   UNL     1      13.859   7.674  11.143  1.00  0.00     0.031 C 
ATOM     59  C   UNL     1      14.002   5.489  12.309  1.00  0.00     0.034 A 
BRANCH  46  60
ATOM     60  C   UNL     1      12.413  -0.495  11.817  1.00  0.00     0.023 A 
ATOM     61  C   UNL     1      13.012  -1.615  11.213  1.00  0.00     0.031 A 
ATOM     62  C   UNL     1      11.726  -0.694  13.028  1.00  0.00     0.131 A 
ATOM     63  C   UNL     1      12.842  -2.890  11.773  1.00  0.00     0.055 A 
ATOM     64  C   UNL     1      11.638  -1.952  13.628  1.00  0.00     0.041 A 
ATOM     65  F   UNL     1      11.113   0.329  13.643  1.00  0.00    -0.206 F 
ATOM     66  C   UNL     1      12.183  -3.063  12.991  1.00  0.00     0.022 A 
BRANCH  63  67
ATOM     67  S   UNL     1      13.352  -4.337  10.804  1.00  0.00     0.124 S 
ATOM     68  O   UNL     1      12.563  -4.169   9.585  1.00  0.00    -0.237 OA
ATOM     69  O   UNL     1      14.790  -4.135  10.667  1.00  0.00    -0.237 OA
ATOM     70  O   UNL     1      12.957  -5.468  11.641  1.00  0.00    -0.744 OA
ENDBRANCH  63  67
ENDBRANCH  46  60
BRANCH  47  71
ATOM     71  C   UNL     1      12.075   8.517   7.417  1.00  0.00     0.023 A 
ATOM     72  C   UNL     1      13.247   9.218   7.090  1.00  0.00     0.031 A 
ATOM     73  C   UNL     1      10.842   9.151   7.180  1.00  0.00     0.131 A 
ATOM     74  C   UNL     1      13.165  10.529   6.597  1.00  0.00     0.055 A 
ATOM     75  C   UNL     1      10.764  10.433   6.633  1.00  0.00     0.041 A 
ATOM     76  F   UNL     1       9.690   8.525   7.469  1.00  0.00    -0.206 F 
ATOM     77  C   UNL     1      11.932  11.136   6.353  1.00  0.00     0.022 A 
BRANCH  74  78
ATOM     78  S   UNL     1      14.701  11.468   6.367  1.00  0.00     0.124 S 
ATOM     79  O   UNL     1      15.270  11.438   7.710  1.00  0.00    -0.237 OA
ATOM     80  O   UNL     1      15.393  10.673   5.358  1.00  0.00    -0.237 OA
ATOM     81  O   UNL     1      14.234  12.777   5.915  1.00  0.00    -0.744 OA
ENDBRANCH  74  78
ENDBRANCH  47  71
BRANCH  59  82
ATOM     82  C   UNL     1      14.808   6.174  13.389  1.00  0.00     0.023 A 
ATOM     83  C   UNL     1      14.269   7.201  14.183  1.00  0.00     0.031 A 
ATOM     84  C   UNL     1      16.149   5.810  13.604  1.00  0.00     0.131 A 
ATOM     85  C   UNL     1      15.087   7.879  15.100  1.00  0.00     0.055 A 
ATOM     86  C   UNL     1      16.937   6.436  14.570  1.00  0.00     0.041 A 
ATOM     87  F   UNL     1      16.720   4.838  12.874  1.00  0.00    -0.206 F 
ATOM     88  C   UNL     1      16.412   7.490  15.312  1.00  0.00     0.022 A 
BRANCH  85  89
ATOM     89  S   UNL     1      14.433   9.358  15.922  1.00  0.00     0.124 S 
ATOM     90  O   UNL     1      14.042  10.188  14.787  1.00  0.00    -0.237 OA
ATOM     91  O   UNL     1      13.340   8.813  16.720  1.00  0.00    -0.237 OA
ATOM     92  O   UNL     1      15.573   9.856  16.690  1.00  0.00    -0.744 OA
ENDBRANCH  85  89
ENDBRANCH  59  82
ENDBRANCH  33  34
ENDBRANCH  25  28
ENDBRANCH  23  24
ENDBRANCH  22  23
ENDBRANCH   1  22
TORSDOF 17
