REMARK SMILES NC(=O)CC[C@@H](C(=O)NCCCCNC(=O)c1ccc(-c2c3nc(c(-c4cc(S(=O)(=O)[O-])ccc4F)c4ccc([nH]4)c(-c4cc(S(=O)(=O)[O-])ccc4F)c4nc(c(-c5cc(S(=O)(=O)[O-])ccc5F)c5ccc2[nH]5)C=C4)C=C3)cc1)N1C(=O)/C(=C\c2ccc(-c3ccc(Br)cc3)o2)SC1=S
REMARK SMILES IDX 11 1 10 2 9 3 7 4 8 5 6 7 5 8 4 9 2 10 1 11 3 14 80 15 81 16
REMARK SMILES IDX 98 17 82 18 83 19 97 20 99 21 84 22 85 23 86 24 96 25 87 26
REMARK SMILES IDX 88 27 89 28 90 29 95 30 91 31 94 32 92 33 93 34 12 35 13 36
REMARK SMILES IDX 14 37 15 38 16 40 17 41 18 42 79 43 19 44 78 45 20 46 21 47
REMARK SMILES IDX 22 48 72 49 23 50 77 51 71 52 73 53 24 54 76 55 70 56 69 57
REMARK SMILES IDX 25 59 57 60 37 61 56 62 38 63 41 64 55 65 74 66 39 67 40 68
REMARK SMILES IDX 54 70 75 71 42 72 26 73 27 74 35 75 28 76 34 77 36 78 33 79
REMARK SMILES IDX 29 80 30 81 31 82 32 83 58 84 59 85 67 86 60 87 66 88 68 89
REMARK SMILES IDX 65 90 61 91 62 92 63 93 64 94 43 95 44 96 52 97 45 98 51 99
REMARK SMILES IDX 53 100 50 101 46 102 47 103 48 104 49 105
REMARK H PARENT 9 6 1 12 1 13 14 39 73 58 41 69
REMARK Flexibility Score: inf
ROOT
ATOM      1  C   UNL     1       1.668  -0.771   3.396  1.00  0.00     0.023 C 
ENDROOT
BRANCH   1   2
ATOM      2  C   UNL     1       2.539  -0.289   2.234  1.00  0.00     0.116 C 
BRANCH   2   3
ATOM      3  N   UNL     1       3.655  -1.191   2.037  1.00  0.00    -0.354 N 
ATOM      4  C   UNL     1       3.882  -2.152   1.099  1.00  0.00     0.243 C 
ATOM      5  O   UNL     1       4.928  -2.798   1.225  1.00  0.00    -0.273 OA
ATOM      6  H   UNL     1       4.377  -1.092   2.699  1.00  0.00     0.163 HD
BRANCH   4   7
ATOM      7  C   UNL     1       2.920  -2.381  -0.101  1.00  0.00     0.181 C 
BRANCH   7   8
ATOM      8  C   UNL     1       1.609  -3.152   0.145  1.00  0.00     0.045 C 
BRANCH   8   9
ATOM      9  C   UNL     1       0.356  -2.435   0.638  1.00  0.00     0.102 C 
BRANCH   9  10
ATOM     10  C   UNL     1      -0.420  -1.544  -0.308  1.00  0.00     0.217 C 
ATOM     11  N   UNL     1       0.205  -0.476  -0.863  1.00  0.00    -0.370 N 
ATOM     12  H   UNL     1      -0.283   0.115  -1.481  1.00  0.00     0.159 HD
ATOM     13  H   UNL     1       1.148  -0.291  -0.648  1.00  0.00     0.159 HD
ATOM     14  O   UNL     1      -1.620  -1.709  -0.513  1.00  0.00    -0.275 OA
ENDBRANCH   9  10
ENDBRANCH   8   9
ENDBRANCH   7   8
BRANCH   7  15
ATOM     15  N   UNL     1       3.760  -3.035  -1.157  1.00  0.00    -0.280 N 
ATOM     16  C   UNL     1       4.417  -2.196  -2.049  1.00  0.00     0.267 C 
ATOM     17  C   UNL     1       4.083  -4.380  -1.253  1.00  0.00     0.149 C 
ATOM     18  O   UNL     1       4.289  -0.979  -2.083  1.00  0.00    -0.268 OA
ATOM     19  C   UNL     1       5.285  -2.980  -2.974  1.00  0.00     0.084 C 
ATOM     20  S   UNL     1       5.035  -4.660  -2.709  1.00  0.00    -0.054 SA
ATOM     21  S   UNL     1       3.701  -5.669  -0.263  1.00  0.00    -0.052 S 
ATOM     22  C   UNL     1       6.179  -2.535  -3.864  1.00  0.00     0.068 C 
BRANCH  22  23
ATOM     23  C   UNL     1       6.540  -1.173  -3.984  1.00  0.00     0.128 A 
ATOM     24  C   UNL     1       7.352  -0.419  -3.146  1.00  0.00     0.051 A 
ATOM     25  O   UNL     1       6.159  -0.378  -5.037  1.00  0.00    -0.457 OA
ATOM     26  C   UNL     1       7.469   0.870  -3.710  1.00  0.00     0.051 A 
ATOM     27  C   UNL     1       6.709   0.856  -4.857  1.00  0.00     0.134 A 
BRANCH  27  28
ATOM     28  C   UNL     1       6.398   1.854  -5.863  1.00  0.00     0.017 A 
ATOM     29  C   UNL     1       7.402   2.700  -6.355  1.00  0.00     0.013 A 
ATOM     30  C   UNL     1       5.083   2.021  -6.318  1.00  0.00     0.013 A 
ATOM     31  C   UNL     1       7.096   3.700  -7.281  1.00  0.00     0.016 A 
ATOM     32  C   UNL     1       4.772   3.029  -7.234  1.00  0.00     0.016 A 
ATOM     33  C   UNL     1       5.780   3.865  -7.710  1.00  0.00     0.018 A 
ATOM     34  Br  UNL     1       5.360   5.239  -8.937  1.00  0.00    -0.051 Br
ENDBRANCH  27  28
ENDBRANCH  22  23
ENDBRANCH   7  15
ENDBRANCH   4   7
ENDBRANCH   2   3
ENDBRANCH   1   2
BRANCH   1  35
ATOM     35  C   UNL     1       2.054  -0.197   4.754  1.00  0.00     0.023 C 
BRANCH  35  36
ATOM     36  C   UNL     1       1.728   1.283   4.911  1.00  0.00     0.116 C 
BRANCH  36  37
ATOM     37  N   UNL     1       0.309   1.582   4.783  1.00  0.00    -0.352 N 
ATOM     38  C   UNL     1      -0.436   2.506   5.481  1.00  0.00     0.251 C 
ATOM     39  H   UNL     1      -0.181   1.057   4.110  1.00  0.00     0.163 HD
ATOM     40  O   UNL     1      -1.651   2.566   5.318  1.00  0.00    -0.269 OA
BRANCH  38  41
ATOM     41  C   UNL     1       0.241   3.378   6.461  1.00  0.00     0.039 A 
ATOM     42  C   UNL     1      -0.293   3.495   7.745  1.00  0.00     0.014 A 
ATOM     43  C   UNL     1       1.435   4.023   6.128  1.00  0.00     0.014 A 
ATOM     44  C   UNL     1       0.412   4.204   8.719  1.00  0.00     0.010 A 
ATOM     45  C   UNL     1       2.178   4.648   7.121  1.00  0.00     0.010 A 
ATOM     46  C   UNL     1       1.670   4.754   8.425  1.00  0.00    -0.014 A 
BRANCH  46  47
ATOM     47  C   UNL     1       2.456   5.482   9.453  1.00  0.00     0.031 A 
ATOM     48  C   UNL     1       2.773   6.939   9.248  1.00  0.00     0.074 A 
ATOM     49  C   UNL     1       2.935   4.823  10.527  1.00  0.00     0.049 A 
ATOM     50  N   UNL     1       3.522   7.734   9.966  1.00  0.00    -0.248 NA
ATOM     51  C   UNL     1       2.204   7.570   8.047  1.00  0.00     0.031 C 
ATOM     52  C   UNL     1       2.745   3.396  10.801  1.00  0.00     0.029 A 
ATOM     53  N   UNL     1       3.689   5.264  11.584  1.00  0.00    -0.354 N 
ATOM     54  C   UNL     1       3.528   8.953   9.296  1.00  0.00     0.074 A 
ATOM     55  C   UNL     1       2.776   8.763   8.074  1.00  0.00     0.031 C 
ATOM     56  C   UNL     1       3.347   3.087  11.961  1.00  0.00     0.029 A 
ATOM     57  C   UNL     1       3.992   4.281  12.497  1.00  0.00     0.049 A 
ATOM     58  H   UNL     1       3.985   6.198  11.681  1.00  0.00     0.167 HD
ATOM     59  C   UNL     1       4.077  10.132   9.679  1.00  0.00     0.034 A 
ATOM     60  C   UNL     1       4.711   4.339  13.636  1.00  0.00     0.034 A 
ATOM     61  C   UNL     1       4.805  10.308  10.912  1.00  0.00     0.049 A 
ATOM     62  C   UNL     1       5.282   5.668  14.063  1.00  0.00     0.074 A 
ATOM     63  C   UNL     1       5.395  11.454  11.414  1.00  0.00     0.029 A 
ATOM     64  N   UNL     1       5.032   9.304  11.845  1.00  0.00    -0.354 N 
ATOM     65  N   UNL     1       5.252   6.821  13.434  1.00  0.00    -0.248 NA
ATOM     66  C   UNL     1       5.957   5.710  15.366  1.00  0.00     0.031 C 
ATOM     67  C   UNL     1       6.012  11.135  12.630  1.00  0.00     0.029 A 
ATOM     68  C   UNL     1       5.751   9.805  12.919  1.00  0.00     0.049 A 
ATOM     69  H   UNL     1       4.726   8.372  11.757  1.00  0.00     0.167 HD
ATOM     70  C   UNL     1       5.873   7.732  14.283  1.00  0.00     0.074 A 
ATOM     71  C   UNL     1       6.250   6.997  15.473  1.00  0.00     0.031 C 
ATOM     72  C   UNL     1       6.112   9.056  14.099  1.00  0.00     0.034 A 
BRANCH  59  73
ATOM     73  C   UNL     1       3.910  11.305   8.742  1.00  0.00     0.023 A 
ATOM     74  C   UNL     1       2.635  11.804   8.415  1.00  0.00     0.031 A 
ATOM     75  C   UNL     1       5.024  11.897   8.123  1.00  0.00     0.131 A 
ATOM     76  C   UNL     1       2.500  12.792   7.430  1.00  0.00     0.055 A 
ATOM     77  C   UNL     1       4.888  12.946   7.210  1.00  0.00     0.041 A 
ATOM     78  F   UNL     1       6.264  11.452   8.377  1.00  0.00    -0.206 F 
ATOM     79  C   UNL     1       3.619  13.386   6.844  1.00  0.00     0.022 A 
BRANCH  76  80
ATOM     80  S   UNL     1       0.838  13.171   6.811  1.00  0.00     0.124 S 
ATOM     81  O   UNL     1       0.430  11.881   6.260  1.00  0.00    -0.237 OA
ATOM     82  O   UNL     1       0.140  13.600   8.017  1.00  0.00    -0.237 OA
ATOM     83  O   UNL     1       1.073  14.219   5.819  1.00  0.00    -0.744 OA
ENDBRANCH  76  80
ENDBRANCH  59  73
BRANCH  60  84
ATOM     84  C   UNL     1       4.927   3.115  14.460  1.00  0.00     0.023 A 
ATOM     85  C   UNL     1       4.388   3.006  15.751  1.00  0.00     0.031 A 
ATOM     86  C   UNL     1       5.716   2.054  13.984  1.00  0.00     0.131 A 
ATOM     87  C   UNL     1       4.691   1.889  16.545  1.00  0.00     0.055 A 
ATOM     88  C   UNL     1       5.972   0.920  14.758  1.00  0.00     0.041 A 
ATOM     89  F   UNL     1       6.246   2.101  12.751  1.00  0.00    -0.206 F 
ATOM     90  C   UNL     1       5.471   0.841  16.054  1.00  0.00     0.022 A 
BRANCH  87  91
ATOM     91  S   UNL     1       4.125   1.871  18.269  1.00  0.00     0.124 S 
ATOM     92  O   UNL     1       4.706   3.104  18.787  1.00  0.00    -0.237 OA
ATOM     93  O   UNL     1       2.674   1.863  18.109  1.00  0.00    -0.237 OA
ATOM     94  O   UNL     1       4.698   0.637  18.801  1.00  0.00    -0.744 OA
ENDBRANCH  87  91
ENDBRANCH  60  84
BRANCH  72  95
ATOM     95  C   UNL     1       6.755   9.798  15.244  1.00  0.00     0.023 A 
ATOM     96  C   UNL     1       8.074   9.535  15.652  1.00  0.00     0.031 A 
ATOM     97  C   UNL     1       6.023  10.768  15.952  1.00  0.00     0.131 A 
ATOM     98  C   UNL     1       8.598  10.184  16.779  1.00  0.00     0.055 A 
ATOM     99  C   UNL     1       6.571  11.454  17.036  1.00  0.00     0.041 A 
ATOM    100  F   UNL     1       4.759  11.059  15.604  1.00  0.00    -0.206 F 
ATOM    101  C   UNL     1       7.860  11.152  17.465  1.00  0.00     0.022 A 
BRANCH  98 102
ATOM    102  S   UNL     1      10.222   9.669  17.402  1.00  0.00     0.124 S 
ATOM    103  O   UNL     1      10.030   8.236  17.604  1.00  0.00    -0.237 OA
ATOM    104  O   UNL     1      11.108  10.044  16.305  1.00  0.00    -0.237 OA
ATOM    105  O   UNL     1      10.383  10.452  18.626  1.00  0.00    -0.744 OA
ENDBRANCH  98 102
ENDBRANCH  72  95
ENDBRANCH  46  47
ENDBRANCH  38  41
ENDBRANCH  36  37
ENDBRANCH  35  36
ENDBRANCH   1  35
TORSDOF 20
