REMARK SMILES O=C(CCC(=O)N1N=C(c2ccccc2)C[C@@H]1c1ccc2c(c1)OCO2)NCCCCNC(=O)c1ccc(-c2c3nc(c(-c4cc(S(=O)(=O)[O-])ccc4F)c4ccc([nH]4)c(-c4cc(S(=O)(=O)[O-])ccc4F)c4nc(c(-c5cc(S(=O)(=O)[O-])ccc5F)c5ccc2[nH]5)C=C4)C=C3)cc1
REMARK SMILES IDX 29 1 28 2 27 3 1 4 2 5 3 7 4 8 5 9 6 10 7 11 8 12 17 13 9 14
REMARK SMILES IDX 16 15 18 16 19 17 23 18 20 19 22 20 21 21 24 22 26 23 25 24
REMARK SMILES IDX 10 25 11 26 15 27 12 28 14 29 13 30 30 31 31 32 32 33 33 34
REMARK SMILES IDX 34 36 35 37 36 38 97 39 37 40 96 41 38 42 39 43 40 44 90 45
REMARK SMILES IDX 41 46 95 47 89 48 91 49 42 50 94 51 88 52 87 53 43 55 75 56
REMARK SMILES IDX 55 57 74 58 56 59 59 60 73 61 92 62 57 63 58 64 72 66 93 67
REMARK SMILES IDX 60 68 44 69 45 70 53 71 46 72 52 73 54 74 51 75 47 76 48 77
REMARK SMILES IDX 49 78 50 79 76 80 77 81 85 82 78 83 84 84 86 85 83 86 79 87
REMARK SMILES IDX 80 88 81 89 82 90 61 91 62 92 70 93 63 94 69 95 71 96 68 97
REMARK SMILES IDX 64 98 65 99 66 100 67 101
REMARK H PARENT 27 6 32 35 91 54 59 65
REMARK Flexibility Score: inf
ROOT
ATOM      1  C   UNL     1       1.301  -2.135  -3.577  1.00  0.00     0.023 C 
ENDROOT
BRANCH   1   2
ATOM      2  C   UNL     1       0.939  -1.845  -2.086  1.00  0.00     0.116 C 
BRANCH   2   3
ATOM      3  N   UNL     1       1.347  -0.618  -1.402  1.00  0.00    -0.356 N 
ATOM      4  O   UNL     1       0.739  -1.367   0.687  1.00  0.00    -0.275 OA
ATOM      5  C   UNL     1       1.350  -0.567   0.006  1.00  0.00     0.220 C 
ATOM      6  H   UNL     1       1.619   0.171  -1.924  1.00  0.00     0.163 HD
BRANCH   5   7
ATOM      7  C   UNL     1       2.328   0.464   0.627  1.00  0.00     0.110 C 
BRANCH   7   8
ATOM      8  C   UNL     1       3.069  -0.067   1.880  1.00  0.00     0.112 C 
BRANCH   8   9
ATOM      9  C   UNL     1       4.385  -0.905   1.919  1.00  0.00     0.243 C 
ATOM     10  O   UNL     1       5.101  -0.795   2.923  1.00  0.00    -0.273 OA
BRANCH   9  11
ATOM     11  N   UNL     1       4.613  -1.883   0.970  1.00  0.00    -0.225 N 
ATOM     12  N   UNL     1       4.970  -3.190   1.351  1.00  0.00    -0.174 NA
ATOM     13  C   UNL     1       4.241  -1.827  -0.417  1.00  0.00     0.147 C 
ATOM     14  C   UNL     1       4.599  -3.967   0.371  1.00  0.00     0.071 C 
ATOM     15  C   UNL     1       3.901  -3.251  -0.733  1.00  0.00     0.091 C 
BRANCH  13  16
ATOM     16  C   UNL     1       5.094  -0.927  -1.300  1.00  0.00    -0.019 A 
ATOM     17  C   UNL     1       4.426  -0.112  -2.255  1.00  0.00     0.010 A 
ATOM     18  C   UNL     1       6.462  -0.708  -1.119  1.00  0.00     0.056 A 
ATOM     19  C   UNL     1       5.032   0.918  -2.967  1.00  0.00     0.051 A 
ATOM     20  C   UNL     1       7.051   0.341  -1.820  1.00  0.00     0.166 A 
ATOM     21  C   UNL     1       6.352   1.134  -2.703  1.00  0.00     0.165 A 
ATOM     22  O   UNL     1       8.337   0.766  -1.688  1.00  0.00    -0.454 OA
ATOM     23  O   UNL     1       7.090   2.146  -3.223  1.00  0.00    -0.454 OA
ATOM     24  C   UNL     1       8.320   1.966  -2.493  1.00  0.00     0.468 C 
ENDBRANCH  13  16
BRANCH  14  25
ATOM     25  C   UNL     1       4.619  -5.454   0.321  1.00  0.00    -0.002 A 
ATOM     26  C   UNL     1       4.716  -6.201   1.490  1.00  0.00     0.010 A 
ATOM     27  C   UNL     1       4.409  -6.128  -0.897  1.00  0.00     0.010 A 
ATOM     28  C   UNL     1       4.615  -7.599   1.432  1.00  0.00     0.001 A 
ATOM     29  C   UNL     1       4.331  -7.517  -0.959  1.00  0.00     0.001 A 
ATOM     30  C   UNL     1       4.431  -8.255   0.211  1.00  0.00     0.000 A 
ENDBRANCH  14  25
ENDBRANCH   9  11
ENDBRANCH   8   9
ENDBRANCH   7   8
ENDBRANCH   5   7
ENDBRANCH   2   3
ENDBRANCH   1   2
BRANCH   1  31
ATOM     31  C   UNL     1       2.654  -2.020  -4.347  1.00  0.00     0.023 C 
BRANCH  31  32
ATOM     32  C   UNL     1       3.897  -2.949  -4.223  1.00  0.00     0.116 C 
BRANCH  32  33
ATOM     33  N   UNL     1       3.629  -4.372  -4.333  1.00  0.00    -0.352 N 
ATOM     34  C   UNL     1       4.465  -5.442  -4.604  1.00  0.00     0.251 C 
ATOM     35  H   UNL     1       2.687  -4.620  -4.189  1.00  0.00     0.163 HD
ATOM     36  O   UNL     1       3.919  -6.504  -4.914  1.00  0.00    -0.269 OA
BRANCH  34  37
ATOM     37  C   UNL     1       5.961  -5.422  -4.527  1.00  0.00     0.039 A 
ATOM     38  C   UNL     1       6.679  -6.169  -5.479  1.00  0.00     0.014 A 
ATOM     39  C   UNL     1       6.671  -4.877  -3.453  1.00  0.00     0.014 A 
ATOM     40  C   UNL     1       8.075  -6.335  -5.381  1.00  0.00     0.010 A 
ATOM     41  C   UNL     1       8.069  -5.054  -3.347  1.00  0.00     0.010 A 
ATOM     42  C   UNL     1       8.791  -5.774  -4.314  1.00  0.00    -0.014 A 
BRANCH  42  43
ATOM     43  C   UNL     1      10.287  -5.814  -4.287  1.00  0.00     0.031 A 
ATOM     44  C   UNL     1      11.063  -6.764  -3.408  1.00  0.00     0.074 A 
ATOM     45  C   UNL     1      10.963  -4.931  -5.050  1.00  0.00     0.049 A 
ATOM     46  N   UNL     1      12.362  -6.905  -3.285  1.00  0.00    -0.248 NA
ATOM     47  C   UNL     1      10.280  -7.661  -2.550  1.00  0.00     0.031 C 
ATOM     48  C   UNL     1      10.338  -3.945  -5.932  1.00  0.00     0.029 A 
ATOM     49  N   UNL     1      12.310  -4.705  -5.200  1.00  0.00    -0.354 N 
ATOM     50  C   UNL     1      12.559  -7.910  -2.341  1.00  0.00     0.074 A 
ATOM     51  C   UNL     1      11.236  -8.316  -1.901  1.00  0.00     0.031 C 
ATOM     52  C   UNL     1      11.297  -3.216  -6.524  1.00  0.00     0.029 A 
ATOM     53  C   UNL     1      12.603  -3.662  -6.048  1.00  0.00     0.049 A 
ATOM     54  H   UNL     1      13.000  -5.239  -4.744  1.00  0.00     0.167 HD
ATOM     55  C   UNL     1      13.726  -8.444  -1.889  1.00  0.00     0.034 A 
ATOM     56  C   UNL     1      13.783  -3.112  -6.400  1.00  0.00     0.034 A 
ATOM     57  C   UNL     1      15.042  -8.014  -2.317  1.00  0.00     0.049 A 
ATOM     58  C   UNL     1      15.061  -3.692  -5.856  1.00  0.00     0.074 A 
ATOM     59  C   UNL     1      16.279  -8.534  -1.966  1.00  0.00     0.029 A 
ATOM     60  N   UNL     1      15.299  -6.943  -3.165  1.00  0.00    -0.354 N 
ATOM     61  N   UNL     1      15.225  -4.694  -5.024  1.00  0.00    -0.248 NA
ATOM     62  C   UNL     1      16.314  -3.077  -6.313  1.00  0.00     0.031 C 
ATOM     63  C   UNL     1      17.278  -7.737  -2.540  1.00  0.00     0.029 A 
ATOM     64  C   UNL     1      16.669  -6.764  -3.314  1.00  0.00     0.049 A 
ATOM     65  H   UNL     1      14.609  -6.391  -3.598  1.00  0.00     0.167 HD
ATOM     66  C   UNL     1      16.602  -4.849  -4.885  1.00  0.00     0.074 A 
ATOM     67  C   UNL     1      17.221  -3.846  -5.726  1.00  0.00     0.031 C 
ATOM     68  C   UNL     1      17.288  -5.748  -4.135  1.00  0.00     0.034 A 
BRANCH  55  69
ATOM     69  C   UNL     1      13.642  -9.540  -0.846  1.00  0.00     0.023 A 
ATOM     70  C   UNL     1      13.048 -10.784  -1.123  1.00  0.00     0.031 A 
ATOM     71  C   UNL     1      14.177  -9.344   0.442  1.00  0.00     0.131 A 
ATOM     72  C   UNL     1      12.944 -11.755  -0.114  1.00  0.00     0.055 A 
ATOM     73  C   UNL     1      14.133 -10.341   1.421  1.00  0.00     0.041 A 
ATOM     74  F   UNL     1      14.751  -8.177   0.774  1.00  0.00    -0.206 F 
ATOM     75  C   UNL     1      13.502 -11.550   1.150  1.00  0.00     0.022 A 
BRANCH  72  76
ATOM     76  S   UNL     1      11.960 -13.245  -0.439  1.00  0.00     0.124 S 
ATOM     77  O   UNL     1      10.660 -12.673  -0.783  1.00  0.00    -0.237 OA
ATOM     78  O   UNL     1      12.691 -13.874  -1.532  1.00  0.00    -0.237 OA
ATOM     79  O   UNL     1      11.996 -13.966   0.833  1.00  0.00    -0.744 OA
ENDBRANCH  72  76
ENDBRANCH  55  69
BRANCH  56  80
ATOM     80  C   UNL     1      13.813  -1.939  -7.319  1.00  0.00     0.023 A 
ATOM     81  C   UNL     1      14.366  -2.041  -8.604  1.00  0.00     0.031 A 
ATOM     82  C   UNL     1      13.308  -0.691  -6.912  1.00  0.00     0.131 A 
ATOM     83  C   UNL     1      14.434  -0.907  -9.427  1.00  0.00     0.055 A 
ATOM     84  C   UNL     1      13.336   0.424  -7.752  1.00  0.00     0.041 A 
ATOM     85  F   UNL     1      12.762  -0.542  -5.695  1.00  0.00    -0.206 F 
ATOM     86  C   UNL     1      13.912   0.322  -9.014  1.00  0.00     0.022 A 
BRANCH  83  87
ATOM     87  S   UNL     1      15.280  -1.044 -11.026  1.00  0.00     0.124 S 
ATOM     88  O   UNL     1      16.610  -1.484 -10.623  1.00  0.00    -0.237 OA
ATOM     89  O   UNL     1      14.458  -2.032 -11.717  1.00  0.00    -0.237 OA
ATOM     90  O   UNL     1      15.206   0.312 -11.566  1.00  0.00    -0.744 OA
ENDBRANCH  83  87
ENDBRANCH  56  80
BRANCH  68  91
ATOM     91  C   UNL     1      18.796  -5.707  -4.229  1.00  0.00     0.023 A 
ATOM     92  C   UNL     1      19.540  -4.615  -3.746  1.00  0.00     0.031 A 
ATOM     93  C   UNL     1      19.496  -6.761  -4.843  1.00  0.00     0.131 A 
ATOM     94  C   UNL     1      20.931  -4.575  -3.937  1.00  0.00     0.055 A 
ATOM     95  C   UNL     1      20.886  -6.742  -4.979  1.00  0.00     0.041 A 
ATOM     96  F   UNL     1      18.838  -7.826  -5.329  1.00  0.00    -0.206 F 
ATOM     97  C   UNL     1      21.610  -5.639  -4.537  1.00  0.00     0.022 A 
BRANCH  94  98
ATOM     98  S   UNL     1      21.834  -3.069  -3.478  1.00  0.00     0.124 S 
ATOM     99  O   UNL     1      21.175  -2.058  -4.299  1.00  0.00    -0.237 OA
ATOM    100  O   UNL     1      21.589  -2.983  -2.042  1.00  0.00    -0.237 OA
ATOM    101  O   UNL     1      23.215  -3.368  -3.854  1.00  0.00    -0.744 OA
ENDBRANCH  94  98
ENDBRANCH  68  91
ENDBRANCH  42  43
ENDBRANCH  34  37
ENDBRANCH  32  33
ENDBRANCH  31  32
ENDBRANCH   1  31
TORSDOF 19
