REMARK SMILES C[N@H+]1Cc2ccccc2C[C@@H]1C(=O)NCCC(=O)NCC(=O)NCCCCNC(=O)c1ccc(-c2c3nc(c(-c4cc(S(=O)(=O)[O-])ccc4F)c4ccc([nH]4)c(-c4cc(S(=O)(=O)[O-])ccc4F)c4nc(c(-c5cc(S(=O)(=O)[O-])ccc5F)c5ccc2[nH]5)C=C4)C=C3)cc1
REMARK SMILES IDX 24 1 23 2 21 3 22 4 20 6 19 7 17 8 18 9 16 11 15 12 14 13
REMARK SMILES IDX 12 14 13 15 11 17 1 18 2 19 3 20 4 22 10 23 5 24 9 25 6 26
REMARK SMILES IDX 8 27 7 28 25 29 26 30 27 31 28 32 29 33 30 35 31 36 32 37
REMARK SMILES IDX 93 38 33 39 92 40 34 41 35 42 36 43 86 44 37 45 91 46 85 47
REMARK SMILES IDX 87 48 38 49 90 50 84 51 83 52 39 54 71 55 51 56 70 57 52 58
REMARK SMILES IDX 55 59 69 60 88 61 53 62 54 63 68 65 89 66 56 67 40 68 41 69
REMARK SMILES IDX 49 70 42 71 48 72 50 73 47 74 43 75 44 76 45 77 46 78 72 79
REMARK SMILES IDX 73 80 81 81 74 82 80 83 82 84 79 85 75 86 76 87 77 88 78 89
REMARK SMILES IDX 57 90 58 91 66 92 59 93 65 94 67 95 64 96 60 97 61 98 62 99
REMARK SMILES IDX 63 100
REMARK H PARENT 23 5 19 10 14 16 2 21 28 34 87 53 55 64
REMARK Flexibility Score: inf
ROOT
ATOM      1  C   UNL     1      -4.858   4.253   2.447  1.00  0.00     0.116 C 
ENDROOT
BRANCH   1   2
ATOM      2  N   UNL     1      -5.923   3.650   1.664  1.00  0.00    -0.355 N 
ATOM      3  C   UNL     1      -6.349   3.822   0.382  1.00  0.00     0.239 C 
ATOM      4  O   UNL     1      -7.279   3.098   0.009  1.00  0.00    -0.273 OA
ATOM      5  H   UNL     1      -6.443   2.980   2.163  1.00  0.00     0.163 HD
BRANCH   3   6
ATOM      6  C   UNL     1      -5.633   4.718  -0.646  1.00  0.00     0.216 C 
BRANCH   6   7
ATOM      7  N   UNL     1      -4.944   5.898  -0.157  1.00  0.00    -0.347 N 
ATOM      8  C   UNL     1      -3.618   6.204  -0.163  1.00  0.00     0.222 C 
ATOM      9  O   UNL     1      -3.256   7.240   0.397  1.00  0.00    -0.275 OA
ATOM     10  H   UNL     1      -5.526   6.584   0.243  1.00  0.00     0.164 HD
BRANCH   8  11
ATOM     11  C   UNL     1      -2.606   5.275  -0.798  1.00  0.00     0.121 C 
BRANCH  11  12
ATOM     12  C   UNL     1      -2.049   4.251   0.192  1.00  0.00     0.126 C 
BRANCH  12  13
ATOM     13  N   UNL     1      -2.813   3.009   0.214  1.00  0.00    -0.350 N 
ATOM     14  C   UNL     1      -2.705   1.997  -0.697  1.00  0.00     0.278 C 
ATOM     15  O   UNL     1      -3.673   1.813  -1.443  1.00  0.00    -0.268 OA
ATOM     16  H   UNL     1      -3.461   2.890   0.946  1.00  0.00     0.163 HD
BRANCH  14  17
ATOM     17  C   UNL     1      -1.525   0.999  -0.653  1.00  0.00     0.278 C 
ATOM     18  C   UNL     1      -3.166  -0.746  -0.008  1.00  0.00     0.333 C 
ATOM     19  N   UNL     1      -1.831  -0.182   0.214  1.00  0.00    -0.323 N 
ATOM     20  C   UNL     1      -0.824  -1.238  -0.036  1.00  0.00     0.299 C 
ATOM     21  H   UNL     1      -1.803   0.150   1.178  1.00  0.00     0.348 HD
ATOM     22  C   UNL     1       0.609  -0.753   0.000  1.00  0.00     0.010 A 
ATOM     23  C   UNL     1      -0.208   1.620  -0.171  1.00  0.00     0.111 C 
ATOM     24  C   UNL     1       1.658  -1.680   0.066  1.00  0.00     0.010 A 
ATOM     25  C   UNL     1       0.911   0.615  -0.090  1.00  0.00    -0.033 A 
ATOM     26  C   UNL     1       2.985  -1.248   0.080  1.00  0.00     0.001 A 
ATOM     27  C   UNL     1       2.243   1.044  -0.048  1.00  0.00     0.004 A 
ATOM     28  C   UNL     1       3.277   0.113   0.033  1.00  0.00     0.000 A 
ENDBRANCH  14  17
ENDBRANCH  12  13
ENDBRANCH  11  12
ENDBRANCH   8  11
ENDBRANCH   6   7
ENDBRANCH   3   6
ENDBRANCH   1   2
BRANCH   1  29
ATOM     29  C   UNL     1      -5.355   4.902   3.730  1.00  0.00     0.023 C 
BRANCH  29  30
ATOM     30  C   UNL     1      -5.715   3.915   4.837  1.00  0.00     0.023 C 
BRANCH  30  31
ATOM     31  C   UNL     1      -4.608   2.942   5.237  1.00  0.00     0.116 C 
BRANCH  31  32
ATOM     32  N   UNL     1      -3.381   3.599   5.669  1.00  0.00    -0.352 N 
ATOM     33  C   UNL     1      -2.652   3.387   6.818  1.00  0.00     0.251 C 
ATOM     34  H   UNL     1      -3.026   4.285   5.059  1.00  0.00     0.163 HD
ATOM     35  O   UNL     1      -1.685   4.095   7.082  1.00  0.00    -0.269 OA
BRANCH  33  36
ATOM     36  C   UNL     1      -3.087   2.326   7.748  1.00  0.00     0.039 A 
ATOM     37  C   UNL     1      -3.361   2.657   9.077  1.00  0.00     0.014 A 
ATOM     38  C   UNL     1      -3.327   1.035   7.271  1.00  0.00     0.014 A 
ATOM     39  C   UNL     1      -3.981   1.718   9.904  1.00  0.00     0.010 A 
ATOM     40  C   UNL     1      -4.014   0.131   8.072  1.00  0.00     0.010 A 
ATOM     41  C   UNL     1      -4.366   0.469   9.390  1.00  0.00    -0.014 A 
BRANCH  41  42
ATOM     42  C   UNL     1      -5.157  -0.499  10.194  1.00  0.00     0.031 A 
ATOM     43  C   UNL     1      -4.589  -1.856  10.500  1.00  0.00     0.074 A 
ATOM     44  C   UNL     1      -6.422  -0.201  10.550  1.00  0.00     0.049 A 
ATOM     45  N   UNL     1      -5.166  -2.897  11.042  1.00  0.00    -0.248 NA
ATOM     46  C   UNL     1      -3.193  -2.079  10.099  1.00  0.00     0.031 C 
ATOM     47  C   UNL     1      -7.105   1.066  10.278  1.00  0.00     0.029 A 
ATOM     48  N   UNL     1      -7.367  -0.951  11.205  1.00  0.00    -0.354 N 
ATOM     49  C   UNL     1      -4.213  -3.910  11.020  1.00  0.00     0.074 A 
ATOM     50  C   UNL     1      -3.047  -3.369  10.352  1.00  0.00     0.031 C 
ATOM     51  C   UNL     1      -8.348   1.013  10.783  1.00  0.00     0.029 A 
ATOM     52  C   UNL     1      -8.570  -0.305  11.369  1.00  0.00     0.049 A 
ATOM     53  H   UNL     1      -7.199  -1.866  11.528  1.00  0.00     0.167 HD
ATOM     54  C   UNL     1      -4.295  -5.165  11.529  1.00  0.00     0.034 A 
ATOM     55  C   UNL     1      -9.725  -0.731  11.915  1.00  0.00     0.034 A 
ATOM     56  C   UNL     1      -5.461  -5.680  12.206  1.00  0.00     0.049 A 
ATOM     57  C   UNL     1      -9.806  -2.134  12.455  1.00  0.00     0.074 A 
ATOM     58  C   UNL     1      -5.634  -6.911  12.816  1.00  0.00     0.029 A 
ATOM     59  N   UNL     1      -6.660  -4.993  12.358  1.00  0.00    -0.354 N 
ATOM     60  N   UNL     1      -8.887  -3.071  12.460  1.00  0.00    -0.248 NA
ATOM     61  C   UNL     1     -11.081  -2.533  13.064  1.00  0.00     0.031 C 
ATOM     62  C   UNL     1      -6.952  -6.990  13.282  1.00  0.00     0.029 A 
ATOM     63  C   UNL     1      -7.584  -5.784  13.025  1.00  0.00     0.049 A 
ATOM     64  H   UNL     1      -6.829  -4.078  12.037  1.00  0.00     0.167 HD
ATOM     65  C   UNL     1      -9.465  -4.163  13.102  1.00  0.00     0.074 A 
ATOM     66  C   UNL     1     -10.809  -3.765  13.470  1.00  0.00     0.031 C 
ATOM     67  C   UNL     1      -8.927  -5.380  13.371  1.00  0.00     0.034 A 
BRANCH  54  68
ATOM     68  C   UNL     1      -3.095  -6.062  11.332  1.00  0.00     0.023 A 
ATOM     69  C   UNL     1      -1.832  -5.725  11.852  1.00  0.00     0.031 A 
ATOM     70  C   UNL     1      -3.191  -7.224  10.548  1.00  0.00     0.131 A 
ATOM     71  C   UNL     1      -0.702  -6.473  11.489  1.00  0.00     0.055 A 
ATOM     72  C   UNL     1      -2.078  -8.021  10.271  1.00  0.00     0.041 A 
ATOM     73  F   UNL     1      -4.365  -7.591  10.009  1.00  0.00    -0.206 F 
ATOM     74  C   UNL     1      -0.819  -7.633  10.722  1.00  0.00     0.022 A 
BRANCH  71  75
ATOM     75  S   UNL     1       0.938  -5.792  11.867  1.00  0.00     0.124 S 
ATOM     76  O   UNL     1       0.872  -4.486  11.215  1.00  0.00    -0.237 OA
ATOM     77  O   UNL     1       0.945  -5.780  13.324  1.00  0.00    -0.237 OA
ATOM     78  O   UNL     1       1.855  -6.744  11.243  1.00  0.00    -0.744 OA
ENDBRANCH  71  75
ENDBRANCH  54  68
BRANCH  55  79
ATOM     79  C   UNL     1     -10.902   0.179  11.981  1.00  0.00     0.023 A 
ATOM     80  C   UNL     1     -11.352   0.677  13.213  1.00  0.00     0.031 A 
ATOM     81  C   UNL     1     -11.600   0.551  10.820  1.00  0.00     0.131 A 
ATOM     82  C   UNL     1     -12.489   1.498  13.262  1.00  0.00     0.055 A 
ATOM     83  C   UNL     1     -12.708   1.400  10.868  1.00  0.00     0.041 A 
ATOM     84  F   UNL     1     -11.201   0.109   9.617  1.00  0.00    -0.206 F 
ATOM     85  C   UNL     1     -13.163   1.871  12.097  1.00  0.00     0.022 A 
BRANCH  82  86
ATOM     86  S   UNL     1     -13.100   2.042  14.880  1.00  0.00     0.124 S 
ATOM     87  O   UNL     1     -13.445   0.772  15.509  1.00  0.00    -0.237 OA
ATOM     88  O   UNL     1     -11.938   2.735  15.427  1.00  0.00    -0.237 OA
ATOM     89  O   UNL     1     -14.232   2.902  14.545  1.00  0.00    -0.744 OA
ENDBRANCH  82  86
ENDBRANCH  55  79
BRANCH  67  90
ATOM     90  C   UNL     1      -9.787  -6.348  14.146  1.00  0.00     0.023 A 
ATOM     91  C   UNL     1     -10.933  -6.937  13.584  1.00  0.00     0.031 A 
ATOM     92  C   UNL     1      -9.457  -6.672  15.474  1.00  0.00     0.131 A 
ATOM     93  C   UNL     1     -11.736  -7.783  14.365  1.00  0.00     0.055 A 
ATOM     94  C   UNL     1     -10.231  -7.555  16.228  1.00  0.00     0.041 A 
ATOM     95  F   UNL     1      -8.375  -6.135  16.059  1.00  0.00    -0.206 F 
ATOM     96  C   UNL     1     -11.384  -8.107  15.678  1.00  0.00     0.022 A 
BRANCH  93  97
ATOM     97  S   UNL     1     -13.294  -8.396  13.667  1.00  0.00     0.124 S 
ATOM     98  O   UNL     1     -14.007  -7.155  13.380  1.00  0.00    -0.237 OA
ATOM     99  O   UNL     1     -12.841  -9.154  12.506  1.00  0.00    -0.237 OA
ATOM    100  O   UNL     1     -13.862  -9.200  14.748  1.00  0.00    -0.744 OA
ENDBRANCH  93  97
ENDBRANCH  67  90
ENDBRANCH  41  42
ENDBRANCH  33  36
ENDBRANCH  31  32
ENDBRANCH  30  31
ENDBRANCH  29  30
ENDBRANCH   1  29
TORSDOF 19
