REMARK SMILES O=C(NCCCCNC(=O)[C@@H](Cc1ccccc1)Nc1ccc(Cl)c(Br)c1)c1ccc(-c2c3nc(c(-c4cc(S(=O)(=O)[O-])ccc4F)c4ccc([nH]4)c(-c4cc(S(=O)(=O)[O-])ccc4F)c4nc(c(-c5cc(S(=O)(=O)[O-])ccc5F)c5ccc2[nH]5)C=C4)C=C3)cc1
REMARK SMILES IDX 5 1 4 2 3 3 1 4 2 5 28 7 29 8 90 9 30 10 89 11 31 12 32 13
REMARK SMILES IDX 33 14 83 15 34 16 88 17 82 18 84 19 35 20 87 21 81 22 80 23
REMARK SMILES IDX 36 25 68 26 48 27 67 28 49 29 52 30 66 31 85 32 50 33 51 34
REMARK SMILES IDX 65 36 86 37 53 38 37 39 38 40 46 41 39 42 45 43 47 44 44 45
REMARK SMILES IDX 40 46 41 47 42 48 43 49 69 50 70 51 78 52 71 53 77 54 79 55
REMARK SMILES IDX 76 56 72 57 73 58 74 59 75 60 54 61 55 62 63 63 56 64 62 65
REMARK SMILES IDX 64 66 61 67 57 68 58 69 59 70 60 71 6 72 7 73 8 74 9 75
REMARK SMILES IDX 10 77 11 78 12 79 13 80 14 81 18 82 15 83 17 84 16 85 19 86
REMARK SMILES IDX 20 88 21 89 27 90 22 91 25 92 23 93 26 94 24 95
REMARK H PARENT 3 6 84 24 52 35 8 76 19 87
REMARK Flexibility Score: inf
ROOT
ATOM      1  C   UNL     1       5.633  -2.053  -0.750  1.00  0.00     0.023 C 
ENDROOT
BRANCH   1   2
ATOM      2  C   UNL     1       4.973  -0.719  -0.428  1.00  0.00     0.116 C 
BRANCH   2   3
ATOM      3  N   UNL     1       3.524  -0.688  -0.618  1.00  0.00    -0.352 N 
ATOM      4  O   UNL     1       1.392  -0.095  -0.113  1.00  0.00    -0.269 OA
ATOM      5  C   UNL     1       2.585  -0.009   0.135  1.00  0.00     0.251 C 
ATOM      6  H   UNL     1       3.175  -1.214  -1.374  1.00  0.00     0.163 HD
BRANCH   5   7
ATOM      7  C   UNL     1       3.066   0.781   1.291  1.00  0.00     0.039 A 
ATOM      8  C   UNL     1       4.132   1.663   1.126  1.00  0.00     0.014 A 
ATOM      9  C   UNL     1       2.560   0.509   2.564  1.00  0.00     0.014 A 
ATOM     10  C   UNL     1       4.842   2.079   2.242  1.00  0.00     0.010 A 
ATOM     11  C   UNL     1       3.209   1.033   3.687  1.00  0.00     0.010 A 
ATOM     12  C   UNL     1       4.400   1.761   3.539  1.00  0.00    -0.014 A 
BRANCH  12  13
ATOM     13  C   UNL     1       5.226   2.186   4.704  1.00  0.00     0.031 A 
ATOM     14  C   UNL     1       5.827   1.174   5.649  1.00  0.00     0.074 A 
ATOM     15  C   UNL     1       5.502   3.496   4.857  1.00  0.00     0.049 A 
ATOM     16  N   UNL     1       6.599   1.373   6.689  1.00  0.00    -0.248 NA
ATOM     17  C   UNL     1       5.512  -0.241   5.407  1.00  0.00     0.031 C 
ATOM     18  C   UNL     1       4.982   4.568   4.003  1.00  0.00     0.029 A 
ATOM     19  N   UNL     1       6.316   4.148   5.747  1.00  0.00    -0.354 N 
ATOM     20  C   UNL     1       6.825   0.119   7.250  1.00  0.00     0.074 A 
ATOM     21  C   UNL     1       6.091  -0.833   6.442  1.00  0.00     0.031 C 
ATOM     22  C   UNL     1       5.557   5.727   4.353  1.00  0.00     0.029 A 
ATOM     23  C   UNL     1       6.413   5.500   5.510  1.00  0.00     0.049 A 
ATOM     24  H   UNL     1       6.785   3.693   6.483  1.00  0.00     0.167 HD
ATOM     25  C   UNL     1       7.576  -0.207   8.333  1.00  0.00     0.034 A 
ATOM     26  C   UNL     1       7.102   6.457   6.159  1.00  0.00     0.034 A 
ATOM     27  C   UNL     1       8.332   0.752   9.106  1.00  0.00     0.049 A 
ATOM     28  C   UNL     1       7.925   6.071   7.354  1.00  0.00     0.074 A 
ATOM     29  C   UNL     1       9.157   0.525  10.196  1.00  0.00     0.029 A 
ATOM     30  N   UNL     1       8.360   2.121   8.872  1.00  0.00    -0.354 N 
ATOM     31  N   UNL     1       8.113   4.881   7.877  1.00  0.00    -0.248 NA
ATOM     32  C   UNL     1       8.620   7.158   8.052  1.00  0.00     0.031 C 
ATOM     33  C   UNL     1       9.633   1.760  10.655  1.00  0.00     0.029 A 
ATOM     34  C   UNL     1       9.162   2.753   9.812  1.00  0.00     0.049 A 
ATOM     35  H   UNL     1       7.880   2.578   8.144  1.00  0.00     0.167 HD
ATOM     36  C   UNL     1       8.956   5.078   8.964  1.00  0.00     0.074 A 
ATOM     37  C   UNL     1       9.261   6.495   9.002  1.00  0.00     0.031 C 
ATOM     38  C   UNL     1       9.432   4.170   9.854  1.00  0.00     0.034 A 
BRANCH  25  39
ATOM     39  C   UNL     1       7.568  -1.652   8.781  1.00  0.00     0.023 A 
ATOM     40  C   UNL     1       8.096  -2.686   7.989  1.00  0.00     0.031 A 
ATOM     41  C   UNL     1       6.998  -2.001  10.020  1.00  0.00     0.131 A 
ATOM     42  C   UNL     1       7.980  -4.021   8.409  1.00  0.00     0.055 A 
ATOM     43  C   UNL     1       6.954  -3.323  10.467  1.00  0.00     0.041 A 
ATOM     44  F   UNL     1       6.461  -1.061  10.814  1.00  0.00    -0.206 F 
ATOM     45  C   UNL     1       7.433  -4.345   9.653  1.00  0.00     0.022 A 
BRANCH  42  46
ATOM     46  S   UNL     1       8.422  -5.340   7.244  1.00  0.00     0.124 S 
ATOM     47  O   UNL     1       7.570  -5.024   6.100  1.00  0.00    -0.237 OA
ATOM     48  O   UNL     1       9.851  -5.126   7.054  1.00  0.00    -0.237 OA
ATOM     49  O   UNL     1       8.062  -6.564   7.958  1.00  0.00    -0.744 OA
ENDBRANCH  42  46
ENDBRANCH  25  39
BRANCH  26  50
ATOM     50  C   UNL     1       7.015   7.873   5.707  1.00  0.00     0.023 A 
ATOM     51  C   UNL     1       8.139   8.540   5.197  1.00  0.00     0.031 A 
ATOM     52  C   UNL     1       5.802   8.581   5.783  1.00  0.00     0.131 A 
ATOM     53  C   UNL     1       8.033   9.883   4.805  1.00  0.00     0.055 A 
ATOM     54  C   UNL     1       5.690   9.901   5.346  1.00  0.00     0.041 A 
ATOM     55  F   UNL     1       4.697   7.985   6.258  1.00  0.00    -0.206 F 
ATOM     56  C   UNL     1       6.814  10.563   4.862  1.00  0.00     0.022 A 
BRANCH  53  57
ATOM     57  S   UNL     1       9.532  10.752   4.270  1.00  0.00     0.124 S 
ATOM     58  O   UNL     1      10.387  10.623   5.444  1.00  0.00    -0.237 OA
ATOM     59  O   UNL     1       9.928   9.978   3.098  1.00  0.00    -0.237 OA
ATOM     60  O   UNL     1       9.058  12.105   3.988  1.00  0.00    -0.744 OA
ENDBRANCH  53  57
ENDBRANCH  26  50
BRANCH  38  61
ATOM     61  C   UNL     1      10.352   4.701  10.924  1.00  0.00     0.023 A 
ATOM     62  C   UNL     1       9.883   5.560  11.934  1.00  0.00     0.031 A 
ATOM     63  C   UNL     1      11.721   4.386  10.903  1.00  0.00     0.131 A 
ATOM     64  C   UNL     1      10.788   6.128  12.842  1.00  0.00     0.055 A 
ATOM     65  C   UNL     1      12.608   4.909  11.845  1.00  0.00     0.041 A 
ATOM     66  F   UNL     1      12.220   3.573   9.959  1.00  0.00    -0.206 F 
ATOM     67  C   UNL     1      12.145   5.798  12.812  1.00  0.00     0.022 A 
BRANCH  64  68
ATOM     68  S   UNL     1      10.184   7.390  13.997  1.00  0.00     0.124 S 
ATOM     69  O   UNL     1       9.629   8.391  13.091  1.00  0.00    -0.237 OA
ATOM     70  O   UNL     1       9.216   6.645  14.794  1.00  0.00    -0.237 OA
ATOM     71  O   UNL     1      11.389   7.804  14.714  1.00  0.00    -0.744 OA
ENDBRANCH  64  68
ENDBRANCH  38  61
ENDBRANCH  12  13
ENDBRANCH   5   7
ENDBRANCH   2   3
ENDBRANCH   1   2
BRANCH   1  72
ATOM     72  C   UNL     1       5.421  -2.525  -2.180  1.00  0.00     0.023 C 
BRANCH  72  73
ATOM     73  C   UNL     1       6.042  -1.640  -3.257  1.00  0.00     0.116 C 
BRANCH  73  74
ATOM     74  N   UNL     1       7.226  -2.263  -3.806  1.00  0.00    -0.354 N 
ATOM     75  C   UNL     1       7.396  -3.061  -4.893  1.00  0.00     0.242 C 
ATOM     76  H   UNL     1       8.053  -2.076  -3.306  1.00  0.00     0.163 HD
ATOM     77  O   UNL     1       8.501  -3.608  -5.002  1.00  0.00    -0.273 OA
BRANCH  75  78
ATOM     78  C   UNL     1       6.323  -3.274  -5.989  1.00  0.00     0.173 C 
BRANCH  78  79
ATOM     79  C   UNL     1       5.193  -4.273  -5.660  1.00  0.00     0.070 C 
BRANCH  79  80
ATOM     80  C   UNL     1       3.980  -3.912  -4.829  1.00  0.00    -0.045 A 
ATOM     81  C   UNL     1       3.193  -2.782  -5.088  1.00  0.00     0.004 A 
ATOM     82  C   UNL     1       3.558  -4.791  -3.813  1.00  0.00     0.004 A 
ATOM     83  C   UNL     1       2.074  -2.490  -4.297  1.00  0.00     0.000 A 
ATOM     84  C   UNL     1       2.433  -4.508  -3.033  1.00  0.00     0.000 A 
ATOM     85  C   UNL     1       1.700  -3.347  -3.265  1.00  0.00     0.000 A 
ENDBRANCH  79  80
ENDBRANCH  78  79
BRANCH  78  86
ATOM     86  N   UNL     1       5.891  -2.004  -6.601  1.00  0.00    -0.373 N 
ATOM     87  H   UNL     1       5.578  -1.285  -6.006  1.00  0.00     0.161 HD
BRANCH  86  88
ATOM     88  C   UNL     1       5.901  -1.765  -7.966  1.00  0.00     0.036 A 
ATOM     89  C   UNL     1       5.845  -0.440  -8.420  1.00  0.00     0.027 A 
ATOM     90  C   UNL     1       5.936  -2.776  -8.934  1.00  0.00     0.043 A 
ATOM     91  C   UNL     1       5.889  -0.132  -9.785  1.00  0.00     0.024 A 
ATOM     92  C   UNL     1       5.987  -2.479 -10.305  1.00  0.00     0.038 A 
ATOM     93  C   UNL     1       5.972  -1.151 -10.732  1.00  0.00     0.055 A 
ATOM     94  Br  UNL     1       6.084  -3.944 -11.513  1.00  0.00    -0.049 Br
ATOM     95  Cl  UNL     1       6.050  -0.700 -12.397  1.00  0.00    -0.083 Cl
ENDBRANCH  86  88
ENDBRANCH  78  86
ENDBRANCH  75  78
ENDBRANCH  73  74
ENDBRANCH  72  73
ENDBRANCH   1  72
TORSDOF 18
