REMARK SMILES CCOc1ccc2[nH]c(C)c/c(=N\c3cccc(C(=O)NCCCCNC(=O)c4ccc(-c5c6nc(c(-c7cc(S(=O)(=O)[O-])ccc7F)c7ccc([nH]7)c(-c7cc(S(=O)(=O)[O-])ccc7F)c7nc(c(-c8cc(S(=O)(=O)[O-])ccc8F)c8ccc5[nH]8)C=C7)C=C6)cc4)c3)c2c1
REMARK SMILES IDX 23 1 22 2 21 3 19 4 20 5 18 7 14 8 15 9 92 10 16 11 17 12
REMARK SMILES IDX 13 13 4 14 5 15 94 16 6 17 93 18 7 19 12 20 8 21 11 22 9 23
REMARK SMILES IDX 10 25 3 26 2 27 1 28 24 29 25 30 26 31 27 32 28 34 29 35
REMARK SMILES IDX 30 36 91 37 31 38 90 39 32 40 33 41 34 42 84 43 35 44 89 45
REMARK SMILES IDX 83 46 85 47 36 48 88 49 82 50 81 51 37 53 69 54 49 55 68 56
REMARK SMILES IDX 50 57 53 58 67 59 86 60 51 61 52 62 66 64 87 65 54 66 38 67
REMARK SMILES IDX 39 68 47 69 40 70 46 71 48 72 45 73 41 74 42 75 43 76 44 77
REMARK SMILES IDX 70 78 71 79 79 80 72 81 78 82 80 83 77 84 73 85 74 86 75 87
REMARK SMILES IDX 76 88 55 89 56 90 64 91 57 92 63 93 65 94 62 95 58 96 59 97
REMARK SMILES IDX 60 98 61 99
REMARK H PARENT 21 6 8 24 26 33 85 52 53 63
REMARK Flexibility Score: inf
ROOT
ATOM      1  C   UNL     1       5.080  -3.932   6.961  1.00  0.00     0.023 C 
ENDROOT
BRANCH   1   2
ATOM      2  C   UNL     1       4.497  -2.761   7.742  1.00  0.00     0.116 C 
BRANCH   2   3
ATOM      3  N   UNL     1       4.950  -2.638   9.117  1.00  0.00    -0.352 N 
ATOM      4  C   UNL     1       5.186  -1.527   9.899  1.00  0.00     0.251 C 
ATOM      5  O   UNL     1       5.535  -1.697  11.066  1.00  0.00    -0.269 OA
ATOM      6  H   UNL     1       5.118  -3.497   9.569  1.00  0.00     0.163 HD
BRANCH   4   7
ATOM      7  C   UNL     1       5.109  -0.136   9.369  1.00  0.00     0.041 A 
ATOM      8  C   UNL     1       4.461   1.456   7.664  1.00  0.00     0.064 A 
ATOM      9  C   UNL     1       5.260   2.435   8.261  1.00  0.00     0.028 A 
ATOM     10  C   UNL     1       4.288   0.231   8.306  1.00  0.00     0.042 A 
ATOM     11  C   UNL     1       5.996   2.128   9.406  1.00  0.00     0.003 A 
ATOM     12  C   UNL     1       5.949   0.835   9.935  1.00  0.00     0.014 A 
BRANCH   8  13
ATOM     13  N   UNL     1       3.920   1.589   6.373  1.00  0.00    -0.248 NA
ATOM     14  C   UNL     1       2.290   1.248   2.435  1.00  0.00     0.120 A 
ATOM     15  C   UNL     1       3.135   1.495   1.354  1.00  0.00     0.048 A 
ATOM     16  C   UNL     1       2.778   1.294   3.741  1.00  0.00     0.059 A 
ATOM     17  C   UNL     1       4.495   1.709   1.566  1.00  0.00     0.030 A 
ATOM     18  C   UNL     1       4.144   1.524   3.956  1.00  0.00     0.027 A 
ATOM     19  C   UNL     1       5.013   1.707   2.863  1.00  0.00     0.048 A 
ATOM     20  C   UNL     1       4.721   1.538   5.342  1.00  0.00     0.075 A 
ATOM     21  N   UNL     1       6.390   1.858   3.063  1.00  0.00    -0.359 N 
ATOM     22  C   UNL     1       6.227   1.481   5.403  1.00  0.00     0.050 A 
ATOM     23  C   UNL     1       6.961   1.689   4.299  1.00  0.00     0.014 A 
ATOM     24  H   UNL     1       6.963   2.091   2.298  1.00  0.00     0.166 HD
ATOM     25  C   UNL     1       8.462   1.752   4.370  1.00  0.00     0.064 C 
BRANCH  14  26
ATOM     26  O   UNL     1       0.951   1.060   2.231  1.00  0.00    -0.494 OA
BRANCH  26  27
ATOM     27  C   UNL     1       0.644  -0.242   1.709  1.00  0.00     0.226 C 
ATOM     28  C   UNL     1       0.555  -0.232   0.189  1.00  0.00     0.049 C 
ENDBRANCH  26  27
ENDBRANCH  14  26
ENDBRANCH   8  13
ENDBRANCH   4   7
ENDBRANCH   2   3
ENDBRANCH   1   2
BRANCH   1  29
ATOM     29  C   UNL     1       4.894  -5.319   7.557  1.00  0.00     0.023 C 
BRANCH  29  30
ATOM     30  C   UNL     1       3.487  -5.666   8.024  1.00  0.00     0.116 C 
BRANCH  30  31
ATOM     31  N   UNL     1       2.485  -5.628   6.968  1.00  0.00    -0.352 N 
ATOM     32  C   UNL     1       1.704  -6.630   6.428  1.00  0.00     0.251 C 
ATOM     33  H   UNL     1       2.339  -4.738   6.574  1.00  0.00     0.163 HD
ATOM     34  O   UNL     1       0.978  -6.379   5.476  1.00  0.00    -0.269 OA
BRANCH  32  35
ATOM     35  C   UNL     1       1.785  -8.012   6.960  1.00  0.00     0.039 A 
ATOM     36  C   UNL     1       1.843  -8.253   8.329  1.00  0.00     0.014 A 
ATOM     37  C   UNL     1       1.835  -9.086   6.065  1.00  0.00     0.014 A 
ATOM     38  C   UNL     1       2.190  -9.518   8.790  1.00  0.00     0.010 A 
ATOM     39  C   UNL     1       2.065 -10.384   6.541  1.00  0.00     0.010 A 
ATOM     40  C   UNL     1       2.314 -10.601   7.904  1.00  0.00    -0.014 A 
BRANCH  40  41
ATOM     41  C   UNL     1       2.691 -11.937   8.447  1.00  0.00     0.031 A 
ATOM     42  C   UNL     1       3.973 -12.617   8.039  1.00  0.00     0.074 A 
ATOM     43  C   UNL     1       1.906 -12.499   9.387  1.00  0.00     0.049 A 
ATOM     44  N   UNL     1       4.498 -13.722   8.504  1.00  0.00    -0.248 NA
ATOM     45  C   UNL     1       4.764 -11.987   6.971  1.00  0.00     0.031 C 
ATOM     46  C   UNL     1       0.634 -11.940   9.849  1.00  0.00     0.029 A 
ATOM     47  N   UNL     1       2.071 -13.625  10.154  1.00  0.00    -0.354 N 
ATOM     48  C   UNL     1       5.669 -13.927   7.781  1.00  0.00     0.074 A 
ATOM     49  C   UNL     1       5.757 -12.853   6.817  1.00  0.00     0.031 C 
ATOM     50  C   UNL     1       0.180 -12.672  10.873  1.00  0.00     0.029 A 
ATOM     51  C   UNL     1       1.082 -13.799  11.095  1.00  0.00     0.049 A 
ATOM     52  H   UNL     1       2.825 -14.248  10.041  1.00  0.00     0.167 HD
ATOM     53  C   UNL     1       6.593 -14.909   7.922  1.00  0.00     0.034 A 
ATOM     54  C   UNL     1       0.912 -14.754  12.032  1.00  0.00     0.034 A 
ATOM     55  C   UNL     1       6.505 -15.963   8.903  1.00  0.00     0.049 A 
ATOM     56  C   UNL     1       1.948 -15.837  12.161  1.00  0.00     0.074 A 
ATOM     57  C   UNL     1       7.413 -16.978   9.149  1.00  0.00     0.029 A 
ATOM     58  N   UNL     1       5.461 -16.139   9.800  1.00  0.00    -0.354 N 
ATOM     59  N   UNL     1       3.075 -15.982  11.505  1.00  0.00    -0.248 NA
ATOM     60  C   UNL     1       1.692 -16.890  13.153  1.00  0.00     0.031 C 
ATOM     61  C   UNL     1       6.892 -17.800  10.150  1.00  0.00     0.029 A 
ATOM     62  C   UNL     1       5.688 -17.264  10.578  1.00  0.00     0.049 A 
ATOM     63  H   UNL     1       4.675 -15.551   9.874  1.00  0.00     0.167 HD
ATOM     64  C   UNL     1       3.659 -17.144  11.999  1.00  0.00     0.074 A 
ATOM     65  C   UNL     1       2.785 -17.634  13.045  1.00  0.00     0.031 C 
ATOM     66  C   UNL     1       4.806 -17.757  11.609  1.00  0.00     0.034 A 
BRANCH  53  67
ATOM     67  C   UNL     1       7.800 -14.903   7.014  1.00  0.00     0.023 A 
ATOM     68  C   UNL     1       8.015 -15.967   6.117  1.00  0.00     0.031 A 
ATOM     69  C   UNL     1       8.798 -13.919   7.129  1.00  0.00     0.131 A 
ATOM     70  C   UNL     1       9.212 -16.037   5.393  1.00  0.00     0.055 A 
ATOM     71  C   UNL     1       9.973 -13.974   6.377  1.00  0.00     0.041 A 
ATOM     72  F   UNL     1       8.642 -12.885   7.971  1.00  0.00    -0.206 F 
ATOM     73  C   UNL     1      10.189 -15.043   5.513  1.00  0.00     0.022 A 
BRANCH  70  74
ATOM     74  S   UNL     1       9.578 -17.448   4.312  1.00  0.00     0.124 S 
ATOM     75  O   UNL     1       9.770 -16.793   3.020  1.00  0.00    -0.237 OA
ATOM     76  O   UNL     1      10.789 -17.992   4.921  1.00  0.00    -0.237 OA
ATOM     77  O   UNL     1       8.388 -18.285   4.413  1.00  0.00    -0.744 OA
ENDBRANCH  70  74
ENDBRANCH  53  67
BRANCH  54  78
ATOM     78  C   UNL     1      -0.272 -14.675  12.938  1.00  0.00     0.023 A 
ATOM     79  C   UNL     1      -1.579 -14.704  12.419  1.00  0.00     0.031 A 
ATOM     80  C   UNL     1      -0.112 -14.444  14.314  1.00  0.00     0.131 A 
ATOM     81  C   UNL     1      -2.667 -14.418  13.253  1.00  0.00     0.055 A 
ATOM     82  C   UNL     1      -1.206 -14.239  15.157  1.00  0.00     0.041 A 
ATOM     83  F   UNL     1       1.115 -14.397  14.855  1.00  0.00    -0.206 F 
ATOM     84  C   UNL     1      -2.491 -14.202  14.622  1.00  0.00     0.022 A 
BRANCH  81  85
ATOM     85  S   UNL     1      -4.322 -14.153  12.556  1.00  0.00     0.124 S 
ATOM     86  O   UNL     1      -5.090 -15.225  13.181  1.00  0.00    -0.237 OA
ATOM     87  O   UNL     1      -4.630 -12.802  13.020  1.00  0.00    -0.237 OA
ATOM     88  O   UNL     1      -4.114 -14.280  11.117  1.00  0.00    -0.744 OA
ENDBRANCH  81  85
ENDBRANCH  54  78
BRANCH  66  89
ATOM     89  C   UNL     1       5.181 -19.056  12.280  1.00  0.00     0.023 A 
ATOM     90  C   UNL     1       6.365 -19.155  13.034  1.00  0.00     0.031 A 
ATOM     91  C   UNL     1       4.427 -20.225  12.070  1.00  0.00     0.131 A 
ATOM     92  C   UNL     1       6.776 -20.401  13.526  1.00  0.00     0.055 A 
ATOM     93  C   UNL     1       4.817 -21.455  12.599  1.00  0.00     0.041 A 
ATOM     94  F   UNL     1       3.295 -20.184  11.349  1.00  0.00    -0.206 F 
ATOM     95  C   UNL     1       6.003 -21.549  13.320  1.00  0.00     0.022 A 
BRANCH  92  96
ATOM     96  S   UNL     1       8.366 -20.596  14.377  1.00  0.00     0.124 S 
ATOM     97  O   UNL     1       7.943 -21.005  15.714  1.00  0.00    -0.237 OA
ATOM     98  O   UNL     1       9.016 -21.637  13.584  1.00  0.00    -0.237 OA
ATOM     99  O   UNL     1       8.975 -19.273  14.293  1.00  0.00    -0.744 OA
ENDBRANCH  92  96
ENDBRANCH  66  89
ENDBRANCH  40  41
ENDBRANCH  32  35
ENDBRANCH  30  31
ENDBRANCH  29  30
ENDBRANCH   1  29
TORSDOF 17
