REMARK SMILES C[C@H](C(=O)NCCCCNC(=O)c1ccc(-c2c3nc(c(-c4cc(S(=O)(=O)[O-])ccc4F)c4ccc([nH]4)c(-c4cc(S(=O)(=O)[O-])ccc4F)c4nc(c(-c5cc(S(=O)(=O)[O-])ccc5F)c5ccc2[nH]5)C=C4)C=C3)cc1)[C@H](C)[N@@H+]1CC[C@H]([NH+]2CCCCC2)C1
REMARK SMILES IDX 7 1 6 2 5 3 3 4 4 5 2 7 1 8 76 9 77 10 78 11 79 12 88 13
REMARK SMILES IDX 80 15 81 16 82 17 83 18 87 19 84 21 86 22 85 23 8 24 9 25
REMARK SMILES IDX 10 26 11 27 12 29 13 30 14 31 75 32 15 33 74 34 16 35 17 36
REMARK SMILES IDX 18 37 68 38 19 39 73 40 67 41 69 42 20 43 72 44 66 45 65 46
REMARK SMILES IDX 21 48 53 49 33 50 52 51 34 52 37 53 51 54 70 55 35 56 36 57
REMARK SMILES IDX 50 59 71 60 38 61 22 62 23 63 31 64 24 65 30 66 32 67 29 68
REMARK SMILES IDX 25 69 26 70 27 71 28 72 54 73 55 74 63 75 56 76 62 77 64 78
REMARK SMILES IDX 61 79 57 80 58 81 59 82 60 83 39 84 40 85 48 86 41 87 47 88
REMARK SMILES IDX 49 89 46 90 42 91 43 92 44 93 45 94
REMARK H PARENT 5 6 78 14 82 20 10 28 69 47 37 58
REMARK Flexibility Score: inf
ROOT
ATOM      1  C   UNL     1      -4.801   3.204   1.522  1.00  0.00     0.023 C 
ENDROOT
BRANCH   1   2
ATOM      2  C   UNL     1      -3.402   2.893   2.029  1.00  0.00     0.116 C 
BRANCH   2   3
ATOM      3  N   UNL     1      -3.239   1.701   2.821  1.00  0.00    -0.356 N 
ATOM      4  C   UNL     1      -2.235   0.776   2.722  1.00  0.00     0.228 C 
ATOM      5  O   UNL     1      -1.870   0.245   3.779  1.00  0.00    -0.275 OA
ATOM      6  H   UNL     1      -3.923   1.533   3.508  1.00  0.00     0.163 HD
BRANCH   4   7
ATOM      7  C   UNL     1      -1.679   0.244   1.386  1.00  0.00     0.133 C 
ATOM      8  C   UNL     1      -2.799  -0.409   0.577  1.00  0.00     0.024 C 
BRANCH   7   9
ATOM      9  C   UNL     1      -0.659   1.038   0.513  1.00  0.00     0.193 C 
ATOM     10  C   UNL     1       0.701   1.141   1.224  1.00  0.00     0.076 C 
BRANCH   9  11
ATOM     11  N   UNL     1      -1.071   2.282  -0.105  1.00  0.00    -0.327 N 
ATOM     12  C   UNL     1      -1.922   2.320  -1.273  1.00  0.00     0.269 C 
ATOM     13  C   UNL     1      -0.493   3.579   0.208  1.00  0.00     0.328 C 
ATOM     14  H   UNL     1      -1.545   1.978   0.745  1.00  0.00     0.348 HD
ATOM     15  C   UNL     1      -1.444   3.549  -2.028  1.00  0.00     0.132 C 
ATOM     16  C   UNL     1      -0.933   4.513  -0.945  1.00  0.00     0.245 C 
BRANCH  16  17
ATOM     17  N   UNL     1       0.047   5.536  -1.385  1.00  0.00    -0.328 N 
ATOM     18  C   UNL     1       1.378   4.989  -1.688  1.00  0.00     0.262 C 
ATOM     19  C   UNL     1      -0.482   6.334  -2.506  1.00  0.00     0.262 C 
ATOM     20  H   UNL     1       0.183   6.157  -0.587  1.00  0.00     0.348 HD
ATOM     21  C   UNL     1       2.375   6.068  -2.108  1.00  0.00     0.062 C 
ATOM     22  C   UNL     1       0.482   7.434  -2.955  1.00  0.00     0.062 C 
ATOM     23  C   UNL     1       1.852   6.861  -3.292  1.00  0.00     0.012 C 
ENDBRANCH  16  17
ENDBRANCH   9  11
ENDBRANCH   7   9
ENDBRANCH   4   7
ENDBRANCH   2   3
ENDBRANCH   1   2
BRANCH   1  24
ATOM     24  C   UNL     1      -5.741   3.865   2.521  1.00  0.00     0.023 C 
BRANCH  24  25
ATOM     25  C   UNL     1      -5.229   5.140   3.186  1.00  0.00     0.116 C 
BRANCH  25  26
ATOM     26  N   UNL     1      -4.918   6.229   2.265  1.00  0.00    -0.352 N 
ATOM     27  C   UNL     1      -5.193   7.576   2.421  1.00  0.00     0.251 C 
ATOM     28  H   UNL     1      -4.456   5.974   1.434  1.00  0.00     0.163 HD
ATOM     29  O   UNL     1      -4.921   8.380   1.544  1.00  0.00    -0.269 OA
BRANCH  27  30
ATOM     30  C   UNL     1      -5.882   8.006   3.659  1.00  0.00     0.039 A 
ATOM     31  C   UNL     1      -7.127   8.634   3.561  1.00  0.00     0.014 A 
ATOM     32  C   UNL     1      -5.364   7.641   4.902  1.00  0.00     0.014 A 
ATOM     33  C   UNL     1      -7.912   8.781   4.707  1.00  0.00     0.010 A 
ATOM     34  C   UNL     1      -6.180   7.716   6.024  1.00  0.00     0.010 A 
ATOM     35  C   UNL     1      -7.473   8.260   5.935  1.00  0.00    -0.014 A 
BRANCH  35  36
ATOM     36  C   UNL     1      -8.344   8.225   7.141  1.00  0.00     0.031 A 
ATOM     37  C   UNL     1      -7.897   8.918   8.397  1.00  0.00     0.074 A 
ATOM     38  C   UNL     1      -9.449   7.452   7.154  1.00  0.00     0.049 A 
ATOM     39  N   UNL     1      -8.373   8.828   9.611  1.00  0.00    -0.248 NA
ATOM     40  C   UNL     1      -6.719   9.787   8.269  1.00  0.00     0.031 C 
ATOM     41  C   UNL     1      -9.959   6.681   6.018  1.00  0.00     0.029 A 
ATOM     42  N   UNL     1     -10.322   7.157   8.172  1.00  0.00    -0.354 N 
ATOM     43  C   UNL     1      -7.523   9.593  10.404  1.00  0.00     0.074 A 
ATOM     44  C   UNL     1      -6.477  10.089   9.534  1.00  0.00     0.031 C 
ATOM     45  C   UNL     1     -11.050   6.000   6.402  1.00  0.00     0.029 A 
ATOM     46  C   UNL     1     -11.291   6.244   7.821  1.00  0.00     0.049 A 
ATOM     47  H   UNL     1     -10.261   7.559   9.068  1.00  0.00     0.167 HD
ATOM     48  C   UNL     1      -7.617   9.867  11.730  1.00  0.00     0.034 A 
ATOM     49  C   UNL     1     -12.245   5.646   8.561  1.00  0.00     0.034 A 
ATOM     50  C   UNL     1      -8.684   9.385  12.572  1.00  0.00     0.049 A 
ATOM     51  C   UNL     1     -12.353   5.980  10.025  1.00  0.00     0.074 A 
ATOM     52  C   UNL     1      -8.927   9.665  13.906  1.00  0.00     0.029 A 
ATOM     53  N   UNL     1      -9.687   8.514  12.163  1.00  0.00    -0.354 N 
ATOM     54  N   UNL     1     -11.575   6.745  10.755  1.00  0.00    -0.248 NA
ATOM     55  C   UNL     1     -13.471   5.378  10.763  1.00  0.00     0.031 C 
ATOM     56  C   UNL     1     -10.040   8.922  14.316  1.00  0.00     0.029 A 
ATOM     57  C   UNL     1     -10.535   8.229  13.223  1.00  0.00     0.049 A 
ATOM     58  H   UNL     1      -9.781   8.151  11.252  1.00  0.00     0.167 HD
ATOM     59  C   UNL     1     -12.125   6.736  12.033  1.00  0.00     0.074 A 
ATOM     60  C   UNL     1     -13.301   5.892  11.974  1.00  0.00     0.031 C 
ATOM     61  C   UNL     1     -11.700   7.378  13.151  1.00  0.00     0.034 A 
BRANCH  48  62
ATOM     62  C   UNL     1      -6.510  10.697  12.338  1.00  0.00     0.023 A 
ATOM     63  C   UNL     1      -6.236  12.002  11.891  1.00  0.00     0.031 A 
ATOM     64  C   UNL     1      -5.667  10.151  13.322  1.00  0.00     0.131 A 
ATOM     65  C   UNL     1      -5.084  12.667  12.334  1.00  0.00     0.055 A 
ATOM     66  C   UNL     1      -4.577  10.860  13.834  1.00  0.00     0.041 A 
ATOM     67  F   UNL     1      -5.866   8.905  13.780  1.00  0.00    -0.206 F 
ATOM     68  C   UNL     1      -4.265  12.116  13.321  1.00  0.00     0.022 A 
BRANCH  65  69
ATOM     69  S   UNL     1      -4.566  14.167  11.453  1.00  0.00     0.124 S 
ATOM     70  O   UNL     1      -4.467  13.682  10.078  1.00  0.00    -0.237 OA
ATOM     71  O   UNL     1      -5.662  15.088  11.729  1.00  0.00    -0.237 OA
ATOM     72  O   UNL     1      -3.290  14.508  12.078  1.00  0.00    -0.744 OA
ENDBRANCH  65  69
ENDBRANCH  48  62
BRANCH  49  73
ATOM     73  C   UNL     1     -13.156   4.649   7.934  1.00  0.00     0.023 A 
ATOM     74  C   UNL     1     -14.511   4.941   7.715  1.00  0.00     0.031 A 
ATOM     75  C   UNL     1     -12.677   3.387   7.538  1.00  0.00     0.131 A 
ATOM     76  C   UNL     1     -15.349   3.973   7.139  1.00  0.00     0.055 A 
ATOM     77  C   UNL     1     -13.506   2.442   6.932  1.00  0.00     0.041 A 
ATOM     78  F   UNL     1     -11.385   3.067   7.713  1.00  0.00    -0.206 F 
ATOM     79  C   UNL     1     -14.853   2.730   6.736  1.00  0.00     0.022 A 
BRANCH  76  80
ATOM     80  S   UNL     1     -17.113   4.350   6.949  1.00  0.00     0.124 S 
ATOM     81  O   UNL     1     -17.533   4.513   8.337  1.00  0.00    -0.237 OA
ATOM     82  O   UNL     1     -17.079   5.565   6.142  1.00  0.00    -0.237 OA
ATOM     83  O   UNL     1     -17.642   3.169   6.270  1.00  0.00    -0.744 OA
ENDBRANCH  76  80
ENDBRANCH  49  73
BRANCH  61  84
ATOM     84  C   UNL     1     -12.546   7.234  14.390  1.00  0.00     0.023 A 
ATOM     85  C   UNL     1     -12.612   6.030  15.111  1.00  0.00     0.031 A 
ATOM     86  C   UNL     1     -13.285   8.334  14.863  1.00  0.00     0.131 A 
ATOM     87  C   UNL     1     -13.429   5.943  16.249  1.00  0.00     0.055 A 
ATOM     88  C   UNL     1     -14.059   8.255  16.021  1.00  0.00     0.041 A 
ATOM     89  F   UNL     1     -13.257   9.506  14.209  1.00  0.00    -0.206 F 
ATOM     90  C   UNL     1     -14.140   7.053  16.717  1.00  0.00     0.022 A 
BRANCH  87  91
ATOM     91  S   UNL     1     -13.596   4.343  17.087  1.00  0.00     0.124 S 
ATOM     92  O   UNL     1     -14.179   3.512  16.039  1.00  0.00    -0.237 OA
ATOM     93  O   UNL     1     -12.217   4.035  17.453  1.00  0.00    -0.237 OA
ATOM     94  O   UNL     1     -14.483   4.636  18.212  1.00  0.00    -0.744 OA
ENDBRANCH  87  91
ENDBRANCH  61  84
ENDBRANCH  35  36
ENDBRANCH  27  30
ENDBRANCH  25  26
ENDBRANCH  24  25
ENDBRANCH   1  24
TORSDOF 17
