REMARK SMILES Cc1nsc(NC(=O)CC2([NH3+])CCC2)c1C(=O)NCCCCNC(=O)c1ccc(-c2c3nc(c(-c4cc(S(=O)(=O)[O-])ccc4F)c4ccc([nH]4)c(-c4cc(S(=O)(=O)[O-])ccc4F)c4nc(c(-c5cc(S(=O)(=O)[O-])ccc5F)c5ccc2[nH]5)C=C4)C=C3)cc1
REMARK SMILES IDX 20 1 19 2 18 3 16 4 17 5 15 7 1 8 2 9 3 10 4 11 5 12 6 13
REMARK SMILES IDX 7 14 8 16 9 17 10 18 12 19 14 20 13 21 11 22 21 26 22 27
REMARK SMILES IDX 23 28 24 29 25 31 26 32 27 33 88 34 28 35 87 36 29 37 30 38
REMARK SMILES IDX 31 39 81 40 32 41 86 42 80 43 82 44 33 45 85 46 79 47 78 48
REMARK SMILES IDX 34 50 66 51 46 52 65 53 47 54 50 55 64 56 83 57 48 58 49 59
REMARK SMILES IDX 63 61 84 62 51 63 35 64 36 65 44 66 37 67 43 68 45 69 42 70
REMARK SMILES IDX 38 71 39 72 40 73 41 74 67 75 68 76 76 77 69 78 75 79 77 80
REMARK SMILES IDX 74 81 70 82 71 83 72 84 73 85 52 86 53 87 61 88 54 89 60 90
REMARK SMILES IDX 62 91 59 92 55 93 56 94 57 95 58 96
REMARK H PARENT 18 6 6 15 11 23 11 24 11 25 23 30 82 49 50 60
REMARK Flexibility Score: inf
ROOT
ATOM      1  C   UNL     1       3.139   2.109   0.644  1.00  0.00     0.023 C 
ENDROOT
BRANCH   1   2
ATOM      2  C   UNL     1       1.714   1.727   0.249  1.00  0.00     0.116 C 
BRANCH   2   3
ATOM      3  N   UNL     1       1.051   2.567  -0.708  1.00  0.00    -0.352 N 
ATOM      4  C   UNL     1       0.156   2.266  -1.710  1.00  0.00     0.256 C 
ATOM      5  O   UNL     1      -0.157   3.239  -2.407  1.00  0.00    -0.269 OA
ATOM      6  H   UNL     1       1.276   3.523  -0.636  1.00  0.00     0.163 HD
BRANCH   4   7
ATOM      7  C   UNL     1      -0.416   0.932  -2.018  1.00  0.00     0.097 A 
ATOM      8  C   UNL     1       0.163  -0.885  -0.088  1.00  0.00     0.069 C 
ATOM      9  C   UNL     1      -0.462  -0.376  -1.341  1.00  0.00     0.066 A 
ATOM     10  N   UNL     1      -1.185  -1.322  -1.946  1.00  0.00    -0.195 NA
ATOM     11  S   UNL     1      -1.895  -0.707  -3.273  1.00  0.00    -0.017 S 
ATOM     12  C   UNL     1      -1.056   0.758  -3.261  1.00  0.00     0.129 A 
BRANCH  12  13
ATOM     13  N   UNL     1      -1.125   1.635  -4.331  1.00  0.00    -0.316 N 
ATOM     14  C   UNL     1      -1.193   1.405  -5.679  1.00  0.00     0.231 C 
ATOM     15  H   UNL     1      -1.126   2.587  -4.079  1.00  0.00     0.170 HD
ATOM     16  O   UNL     1      -1.191   2.388  -6.432  1.00  0.00    -0.274 OA
BRANCH  14  17
ATOM     17  C   UNL     1      -1.156   0.018  -6.293  1.00  0.00     0.168 C 
BRANCH  17  18
ATOM     18  C   UNL     1       0.233  -0.609  -6.415  1.00  0.00     0.103 C 
ATOM     19  C   UNL     1       1.398  -0.353  -5.412  1.00  0.00     0.069 C 
ATOM     20  C   UNL     1       0.332  -2.120  -6.051  1.00  0.00     0.069 C 
ATOM     21  C   UNL     1       1.691  -1.861  -5.378  1.00  0.00     0.013 C 
BRANCH  18  22
ATOM     22  N   UNL     1       0.791  -0.459  -7.774  1.00  0.00    -0.352 N 
ATOM     23  H   UNL     1       0.746   0.520  -8.055  1.00  0.00     0.344 HD
ATOM     24  H   UNL     1       0.251  -1.025  -8.428  1.00  0.00     0.344 HD
ATOM     25  H   UNL     1       1.763  -0.769  -7.779  1.00  0.00     0.344 HD
ENDBRANCH  18  22
ENDBRANCH  17  18
ENDBRANCH  14  17
ENDBRANCH  12  13
ENDBRANCH   4   7
ENDBRANCH   2   3
ENDBRANCH   1   2
BRANCH   1  26
ATOM     26  C   UNL     1       3.359   3.380   1.463  1.00  0.00     0.023 C 
BRANCH  26  27
ATOM     27  C   UNL     1       2.549   3.478   2.747  1.00  0.00     0.116 C 
BRANCH  27  28
ATOM     28  N   UNL     1       2.873   2.455   3.739  1.00  0.00    -0.352 N 
ATOM     29  C   UNL     1       2.408   2.388   5.047  1.00  0.00     0.251 C 
ATOM     30  H   UNL     1       3.485   1.740   3.452  1.00  0.00     0.163 HD
ATOM     31  O   UNL     1       3.009   1.739   5.888  1.00  0.00    -0.269 OA
BRANCH  29  32
ATOM     32  C   UNL     1       1.165   3.118   5.388  1.00  0.00     0.039 A 
ATOM     33  C   UNL     1       1.028   3.827   6.584  1.00  0.00     0.014 A 
ATOM     34  C   UNL     1       0.134   3.105   4.451  1.00  0.00     0.014 A 
ATOM     35  C   UNL     1      -0.123   4.594   6.781  1.00  0.00     0.010 A 
ATOM     36  C   UNL     1      -0.925   3.969   4.578  1.00  0.00     0.010 A 
ATOM     37  C   UNL     1      -1.088   4.680   5.760  1.00  0.00    -0.014 A 
BRANCH  37  38
ATOM     38  C   UNL     1      -2.190   5.638   5.827  1.00  0.00     0.031 A 
ATOM     39  C   UNL     1      -1.733   7.043   5.995  1.00  0.00     0.074 A 
ATOM     40  C   UNL     1      -3.474   5.336   5.526  1.00  0.00     0.049 A 
ATOM     41  N   UNL     1      -1.784   7.756   7.069  1.00  0.00    -0.248 NA
ATOM     42  C   UNL     1      -0.939   7.664   4.919  1.00  0.00     0.031 C 
ATOM     43  C   UNL     1      -4.014   4.062   5.040  1.00  0.00     0.029 A 
ATOM     44  N   UNL     1      -4.572   6.144   5.496  1.00  0.00    -0.354 N 
ATOM     45  C   UNL     1      -1.299   9.011   6.718  1.00  0.00     0.074 A 
ATOM     46  C   UNL     1      -0.572   8.812   5.494  1.00  0.00     0.031 C 
ATOM     47  C   UNL     1      -5.265   4.248   4.556  1.00  0.00     0.029 A 
ATOM     48  C   UNL     1      -5.682   5.613   4.833  1.00  0.00     0.049 A 
ATOM     49  H   UNL     1      -4.582   7.037   5.912  1.00  0.00     0.167 HD
ATOM     50  C   UNL     1      -1.782  10.136   7.319  1.00  0.00     0.034 A 
ATOM     51  C   UNL     1      -6.848   6.251   4.520  1.00  0.00     0.034 A 
ATOM     52  C   UNL     1      -2.559   9.785   8.492  1.00  0.00     0.049 A 
ATOM     53  C   UNL     1      -6.948   7.417   5.434  1.00  0.00     0.074 A 
ATOM     54  C   UNL     1      -2.297   9.085   9.656  1.00  0.00     0.029 A 
ATOM     55  N   UNL     1      -3.933   9.815   8.381  1.00  0.00    -0.354 N 
ATOM     56  N   UNL     1      -7.103   7.299   6.723  1.00  0.00    -0.248 NA
ATOM     57  C   UNL     1      -6.362   8.674   4.994  1.00  0.00     0.031 C 
ATOM     58  C   UNL     1      -3.472   8.308   9.885  1.00  0.00     0.029 A 
ATOM     59  C   UNL     1      -4.426   8.656   8.927  1.00  0.00     0.049 A 
ATOM     60  H   UNL     1      -4.466  10.539   7.981  1.00  0.00     0.167 HD
ATOM     61  C   UNL     1      -6.233   8.228   7.272  1.00  0.00     0.074 A 
ATOM     62  C   UNL     1      -5.873   9.110   6.160  1.00  0.00     0.031 C 
ATOM     63  C   UNL     1      -5.655   8.016   8.493  1.00  0.00     0.034 A 
BRANCH  50  64
ATOM     64  C   UNL     1      -1.920  11.497   6.664  1.00  0.00     0.023 A 
ATOM     65  C   UNL     1      -2.520  12.508   7.441  1.00  0.00     0.031 A 
ATOM     66  C   UNL     1      -1.787  11.787   5.289  1.00  0.00     0.131 A 
ATOM     67  C   UNL     1      -3.080  13.649   6.844  1.00  0.00     0.055 A 
ATOM     68  C   UNL     1      -2.284  12.960   4.708  1.00  0.00     0.041 A 
ATOM     69  F   UNL     1      -1.251  10.934   4.411  1.00  0.00    -0.206 F 
ATOM     70  C   UNL     1      -2.970  13.881   5.478  1.00  0.00     0.022 A 
BRANCH  67  71
ATOM     71  S   UNL     1      -4.120  14.720   7.867  1.00  0.00     0.124 S 
ATOM     72  O   UNL     1      -5.122  13.773   8.345  1.00  0.00    -0.237 OA
ATOM     73  O   UNL     1      -3.166  15.207   8.857  1.00  0.00    -0.237 OA
ATOM     74  O   UNL     1      -4.605  15.722   6.921  1.00  0.00    -0.744 OA
ENDBRANCH  67  71
ENDBRANCH  50  64
BRANCH  51  75
ATOM     75  C   UNL     1      -7.715   6.103   3.309  1.00  0.00     0.023 A 
ATOM     76  C   UNL     1      -9.038   6.608   3.236  1.00  0.00     0.031 A 
ATOM     77  C   UNL     1      -7.134   5.695   2.089  1.00  0.00     0.131 A 
ATOM     78  C   UNL     1      -9.707   6.698   1.987  1.00  0.00     0.055 A 
ATOM     79  C   UNL     1      -7.795   5.794   0.861  1.00  0.00     0.041 A 
ATOM     80  F   UNL     1      -5.862   5.271   2.034  1.00  0.00    -0.206 F 
ATOM     81  C   UNL     1      -9.080   6.309   0.802  1.00  0.00     0.022 A 
BRANCH  78  82
ATOM     82  S   UNL     1     -11.379   7.426   1.857  1.00  0.00     0.124 S 
ATOM     83  O   UNL     1     -12.216   6.392   2.455  1.00  0.00    -0.237 OA
ATOM     84  O   UNL     1     -11.246   8.669   2.607  1.00  0.00    -0.237 OA
ATOM     85  O   UNL     1     -11.564   7.603   0.415  1.00  0.00    -0.744 OA
ENDBRANCH  78  82
ENDBRANCH  51  75
BRANCH  63  86
ATOM     86  C   UNL     1      -6.222   6.926   9.384  1.00  0.00     0.023 A 
ATOM     87  C   UNL     1      -6.393   5.568   9.022  1.00  0.00     0.031 A 
ATOM     88  C   UNL     1      -6.523   7.284  10.711  1.00  0.00     0.131 A 
ATOM     89  C   UNL     1      -6.869   4.639   9.970  1.00  0.00     0.055 A 
ATOM     90  C   UNL     1      -6.966   6.357  11.652  1.00  0.00     0.041 A 
ATOM     91  F   UNL     1      -6.365   8.551  11.127  1.00  0.00    -0.206 F 
ATOM     92  C   UNL     1      -7.150   5.032  11.282  1.00  0.00     0.022 A 
BRANCH  89  93
ATOM     93  S   UNL     1      -7.179   2.902   9.510  1.00  0.00     0.124 S 
ATOM     94  O   UNL     1      -7.838   3.000   8.213  1.00  0.00    -0.237 OA
ATOM     95  O   UNL     1      -5.834   2.334   9.500  1.00  0.00    -0.237 OA
ATOM     96  O   UNL     1      -8.036   2.413  10.593  1.00  0.00    -0.744 OA
ENDBRANCH  89  93
ENDBRANCH  63  86
ENDBRANCH  37  38
ENDBRANCH  29  32
ENDBRANCH  27  28
ENDBRANCH  26  27
ENDBRANCH   1  26
TORSDOF 18
