REMARK SMILES Cn1ccc(-c2n[nH]c(=O)n2-c2ccc(C(=O)NCCCCNC(=O)c3ccc(-c4c5nc(c(-c6cc(S(=O)(=O)[O-])ccc6F)c6ccc([nH]6)c(-c6cc(S(=O)(=O)[O-])ccc6F)c6nc(c(-c7cc(S(=O)(=O)[O-])ccc7F)c7ccc4[nH]7)C=C6)C=C5)cc3)cc2)n1
REMARK SMILES IDX 21 1 20 2 19 3 18 4 16 5 17 6 15 8 12 9 13 10 90 11 14 12
REMARK SMILES IDX 89 13 11 14 6 15 7 16 8 17 9 18 10 20 5 21 1 22 2 23 3 24
REMARK SMILES IDX 91 25 4 26 22 27 23 28 24 29 25 31 26 32 27 33 88 34 28 35
REMARK SMILES IDX 87 36 29 37 30 38 31 39 81 40 32 41 86 42 80 43 82 44 33 45
REMARK SMILES IDX 85 46 79 47 78 48 34 50 66 51 46 52 65 53 47 54 50 55 64 56
REMARK SMILES IDX 83 57 48 58 49 59 63 61 84 62 51 63 35 64 36 65 44 66 37 67
REMARK SMILES IDX 43 68 45 69 42 70 38 71 39 72 40 73 41 74 67 75 68 76 76 77
REMARK SMILES IDX 69 78 75 79 77 80 74 81 70 82 71 83 72 84 73 85 52 86 53 87
REMARK SMILES IDX 61 88 54 89 60 90 62 91 59 92 55 93 56 94 57 95 58 96
REMARK H PARENT 18 7 8 19 23 30 82 49 50 60
REMARK Flexibility Score: inf
ROOT
ATOM      1  C   UNL     1       1.116   0.650   8.855  1.00  0.00     0.023 C 
ENDROOT
BRANCH   1   2
ATOM      2  C   UNL     1       1.259   0.619   7.325  1.00  0.00     0.023 C 
BRANCH   2   3
ATOM      3  C   UNL     1       0.015   1.072   6.545  1.00  0.00     0.116 C 
BRANCH   3   4
ATOM      4  N   UNL     1      -0.113   2.519   6.566  1.00  0.00    -0.352 N 
ATOM      5  C   UNL     1       0.312   3.516   5.722  1.00  0.00     0.251 C 
ATOM      6  O   UNL     1       0.071   4.677   6.058  1.00  0.00    -0.269 OA
ATOM      7  H   UNL     1      -0.607   2.855   7.348  1.00  0.00     0.163 HD
BRANCH   5   8
ATOM      8  C   UNL     1       1.003   3.275   4.420  1.00  0.00     0.039 A 
ATOM      9  C   UNL     1       2.118   2.931   1.849  1.00  0.00     0.052 A 
ATOM     10  C   UNL     1       1.564   4.158   2.205  1.00  0.00     0.028 A 
ATOM     11  C   UNL     1       2.185   1.910   2.801  1.00  0.00     0.028 A 
ATOM     12  C   UNL     1       0.980   4.315   3.471  1.00  0.00     0.016 A 
ATOM     13  C   UNL     1       1.678   2.103   4.086  1.00  0.00     0.016 A 
BRANCH   9  14
ATOM     14  N   UNL     1       2.682   2.720   0.585  1.00  0.00    -0.242 N 
ATOM     15  C   UNL     1       2.561   1.625  -0.220  1.00  0.00     0.189 A 
ATOM     16  N   UNL     1       3.485   1.512  -1.138  1.00  0.00    -0.150 NA
ATOM     17  N   UNL     1       4.256   2.629  -0.954  1.00  0.00    -0.226 N 
ATOM     18  C   UNL     1       3.781   3.396   0.112  1.00  0.00     0.348 A 
ATOM     19  H   UNL     1       5.041   2.860  -1.501  1.00  0.00     0.195 HD
ATOM     20  O   UNL     1       4.333   4.395   0.547  1.00  0.00    -0.246 OA
BRANCH  15  21
ATOM     21  C   UNL     1       1.462   0.679  -0.118  1.00  0.00     0.130 A 
ATOM     22  C   UNL     1      -1.982   0.032   0.034  1.00  0.00     0.173 C 
ATOM     23  N   UNL     1      -0.538  -0.040   0.011  1.00  0.00    -0.275 N 
ATOM     24  C   UNL     1       0.223  -1.167  -0.093  1.00  0.00     0.109 A 
ATOM     25  N   UNL     1       0.191   1.091   0.045  1.00  0.00    -0.170 NA
ATOM     26  C   UNL     1       1.523  -0.734  -0.214  1.00  0.00     0.054 A 
ENDBRANCH  15  21
ENDBRANCH   9  14
ENDBRANCH   5   8
ENDBRANCH   3   4
ENDBRANCH   2   3
ENDBRANCH   1   2
BRANCH   1  27
ATOM     27  C   UNL     1       0.161  -0.391   9.423  1.00  0.00     0.116 C 
BRANCH  27  28
ATOM     28  N   UNL     1       0.590  -1.771   9.165  1.00  0.00    -0.352 N 
ATOM     29  C   UNL     1      -0.138  -2.944   9.344  1.00  0.00     0.251 C 
ATOM     30  H   UNL     1       1.506  -1.880   8.822  1.00  0.00     0.163 HD
ATOM     31  O   UNL     1       0.419  -4.015   9.492  1.00  0.00    -0.269 OA
BRANCH  29  32
ATOM     32  C   UNL     1      -1.609  -2.842   9.307  1.00  0.00     0.039 A 
ATOM     33  C   UNL     1      -2.458  -3.531  10.178  1.00  0.00     0.014 A 
ATOM     34  C   UNL     1      -2.115  -1.945   8.377  1.00  0.00     0.014 A 
ATOM     35  C   UNL     1      -3.826  -3.251  10.132  1.00  0.00     0.010 A 
ATOM     36  C   UNL     1      -3.387  -1.488   8.520  1.00  0.00     0.010 A 
ATOM     37  C   UNL     1      -4.274  -2.220   9.295  1.00  0.00    -0.014 A 
BRANCH  37  38
ATOM     38  C   UNL     1      -5.663  -1.798   9.193  1.00  0.00     0.031 A 
ATOM     39  C   UNL     1      -6.223  -1.202  10.435  1.00  0.00     0.074 A 
ATOM     40  C   UNL     1      -6.242  -1.659   7.976  1.00  0.00     0.049 A 
ATOM     41  N   UNL     1      -7.171  -1.667  11.176  1.00  0.00    -0.248 NA
ATOM     42  C   UNL     1      -5.546  -0.031  11.020  1.00  0.00     0.031 C 
ATOM     43  C   UNL     1      -5.653  -1.885   6.645  1.00  0.00     0.029 A 
ATOM     44  N   UNL     1      -7.455  -1.144   7.658  1.00  0.00    -0.354 N 
ATOM     45  C   UNL     1      -7.373  -0.731  12.187  1.00  0.00     0.074 A 
ATOM     46  C   UNL     1      -6.213   0.117  12.168  1.00  0.00     0.031 C 
ATOM     47  C   UNL     1      -6.403  -1.276   5.699  1.00  0.00     0.029 A 
ATOM     48  C   UNL     1      -7.612  -0.771   6.323  1.00  0.00     0.049 A 
ATOM     49  H   UNL     1      -8.173  -1.040   8.322  1.00  0.00     0.167 HD
ATOM     50  C   UNL     1      -8.587  -0.601  12.796  1.00  0.00     0.034 A 
ATOM     51  C   UNL     1      -8.649  -0.067   5.788  1.00  0.00     0.034 A 
ATOM     52  C   UNL     1      -9.445  -1.713  12.449  1.00  0.00     0.049 A 
ATOM     53  C   UNL     1      -9.775  -0.211   6.752  1.00  0.00     0.074 A 
ATOM     54  C   UNL     1      -9.376  -3.079  12.641  1.00  0.00     0.029 A 
ATOM     55  N   UNL     1     -10.351  -1.528  11.426  1.00  0.00    -0.354 N 
ATOM     56  N   UNL     1     -10.326  -1.364   7.032  1.00  0.00    -0.248 NA
ATOM     57  C   UNL     1      -9.908   0.802   7.791  1.00  0.00     0.031 C 
ATOM     58  C   UNL     1      -9.811  -3.638  11.402  1.00  0.00     0.029 A 
ATOM     59  C   UNL     1     -10.228  -2.596  10.569  1.00  0.00     0.049 A 
ATOM     60  H   UNL     1     -10.972  -0.771  11.327  1.00  0.00     0.167 HD
ATOM     61  C   UNL     1     -10.486  -1.367   8.411  1.00  0.00     0.074 A 
ATOM     62  C   UNL     1     -10.282   0.026   8.815  1.00  0.00     0.031 C 
ATOM     63  C   UNL     1     -10.459  -2.529   9.134  1.00  0.00     0.034 A 
BRANCH  50  64
ATOM     64  C   UNL     1      -9.149   0.660  13.418  1.00  0.00     0.023 A 
ATOM     65  C   UNL     1     -10.440   0.576  13.979  1.00  0.00     0.031 A 
ATOM     66  C   UNL     1      -8.638   1.968  13.263  1.00  0.00     0.131 A 
ATOM     67  C   UNL     1     -11.194   1.730  14.251  1.00  0.00     0.055 A 
ATOM     68  C   UNL     1      -9.367   3.114  13.597  1.00  0.00     0.041 A 
ATOM     69  F   UNL     1      -7.452   2.223  12.703  1.00  0.00    -0.206 F 
ATOM     70  C   UNL     1     -10.666   3.002  14.061  1.00  0.00     0.022 A 
BRANCH  67  71
ATOM     71  S   UNL     1     -12.942   1.532  14.681  1.00  0.00     0.124 S 
ATOM     72  O   UNL     1     -13.424   0.697  13.585  1.00  0.00    -0.237 OA
ATOM     73  O   UNL     1     -12.858   0.893  15.990  1.00  0.00    -0.237 OA
ATOM     74  O   UNL     1     -13.446   2.903  14.687  1.00  0.00    -0.744 OA
ENDBRANCH  67  71
ENDBRANCH  50  64
BRANCH  51  75
ATOM     75  C   UNL     1      -8.561   1.016   4.755  1.00  0.00     0.023 A 
ATOM     76  C   UNL     1      -9.658   1.454   3.977  1.00  0.00     0.031 A 
ATOM     77  C   UNL     1      -7.393   1.813   4.691  1.00  0.00     0.131 A 
ATOM     78  C   UNL     1      -9.555   2.630   3.186  1.00  0.00     0.055 A 
ATOM     79  C   UNL     1      -7.300   2.972   3.915  1.00  0.00     0.041 A 
ATOM     80  F   UNL     1      -6.320   1.533   5.448  1.00  0.00    -0.206 F 
ATOM     81  C   UNL     1      -8.384   3.391   3.165  1.00  0.00     0.022 A 
BRANCH  78  82
ATOM     82  S   UNL     1     -10.975   3.238   2.209  1.00  0.00     0.124 S 
ATOM     83  O   UNL     1     -11.118   2.202   1.193  1.00  0.00    -0.237 OA
ATOM     84  O   UNL     1     -12.033   3.318   3.209  1.00  0.00    -0.237 OA
ATOM     85  O   UNL     1     -10.515   4.532   1.702  1.00  0.00    -0.744 OA
ENDBRANCH  78  82
ENDBRANCH  51  75
BRANCH  63  86
ATOM     86  C   UNL     1     -10.477  -3.857   8.394  1.00  0.00     0.023 A 
ATOM     87  C   UNL     1      -9.493  -4.301   7.476  1.00  0.00     0.031 A 
ATOM     88  C   UNL     1     -11.468  -4.778   8.777  1.00  0.00     0.131 A 
ATOM     89  C   UNL     1      -9.531  -5.626   6.987  1.00  0.00     0.055 A 
ATOM     90  C   UNL     1     -11.485  -6.092   8.312  1.00  0.00     0.041 A 
ATOM     91  F   UNL     1     -12.415  -4.426   9.662  1.00  0.00    -0.206 F 
ATOM     92  C   UNL     1     -10.518  -6.520   7.413  1.00  0.00     0.022 A 
BRANCH  89  93
ATOM     93  S   UNL     1      -8.303  -6.217   5.772  1.00  0.00     0.124 S 
ATOM     94  O   UNL     1      -8.298  -5.171   4.755  1.00  0.00    -0.237 OA
ATOM     95  O   UNL     1      -7.088  -6.333   6.574  1.00  0.00    -0.237 OA
ATOM     96  O   UNL     1      -8.856  -7.497   5.323  1.00  0.00    -0.744 OA
ENDBRANCH  89  93
ENDBRANCH  63  86
ENDBRANCH  37  38
ENDBRANCH  29  32
ENDBRANCH  27  28
ENDBRANCH   1  27
TORSDOF 16
