REMARK SMILES Cc1nsc(N(C)C(=O)c2ccc(=O)n(C)n2)c1C(=O)NCCCCNC(=O)c1ccc(-c2c3nc(c(-c4cc(S(=O)(=O)[O-])ccc4F)c4ccc([nH]4)c(-c4cc(S(=O)(=O)[O-])ccc4F)c4nc(c(-c5cc(S(=O)(=O)[O-])ccc5F)c5ccc2[nH]5)C=C4)C=C3)cc1
REMARK SMILES IDX 23 1 22 2 21 3 19 4 20 5 18 7 1 8 2 9 3 10 4 11 5 12 6 13
REMARK SMILES IDX 7 14 8 15 9 16 10 17 11 18 17 19 12 20 15 21 13 22 16 23
REMARK SMILES IDX 14 24 24 25 25 26 26 27 27 28 28 30 29 31 30 32 91 33 31 34
REMARK SMILES IDX 90 35 32 36 33 37 34 38 84 39 35 40 89 41 83 42 85 43 36 44
REMARK SMILES IDX 88 45 82 46 81 47 37 49 69 50 49 51 68 52 50 53 53 54 67 55
REMARK SMILES IDX 86 56 51 57 52 58 66 60 87 61 54 62 38 63 39 64 47 65 40 66
REMARK SMILES IDX 46 67 48 68 45 69 41 70 42 71 43 72 44 73 70 74 71 75 79 76
REMARK SMILES IDX 72 77 78 78 80 79 77 80 73 81 74 82 75 83 76 84 55 85 56 86
REMARK SMILES IDX 64 87 57 88 63 89 65 90 62 91 58 92 59 93 60 94 61 95
REMARK H PARENT 21 6 26 29 85 48 53 59
REMARK Flexibility Score: inf
ROOT
ATOM      1  C   UNL     1      -0.149   2.048  -1.350  1.00  0.00     0.023 C 
ENDROOT
BRANCH   1   2
ATOM      2  C   UNL     1       0.935   2.231  -0.287  1.00  0.00     0.116 C 
BRANCH   2   3
ATOM      3  N   UNL     1       0.411   2.593   1.009  1.00  0.00    -0.352 N 
ATOM      4  C   UNL     1       0.534   1.953   2.222  1.00  0.00     0.256 C 
ATOM      5  O   UNL     1       0.909   2.669   3.154  1.00  0.00    -0.269 OA
ATOM      6  H   UNL     1      -0.116   3.425   1.028  1.00  0.00     0.163 HD
BRANCH   4   7
ATOM      7  C   UNL     1       0.123   0.561   2.480  1.00  0.00     0.097 A 
ATOM      8  C   UNL     1       0.783  -0.895   0.316  1.00  0.00     0.069 C 
ATOM      9  C   UNL     1       0.280  -0.669   1.696  1.00  0.00     0.066 A 
ATOM     10  N   UNL     1      -0.035  -1.808   2.315  1.00  0.00    -0.195 NA
ATOM     11  S   UNL     1      -0.481  -1.494   3.845  1.00  0.00    -0.017 S 
ATOM     12  C   UNL     1      -0.451   0.212   3.724  1.00  0.00     0.131 A 
BRANCH  12  13
ATOM     13  N   UNL     1      -0.978   0.934   4.829  1.00  0.00    -0.299 N 
ATOM     14  C   UNL     1      -1.092   0.373   6.179  1.00  0.00     0.154 C 
BRANCH  13  15
ATOM     15  C   UNL     1      -1.503   2.224   4.580  1.00  0.00     0.279 C 
ATOM     16  O   UNL     1      -1.864   2.634   3.476  1.00  0.00    -0.267 OA
BRANCH  15  17
ATOM     17  C   UNL     1      -1.831   3.126   5.788  1.00  0.00     0.149 A 
ATOM     18  C   UNL     1      -2.992   4.028   5.615  1.00  0.00     0.042 A 
ATOM     19  N   UNL     1      -1.137   3.047   6.885  1.00  0.00    -0.165 NA
ATOM     20  C   UNL     1      -3.413   4.694   6.690  1.00  0.00     0.076 A 
ATOM     21  N   UNL     1      -1.564   3.786   7.972  1.00  0.00    -0.232 N 
ATOM     22  C   UNL     1      -2.725   4.546   7.989  1.00  0.00     0.266 A 
ATOM     23  C   UNL     1      -0.773   3.687   9.183  1.00  0.00     0.178 C 
ATOM     24  O   UNL     1      -3.203   5.085   8.985  1.00  0.00    -0.268 OA
ENDBRANCH  15  17
ENDBRANCH  13  15
ENDBRANCH  12  13
ENDBRANCH   4   7
ENDBRANCH   2   3
ENDBRANCH   1   2
BRANCH   1  25
ATOM     25  C   UNL     1      -0.587   3.332  -2.069  1.00  0.00     0.023 C 
BRANCH  25  26
ATOM     26  C   UNL     1       0.502   3.997  -2.908  1.00  0.00     0.116 C 
BRANCH  26  27
ATOM     27  N   UNL     1       1.010   3.124  -3.966  1.00  0.00    -0.352 N 
ATOM     28  C   UNL     1       2.086   3.354  -4.793  1.00  0.00     0.251 C 
ATOM     29  H   UNL     1       0.529   2.276  -4.102  1.00  0.00     0.163 HD
ATOM     30  O   UNL     1       2.178   2.776  -5.881  1.00  0.00    -0.269 OA
BRANCH  28  31
ATOM     31  C   UNL     1       3.146   4.266  -4.347  1.00  0.00     0.039 A 
ATOM     32  C   UNL     1       3.725   5.196  -5.217  1.00  0.00     0.014 A 
ATOM     33  C   UNL     1       3.568   4.160  -3.020  1.00  0.00     0.014 A 
ATOM     34  C   UNL     1       4.705   6.053  -4.727  1.00  0.00     0.010 A 
ATOM     35  C   UNL     1       4.451   5.076  -2.510  1.00  0.00     0.010 A 
ATOM     36  C   UNL     1       5.060   5.981  -3.372  1.00  0.00    -0.014 A 
BRANCH  36  37
ATOM     37  C   UNL     1       5.997   6.932  -2.790  1.00  0.00     0.031 A 
ATOM     38  C   UNL     1       5.478   8.327  -2.764  1.00  0.00     0.074 A 
ATOM     39  C   UNL     1       7.087   6.518  -2.108  1.00  0.00     0.049 A 
ATOM     40  N   UNL     1       5.856   9.334  -3.481  1.00  0.00    -0.248 NA
ATOM     41  C   UNL     1       4.249   8.585  -1.988  1.00  0.00     0.031 C 
ATOM     42  C   UNL     1       7.458   5.133  -1.779  1.00  0.00     0.029 A 
ATOM     43  N   UNL     1       8.037   7.238  -1.456  1.00  0.00    -0.354 N 
ATOM     44  C   UNL     1       5.087  10.410  -3.039  1.00  0.00     0.074 A 
ATOM     45  C   UNL     1       3.967   9.841  -2.338  1.00  0.00     0.031 C 
ATOM     46  C   UNL     1       8.393   5.132  -0.803  1.00  0.00     0.029 A 
ATOM     47  C   UNL     1       8.811   6.500  -0.566  1.00  0.00     0.049 A 
ATOM     48  H   UNL     1       8.167   8.203  -1.602  1.00  0.00     0.167 HD
ATOM     49  C   UNL     1       5.601  11.673  -2.983  1.00  0.00     0.034 A 
ATOM     50  C   UNL     1       9.704   6.991   0.329  1.00  0.00     0.034 A 
ATOM     51  C   UNL     1       6.867  11.733  -3.660  1.00  0.00     0.049 A 
ATOM     52  C   UNL     1      10.044   8.364  -0.098  1.00  0.00     0.074 A 
ATOM     53  C   UNL     1       7.300  11.687  -4.965  1.00  0.00     0.029 A 
ATOM     54  N   UNL     1       7.935  11.427  -2.855  1.00  0.00    -0.354 N 
ATOM     55  N   UNL     1      10.693   8.638  -1.195  1.00  0.00    -0.248 NA
ATOM     56  C   UNL     1       9.324   9.480   0.503  1.00  0.00     0.031 C 
ATOM     57  C   UNL     1       8.597  11.101  -4.920  1.00  0.00     0.029 A 
ATOM     58  C   UNL     1       8.944  10.864  -3.588  1.00  0.00     0.049 A 
ATOM     59  H   UNL     1       7.971  11.590  -1.885  1.00  0.00     0.167 HD
ATOM     60  C   UNL     1      10.104   9.803  -1.650  1.00  0.00     0.074 A 
ATOM     61  C   UNL     1       9.410  10.362  -0.496  1.00  0.00     0.031 C 
ATOM     62  C   UNL     1       9.966  10.030  -2.987  1.00  0.00     0.034 A 
BRANCH  49  63
ATOM     63  C   UNL     1       5.235  12.696  -1.926  1.00  0.00     0.023 A 
ATOM     64  C   UNL     1       4.562  12.356  -0.738  1.00  0.00     0.031 A 
ATOM     65  C   UNL     1       5.776  13.997  -1.968  1.00  0.00     0.131 A 
ATOM     66  C   UNL     1       4.402  13.268   0.313  1.00  0.00     0.055 A 
ATOM     67  C   UNL     1       5.680  14.889  -0.889  1.00  0.00     0.041 A 
ATOM     68  F   UNL     1       6.465  14.422  -3.039  1.00  0.00    -0.206 F 
ATOM     69  C   UNL     1       4.985  14.528   0.260  1.00  0.00     0.022 A 
BRANCH  66  70
ATOM     70  S   UNL     1       3.448  12.800   1.783  1.00  0.00     0.124 S 
ATOM     71  O   UNL     1       4.415  13.015   2.853  1.00  0.00    -0.237 OA
ATOM     72  O   UNL     1       2.340  13.750   1.726  1.00  0.00    -0.237 OA
ATOM     73  O   UNL     1       3.083  11.410   1.523  1.00  0.00    -0.744 OA
ENDBRANCH  66  70
ENDBRANCH  49  63
BRANCH  50  74
ATOM     74  C   UNL     1       9.948   6.538   1.720  1.00  0.00     0.023 A 
ATOM     75  C   UNL     1       8.905   5.939   2.447  1.00  0.00     0.031 A 
ATOM     76  C   UNL     1      11.058   7.007   2.447  1.00  0.00     0.131 A 
ATOM     77  C   UNL     1       8.950   5.899   3.848  1.00  0.00     0.055 A 
ATOM     78  C   UNL     1      11.108   6.950   3.845  1.00  0.00     0.041 A 
ATOM     79  F   UNL     1      12.081   7.606   1.817  1.00  0.00    -0.206 F 
ATOM     80  C   UNL     1      10.039   6.413   4.554  1.00  0.00     0.022 A 
BRANCH  77  81
ATOM     81  S   UNL     1       7.537   5.251   4.782  1.00  0.00     0.124 S 
ATOM     82  O   UNL     1       8.189   4.447   5.814  1.00  0.00    -0.237 OA
ATOM     83  O   UNL     1       6.904   6.479   5.248  1.00  0.00    -0.237 OA
ATOM     84  O   UNL     1       6.797   4.487   3.783  1.00  0.00    -0.744 OA
ENDBRANCH  77  81
ENDBRANCH  50  74
BRANCH  62  85
ATOM     85  C   UNL     1      10.828   9.242  -3.936  1.00  0.00     0.023 A 
ATOM     86  C   UNL     1      11.669   9.993  -4.768  1.00  0.00     0.031 A 
ATOM     87  C   UNL     1      10.712   7.863  -4.186  1.00  0.00     0.131 A 
ATOM     88  C   UNL     1      12.310   9.389  -5.851  1.00  0.00     0.055 A 
ATOM     89  C   UNL     1      11.409   7.248  -5.232  1.00  0.00     0.041 A 
ATOM     90  F   UNL     1       9.874   7.091  -3.485  1.00  0.00    -0.206 F 
ATOM     91  C   UNL     1      12.198   8.016  -6.083  1.00  0.00     0.022 A 
BRANCH  88  92
ATOM     92  S   UNL     1      13.191  10.410  -7.055  1.00  0.00     0.124 S 
ATOM     93  O   UNL     1      14.534   9.839  -7.022  1.00  0.00    -0.237 OA
ATOM     94  O   UNL     1      12.432  10.161  -8.279  1.00  0.00    -0.237 OA
ATOM     95  O   UNL     1      13.077  11.765  -6.522  1.00  0.00    -0.744 OA
ENDBRANCH  88  92
ENDBRANCH  62  85
ENDBRANCH  36  37
ENDBRANCH  28  31
ENDBRANCH  26  27
ENDBRANCH  25  26
ENDBRANCH   1  25
TORSDOF 17
