REMARK SMILES C[NH+](C)Cc1ccccc1[C@H]1[NH2+][C@@H](C(=O)NCCCCNC(=O)c2ccc(-c3c4nc(c(-c5cc(S(=O)(=O)[O-])ccc5F)c5ccc([nH]5)c(-c5cc(S(=O)(=O)[O-])ccc5F)c5nc(c(-c6cc(S(=O)(=O)[O-])ccc6F)c6ccc3[nH]6)C=C5)C=C4)cc2)C(C)(C)S1
REMARK SMILES IDX 18 1 17 2 16 3 14 4 15 5 13 7 11 8 12 9 90 10 87 13 88 14
REMARK SMILES IDX 89 15 10 16 5 17 6 18 7 19 9 20 8 21 4 22 2 23 1 24 3 25
REMARK SMILES IDX 19 27 20 28 21 29 22 30 23 32 24 33 25 34 86 35 26 36 85 37
REMARK SMILES IDX 27 38 28 39 29 40 79 41 30 42 84 43 78 44 80 45 31 46 83 47
REMARK SMILES IDX 77 48 76 49 32 51 64 52 44 53 63 54 45 55 48 56 62 57 81 58
REMARK SMILES IDX 46 59 47 60 61 62 82 63 49 64 33 65 34 66 42 67 35 68 41 69
REMARK SMILES IDX 43 70 40 71 36 72 37 73 38 74 39 75 65 76 66 77 74 78 67 79
REMARK SMILES IDX 73 80 75 81 72 82 68 83 69 84 70 85 71 86 50 87 51 88 59 89
REMARK SMILES IDX 52 90 58 91 60 92 57 93 53 94 54 95 55 96 56 97
REMARK H PARENT 16 6 12 11 12 12 2 26 21 31 80 50 48 61
REMARK Flexibility Score: inf
ROOT
ATOM      1  C   UNL     1       2.066   3.279   1.041  1.00  0.00     0.023 C 
ENDROOT
BRANCH   1   2
ATOM      2  C   UNL     1       2.214   1.990   0.237  1.00  0.00     0.116 C 
BRANCH   2   3
ATOM      3  N   UNL     1       3.550   1.759  -0.272  1.00  0.00    -0.351 N 
ATOM      4  C   UNL     1       4.421   0.722  -0.117  1.00  0.00     0.279 C 
ATOM      5  O   UNL     1       5.473   0.796  -0.768  1.00  0.00    -0.268 OA
ATOM      6  H   UNL     1       3.894   2.489  -0.837  1.00  0.00     0.163 HD
BRANCH   4   7
ATOM      7  C   UNL     1       4.231  -0.462   0.864  1.00  0.00     0.289 C 
ATOM      8  C   UNL     1       2.862  -2.154   1.805  1.00  0.00     0.275 C 
ATOM      9  N   UNL     1       2.938  -1.180   0.717  1.00  0.00    -0.320 N 
ATOM     10  S   UNL     1       3.725  -1.490   3.257  1.00  0.00    -0.081 SA
ATOM     11  H   UNL     1       2.162  -0.521   0.783  1.00  0.00     0.348 HD
ATOM     12  H   UNL     1       2.880  -1.643  -0.190  1.00  0.00     0.348 HD
ATOM     13  C   UNL     1       4.554  -0.134   2.340  1.00  0.00     0.077 C 
ATOM     14  C   UNL     1       4.013   1.175   2.913  1.00  0.00     0.030 C 
ATOM     15  C   UNL     1       6.069  -0.183   2.580  1.00  0.00     0.030 C 
BRANCH   8  16
ATOM     16  C   UNL     1       1.469  -2.703   2.139  1.00  0.00     0.029 A 
ATOM     17  C   UNL     1       0.285  -1.955   2.394  1.00  0.00     0.016 A 
ATOM     18  C   UNL     1      -0.888  -2.634   2.798  1.00  0.00     0.010 A 
ATOM     19  C   UNL     1      -0.929  -4.017   2.928  1.00  0.00     0.001 A 
ATOM     20  C   UNL     1       1.387  -4.111   2.282  1.00  0.00     0.011 A 
ATOM     21  C   UNL     1       0.209  -4.758   2.663  1.00  0.00     0.001 A 
BRANCH  17  22
ATOM     22  C   UNL     1       0.164  -0.448   2.296  1.00  0.00     0.299 C 
BRANCH  22  23
ATOM     23  N   UNL     1      -0.509   0.120   1.105  1.00  0.00    -0.336 N 
ATOM     24  C   UNL     1      -0.353  -0.628  -0.144  1.00  0.00     0.332 C 
ATOM     25  C   UNL     1      -1.936   0.364   1.341  1.00  0.00     0.332 C 
ATOM     26  H   UNL     1      -0.011   1.000   0.972  1.00  0.00     0.347 HD
ENDBRANCH  22  23
ENDBRANCH  17  22
ENDBRANCH   8  16
ENDBRANCH   4   7
ENDBRANCH   2   3
ENDBRANCH   1   2
BRANCH   1  27
ATOM     27  C   UNL     1       1.408   4.429   0.294  1.00  0.00     0.023 C 
BRANCH  27  28
ATOM     28  C   UNL     1       0.012   4.151  -0.256  1.00  0.00     0.116 C 
BRANCH  28  29
ATOM     29  N   UNL     1      -0.974   3.781   0.751  1.00  0.00    -0.352 N 
ATOM     30  C   UNL     1      -2.256   4.267   0.920  1.00  0.00     0.251 C 
ATOM     31  H   UNL     1      -0.689   3.094   1.397  1.00  0.00     0.163 HD
ATOM     32  O   UNL     1      -2.958   3.875   1.841  1.00  0.00    -0.269 OA
BRANCH  30  33
ATOM     33  C   UNL     1      -2.747   5.306  -0.015  1.00  0.00     0.039 A 
ATOM     34  C   UNL     1      -3.196   6.525   0.497  1.00  0.00     0.014 A 
ATOM     35  C   UNL     1      -2.644   5.112  -1.395  1.00  0.00     0.014 A 
ATOM     36  C   UNL     1      -3.420   7.594  -0.375  1.00  0.00     0.010 A 
ATOM     37  C   UNL     1      -2.785   6.200  -2.250  1.00  0.00     0.010 A 
ATOM     38  C   UNL     1      -3.148   7.461  -1.747  1.00  0.00    -0.014 A 
BRANCH  38  39
ATOM     39  C   UNL     1      -3.183   8.629  -2.668  1.00  0.00     0.031 A 
ATOM     40  C   UNL     1      -4.128   8.639  -3.838  1.00  0.00     0.074 A 
ATOM     41  C   UNL     1      -2.288   9.628  -2.515  1.00  0.00     0.049 A 
ATOM     42  N   UNL     1      -4.218   9.495  -4.823  1.00  0.00    -0.248 NA
ATOM     43  C   UNL     1      -5.072   7.515  -3.929  1.00  0.00     0.031 C 
ATOM     44  C   UNL     1      -1.276   9.705  -1.457  1.00  0.00     0.029 A 
ATOM     45  N   UNL     1      -2.069  10.761  -3.259  1.00  0.00    -0.354 N 
ATOM     46  C   UNL     1      -5.209   9.000  -5.665  1.00  0.00     0.074 A 
ATOM     47  C   UNL     1      -5.650   7.743  -5.098  1.00  0.00     0.031 C 
ATOM     48  C   UNL     1      -0.559  10.830  -1.612  1.00  0.00     0.029 A 
ATOM     49  C   UNL     1      -1.024  11.533  -2.803  1.00  0.00     0.049 A 
ATOM     50  H   UNL     1      -2.610  11.000  -4.047  1.00  0.00     0.167 HD
ATOM     51  C   UNL     1      -5.717   9.553  -6.794  1.00  0.00     0.034 A 
ATOM     52  C   UNL     1      -0.489  12.668  -3.295  1.00  0.00     0.034 A 
ATOM     53  C   UNL     1      -5.287  10.820  -7.332  1.00  0.00     0.049 A 
ATOM     54  C   UNL     1      -1.079  13.269  -4.545  1.00  0.00     0.074 A 
ATOM     55  C   UNL     1      -5.789  11.508  -8.425  1.00  0.00     0.029 A 
ATOM     56  N   UNL     1      -4.250  11.590  -6.823  1.00  0.00    -0.354 N 
ATOM     57  N   UNL     1      -2.058  12.819  -5.294  1.00  0.00    -0.248 NA
ATOM     58  C   UNL     1      -0.497  14.535  -5.011  1.00  0.00     0.031 C 
ATOM     59  C   UNL     1      -5.019  12.662  -8.609  1.00  0.00     0.029 A 
ATOM     60  C   UNL     1      -4.078  12.730  -7.593  1.00  0.00     0.049 A 
ATOM     61  H   UNL     1      -3.714  11.360  -6.030  1.00  0.00     0.167 HD
ATOM     62  C   UNL     1      -2.225  13.761  -6.305  1.00  0.00     0.074 A 
ATOM     63  C   UNL     1      -1.258  14.811  -6.059  1.00  0.00     0.031 C 
ATOM     64  C   UNL     1      -3.101  13.761  -7.342  1.00  0.00     0.034 A 
BRANCH  51  65
ATOM     65  C   UNL     1      -6.780   8.774  -7.529  1.00  0.00     0.023 A 
ATOM     66  C   UNL     1      -8.030   8.501  -6.946  1.00  0.00     0.031 A 
ATOM     67  C   UNL     1      -6.531   8.272  -8.819  1.00  0.00     0.131 A 
ATOM     68  C   UNL     1      -8.952   7.684  -7.618  1.00  0.00     0.055 A 
ATOM     69  C   UNL     1      -7.485   7.527  -9.515  1.00  0.00     0.041 A 
ATOM     70  F   UNL     1      -5.349   8.485  -9.418  1.00  0.00    -0.206 F 
ATOM     71  C   UNL     1      -8.698   7.216  -8.908  1.00  0.00     0.022 A 
BRANCH  68  72
ATOM     72  S   UNL     1     -10.430   7.133  -6.723  1.00  0.00     0.124 S 
ATOM     73  O   UNL     1      -9.840   6.396  -5.607  1.00  0.00    -0.237 OA
ATOM     74  O   UNL     1     -11.083   8.392  -6.384  1.00  0.00    -0.237 OA
ATOM     75  O   UNL     1     -11.135   6.307  -7.702  1.00  0.00    -0.744 OA
ENDBRANCH  68  72
ENDBRANCH  51  65
BRANCH  52  76
ATOM     76  C   UNL     1       0.680  13.309  -2.627  1.00  0.00     0.023 A 
ATOM     77  C   UNL     1       0.567  14.573  -2.028  1.00  0.00     0.031 A 
ATOM     78  C   UNL     1       1.942  12.687  -2.621  1.00  0.00     0.131 A 
ATOM     79  C   UNL     1       1.704  15.199  -1.492  1.00  0.00     0.055 A 
ATOM     80  C   UNL     1       3.059  13.292  -2.044  1.00  0.00     0.041 A 
ATOM     81  F   UNL     1       2.103  11.474  -3.174  1.00  0.00    -0.206 F 
ATOM     82  C   UNL     1       2.947  14.562  -1.487  1.00  0.00     0.022 A 
BRANCH  79  83
ATOM     83  S   UNL     1       1.552  16.899  -0.878  1.00  0.00     0.124 S 
ATOM     84  O   UNL     1       1.047  17.597  -2.055  1.00  0.00    -0.237 OA
ATOM     85  O   UNL     1       0.611  16.737   0.226  1.00  0.00    -0.237 OA
ATOM     86  O   UNL     1       2.917  17.242  -0.485  1.00  0.00    -0.744 OA
ENDBRANCH  79  83
ENDBRANCH  52  76
BRANCH  64  87
ATOM     87  C   UNL     1      -3.071  14.957  -8.259  1.00  0.00     0.023 A 
ATOM     88  C   UNL     1      -1.982  15.206  -9.112  1.00  0.00     0.031 A 
ATOM     89  C   UNL     1      -4.143  15.867  -8.268  1.00  0.00     0.131 A 
ATOM     90  C   UNL     1      -1.966  16.366  -9.902  1.00  0.00     0.055 A 
ATOM     91  C   UNL     1      -4.146  16.990  -9.096  1.00  0.00     0.041 A 
ATOM     92  F   UNL     1      -5.207  15.677  -7.471  1.00  0.00    -0.206 F 
ATOM     93  C   UNL     1      -3.047  17.251  -9.910  1.00  0.00     0.022 A 
BRANCH  90  94
ATOM     94  S   UNL     1      -0.474  16.745 -10.862  1.00  0.00     0.124 S 
ATOM     95  O   UNL     1       0.543  16.836  -9.819  1.00  0.00    -0.237 OA
ATOM     96  O   UNL     1      -0.374  15.593 -11.752  1.00  0.00    -0.237 OA
ATOM     97  O   UNL     1      -0.802  18.009 -11.520  1.00  0.00    -0.744 OA
ENDBRANCH  90  94
ENDBRANCH  64  87
ENDBRANCH  38  39
ENDBRANCH  30  33
ENDBRANCH  28  29
ENDBRANCH  27  28
ENDBRANCH   1  27
TORSDOF 17
