REMARK SMILES O=C(NCCCCNC(=O)c1ccccc1Nc1nc(Cl)nc(Nc2ccc(N3CCOCC3=O)cc2)n1)c1ccc(-c2c3nc(c(-c4cc(S(=O)(=O)[O-])ccc4F)c4ccc([nH]4)c(-c4cc(S(=O)(=O)[O-])ccc4F)c4nc(c(-c5cc(S(=O)(=O)[O-])ccc5F)c5ccc2[nH]5)C=C4)C=C3)cc1
REMARK SMILES IDX 6 1 5 2 4 3 3 4 1 5 2 6 39 8 40 9 101 10 41 11 100 12 42 13
REMARK SMILES IDX 43 14 44 15 94 16 45 17 99 18 93 19 95 20 46 21 98 22 92 23
REMARK SMILES IDX 91 24 47 26 79 27 59 28 78 29 60 30 63 31 77 32 96 33 61 34
REMARK SMILES IDX 62 35 76 37 97 38 64 39 48 40 49 41 57 42 50 43 56 44 58 45
REMARK SMILES IDX 55 46 51 47 52 48 53 49 54 50 80 51 81 52 89 53 82 54 88 55
REMARK SMILES IDX 90 56 87 57 83 58 84 59 85 60 86 61 65 62 66 63 74 64 67 65
REMARK SMILES IDX 73 66 75 67 72 68 68 69 69 70 70 71 71 72 7 73 8 74 9 75
REMARK SMILES IDX 10 77 11 78 12 79 16 80 13 81 15 82 14 83 17 84 18 86 19 87
REMARK SMILES IDX 38 88 20 89 23 90 21 91 22 92 24 93 25 95 26 96 37 97 27 98
REMARK SMILES IDX 36 99 28 100 29 101 30 102 34 103 31 104 33 105 35 106
REMARK SMILES IDX 32 107
REMARK H PARENT 3 7 95 25 63 36 8 76 17 85 24 94
REMARK Flexibility Score: inf
ROOT
ATOM      1  C   UNL     1       4.496   1.298  -3.758  1.00  0.00     0.023 C 
ENDROOT
BRANCH   1   2
ATOM      2  C   UNL     1       4.983   0.259  -2.753  1.00  0.00     0.023 C 
BRANCH   2   3
ATOM      3  C   UNL     1       4.665   0.553  -1.294  1.00  0.00     0.116 C 
BRANCH   3   4
ATOM      4  N   UNL     1       3.238   0.583  -1.002  1.00  0.00    -0.352 N 
ATOM      5  O   UNL     1       1.310  -0.041  -0.006  1.00  0.00    -0.269 OA
ATOM      6  C   UNL     1       2.535  -0.109  -0.041  1.00  0.00     0.251 C 
ATOM      7  H   UNL     1       2.702   1.181  -1.571  1.00  0.00     0.163 HD
BRANCH   6   8
ATOM      8  C   UNL     1       3.262  -0.962   0.927  1.00  0.00     0.039 A 
ATOM      9  C   UNL     1       4.415  -0.490   1.555  1.00  0.00     0.014 A 
ATOM     10  C   UNL     1       2.806  -2.258   1.185  1.00  0.00     0.014 A 
ATOM     11  C   UNL     1       5.205  -1.367   2.287  1.00  0.00     0.010 A 
ATOM     12  C   UNL     1       3.552  -3.109   2.010  1.00  0.00     0.010 A 
ATOM     13  C   UNL     1       4.781  -2.683   2.536  1.00  0.00    -0.014 A 
BRANCH  13  14
ATOM     14  C   UNL     1       5.633  -3.555   3.389  1.00  0.00     0.031 A 
ATOM     15  C   UNL     1       6.283  -4.799   2.844  1.00  0.00     0.074 A 
ATOM     16  C   UNL     1       5.881  -3.160   4.654  1.00  0.00     0.049 A 
ATOM     17  N   UNL     1       7.117  -5.618   3.435  1.00  0.00    -0.248 NA
ATOM     18  C   UNL     1       5.948  -5.181   1.464  1.00  0.00     0.031 C 
ATOM     19  C   UNL     1       5.288  -1.981   5.294  1.00  0.00     0.029 A 
ATOM     20  N   UNL     1       6.715  -3.670   5.614  1.00  0.00    -0.354 N 
ATOM     21  C   UNL     1       7.402  -6.615   2.508  1.00  0.00     0.074 A 
ATOM     22  C   UNL     1       6.620  -6.316   1.325  1.00  0.00     0.031 C 
ATOM     23  C   UNL     1       5.829  -1.820   6.509  1.00  0.00     0.029 A 
ATOM     24  C   UNL     1       6.752  -2.919   6.766  1.00  0.00     0.049 A 
ATOM     25  H   UNL     1       7.239  -4.495   5.491  1.00  0.00     0.167 HD
ATOM     26  C   UNL     1       8.243  -7.674   2.630  1.00  0.00     0.034 A 
ATOM     27  C   UNL     1       7.440  -3.096   7.910  1.00  0.00     0.034 A 
ATOM     28  C   UNL     1       9.015  -7.957   3.819  1.00  0.00     0.049 A 
ATOM     29  C   UNL     1       8.366  -4.275   8.015  1.00  0.00     0.074 A 
ATOM     30  C   UNL     1       9.895  -9.002   4.050  1.00  0.00     0.029 A 
ATOM     31  N   UNL     1       9.002  -7.192   4.979  1.00  0.00    -0.354 N 
ATOM     32  N   UNL     1       8.619  -5.207   7.125  1.00  0.00    -0.248 NA
ATOM     33  C   UNL     1       9.103  -4.424   9.275  1.00  0.00     0.031 C 
ATOM     34  C   UNL     1      10.370  -8.898   5.363  1.00  0.00     0.029 A 
ATOM     35  C   UNL     1       9.841  -7.752   5.932  1.00  0.00     0.049 A 
ATOM     36  H   UNL     1       8.474  -6.371   5.106  1.00  0.00     0.167 HD
ATOM     37  C   UNL     1       9.546  -6.055   7.721  1.00  0.00     0.074 A 
ATOM     38  C   UNL     1       9.839  -5.496   9.026  1.00  0.00     0.031 C 
ATOM     39  C   UNL     1      10.096  -7.199   7.241  1.00  0.00     0.034 A 
BRANCH  26  40
ATOM     40  C   UNL     1       8.341  -8.626   1.461  1.00  0.00     0.023 A 
ATOM     41  C   UNL     1       8.888  -8.231   0.228  1.00  0.00     0.031 A 
ATOM     42  C   UNL     1       7.880  -9.950   1.581  1.00  0.00     0.131 A 
ATOM     43  C   UNL     1       8.911  -9.130  -0.851  1.00  0.00     0.055 A 
ATOM     44  C   UNL     1       7.968 -10.861   0.526  1.00  0.00     0.041 A 
ATOM     45  F   UNL     1       7.330 -10.380   2.728  1.00  0.00    -0.206 F 
ATOM     46  C   UNL     1       8.476 -10.450  -0.703  1.00  0.00     0.022 A 
BRANCH  43  47
ATOM     47  S   UNL     1       9.416  -8.521  -2.483  1.00  0.00     0.124 S 
ATOM     48  O   UNL     1       8.421  -7.479  -2.730  1.00  0.00    -0.237 OA
ATOM     49  O   UNL     1      10.777  -8.058  -2.241  1.00  0.00    -0.237 OA
ATOM     50  O   UNL     1       9.300  -9.698  -3.341  1.00  0.00    -0.744 OA
ENDBRANCH  43  47
ENDBRANCH  26  40
BRANCH  27  51
ATOM     51  C   UNL     1       7.250  -2.158   9.052  1.00  0.00     0.023 A 
ATOM     52  C   UNL     1       8.304  -1.366   9.531  1.00  0.00     0.031 A 
ATOM     53  C   UNL     1       6.004  -2.061   9.699  1.00  0.00     0.131 A 
ATOM     54  C   UNL     1       8.105  -0.543  10.650  1.00  0.00     0.055 A 
ATOM     55  C   UNL     1       5.796  -1.199  10.775  1.00  0.00     0.041 A 
ATOM     56  F   UNL     1       4.961  -2.794   9.277  1.00  0.00    -0.206 F 
ATOM     57  C   UNL     1       6.855  -0.443  11.266  1.00  0.00     0.022 A 
BRANCH  54  58
ATOM     58  S   UNL     1       9.531   0.333  11.350  1.00  0.00     0.124 S 
ATOM     59  O   UNL     1      10.469  -0.760  11.582  1.00  0.00    -0.237 OA
ATOM     60  O   UNL     1       9.877   1.255  10.273  1.00  0.00    -0.237 OA
ATOM     61  O   UNL     1       8.989   0.957  12.555  1.00  0.00    -0.744 OA
ENDBRANCH  54  58
ENDBRANCH  27  51
BRANCH  39  62
ATOM     62  C   UNL     1      11.075  -7.901   8.149  1.00  0.00     0.023 A 
ATOM     63  C   UNL     1      10.659  -8.482   9.361  1.00  0.00     0.031 A 
ATOM     64  C   UNL     1      12.442  -7.940   7.829  1.00  0.00     0.131 A 
ATOM     65  C   UNL     1      11.611  -9.010  10.244  1.00  0.00     0.055 A 
ATOM     66  C   UNL     1      13.378  -8.522   8.685  1.00  0.00     0.041 A 
ATOM     67  F   UNL     1      12.893  -7.398   6.686  1.00  0.00    -0.206 F 
ATOM     68  C   UNL     1      12.966  -9.046   9.909  1.00  0.00     0.022 A 
BRANCH  65  69
ATOM     69  S   UNL     1      11.066  -9.545  11.890  1.00  0.00     0.124 S 
ATOM     70  O   UNL     1      10.442  -8.333  12.412  1.00  0.00    -0.237 OA
ATOM     71  O   UNL     1      10.159 -10.644  11.575  1.00  0.00    -0.237 OA
ATOM     72  O   UNL     1      12.309  -9.937  12.552  1.00  0.00    -0.744 OA
ENDBRANCH  65  69
ENDBRANCH  39  62
ENDBRANCH  13  14
ENDBRANCH   6   8
ENDBRANCH   3   4
ENDBRANCH   2   3
ENDBRANCH   1   2
BRANCH   1  73
ATOM     73  C   UNL     1       4.864   2.745  -3.444  1.00  0.00     0.116 C 
BRANCH  73  74
ATOM     74  N   UNL     1       6.297   2.960  -3.295  1.00  0.00    -0.352 N 
ATOM     75  C   UNL     1       7.094   3.888  -3.917  1.00  0.00     0.253 C 
ATOM     76  H   UNL     1       6.755   2.359  -2.664  1.00  0.00     0.163 HD
ATOM     77  O   UNL     1       8.293   3.962  -3.671  1.00  0.00    -0.269 OA
BRANCH  75  78
ATOM     78  C   UNL     1       6.508   4.791  -4.925  1.00  0.00     0.063 A 
ATOM     79  C   UNL     1       6.945   4.623  -6.247  1.00  0.00     0.016 A 
ATOM     80  C   UNL     1       5.539   5.754  -4.589  1.00  0.00     0.054 A 
ATOM     81  C   UNL     1       6.373   5.377  -7.267  1.00  0.00     0.001 A 
ATOM     82  C   UNL     1       4.942   6.462  -5.644  1.00  0.00     0.027 A 
ATOM     83  C   UNL     1       5.359   6.282  -6.967  1.00  0.00     0.002 A 
BRANCH  80  84
ATOM     84  N   UNL     1       5.160   5.982  -3.256  1.00  0.00    -0.323 N 
ATOM     85  H   UNL     1       5.851   5.775  -2.586  1.00  0.00     0.170 HD
BRANCH  84  86
ATOM     86  C   UNL     1       3.961   6.455  -2.738  1.00  0.00     0.233 A 
ATOM     87  N   UNL     1       2.822   6.141  -3.333  1.00  0.00    -0.182 NA
ATOM     88  N   UNL     1       4.045   7.212  -1.649  1.00  0.00    -0.176 NA
ATOM     89  C   UNL     1       1.754   6.626  -2.725  1.00  0.00     0.228 A 
ATOM     90  C   UNL     1       2.907   7.714  -1.178  1.00  0.00     0.233 A 
ATOM     91  Cl  UNL     1       0.248   6.243  -3.436  1.00  0.00    -0.041 Cl
ATOM     92  N   UNL     1       1.715   7.421  -1.672  1.00  0.00    -0.182 NA
BRANCH  90  93
ATOM     93  N   UNL     1       3.041   8.699  -0.202  1.00  0.00    -0.324 N 
ATOM     94  H   UNL     1       3.959   8.862   0.114  1.00  0.00     0.170 HD
BRANCH  93  95
ATOM     95  C   UNL     1       2.052   9.487   0.389  1.00  0.00     0.041 A 
ATOM     96  C   UNL     1       2.150  10.881   0.330  1.00  0.00     0.028 A 
ATOM     97  C   UNL     1       0.906   8.926   0.955  1.00  0.00     0.028 A 
ATOM     98  C   UNL     1       1.116  11.695   0.807  1.00  0.00     0.028 A 
ATOM     99  C   UNL     1      -0.102   9.737   1.487  1.00  0.00     0.028 A 
ATOM    100  C   UNL     1      -0.019  11.130   1.399  1.00  0.00     0.044 A 
BRANCH 100 101
ATOM    101  N   UNL     1      -1.091  11.955   1.851  1.00  0.00    -0.308 N 
ATOM    102  C   UNL     1      -1.633  12.924   0.891  1.00  0.00     0.154 C 
ATOM    103  C   UNL     1      -1.803  11.640   3.015  1.00  0.00     0.253 C 
ATOM    104  C   UNL     1      -2.554  13.955   1.529  1.00  0.00     0.183 C 
ATOM    105  C   UNL     1      -3.009  12.546   3.322  1.00  0.00     0.260 C 
ATOM    106  O   UNL     1      -1.470  10.779   3.832  1.00  0.00    -0.272 OA
ATOM    107  O   UNL     1      -3.581  13.287   2.256  1.00  0.00    -0.370 OA
ENDBRANCH 100 101
ENDBRANCH  93  95
ENDBRANCH  90  93
ENDBRANCH  84  86
ENDBRANCH  80  84
ENDBRANCH  75  78
ENDBRANCH  73  74
ENDBRANCH   1  73
TORSDOF 19
