REMARK SMILES CC1=NN(c2ccccc2)C(=O)/C1=C\c1ccc(-c2cc(C(=O)NCCCCNC(=O)c3ccc(-c4c5nc(c(-c6cc(S(=O)(=O)[O-])ccc6F)c6ccc([nH]6)c(-c6cc(S(=O)(=O)[O-])ccc6F)c6nc(c(-c7cc(S(=O)(=O)[O-])ccc7F)c7ccc4[nH]7)C=C6)C=C5)cc3)ccc2Cl)o1
REMARK SMILES IDX 26 1 25 2 24 3 22 4 23 5 21 7 19 8 20 9 97 10 96 11 98 12
REMARK SMILES IDX 95 13 18 14 15 15 16 16 99 17 17 18 14 19 1 20 2 21 3 22
REMARK SMILES IDX 13 23 4 24 11 25 12 26 5 27 6 28 10 29 7 30 9 31 8 32 27 33
REMARK SMILES IDX 28 34 29 35 30 36 31 38 32 39 33 40 94 41 34 42 93 43 35 44
REMARK SMILES IDX 36 45 37 46 87 47 38 48 92 49 86 50 88 51 39 52 91 53 85 54
REMARK SMILES IDX 84 55 40 57 72 58 52 59 71 60 53 61 56 62 70 63 89 64 54 65
REMARK SMILES IDX 55 66 69 68 90 69 57 70 41 71 42 72 50 73 43 74 49 75 51 76
REMARK SMILES IDX 48 77 44 78 45 79 46 80 47 81 73 82 74 83 82 84 75 85 81 86
REMARK SMILES IDX 83 87 80 88 76 89 77 90 78 91 79 92 58 93 59 94 67 95 60 96
REMARK SMILES IDX 66 97 68 98 65 99 61 100 62 101 63 102 64 103
REMARK H PARENT 24 6 29 37 88 56 56 67
REMARK Flexibility Score: inf
ROOT
ATOM      1  C   UNL     1       5.320  -9.061  -5.495  1.00  0.00     0.023 C 
ENDROOT
BRANCH   1   2
ATOM      2  C   UNL     1       6.104  -7.931  -4.842  1.00  0.00     0.116 C 
BRANCH   2   3
ATOM      3  N   UNL     1       5.742  -6.596  -5.296  1.00  0.00    -0.352 N 
ATOM      4  C   UNL     1       5.397  -5.464  -4.586  1.00  0.00     0.251 C 
ATOM      5  O   UNL     1       5.100  -4.438  -5.192  1.00  0.00    -0.269 OA
ATOM      6  H   UNL     1       5.743  -6.481  -6.274  1.00  0.00     0.163 HD
BRANCH   4   7
ATOM      7  C   UNL     1       5.329  -5.475  -3.099  1.00  0.00     0.040 A 
ATOM      8  C   UNL     1       4.177  -4.813  -1.052  1.00  0.00     0.037 A 
ATOM      9  C   UNL     1       4.330  -4.730  -2.448  1.00  0.00     0.027 A 
ATOM     10  C   UNL     1       4.983  -5.729  -0.344  1.00  0.00     0.052 A 
ATOM     11  C   UNL     1       6.038  -6.382  -0.977  1.00  0.00     0.022 A 
ATOM     12  Cl  UNL     1       4.727  -6.120   1.325  1.00  0.00    -0.084 Cl
ATOM     13  C   UNL     1       6.254  -6.190  -2.336  1.00  0.00     0.015 A 
BRANCH   8  14
ATOM     14  C   UNL     1       3.325  -3.873  -0.332  1.00  0.00     0.136 A 
ATOM     15  C   UNL     1       1.508  -2.651   0.017  1.00  0.00     0.128 A 
ATOM     16  C   UNL     1       2.391  -2.417   1.067  1.00  0.00     0.051 A 
ATOM     17  O   UNL     1       2.080  -3.589  -0.820  1.00  0.00    -0.457 OA
ATOM     18  C   UNL     1       3.562  -3.141   0.811  1.00  0.00     0.051 A 
BRANCH  15  19
ATOM     19  C   UNL     1       0.231  -2.047  -0.163  1.00  0.00     0.063 C 
ATOM     20  C   UNL     1      -2.478  -0.493   0.065  1.00  0.00     0.069 C 
ATOM     21  C   UNL     1      -1.105   0.088   0.004  1.00  0.00     0.071 C 
ATOM     22  N   UNL     1      -0.846   1.362   0.163  1.00  0.00    -0.169 NA
ATOM     23  C   UNL     1       0.117  -0.712  -0.195  1.00  0.00     0.068 C 
ATOM     24  N   UNL     1       0.524   1.494  -0.041  1.00  0.00    -0.196 N 
ATOM     25  C   UNL     1       1.200   0.297  -0.303  1.00  0.00     0.280 C 
ATOM     26  O   UNL     1       2.372   0.095  -0.544  1.00  0.00    -0.267 OA
BRANCH  24  27
ATOM     27  C   UNL     1       1.111   2.773  -0.064  1.00  0.00     0.069 A 
ATOM     28  C   UNL     1       0.672   3.779   0.803  1.00  0.00     0.028 A 
ATOM     29  C   UNL     1       2.169   3.047  -0.943  1.00  0.00     0.028 A 
ATOM     30  C   UNL     1       1.314   5.022   0.818  1.00  0.00     0.002 A 
ATOM     31  C   UNL     1       2.773   4.304  -0.964  1.00  0.00     0.002 A 
ATOM     32  C   UNL     1       2.356   5.286  -0.071  1.00  0.00     0.000 A 
ENDBRANCH  24  27
ENDBRANCH  15  19
ENDBRANCH   8  14
ENDBRANCH   4   7
ENDBRANCH   2   3
ENDBRANCH   1   2
BRANCH   1  33
ATOM     33  C   UNL     1       5.558  -9.269  -6.983  1.00  0.00     0.023 C 
BRANCH  33  34
ATOM     34  C   UNL     1       7.015  -9.386  -7.412  1.00  0.00     0.116 C 
BRANCH  34  35
ATOM     35  N   UNL     1       7.736 -10.462  -6.745  1.00  0.00    -0.352 N 
ATOM     36  C   UNL     1       8.448 -11.509  -7.287  1.00  0.00     0.251 C 
ATOM     37  H   UNL     1       7.711 -10.437  -5.761  1.00  0.00     0.163 HD
ATOM     38  O   UNL     1       8.894 -12.385  -6.553  1.00  0.00    -0.269 OA
BRANCH  36  39
ATOM     39  C   UNL     1       8.632 -11.593  -8.753  1.00  0.00     0.039 A 
ATOM     40  C   UNL     1       8.395 -12.809  -9.397  1.00  0.00     0.014 A 
ATOM     41  C   UNL     1       8.994 -10.467  -9.495  1.00  0.00     0.014 A 
ATOM     42  C   UNL     1       8.430 -12.870 -10.793  1.00  0.00     0.010 A 
ATOM     43  C   UNL     1       8.933 -10.507 -10.885  1.00  0.00     0.010 A 
ATOM     44  C   UNL     1       8.647 -11.708 -11.551  1.00  0.00    -0.014 A 
BRANCH  44  45
ATOM     45  C   UNL     1       8.576 -11.729 -13.038  1.00  0.00     0.031 A 
ATOM     46  C   UNL     1       9.784 -11.356 -13.856  1.00  0.00     0.074 A 
ATOM     47  C   UNL     1       7.410 -12.022 -13.649  1.00  0.00     0.049 A 
ATOM     48  N   UNL     1       9.902 -11.245 -15.154  1.00  0.00    -0.248 NA
ATOM     49  C   UNL     1      11.012 -11.038 -13.113  1.00  0.00     0.031 C 
ATOM     50  C   UNL     1       6.159 -12.358 -12.966  1.00  0.00     0.029 A 
ATOM     51  N   UNL     1       7.082 -12.080 -14.982  1.00  0.00    -0.354 N 
ATOM     52  C   UNL     1      11.211 -10.834 -15.382  1.00  0.00     0.074 A 
ATOM     53  C   UNL     1      11.823 -10.648 -14.084  1.00  0.00     0.031 C 
ATOM     54  C   UNL     1       5.213 -12.619 -13.882  1.00  0.00     0.029 A 
ATOM     55  C   UNL     1       5.768 -12.416 -15.216  1.00  0.00     0.049 A 
ATOM     56  H   UNL     1       7.727 -11.898 -15.703  1.00  0.00     0.167 HD
ATOM     57  C   UNL     1      11.852 -10.654 -16.564  1.00  0.00     0.034 A 
ATOM     58  C   UNL     1       5.083 -12.534 -16.372  1.00  0.00     0.034 A 
ATOM     59  C   UNL     1      11.229 -10.850 -17.850  1.00  0.00     0.049 A 
ATOM     60  C   UNL     1       5.806 -12.287 -17.674  1.00  0.00     0.074 A 
ATOM     61  C   UNL     1      11.798 -10.746 -19.107  1.00  0.00     0.029 A 
ATOM     62  N   UNL     1       9.893 -11.179 -18.048  1.00  0.00    -0.354 N 
ATOM     63  N   UNL     1       7.060 -11.951 -17.872  1.00  0.00    -0.248 NA
ATOM     64  C   UNL     1       5.024 -12.446 -18.906  1.00  0.00     0.031 C 
ATOM     65  C   UNL     1      10.792 -10.929 -20.062  1.00  0.00     0.029 A 
ATOM     66  C   UNL     1       9.613 -11.243 -19.405  1.00  0.00     0.049 A 
ATOM     67  H   UNL     1       9.240 -11.343 -17.329  1.00  0.00     0.167 HD
ATOM     68  C   UNL     1       7.223 -11.895 -19.254  1.00  0.00     0.074 A 
ATOM     69  C   UNL     1       5.945 -12.246 -19.837  1.00  0.00     0.031 C 
ATOM     70  C   UNL     1       8.331 -11.585 -19.976  1.00  0.00     0.034 A 
BRANCH  57  71
ATOM     71  C   UNL     1      13.292 -10.199 -16.514  1.00  0.00     0.023 A 
ATOM     72  C   UNL     1      14.293 -10.977 -15.905  1.00  0.00     0.031 A 
ATOM     73  C   UNL     1      13.668  -8.960 -17.062  1.00  0.00     0.131 A 
ATOM     74  C   UNL     1      15.598 -10.475 -15.787  1.00  0.00     0.055 A 
ATOM     75  C   UNL     1      14.988  -8.506 -17.022  1.00  0.00     0.041 A 
ATOM     76  F   UNL     1      12.755  -8.160 -17.636  1.00  0.00    -0.206 F 
ATOM     77  C   UNL     1      15.959  -9.258 -16.368  1.00  0.00     0.022 A 
BRANCH  74  78
ATOM     78  S   UNL     1      16.774 -11.364 -14.731  1.00  0.00     0.124 S 
ATOM     79  O   UNL     1      16.077 -11.362 -13.447  1.00  0.00    -0.237 OA
ATOM     80  O   UNL     1      16.883 -12.656 -15.398  1.00  0.00    -0.237 OA
ATOM     81  O   UNL     1      17.975 -10.532 -14.780  1.00  0.00    -0.744 OA
ENDBRANCH  74  78
ENDBRANCH  57  71
BRANCH  58  82
ATOM     82  C   UNL     1       3.632 -12.886 -16.363  1.00  0.00     0.023 A 
ATOM     83  C   UNL     1       3.169 -14.069 -16.962  1.00  0.00     0.031 A 
ATOM     84  C   UNL     1       2.678 -12.019 -15.800  1.00  0.00     0.131 A 
ATOM     85  C   UNL     1       1.791 -14.327 -17.032  1.00  0.00     0.055 A 
ATOM     86  C   UNL     1       1.313 -12.311 -15.816  1.00  0.00     0.041 A 
ATOM     87  F   UNL     1       3.063 -10.874 -15.214  1.00  0.00    -0.206 F 
ATOM     88  C   UNL     1       0.861 -13.464 -16.449  1.00  0.00     0.022 A 
BRANCH  85  89
ATOM     89  S   UNL     1       1.223 -15.760 -17.989  1.00  0.00     0.124 S 
ATOM     90  O   UNL     1       1.786 -15.479 -19.305  1.00  0.00    -0.237 OA
ATOM     91  O   UNL     1       1.823 -16.870 -17.258  1.00  0.00    -0.237 OA
ATOM     92  O   UNL     1      -0.233 -15.672 -17.900  1.00  0.00    -0.744 OA
ENDBRANCH  85  89
ENDBRANCH  58  82
BRANCH  70  93
ATOM     93  C   UNL     1       8.220 -11.666 -21.480  1.00  0.00     0.023 A 
ATOM     94  C   UNL     1       7.381 -10.807 -22.212  1.00  0.00     0.031 A 
ATOM     95  C   UNL     1       8.963 -12.626 -22.192  1.00  0.00     0.131 A 
ATOM     96  C   UNL     1       7.260 -10.964 -23.602  1.00  0.00     0.055 A 
ATOM     97  C   UNL     1       8.892 -12.730 -23.581  1.00  0.00     0.041 A 
ATOM     98  F   UNL     1       9.776 -13.477 -21.546  1.00  0.00    -0.206 F 
ATOM     99  C   UNL     1       8.026 -11.906 -24.293  1.00  0.00     0.022 A 
BRANCH  96 100
ATOM    100  S   UNL     1       6.008  -9.992 -24.483  1.00  0.00     0.124 S 
ATOM    101  O   UNL     1       4.782 -10.381 -23.794  1.00  0.00    -0.237 OA
ATOM    102  O   UNL     1       6.459  -8.623 -24.255  1.00  0.00    -0.237 OA
ATOM    103  O   UNL     1       6.119 -10.459 -25.863  1.00  0.00    -0.744 OA
ENDBRANCH  96 100
ENDBRANCH  70  93
ENDBRANCH  44  45
ENDBRANCH  36  39
ENDBRANCH  34  35
ENDBRANCH  33  34
ENDBRANCH   1  33
TORSDOF 17
