REMARK SMILES O=C(NCCCCNC(=O)[C@H](CO)NC(=O)[C@H](Cc1c[nH]c2ccccc12)NC(=O)[C@H](Cc1ccc(O)cc1)NC(=O)c1ccc(F)cc1)c1ccc(-c2c3nc(c(-c4cc(S(=O)(=O)[O-])ccc4F)c4ccc([nH]4)c(-c4cc(S(=O)(=O)[O-])ccc4F)c4nc(c(-c5cc(S(=O)(=O)[O-])ccc5F)c5ccc2[nH]5)C=C4)C=C3)cc1
REMARK SMILES IDX 8 1 9 2 10 3 7 5 6 6 5 7 4 8 3 9 1 10 2 11 50 13 51 14
REMARK SMILES IDX 112 15 52 16 111 17 53 18 54 19 55 20 105 21 56 22 110 23
REMARK SMILES IDX 104 24 106 25 57 26 109 27 103 28 102 29 58 31 90 32 70 33
REMARK SMILES IDX 89 34 71 35 74 36 88 37 107 38 72 39 73 40 87 42 108 43
REMARK SMILES IDX 75 44 59 45 60 46 68 47 61 48 67 49 69 50 66 51 62 52 63 53
REMARK SMILES IDX 64 54 65 55 91 56 92 57 100 58 93 59 99 60 101 61 98 62
REMARK SMILES IDX 94 63 95 64 96 65 97 66 76 67 77 68 85 69 78 70 84 71 86 72
REMARK SMILES IDX 83 73 79 74 80 75 81 76 82 77 11 78 14 79 15 80 16 82 17 83
REMARK SMILES IDX 28 84 29 85 30 87 31 88 40 89 41 90 42 92 43 93 44 94 49 95
REMARK SMILES IDX 45 96 48 97 46 98 47 99 32 100 33 101 34 102 39 103 35 104
REMARK SMILES IDX 38 105 36 106 37 107 18 109 19 110 20 111 27 112 21 113
REMARK SMILES IDX 22 114 26 115 23 117 25 118 24 119 12 120 13 121
REMARK H PARENT 8 4 3 12 106 30 74 41 14 81 28 86 40 91 37 108 21 116 13 122
REMARK Flexibility Score: inf
ROOT
ATOM      1  N   UNL     1       4.433  11.052   3.595  1.00  0.00    -0.354 N 
ATOM      2  C   UNL     1       5.289  10.107   3.130  1.00  0.00     0.244 C 
ATOM      3  O   UNL     1       4.948   9.634   2.030  1.00  0.00    -0.273 OA
ATOM      4  H   UNL     1       3.892  11.392   2.846  1.00  0.00     0.163 HD
ENDROOT
BRANCH   1   5
ATOM      5  C   UNL     1       4.033  11.744   4.828  1.00  0.00     0.116 C 
BRANCH   5   6
ATOM      6  C   UNL     1       5.085  12.587   5.548  1.00  0.00     0.023 C 
BRANCH   6   7
ATOM      7  C   UNL     1       4.478  13.856   6.169  1.00  0.00     0.023 C 
BRANCH   7   8
ATOM      8  C   UNL     1       3.430  13.630   7.257  1.00  0.00     0.116 C 
BRANCH   8   9
ATOM      9  N   UNL     1       4.004  13.351   8.566  1.00  0.00    -0.352 N 
ATOM     10  O   UNL     1       4.246  13.668  10.812  1.00  0.00    -0.269 OA
ATOM     11  C   UNL     1       3.678  13.953   9.762  1.00  0.00     0.251 C 
ATOM     12  H   UNL     1       4.701  12.656   8.600  1.00  0.00     0.163 HD
BRANCH  11  13
ATOM     13  C   UNL     1       2.603  14.951   9.752  1.00  0.00     0.039 A 
ATOM     14  C   UNL     1       1.339  14.532   9.338  1.00  0.00     0.014 A 
ATOM     15  C   UNL     1       2.871  16.290  10.054  1.00  0.00     0.014 A 
ATOM     16  C   UNL     1       0.353  15.478   9.130  1.00  0.00     0.010 A 
ATOM     17  C   UNL     1       1.847  17.229   9.929  1.00  0.00     0.010 A 
ATOM     18  C   UNL     1       0.586  16.825   9.468  1.00  0.00    -0.014 A 
BRANCH  18  19
ATOM     19  C   UNL     1      -0.584  17.727   9.507  1.00  0.00     0.031 A 
ATOM     20  C   UNL     1      -0.770  18.828   8.514  1.00  0.00     0.074 A 
ATOM     21  C   UNL     1      -1.521  17.445  10.432  1.00  0.00     0.049 A 
ATOM     22  N   UNL     1      -1.796  19.624   8.364  1.00  0.00    -0.248 NA
ATOM     23  C   UNL     1       0.331  19.076   7.574  1.00  0.00     0.031 C 
ATOM     24  C   UNL     1      -1.407  16.374  11.430  1.00  0.00     0.029 A 
ATOM     25  N   UNL     1      -2.763  17.971  10.653  1.00  0.00    -0.354 N 
ATOM     26  C   UNL     1      -1.470  20.472   7.314  1.00  0.00     0.074 A 
ATOM     27  C   UNL     1      -0.134  20.110   6.884  1.00  0.00     0.031 C 
ATOM     28  C   UNL     1      -2.568  16.255  12.081  1.00  0.00     0.029 A 
ATOM     29  C   UNL     1      -3.473  17.296  11.617  1.00  0.00     0.049 A 
ATOM     30  H   UNL     1      -3.113  18.754  10.170  1.00  0.00     0.167 HD
ATOM     31  C   UNL     1      -2.228  21.456   6.769  1.00  0.00     0.034 A 
ATOM     32  C   UNL     1      -4.717  17.497  12.085  1.00  0.00     0.034 A 
ATOM     33  C   UNL     1      -3.549  21.797   7.247  1.00  0.00     0.049 A 
ATOM     34  C   UNL     1      -5.511  18.626  11.505  1.00  0.00     0.074 A 
ATOM     35  C   UNL     1      -4.405  22.784   6.791  1.00  0.00     0.029 A 
ATOM     36  N   UNL     1      -4.203  21.163   8.300  1.00  0.00    -0.354 N 
ATOM     37  N   UNL     1      -5.176  19.448  10.538  1.00  0.00    -0.248 NA
ATOM     38  C   UNL     1      -6.835  18.867  12.082  1.00  0.00     0.031 C 
ATOM     39  C   UNL     1      -5.543  22.789   7.606  1.00  0.00     0.029 A 
ATOM     40  C   UNL     1      -5.437  21.755   8.524  1.00  0.00     0.049 A 
ATOM     41  H   UNL     1      -3.841  20.404   8.812  1.00  0.00     0.167 HD
ATOM     42  C   UNL     1      -6.254  20.307  10.383  1.00  0.00     0.074 A 
ATOM     43  C   UNL     1      -7.253  19.893  11.352  1.00  0.00     0.031 C 
ATOM     44  C   UNL     1      -6.404  21.340   9.515  1.00  0.00     0.034 A 
BRANCH  31  45
ATOM     45  C   UNL     1      -1.625  22.256   5.640  1.00  0.00     0.023 A 
ATOM     46  C   UNL     1      -1.322  21.671   4.398  1.00  0.00     0.031 A 
ATOM     47  C   UNL     1      -1.334  23.622   5.812  1.00  0.00     0.131 A 
ATOM     48  C   UNL     1      -0.693  22.432   3.400  1.00  0.00     0.055 A 
ATOM     49  C   UNL     1      -0.773  24.391   4.790  1.00  0.00     0.041 A 
ATOM     50  F   UNL     1      -1.581  24.231   6.982  1.00  0.00    -0.206 F 
ATOM     51  C   UNL     1      -0.438  23.793   3.578  1.00  0.00     0.022 A 
BRANCH  48  52
ATOM     52  S   UNL     1      -0.106  21.587   1.905  1.00  0.00     0.124 S 
ATOM     53  O   UNL     1       0.856  20.637   2.460  1.00  0.00    -0.237 OA
ATOM     54  O   UNL     1      -1.331  21.011   1.364  1.00  0.00    -0.237 OA
ATOM     55  O   UNL     1       0.482  22.664   1.110  1.00  0.00    -0.744 OA
ENDBRANCH  48  52
ENDBRANCH  31  45
BRANCH  32  56
ATOM     56  C   UNL     1      -5.239  16.610  13.157  1.00  0.00     0.023 A 
ATOM     57  C   UNL     1      -6.237  15.663  12.888  1.00  0.00     0.031 A 
ATOM     58  C   UNL     1      -4.666  16.629  14.443  1.00  0.00     0.131 A 
ATOM     59  C   UNL     1      -6.628  14.764  13.893  1.00  0.00     0.055 A 
ATOM     60  C   UNL     1      -5.032  15.710  15.425  1.00  0.00     0.041 A 
ATOM     61  F   UNL     1      -3.690  17.503  14.736  1.00  0.00    -0.206 F 
ATOM     62  C   UNL     1      -6.021  14.770  15.152  1.00  0.00     0.022 A 
BRANCH  59  63
ATOM     63  S   UNL     1      -7.939  13.565  13.528  1.00  0.00     0.124 S 
ATOM     64  O   UNL     1      -9.091  14.438  13.328  1.00  0.00    -0.237 OA
ATOM     65  O   UNL     1      -7.423  12.899  12.337  1.00  0.00    -0.237 OA
ATOM     66  O   UNL     1      -7.986  12.736  14.731  1.00  0.00    -0.744 OA
ENDBRANCH  59  63
ENDBRANCH  32  56
BRANCH  44  67
ATOM     67  C   UNL     1      -7.714  22.077   9.564  1.00  0.00     0.023 A 
ATOM     68  C   UNL     1      -8.043  22.922  10.636  1.00  0.00     0.031 A 
ATOM     69  C   UNL     1      -8.632  21.948   8.507  1.00  0.00     0.131 A 
ATOM     70  C   UNL     1      -9.279  23.584  10.645  1.00  0.00     0.055 A 
ATOM     71  C   UNL     1      -9.838  22.648   8.497  1.00  0.00     0.041 A 
ATOM     72  F   UNL     1      -8.362  21.149   7.463  1.00  0.00    -0.206 F 
ATOM     73  C   UNL     1     -10.169  23.466   9.573  1.00  0.00     0.022 A 
BRANCH  70  74
ATOM     74  S   UNL     1      -9.731  24.567  12.098  1.00  0.00     0.124 S 
ATOM     75  O   UNL     1      -9.818  23.546  13.137  1.00  0.00    -0.237 OA
ATOM     76  O   UNL     1      -8.613  25.498  12.211  1.00  0.00    -0.237 OA
ATOM     77  O   UNL     1     -11.005  25.175  11.718  1.00  0.00    -0.744 OA
ENDBRANCH  70  74
ENDBRANCH  44  67
ENDBRANCH  18  19
ENDBRANCH  11  13
ENDBRANCH   8   9
ENDBRANCH   7   8
ENDBRANCH   6   7
ENDBRANCH   5   6
ENDBRANCH   1   5
BRANCH   2  78
ATOM     78  C   UNL     1       6.624   9.575   3.763  1.00  0.00     0.197 C 
BRANCH  78  79
ATOM     79  N   UNL     1       6.659   8.016   3.831  1.00  0.00    -0.340 N 
ATOM     80  C   UNL     1       6.819   6.861   4.548  1.00  0.00     0.243 C 
ATOM     81  H   UNL     1       6.477   7.718   2.910  1.00  0.00     0.164 HD
ATOM     82  O   UNL     1       6.831   5.903   3.746  1.00  0.00    -0.273 OA
BRANCH  80  83
ATOM     83  C   UNL     1       7.150   6.513   6.128  1.00  0.00     0.175 C 
BRANCH  83  84
ATOM     84  N   UNL     1       6.354   6.681   7.402  1.00  0.00    -0.342 N 
ATOM     85  C   UNL     1       6.053   7.662   8.299  1.00  0.00     0.243 C 
ATOM     86  H   UNL     1       5.928   5.832   7.660  1.00  0.00     0.164 HD
ATOM     87  O   UNL     1       5.712   7.362   9.443  1.00  0.00    -0.273 OA
BRANCH  85  88
ATOM     88  C   UNL     1       6.016   9.085   7.820  1.00  0.00     0.176 C 
BRANCH  88  89
ATOM     89  N   UNL     1       7.460   9.379   7.598  1.00  0.00    -0.340 N 
ATOM     90  C   UNL     1       8.391  10.350   7.781  1.00  0.00     0.251 C 
ATOM     91  H   UNL     1       7.886   8.600   7.171  1.00  0.00     0.164 HD
ATOM     92  O   UNL     1       9.561  10.023   7.558  1.00  0.00    -0.269 OA
BRANCH  90  93
ATOM     93  C   UNL     1       8.140  11.742   8.180  1.00  0.00     0.040 A 
ATOM     94  C   UNL     1       7.273  12.110   9.204  1.00  0.00     0.017 A 
ATOM     95  C   UNL     1       8.966  12.721   7.584  1.00  0.00     0.017 A 
ATOM     96  C   UNL     1       7.205  13.457   9.588  1.00  0.00     0.040 A 
ATOM     97  C   UNL     1       8.874  14.062   7.956  1.00  0.00     0.040 A 
ATOM     98  C   UNL     1       7.979  14.421   8.949  1.00  0.00     0.123 A 
ATOM     99  F   UNL     1       7.879  15.705   9.315  1.00  0.00    -0.207 F 
ENDBRANCH  90  93
ENDBRANCH  88  89
BRANCH  88 100
ATOM    100  C   UNL     1       5.124   9.036   6.554  1.00  0.00     0.070 C 
BRANCH 100 101
ATOM    101  C   UNL     1       4.013   8.030   6.185  1.00  0.00    -0.045 A 
ATOM    102  C   UNL     1       3.728   7.815   4.820  1.00  0.00     0.007 A 
ATOM    103  C   UNL     1       3.404   7.141   7.067  1.00  0.00     0.007 A 
ATOM    104  C   UNL     1       3.122   6.660   4.327  1.00  0.00     0.046 A 
ATOM    105  C   UNL     1       2.785   5.969   6.588  1.00  0.00     0.046 A 
ATOM    106  C   UNL     1       2.706   5.708   5.226  1.00  0.00     0.115 A 
BRANCH 106 107
ATOM    107  O   UNL     1       2.239   4.504   4.793  1.00  0.00    -0.508 OA
ATOM    108  H   UNL     1       2.184   4.325   3.875  1.00  0.00     0.293 HD
ENDBRANCH 106 107
ENDBRANCH 100 101
ENDBRANCH  88 100
ENDBRANCH  85  88
ENDBRANCH  83  84
BRANCH  83 109
ATOM    109  C   UNL     1       7.578   4.986   6.255  1.00  0.00     0.072 C 
BRANCH 109 110
ATOM    110  C   UNL     1       6.473   3.925   6.197  1.00  0.00    -0.020 A 
ATOM    111  C   UNL     1       6.014   3.364   5.020  1.00  0.00     0.087 A 
ATOM    112  C   UNL     1       5.783   3.208   7.262  1.00  0.00     0.003 A 
ATOM    113  N   UNL     1       5.107   2.387   5.302  1.00  0.00    -0.361 N 
ATOM    114  C   UNL     1       4.979   2.233   6.657  1.00  0.00     0.046 A 
ATOM    115  C   UNL     1       5.768   3.250   8.679  1.00  0.00     0.010 A 
ATOM    116  H   UNL     1       4.614   1.866   4.628  1.00  0.00     0.166 HD
ATOM    117  C   UNL     1       4.213   1.296   7.366  1.00  0.00     0.026 A 
ATOM    118  C   UNL     1       4.988   2.326   9.406  1.00  0.00     0.001 A 
ATOM    119  C   UNL     1       4.234   1.354   8.757  1.00  0.00     0.002 A 
ENDBRANCH 109 110
ENDBRANCH  83 109
ENDBRANCH  80  83
ENDBRANCH  78  79
BRANCH  78 120
ATOM    120  C   UNL     1       7.640  10.018   2.661  1.00  0.00     0.191 C 
BRANCH 120 121
ATOM    121  O   UNL     1       8.855  10.485   3.232  1.00  0.00    -0.394 OA
ATOM    122  H   UNL     1       8.674  11.255   3.792  1.00  0.00     0.210 HD
ENDBRANCH 120 121
ENDBRANCH  78 120
ENDBRANCH   2  78
TORSDOF 27
