REMARK SMILES CCC(C)(C)c1cccc(C(=O)NCCCCNC(=O)c2ccc(-c3c4nc(c(-c5cc(S(=O)(=O)[O-])ccc5F)c5ccc([nH]5)c(-c5cc(S(=O)(=O)[O-])ccc5F)c5nc(c(-c6cc(S(=O)(=O)[O-])ccc6F)c6ccc3[nH]6)C=C5)C=C4)cc2)c1
REMARK SMILES IDX 16 1 15 2 14 3 13 4 11 5 12 6 10 8 6 9 7 10 84 11 8 12 9 13
REMARK SMILES IDX 3 14 4 15 5 16 2 17 1 18 17 19 18 20 19 21 20 23 21 24 22 25
REMARK SMILES IDX 83 26 23 27 82 28 24 29 25 30 26 31 76 32 27 33 81 34 75 35
REMARK SMILES IDX 77 36 28 37 80 38 74 39 73 40 29 42 61 43 41 44 60 45 42 46
REMARK SMILES IDX 45 47 59 48 78 49 43 50 44 51 58 53 79 54 46 55 30 56 31 57
REMARK SMILES IDX 39 58 32 59 38 60 40 61 37 62 33 63 34 64 35 65 36 66 62 67
REMARK SMILES IDX 63 68 71 69 64 70 70 71 72 72 69 73 65 74 66 75 67 76 68 77
REMARK SMILES IDX 47 78 48 79 56 80 49 81 55 82 57 83 54 84 50 85 51 86 52 87
REMARK SMILES IDX 53 88
REMARK H PARENT 13 7 18 22 77 41 45 52
REMARK Flexibility Score: inf
ROOT
ATOM      1  C   UNL     1       3.068   5.892  -0.642  1.00  0.00     0.023 C 
ENDROOT
BRANCH   1   2
ATOM      2  C   UNL     1       2.655   4.430  -0.572  1.00  0.00     0.023 C 
BRANCH   2   3
ATOM      3  C   UNL     1       2.980   3.567  -1.781  1.00  0.00     0.116 C 
BRANCH   3   4
ATOM      4  N   UNL     1       4.393   3.409  -2.081  1.00  0.00    -0.352 N 
ATOM      5  C   UNL     1       5.118   2.288  -2.432  1.00  0.00     0.251 C 
ATOM      6  O   UNL     1       6.323   2.404  -2.650  1.00  0.00    -0.269 OA
ATOM      7  H   UNL     1       4.920   4.239  -2.024  1.00  0.00     0.163 HD
BRANCH   5   8
ATOM      8  C   UNL     1       4.503   0.931  -2.483  1.00  0.00     0.040 A 
ATOM      9  C   UNL     1       2.524  -0.505  -2.620  1.00  0.00    -0.042 A 
ATOM     10  C   UNL     1       3.318  -1.583  -2.199  1.00  0.00     0.004 A 
ATOM     11  C   UNL     1       3.177   0.717  -2.869  1.00  0.00     0.018 A 
ATOM     12  C   UNL     1       4.686  -1.420  -1.958  1.00  0.00     0.001 A 
ATOM     13  C   UNL     1       5.271  -0.159  -2.067  1.00  0.00     0.014 A 
BRANCH   9  14
ATOM     14  C   UNL     1       0.983  -0.556  -2.629  1.00  0.00    -0.011 C 
ATOM     15  C   UNL     1       0.409  -1.989  -2.581  1.00  0.00     0.016 C 
ATOM     16  C   UNL     1       0.414   0.097  -3.915  1.00  0.00     0.016 C 
BRANCH  14  17
ATOM     17  C   UNL     1       0.435   0.256  -1.407  1.00  0.00     0.008 C 
ATOM     18  C   UNL     1       0.927  -0.192  -0.031  1.00  0.00     0.005 C 
ENDBRANCH  14  17
ENDBRANCH   9  14
ENDBRANCH   5   8
ENDBRANCH   3   4
ENDBRANCH   2   3
ENDBRANCH   1   2
BRANCH   1  19
ATOM     19  C   UNL     1       2.674   6.645  -1.907  1.00  0.00     0.116 C 
BRANCH  19  20
ATOM     20  N   UNL     1       1.248   6.620  -2.195  1.00  0.00    -0.352 N 
ATOM     21  C   UNL     1       0.381   7.660  -2.467  1.00  0.00     0.251 C 
ATOM     22  H   UNL     1       0.838   5.724  -2.197  1.00  0.00     0.163 HD
ATOM     23  O   UNL     1      -0.806   7.434  -2.622  1.00  0.00    -0.269 OA
BRANCH  21  24
ATOM     24  C   UNL     1       0.895   9.050  -2.514  1.00  0.00     0.039 A 
ATOM     25  C   UNL     1       0.212  10.042  -1.803  1.00  0.00     0.014 A 
ATOM     26  C   UNL     1       2.061   9.368  -3.212  1.00  0.00     0.014 A 
ATOM     27  C   UNL     1       0.756  11.326  -1.709  1.00  0.00     0.010 A 
ATOM     28  C   UNL     1       2.643  10.623  -3.050  1.00  0.00     0.010 A 
ATOM     29  C   UNL     1       2.004  11.612  -2.286  1.00  0.00    -0.014 A 
BRANCH  29  30
ATOM     30  C   UNL     1       2.666  12.931  -2.096  1.00  0.00     0.031 A 
ATOM     31  C   UNL     1       2.949  13.808  -3.285  1.00  0.00     0.074 A 
ATOM     32  C   UNL     1       3.086  13.299  -0.869  1.00  0.00     0.049 A 
ATOM     33  N   UNL     1       3.619  14.930  -3.347  1.00  0.00    -0.248 NA
ATOM     34  C   UNL     1       2.440  13.339  -4.582  1.00  0.00     0.031 C 
ATOM     35  C   UNL     1       2.914  12.514   0.357  1.00  0.00     0.029 A 
ATOM     36  N   UNL     1       3.760  14.419  -0.449  1.00  0.00    -0.354 N 
ATOM     37  C   UNL     1       3.629  15.292  -4.690  1.00  0.00     0.074 A 
ATOM     38  C   UNL     1       2.948  14.238  -5.412  1.00  0.00     0.031 C 
ATOM     39  C   UNL     1       3.451  13.185   1.389  1.00  0.00     0.029 A 
ATOM     40  C   UNL     1       4.045  14.424   0.898  1.00  0.00     0.049 A 
ATOM     41  H   UNL     1       4.016  15.152  -1.055  1.00  0.00     0.167 HD
ATOM     42  C   UNL     1       4.138  16.410  -5.265  1.00  0.00     0.034 A 
ATOM     43  C   UNL     1       4.720  15.317   1.649  1.00  0.00     0.034 A 
ATOM     44  C   UNL     1       4.795  17.463  -4.530  1.00  0.00     0.049 A 
ATOM     45  C   UNL     1       5.277  16.552   0.988  1.00  0.00     0.074 A 
ATOM     46  C   UNL     1       5.302  18.660  -5.005  1.00  0.00     0.029 A 
ATOM     47  N   UNL     1       5.040  17.444  -3.163  1.00  0.00    -0.354 N 
ATOM     48  N   UNL     1       5.240  16.899  -0.278  1.00  0.00    -0.248 NA
ATOM     49  C   UNL     1       5.958  17.520   1.858  1.00  0.00     0.031 C 
ATOM     50  C   UNL     1       5.897  19.341  -3.937  1.00  0.00     0.029 A 
ATOM     51  C   UNL     1       5.706  18.599  -2.782  1.00  0.00     0.049 A 
ATOM     52  H   UNL     1       4.778  16.717  -2.553  1.00  0.00     0.167 HD
ATOM     53  C   UNL     1       5.866  18.140  -0.348  1.00  0.00     0.074 A 
ATOM     54  C   UNL     1       6.258  18.486   1.002  1.00  0.00     0.031 C 
ATOM     55  C   UNL     1       6.094  18.926  -1.431  1.00  0.00     0.034 A 
BRANCH  42  56
ATOM     56  C   UNL     1       4.015  16.533  -6.764  1.00  0.00     0.023 A 
ATOM     57  C   UNL     1       2.762  16.617  -7.395  1.00  0.00     0.031 A 
ATOM     58  C   UNL     1       5.162  16.538  -7.577  1.00  0.00     0.131 A 
ATOM     59  C   UNL     1       2.681  16.622  -8.796  1.00  0.00     0.055 A 
ATOM     60  C   UNL     1       5.078  16.625  -8.968  1.00  0.00     0.041 A 
ATOM     61  F   UNL     1       6.386  16.442  -7.033  1.00  0.00    -0.206 F 
ATOM     62  C   UNL     1       3.832  16.652  -9.586  1.00  0.00     0.022 A 
BRANCH  59  63
ATOM     63  S   UNL     1       1.050  16.449  -9.568  1.00  0.00     0.124 S 
ATOM     64  O   UNL     1       0.620  15.148  -9.060  1.00  0.00    -0.237 OA
ATOM     65  O   UNL     1       0.330  17.606  -9.050  1.00  0.00    -0.237 OA
ATOM     66  O   UNL     1       1.343  16.485 -11.000  1.00  0.00    -0.744 OA
ENDBRANCH  59  63
ENDBRANCH  42  56
BRANCH  43  67
ATOM     67  C   UNL     1       4.923  15.082   3.108  1.00  0.00     0.023 A 
ATOM     68  C   UNL     1       4.343  15.931   4.064  1.00  0.00     0.031 A 
ATOM     69  C   UNL     1       5.743  14.035   3.566  1.00  0.00     0.131 A 
ATOM     70  C   UNL     1       4.631  15.752   5.426  1.00  0.00     0.055 A 
ATOM     71  C   UNL     1       5.985  13.830   4.925  1.00  0.00     0.041 A 
ATOM     72  F   UNL     1       6.316  13.190   2.694  1.00  0.00    -0.206 F 
ATOM     73  C   UNL     1       5.439  14.701   5.864  1.00  0.00     0.022 A 
BRANCH  70  74
ATOM     74  S   UNL     1       4.003  16.971   6.613  1.00  0.00     0.124 S 
ATOM     75  O   UNL     1       4.563  18.212   6.090  1.00  0.00    -0.237 OA
ATOM     76  O   UNL     1       2.559  16.810   6.475  1.00  0.00    -0.237 OA
ATOM     77  O   UNL     1       4.559  16.523   7.887  1.00  0.00    -0.744 OA
ENDBRANCH  70  74
ENDBRANCH  43  67
BRANCH  55  78
ATOM     78  C   UNL     1       6.755  20.258  -1.181  1.00  0.00     0.023 A 
ATOM     79  C   UNL     1       8.095  20.353  -0.767  1.00  0.00     0.031 A 
ATOM     80  C   UNL     1       6.026  21.448  -1.348  1.00  0.00     0.131 A 
ATOM     81  C   UNL     1       8.649  21.610  -0.483  1.00  0.00     0.055 A 
ATOM     82  C   UNL     1       6.599  22.699  -1.117  1.00  0.00     0.041 A 
ATOM     83  F   UNL     1       4.742  21.413  -1.741  1.00  0.00    -0.206 F 
ATOM     84  C   UNL     1       7.915  22.784  -0.670  1.00  0.00     0.022 A 
BRANCH  81  85
ATOM     85  S   UNL     1      10.323  21.687   0.212  1.00  0.00     0.124 S 
ATOM     86  O   UNL     1      10.178  20.911   1.440  1.00  0.00    -0.237 OA
ATOM     87  O   UNL     1      11.127  21.073  -0.839  1.00  0.00    -0.237 OA
ATOM     88  O   UNL     1      10.548  23.119   0.407  1.00  0.00    -0.744 OA
ENDBRANCH  81  85
ENDBRANCH  55  78
ENDBRANCH  29  30
ENDBRANCH  21  24
ENDBRANCH  19  20
ENDBRANCH   1  19
TORSDOF 16
