REMARK SMILES Cc1ccc(OCC(=O)N[C@H](C)C(=O)NCCCCNC(=O)c2ccc(-c3c4nc(c(-c5cc(S(=O)(=O)[O-])ccc5F)c5ccc([nH]5)c(-c5cc(S(=O)(=O)[O-])ccc5F)c5nc(c(-c6cc(S(=O)(=O)[O-])ccc6F)c6ccc3[nH]6)C=C5)C=C4)cc2)c(Br)c1
REMARK SMILES IDX 17 1 16 2 15 3 13 4 14 5 11 7 12 8 10 9 8 10 9 11 7 13 6 14
REMARK SMILES IDX 5 15 1 16 2 17 3 18 88 19 4 20 86 21 87 22 18 23 19 24 20 25
REMARK SMILES IDX 21 26 22 28 23 29 24 30 85 31 25 32 84 33 26 34 27 35 28 36
REMARK SMILES IDX 78 37 29 38 83 39 77 40 79 41 30 42 82 43 76 44 75 45 31 47
REMARK SMILES IDX 63 48 43 49 62 50 44 51 47 52 61 53 80 54 45 55 46 56 60 58
REMARK SMILES IDX 81 59 48 60 32 61 33 62 41 63 34 64 40 65 42 66 39 67 35 68
REMARK SMILES IDX 36 69 37 70 38 71 64 72 65 73 73 74 66 75 72 76 74 77 71 78
REMARK SMILES IDX 67 79 68 80 69 81 70 82 49 83 50 84 58 85 51 86 57 87 59 88
REMARK SMILES IDX 56 89 52 90 53 91 54 92 55 93
REMARK H PARENT 15 6 10 12 20 27 79 46 47 57
REMARK Flexibility Score: inf
ROOT
ATOM      1  C   UNL     1      -1.608   6.261  -5.518  1.00  0.00     0.023 C 
ENDROOT
BRANCH   1   2
ATOM      2  C   UNL     1      -0.541   5.227  -5.139  1.00  0.00     0.116 C 
BRANCH   2   3
ATOM      3  N   UNL     1       0.551   5.779  -4.361  1.00  0.00    -0.354 N 
ATOM      4  C   UNL     1       1.367   5.203  -3.434  1.00  0.00     0.242 C 
ATOM      5  O   UNL     1       2.258   5.909  -2.950  1.00  0.00    -0.273 OA
ATOM      6  H   UNL     1       0.734   6.731  -4.531  1.00  0.00     0.163 HD
BRANCH   4   7
ATOM      7  C   UNL     1       1.109   3.805  -2.840  1.00  0.00     0.168 C 
ATOM      8  C   UNL     1      -0.053   3.869  -1.848  1.00  0.00     0.041 C 
BRANCH   7   9
ATOM      9  N   UNL     1       0.911   2.701  -3.772  1.00  0.00    -0.342 N 
ATOM     10  C   UNL     1       1.885   1.926  -4.335  1.00  0.00     0.258 C 
ATOM     11  O   UNL     1       1.591   0.756  -4.598  1.00  0.00    -0.271 OA
ATOM     12  H   UNL     1      -0.019   2.494  -4.020  1.00  0.00     0.164 HD
BRANCH  10  13
ATOM     13  C   UNL     1       3.294   2.499  -4.643  1.00  0.00     0.329 C 
BRANCH  13  14
ATOM     14  O   UNL     1       3.663   3.021  -5.918  1.00  0.00    -0.483 OA
BRANCH  14  15
ATOM     15  C   UNL     1       2.692   2.926  -6.872  1.00  0.00     0.134 A 
ATOM     16  C   UNL     1      -0.776   2.687  -9.408  1.00  0.00     0.044 C 
ATOM     17  C   UNL     1       0.481   2.740  -8.590  1.00  0.00    -0.050 A 
ATOM     18  C   UNL     1       1.133   1.587  -8.161  1.00  0.00     0.007 A 
ATOM     19  C   UNL     1       1.022   3.980  -8.239  1.00  0.00     0.023 A 
ATOM     20  C   UNL     1       2.244   1.681  -7.318  1.00  0.00     0.048 A 
ATOM     21  C   UNL     1       2.144   4.082  -7.415  1.00  0.00     0.060 A 
ATOM     22  Br  UNL     1       2.857   5.795  -7.019  1.00  0.00    -0.047 Br
ENDBRANCH  14  15
ENDBRANCH  13  14
ENDBRANCH  10  13
ENDBRANCH   7   9
ENDBRANCH   4   7
ENDBRANCH   2   3
ENDBRANCH   1   2
BRANCH   1  23
ATOM     23  C   UNL     1      -1.185   7.504  -6.323  1.00  0.00     0.023 C 
BRANCH  23  24
ATOM     24  C   UNL     1      -0.779   7.343  -7.793  1.00  0.00     0.116 C 
BRANCH  24  25
ATOM     25  N   UNL     1      -1.677   6.537  -8.601  1.00  0.00    -0.352 N 
ATOM     26  C   UNL     1      -1.698   6.394  -9.974  1.00  0.00     0.251 C 
ATOM     27  H   UNL     1      -2.357   6.026  -8.107  1.00  0.00     0.163 HD
ATOM     28  O   UNL     1      -2.573   5.707 -10.497  1.00  0.00    -0.269 OA
BRANCH  26  29
ATOM     29  C   UNL     1      -0.712   7.108 -10.819  1.00  0.00     0.039 A 
ATOM     30  C   UNL     1      -1.184   7.961 -11.821  1.00  0.00     0.014 A 
ATOM     31  C   UNL     1       0.664   6.959 -10.634  1.00  0.00     0.014 A 
ATOM     32  C   UNL     1      -0.281   8.737 -12.555  1.00  0.00     0.010 A 
ATOM     33  C   UNL     1       1.563   7.755 -11.340  1.00  0.00     0.010 A 
ATOM     34  C   UNL     1       1.095   8.678 -12.280  1.00  0.00    -0.014 A 
BRANCH  34  35
ATOM     35  C   UNL     1       2.042   9.661 -12.863  1.00  0.00     0.031 A 
ATOM     36  C   UNL     1       3.093   9.239 -13.848  1.00  0.00     0.074 A 
ATOM     37  C   UNL     1       1.990  10.932 -12.419  1.00  0.00     0.049 A 
ATOM     38  N   UNL     1       4.018   9.963 -14.423  1.00  0.00    -0.248 NA
ATOM     39  C   UNL     1       3.119   7.817 -14.219  1.00  0.00     0.031 C 
ATOM     40  C   UNL     1       1.046  11.434 -11.415  1.00  0.00     0.029 A 
ATOM     41  N   UNL     1       2.744  12.031 -12.739  1.00  0.00    -0.354 N 
ATOM     42  C   UNL     1       4.727   9.093 -15.243  1.00  0.00     0.074 A 
ATOM     43  C   UNL     1       4.161   7.774 -15.038  1.00  0.00     0.031 C 
ATOM     44  C   UNL     1       1.260  12.745 -11.225  1.00  0.00     0.029 A 
ATOM     45  C   UNL     1       2.378  13.171 -12.059  1.00  0.00     0.049 A 
ATOM     46  H   UNL     1       3.479  12.008 -13.394  1.00  0.00     0.167 HD
ATOM     47  C   UNL     1       5.738   9.374 -16.103  1.00  0.00     0.034 A 
ATOM     48  C   UNL     1       2.888  14.417 -12.102  1.00  0.00     0.034 A 
ATOM     49  C   UNL     1       6.308  10.690 -16.271  1.00  0.00     0.049 A 
ATOM     50  C   UNL     1       4.034  14.695 -13.041  1.00  0.00     0.074 A 
ATOM     51  C   UNL     1       7.337  11.089 -17.106  1.00  0.00     0.029 A 
ATOM     52  N   UNL     1       5.899  11.825 -15.581  1.00  0.00    -0.354 N 
ATOM     53  N   UNL     1       4.658  13.868 -13.847  1.00  0.00    -0.248 NA
ATOM     54  C   UNL     1       4.533  16.075 -13.088  1.00  0.00     0.031 C 
ATOM     55  C   UNL     1       7.580  12.450 -16.889  1.00  0.00     0.029 A 
ATOM     56  C   UNL     1       6.662  12.917 -15.963  1.00  0.00     0.049 A 
ATOM     57  H   UNL     1       5.172  11.850 -14.916  1.00  0.00     0.167 HD
ATOM     58  C   UNL     1       5.593  14.640 -14.530  1.00  0.00     0.074 A 
ATOM     59  C   UNL     1       5.446  15.997 -14.045  1.00  0.00     0.031 C 
ATOM     60  C   UNL     1       6.488  14.265 -15.477  1.00  0.00     0.034 A 
BRANCH  47  61
ATOM     61  C   UNL     1       6.291   8.230 -16.917  1.00  0.00     0.023 A 
ATOM     62  C   UNL     1       5.497   7.564 -17.868  1.00  0.00     0.031 A 
ATOM     63  C   UNL     1       7.614   7.788 -16.738  1.00  0.00     0.131 A 
ATOM     64  C   UNL     1       6.009   6.454 -18.555  1.00  0.00     0.055 A 
ATOM     65  C   UNL     1       8.141   6.728 -17.479  1.00  0.00     0.041 A 
ATOM     66  F   UNL     1       8.414   8.374 -15.834  1.00  0.00    -0.206 F 
ATOM     67  C   UNL     1       7.333   6.045 -18.384  1.00  0.00     0.022 A 
BRANCH  64  68
ATOM     68  S   UNL     1       4.881   5.480 -19.589  1.00  0.00     0.124 S 
ATOM     69  O   UNL     1       3.909   5.013 -18.604  1.00  0.00    -0.237 OA
ATOM     70  O   UNL     1       4.396   6.467 -20.546  1.00  0.00    -0.237 OA
ATOM     71  O   UNL     1       5.741   4.439 -20.148  1.00  0.00    -0.744 OA
ENDBRANCH  64  68
ENDBRANCH  47  61
BRANCH  48  72
ATOM     72  C   UNL     1       2.321  15.500 -11.250  1.00  0.00     0.023 A 
ATOM     73  C   UNL     1       1.713  16.625 -11.828  1.00  0.00     0.031 A 
ATOM     74  C   UNL     1       2.426  15.455  -9.848  1.00  0.00     0.131 A 
ATOM     75  C   UNL     1       1.290  17.688 -11.016  1.00  0.00     0.055 A 
ATOM     76  C   UNL     1       1.951  16.490  -9.040  1.00  0.00     0.041 A 
ATOM     77  F   UNL     1       2.988  14.398  -9.242  1.00  0.00    -0.206 F 
ATOM     78  C   UNL     1       1.395  17.623  -9.625  1.00  0.00     0.022 A 
BRANCH  75  79
ATOM     79  S   UNL     1       0.705  19.208 -11.814  1.00  0.00     0.124 S 
ATOM     80  O   UNL     1       1.815  19.522 -12.707  1.00  0.00    -0.237 OA
ATOM     81  O   UNL     1      -0.526  18.756 -12.454  1.00  0.00    -0.237 OA
ATOM     82  O   UNL     1       0.523  20.130 -10.695  1.00  0.00    -0.744 OA
ENDBRANCH  75  79
ENDBRANCH  48  72
BRANCH  60  83
ATOM     83  C   UNL     1       7.322  15.356 -16.097  1.00  0.00     0.023 A 
ATOM     84  C   UNL     1       8.323  16.026 -15.374  1.00  0.00     0.031 A 
ATOM     85  C   UNL     1       7.099  15.733 -17.433  1.00  0.00     0.131 A 
ATOM     86  C   UNL     1       9.034  17.075 -15.978  1.00  0.00     0.055 A 
ATOM     87  C   UNL     1       7.843  16.743 -18.044  1.00  0.00     0.041 A 
ATOM     88  F   UNL     1       6.153  15.124 -18.165  1.00  0.00    -0.206 F 
ATOM     89  C   UNL     1       8.809  17.427 -17.312  1.00  0.00     0.022 A 
BRANCH  86  90
ATOM     90  S   UNL     1      10.213  18.020 -14.976  1.00  0.00     0.124 S 
ATOM     91  O   UNL     1       9.352  18.577 -13.937  1.00  0.00    -0.237 OA
ATOM     92  O   UNL     1      11.151  16.990 -14.541  1.00  0.00    -0.237 OA
ATOM     93  O   UNL     1      10.760  18.995 -15.917  1.00  0.00    -0.744 OA
ENDBRANCH  86  90
ENDBRANCH  60  83
ENDBRANCH  34  35
ENDBRANCH  26  29
ENDBRANCH  24  25
ENDBRANCH  23  24
ENDBRANCH   1  23
TORSDOF 18
